# generated using pymatgen
data_SbH6N2F5
_symmetry_space_group_name_H-M   'P 1'
_cell_length_a   5.86656334
_cell_length_b   7.00877600
_cell_length_c   13.05848514
_cell_angle_alpha   90.00000000
_cell_angle_beta   90.00000000
_cell_angle_gamma   90.00000000
_symmetry_Int_Tables_number   1
_chemical_formula_structural   SbH6N2F5
_chemical_formula_sum   'Sb4 H24 N8 F20'
_cell_volume   536.93132697
_cell_formula_units_Z   4
loop_
 _symmetry_equiv_pos_site_id
 _symmetry_equiv_pos_as_xyz
  1  'x, y, z'
loop_
 _atom_site_type_symbol
 _atom_site_label
 _atom_site_symmetry_multiplicity
 _atom_site_fract_x
 _atom_site_fract_y
 _atom_site_fract_z
 _atom_site_occupancy
  Sb  Sb0  1  0.39837520  0.48536599  0.75000000  1
  Sb  Sb1  1  0.89837520  0.01463401  0.75000000  1
  Sb  Sb2  1  0.60162480  0.51463401  0.25000000  1
  Sb  Sb3  1  0.10162480  0.98536599  0.25000000  1
  H  H4  1  0.25548298  0.02680586  0.00577360  1
  H  H5  1  0.75548298  0.47319414  0.49422640  1
  H  H6  1  0.74451702  0.97319414  0.50577360  1
  H  H7  1  0.24451702  0.52680586  0.99422640  1
  H  H8  1  0.74451702  0.97319414  0.99422640  1
  H  H9  1  0.24451702  0.52680586  0.50577360  1
  H  H10  1  0.25548298  0.02680586  0.49422640  1
  H  H11  1  0.75548298  0.47319414  0.00577360  1
  H  H12  1  0.42727981  0.09006690  0.90630585  1
  H  H13  1  0.92727981  0.40993310  0.59369415  1
  H  H14  1  0.57272019  0.90993310  0.40630585  1
  H  H15  1  0.07272019  0.59006690  0.09369415  1
  H  H16  1  0.57272019  0.90993310  0.09369415  1
  H  H17  1  0.07272019  0.59006690  0.40630585  1
  H  H18  1  0.42727981  0.09006690  0.59369415  1
  H  H19  1  0.92727981  0.40993310  0.90630585  1
  H  H20  1  0.40241279  0.84737717  0.93547333  1
  H  H21  1  0.90241279  0.65262283  0.56452667  1
  H  H22  1  0.59758721  0.15262283  0.43547333  1
  H  H23  1  0.09758721  0.34737717  0.06452667  1
  H  H24  1  0.59758721  0.15262283  0.06452667  1
  H  H25  1  0.09758721  0.34737717  0.43547333  1
  H  H26  1  0.40241279  0.84737717  0.56452667  1
  H  H27  1  0.90241279  0.65262283  0.93547333  1
  N  N28  1  0.40542351  0.99115720  0.96492663  1
  N  N29  1  0.90542351  0.50884280  0.53507337  1
  N  N30  1  0.59457649  0.00884280  0.46492663  1
  N  N31  1  0.09457649  0.49115720  0.03507337  1
  N  N32  1  0.59457649  0.00884280  0.03507337  1
  N  N33  1  0.09457649  0.49115720  0.46492663  1
  N  N34  1  0.40542351  0.99115720  0.53507337  1
  N  N35  1  0.90542351  0.50884280  0.96492663  1
  F  F36  1  0.09511362  0.60602904  0.75000000  1
  F  F37  1  0.59511362  0.89397096  0.75000000  1
  F  F38  1  0.90488638  0.39397096  0.25000000  1
  F  F39  1  0.40488638  0.10602904  0.25000000  1
  F  F40  1  0.25581288  0.29177430  0.65065842  1
  F  F41  1  0.75581288  0.20822570  0.84934158  1
  F  F42  1  0.74418712  0.70822570  0.15065842  1
  F  F43  1  0.24418712  0.79177430  0.34934158  1
  F  F44  1  0.74418712  0.70822570  0.34934158  1
  F  F45  1  0.24418712  0.79177430  0.15065842  1
  F  F46  1  0.25581288  0.29177430  0.84934158  1
  F  F47  1  0.75581288  0.20822570  0.65065842  1
  F  F48  1  0.41140931  0.63389874  0.91070826  1
  F  F49  1  0.91140931  0.86610126  0.58929174  1
  F  F50  1  0.58859069  0.36610126  0.41070826  1
  F  F51  1  0.08859069  0.13389874  0.08929174  1
  F  F52  1  0.58859069  0.36610126  0.08929174  1
  F  F53  1  0.08859069  0.13389874  0.41070826  1
  F  F54  1  0.41140931  0.63389874  0.58929174  1
  F  F55  1  0.91140931  0.86610126  0.91070826  1
