# generated using pymatgen
data_AsH6N2F5
_symmetry_space_group_name_H-M   'P 1'
_cell_length_a   4.48738935
_cell_length_b   7.68532925
_cell_length_c   17.27504273
_cell_angle_alpha   90.00000000
_cell_angle_beta   90.00000000
_cell_angle_gamma   90.00000000
_symmetry_Int_Tables_number   1
_chemical_formula_structural   AsH6N2F5
_chemical_formula_sum   'As4 H24 N8 F20'
_cell_volume   595.76551508
_cell_formula_units_Z   4
loop_
 _symmetry_equiv_pos_site_id
 _symmetry_equiv_pos_as_xyz
  1  'x, y, z'
loop_
 _atom_site_type_symbol
 _atom_site_label
 _atom_site_symmetry_multiplicity
 _atom_site_fract_x
 _atom_site_fract_y
 _atom_site_fract_z
 _atom_site_occupancy
  As  As0  1  0.92532152  0.77276997  0.76725895  1
  As  As1  1  0.92532152  0.22723003  0.23274105  1
  As  As2  1  0.42532152  0.72723003  0.26725895  1
  As  As3  1  0.42532152  0.27276997  0.73274105  1
  H  H4  1  0.22576780  0.12111462  0.56452206  1
  H  H5  1  0.22576780  0.87888538  0.43547794  1
  H  H6  1  0.72576780  0.37888538  0.06452206  1
  H  H7  1  0.72576780  0.62111462  0.93547794  1
  H  H8  1  0.41021874  0.91956801  0.55709159  1
  H  H9  1  0.41021874  0.08043199  0.44290841  1
  H  H10  1  0.91021874  0.58043199  0.05709159  1
  H  H11  1  0.91021874  0.41956801  0.94290841  1
  H  H12  1  0.01442695  0.92819286  0.55818403  1
  H  H13  1  0.01442695  0.07180714  0.44181597  1
  H  H14  1  0.51442695  0.57180714  0.05818403  1
  H  H15  1  0.51442695  0.42819286  0.94181597  1
  H  H16  1  0.21082292  0.13600582  0.94047561  1
  H  H17  1  0.21082292  0.86399418  0.05952439  1
  H  H18  1  0.71082292  0.36399418  0.44047561  1
  H  H19  1  0.71082292  0.63600582  0.55952439  1
  H  H20  1  0.02958224  0.92876180  0.93872256  1
  H  H21  1  0.02958224  0.07123820  0.06127744  1
  H  H22  1  0.52958224  0.57123820  0.43872256  1
  H  H23  1  0.52958224  0.42876180  0.56127744  1
  H  H24  1  0.41487766  0.93840012  0.93784257  1
  H  H25  1  0.41487766  0.06159988  0.06215743  1
  H  H26  1  0.91487766  0.56159988  0.43784257  1
  H  H27  1  0.91487766  0.43840012  0.56215743  1
  N  N28  1  0.21314271  0.99250702  0.54181983  1
  N  N29  1  0.21314271  0.00749298  0.45818017  1
  N  N30  1  0.71314271  0.50749298  0.04181983  1
  N  N31  1  0.71314271  0.49250702  0.95818017  1
  N  N32  1  0.22127612  -0.00014753  0.95792129  1
  N  N33  1  0.22127612  0.00014753  0.04207871  1
  N  N34  1  0.72127612  0.50014753  0.45792129  1
  N  N35  1  0.72127612  0.49985247  0.54207871  1
  F  F36  1  0.74567872  0.82534628  0.91426860  1
  F  F37  1  0.74567872  0.17465372  0.08573140  1
  F  F38  1  0.24567872  0.67465372  0.41426860  1
  F  F39  1  0.24567872  0.32534628  0.58573140  1
  F  F40  1  0.70079067  0.82639068  0.56124103  1
  F  F41  1  0.70079067  0.17360932  0.43875897  1
  F  F42  1  0.20079067  0.67360932  0.06124103  1
  F  F43  1  0.20079067  0.32639068  0.93875897  1
  F  F44  1  0.12677830  0.72437105  0.68086383  1
  F  F45  1  0.12677830  0.27562895  0.31913617  1
  F  F46  1  0.62677830  0.77562895  0.18086383  1
  F  F47  1  0.62677830  0.22437105  0.81913617  1
  F  F48  1  0.13829683  0.61885452  0.82129910  1
  F  F49  1  0.13829683  0.38114548  0.17870090  1
  F  F50  1  0.63829683  0.88114548  0.32129910  1
  F  F51  1  0.63829683  0.11885452  0.67870090  1
  F  F52  1  0.16761883  0.95157057  0.78909460  1
  F  F53  1  0.16761883  0.04842943  0.21090540  1
  F  F54  1  0.66761883  0.54842943  0.28909460  1
  F  F55  1  0.66761883  0.45157057  0.71090540  1
