# generated using pymatgen
data_NdH10S3N3O11
_symmetry_space_group_name_H-M   'P 1'
_cell_length_a   8.11106850
_cell_length_b   9.39834932
_cell_length_c   9.36116991
_cell_angle_alpha   116.99651032
_cell_angle_beta   96.16460953
_cell_angle_gamma   91.58604907
_symmetry_Int_Tables_number   1
_chemical_formula_structural   NdH10S3N3O11
_chemical_formula_sum   'Nd2 H20 S6 N6 O22'
_cell_volume   629.81558283
_cell_formula_units_Z   2
loop_
 _symmetry_equiv_pos_site_id
 _symmetry_equiv_pos_as_xyz
  1  'x, y, z'
loop_
 _atom_site_type_symbol
 _atom_site_label
 _atom_site_symmetry_multiplicity
 _atom_site_fract_x
 _atom_site_fract_y
 _atom_site_fract_z
 _atom_site_occupancy
  Nd  Nd0  1  0.78297071  0.61273518  0.77720764  1
  Nd  Nd1  1  0.21702929  0.38726482  0.22279236  1
  H  H2  1  0.79357221  0.56094752  0.26363628  1
  H  H3  1  0.20642779  0.43905248  0.73636372  1
  H  H4  1  0.84308920  0.75851955  0.37370128  1
  H  H5  1  0.15691080  0.24148045  0.62629872  1
  H  H6  1  0.30948333  0.89959999  0.31978116  1
  H  H7  1  0.69051667  0.10040001  0.68021884  1
  H  H8  1  0.11296144  0.94806761  0.30520083  1
  H  H9  1  0.88703856  0.05193239  0.69479917  1
  H  H10  1  0.63489103  0.21028197  0.22398727  1
  H  H11  1  0.36510897  0.78971803  0.77601273  1
  H  H12  1  0.62707260  0.09724135  0.31865620  1
  H  H13  1  0.37292740  0.90275865  0.68134380  1
  H  H14  1  0.73743315  0.96568510  0.85180349  1
  H  H15  1  0.26256685  0.03431490  0.14819651  1
  H  H16  1  0.71887259  0.95535192  0.01606054  1
  H  H17  1  0.28112741  0.04464808  0.98393946  1
  H  H18  1  0.51205473  0.65638149  -0.00013121  1
  H  H19  1  0.48794527  0.34361851  0.00013121  1
  H  H20  1  0.67506979  0.66920295  0.11810209  1
  H  H21  1  0.32493021  0.33079705  0.88189791  1
  S  S22  1  0.59779722  0.67892502  0.41831050  1
  S  S23  1  0.40220278  0.32107498  0.58168950  1
  S  S24  1  0.15057076  0.71515535  0.09747529  1
  S  S25  1  0.84942924  0.28484465  0.90252471  1
  S  S26  1  0.87231609  0.24193331  0.38353672  1
  S  S27  1  0.12768391  0.75806669  0.61646328  1
  N  N28  1  0.74771940  0.67137744  0.30545127  1
  N  N29  1  0.25228060  0.32862256  0.69454873  1
  N  N30  1  0.21110576  0.90171985  0.24165428  1
  N  N31  1  0.78889424  0.09828015  0.75834572  1
  N  N32  1  0.70043572  0.13689586  0.25894873  1
  N  N33  1  0.29956428  0.86310414  0.74105127  1
  O  O34  1  0.51263855  0.82004179  0.44204498  1
  O  O35  1  0.48736145  0.17995821  0.55795502  1
  O  O36  1  0.50151114  0.47563248  0.68235288  1
  O  O37  1  0.49848886  0.52436752  0.31764712  1
  O  O38  1  0.67645406  0.68850197  0.57188862  1
  O  O39  1  0.32354594  0.31149803  0.42811138  1
  O  O40  1  0.98693319  0.73324371  0.02736000  1
  O  O41  1  0.01306681  0.26675629  0.97264000  1
  O  O42  1  0.27617512  0.66916748  0.98761916  1
  O  O43  1  0.72382488  0.33083252  0.01238084  1
  O  O44  1  0.86318153  0.38953042  0.82426554  1
  O  O45  1  0.13681847  0.61046958  0.17573446  1
  O  O46  1  0.94930406  0.13447231  0.43944788  1
  O  O47  1  0.05069594  0.86552769  0.56055212  1
  O  O48  1  0.82615908  0.39017960  0.51562982  1
  O  O49  1  0.17384092  0.60982040  0.48437018  1
  O  O50  1  0.03378662  0.71921645  0.72196064  1
  O  O51  1  0.96621338  0.28078355  0.27803936  1
  O  O52  1  0.71127126  0.89169643  0.89785382  1
  O  O53  1  0.28872874  0.10830357  0.10214618  1
  O  O54  1  0.63413984  0.66624883  0.01166284  1
  O  O55  1  0.36586016  0.33375117  0.98833716  1
