# generated using pymatgen
data_Co3P2O9
_symmetry_space_group_name_H-M   'P 1'
_cell_length_a   7.94923807
_cell_length_b   9.38631586
_cell_length_c   9.56380941
_cell_angle_alpha   115.46111737
_cell_angle_beta   90.00000000
_cell_angle_gamma   90.00000000
_symmetry_Int_Tables_number   1
_chemical_formula_structural   Co3P2O9
_chemical_formula_sum   'Co12 P8 O36'
_cell_volume   644.28835756
_cell_formula_units_Z   4
loop_
 _symmetry_equiv_pos_site_id
 _symmetry_equiv_pos_as_xyz
  1  'x, y, z'
loop_
 _atom_site_type_symbol
 _atom_site_label
 _atom_site_symmetry_multiplicity
 _atom_site_fract_x
 _atom_site_fract_y
 _atom_site_fract_z
 _atom_site_occupancy
  Co  Co0  1  0.40653183  0.96496267  0.23538475  1
  Co  Co1  1  0.90653183  0.53503733  0.76461525  1
  Co  Co2  1  0.59346817  0.03503733  0.76461525  1
  Co  Co3  1  0.09346817  0.46496267  0.23538475  1
  Co  Co4  1  0.39328290  0.59375209  0.10950222  1
  Co  Co5  1  0.89328290  0.90624791  0.89049778  1
  Co  Co6  1  0.60671710  0.40624791  0.89049778  1
  Co  Co7  1  0.10671710  0.09375209  0.10950222  1
  Co  Co8  1  0.31661330  0.53401804  0.58171990  1
  Co  Co9  1  0.81661330  0.96598196  0.41828010  1
  Co  Co10  1  0.68338670  0.46598196  0.41828010  1
  Co  Co11  1  0.18338670  0.03401804  0.58171990  1
  P  P12  1  0.03756061  0.76767360  0.12396760  1
  P  P13  1  0.53756061  0.73232640  0.87603240  1
  P  P14  1  0.96243939  0.23232640  0.87603240  1
  P  P15  1  0.46243939  0.26767360  0.12396760  1
  P  P16  1  0.48787903  0.79649533  0.48490091  1
  P  P17  1  0.98787903  0.70350467  0.51509909  1
  P  P18  1  0.51212097  0.20350467  0.51509909  1
  P  P19  1  0.01212097  0.29649533  0.48490091  1
  O  O20  1  0.13512692  0.63340981  0.14534298  1
  O  O21  1  0.63512692  0.86659019  0.85465702  1
  O  O22  1  0.86487308  0.36659019  0.85465702  1
  O  O23  1  0.36487308  0.13340981  0.14534298  1
  O  O24  1  0.37307493  0.68826842  0.78294031  1
  O  O25  1  0.87307493  0.81173158  0.21705969  1
  O  O26  1  0.62692507  0.31173158  0.21705969  1
  O  O27  1  0.12692507  0.18826842  0.78294031  1
  O  O28  1  0.49161066  0.78353022  0.04895582  1
  O  O29  1  0.99161066  0.71646978  0.95104418  1
  O  O30  1  0.50838934  0.21646978  0.95104418  1
  O  O31  1  0.00838934  0.28353022  0.04895582  1
  O  O32  1  0.15754148  0.91490264  0.18065713  1
  O  O33  1  0.65754148  0.58509736  0.81934287  1
  O  O34  1  0.84245852  0.08509736  0.81934287  1
  O  O35  1  0.34245852  0.41490264  0.18065713  1
  O  O36  1  0.16178235  0.61684544  0.46959598  1
  O  O37  1  0.66178235  0.88315456  0.53040402  1
  O  O38  1  0.83821765  0.38315456  0.53040402  1
  O  O39  1  0.33821765  0.11684544  0.46959598  1
  O  O40  1  0.42587389  0.77704137  0.32429366  1
  O  O41  1  0.92587389  0.72295863  0.67570634  1
  O  O42  1  0.57412611  0.22295863  0.67570634  1
  O  O43  1  0.07412611  0.27704137  0.32429366  1
  O  O44  1  0.50786245  0.63386466  0.49002587  1
  O  O45  1  0.00786245  0.86613534  0.50997413  1
  O  O46  1  0.49213755  0.36613534  0.50997413  1
  O  O47  1  0.99213755  0.13386466  0.49002587  1
  O  O48  1  0.37183416  0.90904716  0.61866758  1
  O  O49  1  0.87183416  0.59095284  0.38133242  1
  O  O50  1  0.62816584  0.09095284  0.38133242  1
  O  O51  1  0.12816584  0.40904716  0.61866758  1
  O  O52  1  0.12854414  0.96857932  0.91395314  1
  O  O53  1  0.62854414  0.53142068  0.08604686  1
  O  O54  1  0.87145586  0.03142068  0.08604686  1
  O  O55  1  0.37145586  0.46857932  0.91395314  1
