# generated using pymatgen
data_HgB4O7
_symmetry_space_group_name_H-M   'P 1'
_cell_length_a   4.24180230
_cell_length_b   4.44825599
_cell_length_c   10.83168600
_cell_angle_alpha   90.00000000
_cell_angle_beta   90.00000000
_cell_angle_gamma   90.00000000
_symmetry_Int_Tables_number   1
_chemical_formula_structural   HgB4O7
_chemical_formula_sum   'Hg2 B8 O14'
_cell_volume   204.37899406
_cell_formula_units_Z   2
loop_
 _symmetry_equiv_pos_site_id
 _symmetry_equiv_pos_as_xyz
  1  'x, y, z'
loop_
 _atom_site_type_symbol
 _atom_site_label
 _atom_site_symmetry_multiplicity
 _atom_site_fract_x
 _atom_site_fract_y
 _atom_site_fract_z
 _atom_site_occupancy
  B  B0  1  0.40852268  0.32631111  0.12061705  1
  B  B1  1  0.93112031  0.17298682  0.75122266  1
  B  B2  1  0.43112031  0.82701318  0.74877734  1
  B  B3  1  0.90852268  0.67368889  0.37938295  1
  B  B4  1  0.90852268  0.67368889  0.62061705  1
  B  B5  1  0.40852268  0.32631111  0.87938295  1
  B  B6  1  0.93112031  0.17298682  0.24877734  1
  B  B7  1  0.43112031  0.82701318  0.25122266  1
  O  O8  1  0.07219485  0.26697099  0.86516206  1
  O  O9  1  0.57219485  0.73302901  0.63483794  1
  O  O10  1  0.48014773  0.64439489  0.14170368  1
  O  O11  1  0.98014773  0.35560511  0.35829632  1
  O  O12  1  0.98014773  0.35560511  0.64170368  1
  O  O13  1  0.48014773  0.64439489  0.85829632  1
  O  O14  1  0.57597598  0.13293295  0.22089741  1
  O  O15  1  0.07597598  0.86706705  0.27910259  1
  O  O16  1  0.07597598  0.86706705  0.72089741  1
  O  O17  1  0.57597598  0.13293295  0.77910259  1
  O  O18  1  0.51655171  0.23300269  0.00000000  1
  O  O19  1  0.01655171  0.76699731  0.50000000  1
  O  O20  1  0.07219485  0.26697099  0.13483794  1
  O  O21  1  0.57219485  0.73302901  0.36516206  1
  Hg  Hg22  1  0.39269520  0.17684467  0.50000000  1
  Hg  Hg23  1  0.89269520  0.82315533  0.00000000  1
