# generated using pymatgen
data_Na4Sn2Ge5O17
_symmetry_space_group_name_H-M   'P 1'
_cell_length_a   5.45547412
_cell_length_b   7.08440390
_cell_length_c   20.43232987
_cell_angle_alpha   93.24730012
_cell_angle_beta   90.00000000
_cell_angle_gamma   90.00000000
_symmetry_Int_Tables_number   1
_chemical_formula_structural   Na4Sn2Ge5O17
_chemical_formula_sum   'Na8 Sn4 Ge10 O34'
_cell_volume   788.41670095
_cell_formula_units_Z   2
loop_
 _symmetry_equiv_pos_site_id
 _symmetry_equiv_pos_as_xyz
  1  'x, y, z'
loop_
 _atom_site_type_symbol
 _atom_site_label
 _atom_site_symmetry_multiplicity
 _atom_site_fract_x
 _atom_site_fract_y
 _atom_site_fract_z
 _atom_site_occupancy
  Na  Na0  1  0.76636944  0.79054963  0.54037300  1
  Na  Na1  1  0.76636944  0.20945037  0.45962700  1
  Na  Na2  1  0.01176631  0.39393647  0.77899359  1
  Na  Na3  1  0.01176631  0.60606353  0.22100641  1
  Na  Na4  1  0.77043010  0.69850343  0.95977276  1
  Na  Na5  1  0.77043010  0.30149657  0.04022724  1
  Na  Na6  1  0.52516923  0.11866968  0.72315308  1
  Na  Na7  1  0.52516923  0.88133032  0.27684692  1
  Sn  Sn8  1  0.01060493  0.95324030  0.84019475  1
  Sn  Sn9  1  0.01060493  0.04675970  0.15980525  1
  Sn  Sn10  1  0.52977200  0.54533891  0.66089258  1
  Sn  Sn11  1  0.52977200  0.45466109  0.33910742  1
  Ge  Ge12  1  0.05079868  0.85954745  0.67429181  1
  Ge  Ge13  1  0.05079868  0.14045255  0.32570819  1
  Ge  Ge14  1  0.52096863  0.23162929  0.88489081  1
  Ge  Ge15  1  0.52096863  0.76837071  0.11510919  1
  Ge  Ge16  1  0.48748065  0.64039957  0.82667748  1
  Ge  Ge17  1  0.48748065  0.35960043  0.17332252  1
  Ge  Ge18  1  0.02321574  0.26702998  0.61559096  1
  Ge  Ge19  1  0.02321574  0.73297002  0.38440904  1
  Ge  Ge20  1  0.27661976  -0.00000000  0.00000000  1
  Ge  Ge21  1  0.26853395  0.50000000  0.50000000  1
  O  O22  1  0.48650601  0.48309209  0.89370083  1
  O  O23  1  0.48650601  0.51690791  0.10629917  1
  O  O24  1  0.48006139  0.17017560  0.96822485  1
  O  O25  1  0.48006139  0.82982440  0.03177515  1
  O  O26  1  0.09776580  0.89277382  0.93745138  1
  O  O27  1  0.09776580  0.10722618  0.06254862  1
  O  O28  1  0.60490076  0.50251214  0.75891670  1
  O  O29  1  0.60490076  0.49748786  0.24108330  1
  O  O30  1  0.23146093  0.36196469  0.67428592  1
  O  O31  1  0.23146093  0.63803531  0.32571408  1
  O  O32  1  0.71594041  0.29322896  0.63948973  1
  O  O33  1  0.71594041  0.70677104  0.36051027  1
  O  O34  1  0.45378185  0.59012816  0.56333958  1
  O  O35  1  0.45378185  0.40987184  0.43666042  1
  O  O36  1  0.36207576  0.80203773  0.68718131  1
  O  O37  1  0.36207576  0.19796227  0.31281869  1
  O  O38  1  0.67826554  0.82217068  0.85920662  1
  O  O39  1  0.67826554  0.17782932  0.14079338  1
  O  O40  1  0.83431913  0.20539082  0.86531022  1
  O  O41  1  0.83431913  0.79460918  0.13468978  1
  O  O42  1  0.17604337  0.69664022  0.81425557  1
  O  O43  1  0.17604337  0.30335978  0.18574443  1
  O  O44  1  0.92634761  0.99326930  0.74238967  1
  O  O45  1  0.92634761  0.00673070  0.25761033  1
  O  O46  1  0.86368486  0.67531295  0.64190770  1
  O  O47  1  0.86368486  0.32468705  0.35809230  1
  O  O48  1  0.05472878  0.01385710  0.60581246  1
  O  O49  1  0.05472878  0.98614290  0.39418754  1
  O  O50  1  0.06323374  0.32828760  0.53168982  1
  O  O51  1  0.06323374  0.67171240  0.46831018  1
  O  O52  1  0.31433355  0.13127565  0.82691355  1
  O  O53  1  0.31433355  0.86872435  0.17308645  1
  O  O54  1  0.46065972  -0.00000000  0.50000000  1
  O  O55  1  0.08783617  0.50000000  -0.00000000  1
