# generated using pymatgen
data_B20H42N4O3
_symmetry_space_group_name_H-M   'P 1'
_cell_length_a   8.90460634
_cell_length_b   11.79330391
_cell_length_c   23.78101866
_cell_angle_alpha   99.31453449
_cell_angle_beta   90.00000000
_cell_angle_gamma   90.00000000
_symmetry_Int_Tables_number   1
_chemical_formula_structural   B20H42N4O3
_chemical_formula_sum   'B80 H168 N16 O12'
_cell_volume   2464.42879471
_cell_formula_units_Z   4
loop_
 _symmetry_equiv_pos_site_id
 _symmetry_equiv_pos_as_xyz
  1  'x, y, z'
loop_
 _atom_site_type_symbol
 _atom_site_label
 _atom_site_symmetry_multiplicity
 _atom_site_fract_x
 _atom_site_fract_y
 _atom_site_fract_z
 _atom_site_occupancy
  B  B0  1  0.88734953  0.09371663  0.82952569  1
  B  B1  1  0.61265047  0.59371663  0.32952569  1
  B  B2  1  0.11265047  0.90628337  0.17047431  1
  B  B3  1  0.38734953  0.40628337  0.67047431  1
  B  B4  1  0.82569439  0.16945953  0.89258076  1
  B  B5  1  0.67430561  0.66945953  0.39258076  1
  B  B6  1  0.17430561  0.83054047  0.10741924  1
  B  B7  1  0.32569439  0.33054047  0.60741924  1
  B  B8  1  0.99410056  0.08054113  0.88766637  1
  B  B9  1  0.50589944  0.58054113  0.38766637  1
  B  B10  1  0.00589944  0.91945887  0.11233363  1
  B  B11  1  0.49410056  0.41945887  0.61233363  1
  B  B12  1  0.06358492  0.15082708  0.82892235  1
  B  B13  1  0.43641508  0.65082708  0.32892235  1
  B  B14  1  0.93641508  0.84917292  0.17107765  1
  B  B15  1  0.56358492  0.34917292  0.67107765  1
  B  B16  1  0.89515868  0.23924904  0.83430236  1
  B  B17  1  0.60484132  0.73924904  0.33430236  1
  B  B18  1  0.10484132  0.76075096  0.16569764  1
  B  B19  1  0.39515868  0.26075096  0.66569764  1
  B  B20  1  0.97395333  0.20081531  0.94452232  1
  B  B21  1  0.52604667  0.70081531  0.44452232  1
  B  B22  1  0.02604667  0.79918469  0.05547768  1
  B  B23  1  0.47395333  0.29918469  0.55547768  1
  B  B24  1  0.14198250  0.18636402  0.89969060  1
  B  B25  1  0.35801750  0.68636402  0.39969060  1
  B  B26  1  0.85801750  0.81363598  0.10030940  1
  B  B27  1  0.64198250  0.31363598  0.60030940  1
  B  B28  1  0.07177725  0.29922292  0.86197524  1
  B  B29  1  0.42822275  0.79922292  0.36197524  1
  B  B30  1  0.92822275  0.70077708  0.13802476  1
  B  B31  1  0.57177725  0.20077708  0.63802476  1
  B  B32  1  0.90330513  0.31292637  0.90686579  1
  B  B33  1  0.59669487  0.81292637  0.40686579  1
  B  B34  1  0.09669487  0.68707363  0.09313421  1
  B  B35  1  0.40330513  0.18707363  0.59313421  1
  B  B36  1  0.08040449  0.31555478  0.93457751  1
  B  B37  1  0.41959551  0.81555478  0.43457751  1
  B  B38  1  0.91959551  0.68444522  0.06542249  1
  B  B39  1  0.58040449  0.18444522  0.56542249  1
  B  B40  1  0.88661661  0.84054759  0.55126879  1
  B  B41  1  0.61338339  0.34054759  0.05126879  1
  B  B42  1  0.11338339  0.15945241  0.44873121  1
  B  B43  1  0.38661661  0.65945241  0.94873121  1
  B  B44  1  0.92897717  0.88525463  0.62123573  1
  B  B45  1  0.57102283  0.38525463  0.12123573  1
  B  B46  1  0.07102283  0.11474537  0.37876427  1
  B  B47  1  0.42897717  0.61474537  0.87876427  1
  B  B48  1  0.85926806  0.74104895  0.59466845  1
  B  B49  1  0.64073194  0.24104895  0.09466845  1
  B  B50  1  0.14073194  0.25895105  0.40533155  1
  B  B51  1  0.35926806  0.75895105  0.90533155  1
  B  B52  1  0.00252353  0.72432935  0.53895334  1
  B  B53  1  0.49747647  0.22432935  0.03895334  1
  B  B54  1  0.99747647  0.27567065  0.46104666  1
  B  B55  1  0.50252353  0.77567065  0.96104666  1
  B  B56  1  0.07212947  0.86853941  0.56530099  1
  B  B57  1  0.42787053  0.36853941  0.06530099  1
  B  B58  1  0.92787053  0.13146059  0.43469901  1
  B  B59  1  0.57212947  0.63146059  0.93469901  1
  B  B60  1  0.97146958  0.76851535  0.65865358  1
  B  B61  1  0.52853042  0.26851535  0.15865358  1
  B  B62  1  0.02853042  0.23148465  0.34134642  1
  B  B63  1  0.47146958  0.73148465  0.84134642  1
  B  B64  1  0.02376232  0.65396371  0.60062688  1
  B  B65  1  0.47623768  0.15396371  0.10062688  1
  B  B66  1  0.97623768  0.34603629  0.39937312  1
  B  B67  1  0.52376232  0.84603629  0.89937312  1
  B  B68  1  0.17355063  0.74473754  0.58010131  1
  B  B69  1  0.32644937  0.24473754  0.08010131  1
  B  B70  1  0.82644937  0.25526246  0.41989869  1
  B  B71  1  0.67355063  0.75526246  0.91989869  1
  B  B72  1  0.12219415  0.85851209  0.63789900  1
  B  B73  1  0.37780585  0.35851209  0.13789900  1
  B  B74  1  0.87780585  0.14148791  0.36210100  1
  B  B75  1  0.62219415  0.64148791  0.86210100  1
  B  B76  1  0.15203565  0.72041546  0.64826232  1
  B  B77  1  0.34796435  0.22041546  0.14826232  1
  B  B78  1  0.84796435  0.27958454  0.35173768  1
  B  B79  1  0.65203565  0.77958454  0.85173768  1
  H  H80  1  0.67401163  0.05484988  0.02663227  1
  H  H81  1  0.82598837  0.55484988  0.52663227  1
  H  H82  1  0.32598837  0.94515012  0.97336773  1
  H  H83  1  0.17401163  0.44515012  0.47336773  1
  H  H84  1  0.82355706  0.97100978  0.03310021  1
  H  H85  1  0.67644294  0.47100978  0.53310021  1
  H  H86  1  0.17644294  0.02899022  0.96689979  1
  H  H87  1  0.32355706  0.52899022  0.46689979  1
  H  H88  1  0.81655708  0.05272831  0.98039390  1
  H  H89  1  0.68344292  0.55272831  0.48039390  1
  H  H90  1  0.18344292  0.94727169  0.01960610  1
  H  H91  1  0.31655708  0.44727169  0.51960610  1
  H  H92  1  0.70508774  0.93490036  0.97794911  1
  H  H93  1  0.79491226  0.43490036  0.47794911  1
  H  H94  1  0.29491226  0.06509964  0.02205089  1
  H  H95  1  0.20508774  0.56509964  0.52205089  1
  H  H96  1  0.03096793  0.60867840  0.87194872  1
  H  H97  1  0.46903207  0.10867840  0.37194872  1
  H  H98  1  0.96903207  0.39132160  0.12805128  1
  H  H99  1  0.53096793  0.89132160  0.62805128  1
  H  H100  1  0.99064025  0.50768148  0.91424648  1
  H  H101  1  0.50935975  0.00768148  0.41424648  1
  H  H102  1  0.00935975  0.49231852  0.08575352  1
  H  H103  1  0.49064025  0.99231852  0.58575352  1
  H  H104  1  0.09067406  0.62551580  0.94051470  1
  H  H105  1  0.40932594  0.12551580  0.44051470  1
  H  H106  1  0.90932594  0.37448420  0.05948530  1
  H  H107  1  0.59067406  0.87448420  0.55948530  1
  H  H108  1  0.90626067  0.63778647  0.92701849  1
  H  H109  1  0.59373933  0.13778647  0.42701849  1
  H  H110  1  0.09373933  0.36221353  0.07298151  1
  H  H111  1  0.40626067  0.86221353  0.57298151  1
  H  H112  1  0.12320461  0.86162459  0.74034330  1
  H  H113  1  0.37679539  0.36162459  0.24034330  1
  H  H114  1  0.87679539  0.13837541  0.25965670  1
  H  H115  1  0.62320461  0.63837541  0.75965670  1
  H  H116  1  0.06666560  0.93648470  0.80340994  1
  H  H117  1  0.43333440  0.43648470  0.30340994  1
  H  H118  1  0.93333440  0.06351530  0.19659006  1
  H  H119  1  0.56666560  0.56351530  0.69659006  1
  H  H120  1  0.25140551  0.91197400  0.79019338  1
  H  H121  1  0.24859449  0.41197400  0.29019338  1
  H  H122  1  0.74859449  0.08802600  0.20980662  1
  H  H123  1  0.75140551  0.58802600  0.70980662  1
  H  H124  1  0.13355402  0.79939861  0.79863384  1
  H  H125  1  0.36644598  0.29939861  0.29863384  1
  H  H126  1  0.86644598  0.20060139  0.20136616  1
  H  H127  1  0.63355402  0.70060139  0.70136616  1
  H  H128  1  0.49878270  0.94828523  0.81871083  1
  H  H129  1  0.00121730  0.44828523  0.31871083  1
  H  H130  1  0.50121730  0.05171477  0.18128917  1
  H  H131  1  0.99878270  0.55171477  0.68128917  1
  H  H132  1  0.45980791  0.05940808  0.79337314  1
  H  H133  1  0.04019209  0.55940808  0.29337314  1
  H  H134  1  0.54019209  0.94059192  0.20662686  1
  H  H135  1  0.95980791  0.44059192  0.70662686  1
  H  H136  1  0.97295503  0.25283261  0.73038044  1
  H  H137  1  0.52704497  0.75283261  0.23038044  1
  H  H138  1  0.02704497  0.74716739  0.26961956  1
  H  H139  1  0.47295503  0.24716739  0.76961956  1
  H  H140  1  0.12451798  0.27946032  0.70228012  1
  H  H141  1  0.37548202  0.77946032  0.20228012  1
  H  H142  1  0.87548202  0.72053968  0.29771988  1
  H  H143  1  0.62451798  0.22053968  0.79771988  1
  H  H144  1  0.98546386  0.19491984  0.62917950  1
  H  H145  1  0.51453614  0.69491984  0.12917950  1
  H  H146  1  0.01453614  0.80508016  0.37082050  1
  H  H147  1  0.48546386  0.30508016  0.87082050  1
  H  H148  1  0.98200058  0.06477889  0.58498854  1
  H  H149  1  0.51799942  0.56477889  0.08498854  1
  H  H150  1  0.01799942  0.93522111  0.41501146  1
  H  H151  1  0.48200058  0.43522111  0.91501146  1
  H  H152  1  0.03514177  0.18313873  0.55923837  1
  H  H153  1  0.46485823  0.68313873  0.05923837  1
  H  H154  1  0.96485823  0.81686127  0.44076163  1
  H  H155  1  0.53514177  0.31686127  0.94076163  1
  H  H156  1  0.85457487  0.16711388  0.57726066  1
  H  H157  1  0.64542513  0.66711388  0.07726066  1
  H  H158  1  0.14542513  0.83288612  0.42273934  1
  H  H159  1  0.35457487  0.33288612  0.92273934  1
  H  H160  1  0.19711845  0.60992580  0.80608872  1
  H  H161  1  0.30288155  0.10992580  0.30608872  1
  H  H162  1  0.80288155  0.39007420  0.19391128  1
  H  H163  1  0.69711845  0.89007420  0.69391128  1
  H  H164  1  0.04216371  0.59427318  0.77321171  1
  H  H165  1  0.45783629  0.09427318  0.27321171  1
  H  H166  1  0.95783629  0.40572682  0.22678829  1
  H  H167  1  0.54216371  0.90572682  0.72678829  1
  H  H168  1  0.82511296  0.02303982  0.79570423  1
  H  H169  1  0.67488704  0.52303982  0.29570423  1
  H  H170  1  0.17488704  0.97696018  0.20429577  1
  H  H171  1  0.32511296  0.47696018  0.70429577  1
  H  H172  1  0.70090703  0.15357367  0.90903779  1
  H  H173  1  0.79909297  0.65357367  0.40903779  1
  H  H174  1  0.29909297  0.84642633  0.09096221  1
  H  H175  1  0.20090703  0.34642633  0.59096221  1
  H  H176  1  0.01644252  0.98613223  0.89969779  1
  H  H177  1  0.48355748  0.48613223  0.39969779  1
  H  H178  1  0.98355748  0.01386777  0.10030221  1
  H  H179  1  0.51644252  0.51386777  0.60030221  1
  H  H180  1  0.14780053  0.11950984  0.79000543  1
  H  H181  1  0.35219947  0.61950984  0.29000543  1
  H  H182  1  0.85219947  0.88049016  0.20999457  1
  H  H183  1  0.64780053  0.38049016  0.70999457  1
  H  H184  1  0.83003611  0.28610203  0.79969038  1
  H  H185  1  0.66996389  0.78610203  0.29969038  1
  H  H186  1  0.16996389  0.71389797  0.20030962  1
  H  H187  1  0.33003611  0.21389797  0.70030962  1
  H  H188  1  0.95427510  0.18272503  0.99255682  1
  H  H189  1  0.54572490  0.68272503  0.49255682  1
  H  H190  1  0.04572490  0.81727497  0.00744318  1
  H  H191  1  0.45427510  0.31727497  0.50744318  1
  H  H192  1  0.26685837  0.15281768  0.90763591  1
  H  H193  1  0.23314163  0.65281768  0.40763591  1
  H  H194  1  0.73314163  0.84718232  0.09236409  1
  H  H195  1  0.76685837  0.34718232  0.59236409  1
  H  H196  1  0.13594407  0.36621206  0.83724750  1
  H  H197  1  0.36405593  0.86621206  0.33724750  1
  H  H198  1  0.86405593  0.63378794  0.16275250  1
  H  H199  1  0.63594407  0.13378794  0.66275250  1
  H  H200  1  0.81841531  0.39168028  0.92115039  1
  H  H201  1  0.68158469  0.89168028  0.42115039  1
  H  H202  1  0.18158469  0.60831972  0.07884961  1
  H  H203  1  0.31841531  0.10831972  0.57884961  1
  H  H204  1  0.14298694  0.38642866  0.96841136  1
  H  H205  1  0.35701306  0.88642866  0.46841136  1
  H  H206  1  0.85701306  0.61357134  0.03158864  1
  H  H207  1  0.64298694  0.11357134  0.53158864  1
  H  H208  1  0.80226218  0.87884011  0.51987010  1
  H  H209  1  0.69773782  0.37884011  0.01987010  1
  H  H210  1  0.19773782  0.12115989  0.48012990  1
  H  H211  1  0.30226218  0.62115989  0.98012990  1
  H  H212  1  0.86829297  0.96868107  0.64755652  1
  H  H213  1  0.63170703  0.46868107  0.14755652  1
  H  H214  1  0.13170703  0.03131893  0.35244348  1
  H  H215  1  0.36829297  0.53131893  0.85244348  1
  H  H216  1  0.73770333  0.69743795  0.59711546  1
  H  H217  1  0.76229667  0.19743795  0.09711546  1
  H  H218  1  0.26229667  0.30256205  0.40288454  1
  H  H219  1  0.23770333  0.80256205  0.90288454  1
  H  H220  1  0.00602348  0.66592004  0.49236736  1
  H  H221  1  0.49397652  0.16592004  0.99236736  1
  H  H222  1  0.99397652  0.33407996  0.50763264  1
  H  H223  1  0.50602348  0.83407996  0.00763264  1
  H  H224  1  0.13853063  0.93662148  0.54202733  1
  H  H225  1  0.36146937  0.43662148  0.04202733  1
  H  H226  1  0.86146937  0.06337852  0.45797267  1
  H  H227  1  0.63853063  0.56337852  0.95797267  1
  H  H228  1  0.91096915  0.76722322  0.70380140  1
  H  H229  1  0.58903085  0.26722322  0.20380140  1
  H  H230  1  0.08903085  0.23277678  0.29619860  1
  H  H231  1  0.41096915  0.73277678  0.79619860  1
  H  H232  1  0.00960684  0.55075435  0.59415806  1
  H  H233  1  0.49039316  0.05075435  0.09415806  1
  H  H234  1  0.99039316  0.44924565  0.40584194  1
  H  H235  1  0.50960684  0.94924565  0.90584194  1
  H  H236  1  0.29081453  0.72104824  0.55567868  1
  H  H237  1  0.20918547  0.22104824  0.05567868  1
  H  H238  1  0.70918547  0.27895176  0.44432132  1
  H  H239  1  0.79081453  0.77895176  0.94432132  1
  H  H240  1  0.19367125  0.93592177  0.66428876  1
  H  H241  1  0.30632875  0.43592177  0.16428876  1
  H  H242  1  0.80632875  0.06407823  0.33571124  1
  H  H243  1  0.69367125  0.56407823  0.83571124  1
  H  H244  1  0.23757317  0.68184565  0.67893082  1
  H  H245  1  0.26242683  0.18184565  0.17893082  1
  H  H246  1  0.76242683  0.31815435  0.32106918  1
  H  H247  1  0.73757317  0.81815435  0.82106918  1
  N  N248  1  0.75488725  0.00305865  0.00428062  1
  N  N249  1  0.74511275  0.50305865  0.50428062  1
  N  N250  1  0.24511275  0.99694135  0.99571938  1
  N  N251  1  0.25488725  0.49694135  0.49571938  1
  N  N252  1  0.00402416  0.59483827  0.91353324  1
  N  N253  1  0.49597584  0.09483827  0.41353324  1
  N  N254  1  0.99597584  0.40516173  0.08646676  1
  N  N255  1  0.50402416  0.90516173  0.58646676  1
  N  N256  1  0.14361217  0.87727923  0.78370099  1
  N  N257  1  0.35638783  0.37727923  0.28370099  1
  N  N258  1  0.85638783  0.12272077  0.21629901  1
  N  N259  1  0.64361217  0.62272077  0.71629901  1
  N  N260  1  0.96479063  0.15208080  0.58758647  1
  N  N261  1  0.53520937  0.65208080  0.08758647  1
  N  N262  1  0.03520937  0.84791920  0.41241353  1
  N  N263  1  0.46479063  0.34791920  0.91241353  1
  O  O264  1  0.44507384  0.97497757  0.78734702  1
  O  O265  1  0.05492616  0.47497757  0.28734702  1
  O  O266  1  0.55492616  0.02502243  0.21265298  1
  O  O267  1  0.94507384  0.52502243  0.71265298  1
  O  O268  1  0.01511404  0.28289171  0.69775785  1
  O  O269  1  0.48488596  0.78289171  0.19775785  1
  O  O270  1  0.98488596  0.71710829  0.30224215  1
  O  O271  1  0.51511404  0.21710829  0.80224215  1
  O  O272  1  0.09396328  0.63907792  0.80702728  1
  O  O273  1  0.40603672  0.13907792  0.30702728  1
  O  O274  1  0.90603672  0.36092208  0.19297272  1
  O  O275  1  0.59396328  0.86092208  0.69297272  1
