# generated using pymatgen
data_Y2Ga3Fe14
_symmetry_space_group_name_H-M   'P 1'
_cell_length_a   8.23820487
_cell_length_b   8.56509964
_cell_length_c   8.56509964
_cell_angle_alpha   120.02895631
_cell_angle_beta   90.00000000
_cell_angle_gamma   90.00000000
_symmetry_Int_Tables_number   1
_chemical_formula_structural   Y2Ga3Fe14
_chemical_formula_sum   'Y4 Ga6 Fe28'
_cell_volume   523.24039514
_cell_formula_units_Z   2
loop_
 _symmetry_equiv_pos_site_id
 _symmetry_equiv_pos_as_xyz
  1  'x, y, z'
loop_
 _atom_site_type_symbol
 _atom_site_label
 _atom_site_symmetry_multiplicity
 _atom_site_fract_x
 _atom_site_fract_y
 _atom_site_fract_z
 _atom_site_occupancy
  Y  Y0  1  0.75000000  -0.00001673  0.00001673  1
  Y  Y1  1  0.25000000  0.00001673  -0.00001673  1
  Y  Y2  1  0.25000000  0.66667250  0.33332750  1
  Y  Y3  1  0.75000000  0.33332750  0.66667250  1
  Ga  Ga4  1  0.50000000  0.50000000  -0.00000000  1
  Ga  Ga5  1  0.50000000  0.50000000  0.50000000  1
  Ga  Ga6  1  0.50000000  0.00000000  0.50000000  1
  Ga  Ga7  1  -0.00000000  0.50000000  -0.00000000  1
  Ga  Ga8  1  -0.00000000  0.50000000  0.50000000  1
  Ga  Ga9  1  -0.00000000  0.00000000  0.50000000  1
  Fe  Fe10  1  0.61155316  0.66677727  0.33322273  1
  Fe  Fe11  1  0.38844684  0.33322273  0.66677727  1
  Fe  Fe12  1  0.11155316  0.33322273  0.66677727  1
  Fe  Fe13  1  0.88844684  0.66677727  0.33322273  1
  Fe  Fe14  1  0.75000000  0.67801637  0.02951667  1
  Fe  Fe15  1  0.75000000  0.35142809  0.32201430  1
  Fe  Fe16  1  0.75000000  0.97030771  0.64834929  1
  Fe  Fe17  1  0.75000000  0.35165071  0.02969229  1
  Fe  Fe18  1  0.75000000  0.97048333  0.32198363  1
  Fe  Fe19  1  0.75000000  0.67798570  0.64857191  1
  Fe  Fe20  1  0.25000000  0.32198363  0.97048333  1
  Fe  Fe21  1  0.25000000  0.64857191  0.67798570  1
  Fe  Fe22  1  0.25000000  0.02969229  0.35165071  1
  Fe  Fe23  1  0.25000000  0.64834929  0.97030771  1
  Fe  Fe24  1  0.25000000  0.02951667  0.67801637  1
  Fe  Fe25  1  0.25000000  0.32201430  0.35142809  1
  Fe  Fe26  1  0.48649590  0.83447653  0.66890859  1
  Fe  Fe27  1  0.48653658  0.83437312  0.16562688  1
  Fe  Fe28  1  0.48649590  0.33109141  0.16552347  1
  Fe  Fe29  1  0.51350410  0.16552347  0.33109141  1
  Fe  Fe30  1  0.51346342  0.16562688  0.83437312  1
  Fe  Fe31  1  0.51350410  0.66890859  0.83447653  1
  Fe  Fe32  1  0.98649590  0.16552347  0.33109141  1
  Fe  Fe33  1  0.98653658  0.16562688  0.83437312  1
  Fe  Fe34  1  0.98649590  0.66890859  0.83447653  1
  Fe  Fe35  1  0.01350410  0.83447653  0.66890859  1
  Fe  Fe36  1  0.01346342  0.83437312  0.16562688  1
  Fe  Fe37  1  0.01350410  0.33109141  0.16552347  1
