# generated using pymatgen
data_TbYb2PrS6
_symmetry_space_group_name_H-M   'P 1'
_cell_length_a   4.13894514
_cell_length_b   11.00269328
_cell_length_c   11.48700394
_cell_angle_alpha   104.82002081
_cell_angle_beta   90.00000000
_cell_angle_gamma   90.00000000
_symmetry_Int_Tables_number   1
_chemical_formula_structural   TbYb2PrS6
_chemical_formula_sum   'Tb2 Yb4 Pr2 S12'
_cell_volume   505.71108170
_cell_formula_units_Z   2
loop_
 _symmetry_equiv_pos_site_id
 _symmetry_equiv_pos_as_xyz
  1  'x, y, z'
loop_
 _atom_site_type_symbol
 _atom_site_label
 _atom_site_symmetry_multiplicity
 _atom_site_fract_x
 _atom_site_fract_y
 _atom_site_fract_z
 _atom_site_occupancy
  S  S0  1  0.25000000  0.62835580  0.96788907  1
  S  S1  1  0.75000000  0.37164420  0.03211093  1
  S  S2  1  0.25000000  0.94957336  0.10418882  1
  S  S3  1  0.75000000  0.05042664  0.89581118  1
  S  S4  1  0.25000000  0.30161141  0.25916037  1
  S  S5  1  0.75000000  0.69838859  0.74083963  1
  S  S6  1  0.25000000  0.27898629  0.72843746  1
  S  S7  1  0.75000000  0.72101371  0.27156254  1
  S  S8  1  0.75000000  0.59568832  0.38416864  1
  S  S9  1  0.25000000  0.40431168  0.61583136  1
  S  S10  1  0.75000000  0.09662534  0.42803773  1
  S  S11  1  0.25000000  0.90337466  0.57196227  1
  Pr  Pr12  1  0.75000000  0.47434272  0.81934764  1
  Pr  Pr13  1  0.25000000  0.52565728  0.18065236  1
  Tb  Tb14  1  0.75000000  0.83110963  0.96853606  1
  Tb  Tb15  1  0.25000000  0.16889037  0.03146394  1
  Yb  Yb16  1  0.75000000  0.05320435  0.64904693  1
  Yb  Yb17  1  0.25000000  0.94679565  0.35095307  1
  Yb  Yb18  1  0.75000000  0.32424981  0.41292275  1
  Yb  Yb19  1  0.25000000  0.67575019  0.58707725  1
