# generated using pymatgen
data_K2Cr2Cu(PO7)2
_symmetry_space_group_name_H-M   'P 1'
_cell_length_a   7.17203923
_cell_length_b   8.90706557
_cell_length_c   9.86429124
_cell_angle_alpha   91.45181559
_cell_angle_beta   90.00000000
_cell_angle_gamma   90.00000000
_symmetry_Int_Tables_number   1
_chemical_formula_structural   K2Cr2Cu(PO7)2
_chemical_formula_sum   'K4 Cr4 Cu2 P4 O28'
_cell_volume   629.94662680
_cell_formula_units_Z   2
loop_
 _symmetry_equiv_pos_site_id
 _symmetry_equiv_pos_as_xyz
  1  'x, y, z'
loop_
 _atom_site_type_symbol
 _atom_site_label
 _atom_site_symmetry_multiplicity
 _atom_site_fract_x
 _atom_site_fract_y
 _atom_site_fract_z
 _atom_site_occupancy
  K  K0  1  0.36874189  0.67080285  0.69495220  1
  K  K1  1  0.86874189  0.82919715  0.30504780  1
  K  K2  1  0.63125811  0.32919715  0.30504780  1
  K  K3  1  0.13125811  0.17080285  0.69495220  1
  Cr  Cr4  1  0.37926868  0.88990655  0.34421949  1
  Cr  Cr5  1  0.87926868  0.61009345  0.65578051  1
  Cr  Cr6  1  0.62073132  0.11009345  0.65578051  1
  Cr  Cr7  1  0.12073132  0.38990655  0.34421949  1
  Cu  Cu8  1  0.50000000  0.00000000  0.00000000  1
  Cu  Cu9  1  -0.00000000  0.50000000  0.00000000  1
  P  P10  1  0.36734985  0.68835608  0.09823312  1
  P  P11  1  0.86734985  0.81164392  0.90176688  1
  P  P12  1  0.63265015  0.31164392  0.90176688  1
  P  P13  1  0.13265015  0.18835608  0.09823312  1
  O  O14  1  0.25411448  0.77393341  0.21381122  1
  O  O15  1  0.75411448  0.72606659  0.78618878  1
  O  O16  1  0.74588552  0.22606659  0.78618878  1
  O  O17  1  0.24588552  0.27393341  0.21381122  1
  O  O18  1  0.49567710  0.78725309  0.44781853  1
  O  O19  1  0.99567710  0.71274691  0.55218147  1
  O  O20  1  0.50432290  0.21274691  0.55218147  1
  O  O21  1  0.00432290  0.28725309  0.44781853  1
  O  O22  1  0.47442972  0.00362685  0.73747183  1
  O  O23  1  0.97442972  0.49637315  0.26252817  1
  O  O24  1  0.52557028  0.99637315  0.26252817  1
  O  O25  1  0.02557028  0.50362685  0.73747183  1
  O  O26  1  0.22064445  0.98547903  0.42424325  1
  O  O27  1  0.72064445  0.51452097  0.57575675  1
  O  O28  1  0.77935555  0.01452097  0.57575675  1
  O  O29  1  0.27935555  0.48547903  0.42424325  1
  O  O30  1  0.04365423  0.87710901  0.84240678  1
  O  O31  1  0.54365423  0.62289099  0.15759322  1
  O  O32  1  0.95634577  0.12289099  0.15759322  1
  O  O33  1  0.45634577  0.37710901  0.84240678  1
  O  O34  1  0.41396351  0.79898289  0.98166983  1
  O  O35  1  0.91396351  0.70101711  0.01833017  1
  O  O36  1  0.58603649  0.20101711  0.01833017  1
  O  O37  1  0.08603649  0.29898289  0.98166983  1
  O  O38  1  0.24703001  0.56207835  0.03208043  1
  O  O39  1  0.74703001  0.93792165  0.96791957  1
  O  O40  1  0.75296999  0.43792165  0.96791957  1
  O  O41  1  0.25296999  0.06207835  0.03208043  1
