# generated using pymatgen
data_Na6Zn3B9P6H3O38
_symmetry_space_group_name_H-M   'P 1'
_cell_length_a   11.87656011
_cell_length_b   11.87494259
_cell_length_c   12.30132231
_cell_angle_alpha   90.00000000
_cell_angle_beta   90.00000000
_cell_angle_gamma   119.99636577
_symmetry_Int_Tables_number   1
_chemical_formula_structural   Na6Zn3B9P6H3O38
_chemical_formula_sum   'Na12 Zn6 B18 P12 H6 O76'
_cell_volume   1502.52090170
_cell_formula_units_Z   2
loop_
 _symmetry_equiv_pos_site_id
 _symmetry_equiv_pos_as_xyz
  1  'x, y, z'
loop_
 _atom_site_type_symbol
 _atom_site_label
 _atom_site_symmetry_multiplicity
 _atom_site_fract_x
 _atom_site_fract_y
 _atom_site_fract_z
 _atom_site_occupancy
  Na  Na0  1  0.28720014  0.27053196  0.70758917  1
  Na  Na1  1  0.72944090  0.01669744  0.70755687  1
  Na  Na2  1  0.98326257  0.71274147  0.70756141  1
  Na  Na3  1  0.71279986  0.72946804  0.20758917  1
  Na  Na4  1  0.27055910  0.98330256  0.20755687  1
  Na  Na5  1  0.01673743  0.28725853  0.20756141  1
  Na  Na6  1  0.33334555  0.66665259  0.36637633  1
  Na  Na7  1  0.66665445  0.33334741  0.86637633  1
  Na  Na8  1  0.66664298  0.33329559  0.35474187  1
  Na  Na9  1  0.33335702  0.66670441  0.85474187  1
  Na  Na10  1  0.99999444  0.00000045  0.94991546  1
  Na  Na11  1  0.00000556  -0.00000045  0.44991546  1
  Zn  Zn12  1  0.99539076  0.49413702  0.45340606  1
  Zn  Zn13  1  0.50586746  0.50124725  0.45341662  1
  Zn  Zn14  1  0.49871638  0.00456746  0.45345831  1
  Zn  Zn15  1  0.00460924  0.50586298  0.95340606  1
  Zn  Zn16  1  0.49413254  0.49875275  0.95341662  1
  Zn  Zn17  1  0.50128362  0.99543254  0.95345831  1
  B  B18  1  0.95666899  0.70409848  0.30323013  1
  B  B19  1  0.29589278  0.25257687  0.30322352  1
  B  B20  1  0.74746026  0.04336171  0.30321304  1
  B  B21  1  0.04333101  0.29590152  0.80323013  1
  B  B22  1  0.70410722  0.74742313  0.80322352  1
  B  B23  1  0.25253974  0.95663829  0.80321304  1
  B  B24  1  0.91243197  0.50742382  0.19898100  1
  B  B25  1  0.49254885  0.40498392  0.19898702  1
  B  B26  1  0.59503325  0.08759522  0.19897866  1
  B  B27  1  0.08756803  0.49257618  0.69898100  1
  B  B28  1  0.50745115  0.59501608  0.69898702  1
  B  B29  1  0.40496675  0.91240478  0.69897866  1
  B  B30  1  0.03832597  0.28891954  0.60229012  1
  B  B31  1  0.71106223  0.74939784  0.60229256  1
  B  B32  1  0.25059121  0.96165753  0.60228474  1
  B  B33  1  0.96167403  0.71108046  0.10229012  1
  B  B34  1  0.28893777  0.25060216  0.10229256  1
  B  B35  1  0.74940879  0.03834247  0.10228474  1
  P  P36  1  0.18870416  0.37981068  0.41940158  1
  P  P37  1  0.62023725  0.80895682  0.41941194  1
  P  P38  1  0.19090880  0.81108016  0.41951108  1
  P  P39  1  0.81129584  0.62018932  0.91940158  1
  P  P40  1  0.37976275  0.19104318  0.91941194  1
  P  P41  1  0.80909120  0.18891984  0.91951108  1
  P  P42  1  0.80439468  0.18563804  0.49041595  1
  P  P43  1  0.81452267  0.61878133  0.49050618  1
  P  P44  1  0.38119155  0.19570317  0.49051537  1
  P  P45  1  0.19560532  0.81436196  0.99041595  1
  P  P46  1  0.18547733  0.38121867  0.99050618  1
  P  P47  1  0.61880845  0.80429683  0.99051537  1
  H  H48  1  0.83469941  0.34417678  0.11774331  1
  H  H49  1  0.65579423  0.49049666  0.11779151  1
  H  H50  1  0.50947948  0.16531119  0.11778205  1
  H  H51  1  0.16530059  0.65582322  0.61774331  1
  H  H52  1  0.34420577  0.50950334  0.61779151  1
  H  H53  1  0.49052052  0.83468881  0.61778205  1
  O  O54  1  0.11559747  0.27655865  0.51185210  1
  O  O55  1  0.72339076  0.83903956  0.51185351  1
  O  O56  1  0.16098080  0.88438825  0.51182506  1
  O  O57  1  0.88440253  0.72344135  0.01185210  1
  O  O58  1  0.27660924  0.16096044  0.01185351  1
  O  O59  1  0.83901920  0.11561175  0.01182506  1
  O  O60  1  0.10615943  0.43325011  0.37012237  1
  O  O61  1  0.56676746  0.67287257  0.37011279  1
  O  O62  1  0.32723115  0.89396336  0.37006095  1
  O  O63  1  0.89384057  0.56674989  0.87012237  1
  O  O64  1  0.43323254  0.32712743  0.87011279  1
  O  O65  1  0.67276885  0.10603664  0.87006095  1
  O  O66  1  0.93530786  0.56707465  0.29901722  1
  O  O67  1  0.43293759  0.36823506  0.29902739  1
  O  O68  1  0.63179940  0.06476506  0.29901592  1
  O  O69  1  0.06469214  0.43292535  0.79901722  1
  O  O70  1  0.56706241  0.63176494  0.79902739  1
  O  O71  1  0.36820060  0.93523494  0.79901592  1
  O  O72  1  0.05779583  0.42375974  0.60306188  1
  O  O73  1  0.57618923  0.63401243  0.60307485  1
  O  O74  1  0.36598435  0.94215332  0.60306498  1
  O  O75  1  0.94220417  0.57624026  0.10306188  1
  O  O76  1  0.42381077  0.36598757  0.10307485  1
  O  O77  1  0.63401565  0.05784668  0.10306498  1
  O  O78  1  0.90488759  0.57437688  0.53755246  1
  O  O79  1  0.42566420  0.33053346  0.53756828  1
  O  O80  1  0.66939700  0.09496298  0.53756077  1
  O  O81  1  0.09511241  0.42562312  0.03755246  1
  O  O82  1  0.57433580  0.66946654  0.03756828  1
  O  O83  1  0.33060300  0.90503702  0.03756077  1
  O  O84  1  0.20322284  0.30093239  0.32387741  1
  O  O85  1  0.69904570  0.90229570  0.32389912  1
  O  O86  1  0.09770139  0.79680924  0.32386679  1
  O  O87  1  0.79677716  0.69906761  0.82387741  1
  O  O88  1  0.30095430  0.09770430  0.82389912  1
  O  O89  1  0.90229861  0.20319076  0.82386679  1
  O  O90  1  0.89926681  0.19319370  0.58300237  1
  O  O91  1  0.80674004  0.70600663  0.58298200  1
  O  O92  1  0.29401020  0.10075686  0.58298779  1
  O  O93  1  0.10073319  0.80680630  0.08300237  1
  O  O94  1  0.19325996  0.29399337  0.08298200  1
  O  O95  1  0.70598980  0.89924314  0.08298779  1
  O  O96  1  0.08112626  0.26187175  0.70309017  1
  O  O97  1  0.73811479  0.81924348  0.70310089  1
  O  O98  1  0.18074877  0.91886736  0.70308245  1
  O  O99  1  0.91887374  0.73812825  0.20309017  1
  O  O100  1  0.26188521  0.18075652  0.20310089  1
  O  O101  1  0.81925123  0.08113264  0.20308245  1
  O  O102  1  0.82739304  0.31814114  0.45412992  1
  O  O103  1  0.68172042  0.50914964  0.45404735  1
  O  O104  1  0.49081288  0.17251193  0.45403899  1
  O  O105  1  0.17260696  0.68185886  0.95412992  1
  O  O106  1  0.31827958  0.49085036  0.95404735  1
  O  O107  1  0.50918712  0.82748807  0.95403899  1
  O  O108  1  0.85455203  0.37320817  0.19450431  1
  O  O109  1  0.62683337  0.48135263  0.19448517  1
  O  O110  1  0.51861538  0.14546621  0.19446749  1
  O  O111  1  0.14544797  0.62679183  0.69450431  1
  O  O112  1  0.37316663  0.51864737  0.69448517  1
  O  O113  1  0.48138462  0.85453379  0.69446749  1
  O  O114  1  0.16852758  0.67996486  0.46236417  1
  O  O115  1  0.32015345  0.48862423  0.46244074  1
  O  O116  1  0.51132301  0.83148807  0.46242528  1
  O  O117  1  0.83147242  0.32003514  0.96236417  1
  O  O118  1  0.67984655  0.51137577  0.96244074  1
  O  O119  1  0.48867699  0.16851193  0.96242528  1
  O  O120  1  0.83645220  0.11987261  0.39220078  1
  O  O121  1  0.88015304  0.71656428  0.39220814  1
  O  O122  1  0.28343264  0.16361070  0.39222859  1
  O  O123  1  0.16354780  0.88012739  0.89220078  1
  O  O124  1  0.11984696  0.28343572  0.89220814  1
  O  O125  1  0.71656736  0.83638930  0.89222859  1
  O  O126  1  0.99999481  0.99999746  0.74917534  1
  O  O127  1  0.00000519  0.00000254  0.24917534  1
  O  O128  1  0.33353194  0.66668374  0.16437236  1
  O  O129  1  0.66646806  0.33331626  0.66437236  1
