# generated using pymatgen
data_CeCO
_symmetry_space_group_name_H-M   'P 1'
_cell_length_a   3.87576190
_cell_length_b   3.93572262
_cell_length_c   6.83399313
_cell_angle_alpha   96.23141789
_cell_angle_beta   89.99999978
_cell_angle_gamma   119.49730442
_symmetry_Int_Tables_number   1
_chemical_formula_structural   CeCO
_chemical_formula_sum   'Ce2 C2 O2'
_cell_volume   90.02450390
_cell_formula_units_Z   2
loop_
 _symmetry_equiv_pos_site_id
 _symmetry_equiv_pos_as_xyz
  1  'x, y, z'
loop_
 _atom_site_type_symbol
 _atom_site_label
 _atom_site_symmetry_multiplicity
 _atom_site_fract_x
 _atom_site_fract_y
 _atom_site_fract_z
 _atom_site_occupancy
  Ce  Ce0  1  0.30665706  0.61331412  0.77491488  1
  Ce  Ce1  1  0.69334294  0.38668588  0.22508512  1
  C  C2  1  0.94325396  0.88650792  0.56872852  1
  C  C3  1  0.05674604  0.11349208  0.43127148  1
  O  O4  1  0.65181928  0.30363856  0.87678006  1
  O  O5  1  0.34818072  0.69636144  0.12321994  1
