# generated using pymatgen
data_Nd2Ge6Pt
_symmetry_space_group_name_H-M   'P 1'
_cell_length_a   4.17292408
_cell_length_b   4.20159184
_cell_length_c   11.32288953
_cell_angle_alpha   90.00000000
_cell_angle_beta   100.61853971
_cell_angle_gamma   90.00000000
_symmetry_Int_Tables_number   1
_chemical_formula_structural   Nd2Ge6Pt
_chemical_formula_sum   'Nd2 Ge6 Pt1'
_cell_volume   195.12380021
_cell_formula_units_Z   1
loop_
 _symmetry_equiv_pos_site_id
 _symmetry_equiv_pos_as_xyz
  1  'x, y, z'
loop_
 _atom_site_type_symbol
 _atom_site_label
 _atom_site_symmetry_multiplicity
 _atom_site_fract_x
 _atom_site_fract_y
 _atom_site_fract_z
 _atom_site_occupancy
  Nd  Nd0  1  0.77977357  0.50000000  0.55954714  1
  Nd  Nd1  1  0.11463411  0.50000000  0.22926823  1
  Ge  Ge2  1  0.49497404  0.50000000  0.98994809  1
  Ge  Ge3  1  0.38309778  0.50000000  0.76619556  1
  Ge  Ge4  1  0.99397373  -0.00000000  0.98794745  1
  Ge  Ge5  1  0.88172728  -0.00000000  0.76345456  1
  Ge  Ge6  1  0.66720416  -0.00000000  0.33440832  1
  Ge  Ge7  1  0.23441191  -0.00000000  0.46882382  1
  Pt  Pt8  1  0.55720341  -0.00000000  0.11440683  1
