# generated using pymatgen
data_BN
_symmetry_space_group_name_H-M   'P 1'
_cell_length_a   2.51198211
_cell_length_b   4.39850358
_cell_length_c   6.67374448
_cell_angle_alpha   90.50965071
_cell_angle_beta   100.84768989
_cell_angle_gamma   90.00000003
_symmetry_Int_Tables_number   1
_chemical_formula_structural   BN
_chemical_formula_sum   'B4 N4'
_cell_volume   72.41735356
_cell_formula_units_Z   4
loop_
 _symmetry_equiv_pos_site_id
 _symmetry_equiv_pos_as_xyz
  1  'x, y, z'
loop_
 _atom_site_type_symbol
 _atom_site_label
 _atom_site_symmetry_multiplicity
 _atom_site_fract_x
 _atom_site_fract_y
 _atom_site_fract_z
 _atom_site_occupancy
  B  B0  1  0.99991656  0.00117551  0.99983312  1
  B  B1  1  0.79998888  0.57229811  0.59997776  1
  B  B2  1  0.13424686  0.61942538  0.26849372  1
  B  B3  1  0.46846860  0.50171845  0.93693720  1
  N  N4  1  0.01923179  0.65689425  0.03846359  1
  N  N5  1  0.49384460  0.15683595  0.98768919  1
  N  N6  1  0.35310480  0.55620182  0.70620960  1
  N  N7  1  0.68769791  0.60695053  0.37539582  1
