# generated using pymatgen
data_Rb3Zn3(MoO4)4
_symmetry_space_group_name_H-M   'P 1'
_cell_length_a   10.56429609
_cell_length_b   10.56429609
_cell_length_c   10.56429609
_cell_angle_alpha   109.47122063
_cell_angle_beta   109.47122063
_cell_angle_gamma   109.47122063
_symmetry_Int_Tables_number   1
_chemical_formula_structural   Rb3Zn3(MoO4)4
_chemical_formula_sum   'Rb6 Zn6 Mo8 O32'
_cell_volume   907.61111027
_cell_formula_units_Z   2
loop_
 _symmetry_equiv_pos_site_id
 _symmetry_equiv_pos_as_xyz
  1  'x, y, z'
loop_
 _atom_site_type_symbol
 _atom_site_label
 _atom_site_symmetry_multiplicity
 _atom_site_fract_x
 _atom_site_fract_y
 _atom_site_fract_z
 _atom_site_occupancy
  Rb  Rb0  1  0.12500000  0.87500000  0.75000000  1
  Rb  Rb1  1  0.37500000  0.62500000  0.25000000  1
  Rb  Rb2  1  0.87500000  0.75000000  0.12500000  1
  Rb  Rb3  1  0.62500000  0.25000000  0.37500000  1
  Rb  Rb4  1  0.75000000  0.12500000  0.87500000  1
  Rb  Rb5  1  0.25000000  0.37500000  0.62500000  1
  Zn  Zn6  1  0.62500000  0.37500000  0.75000000  1
  Zn  Zn7  1  0.87500000  0.12500000  0.25000000  1
  Zn  Zn8  1  0.37500000  0.75000000  0.62500000  1
  Zn  Zn9  1  0.12500000  0.25000000  0.87500000  1
  Zn  Zn10  1  0.75000000  0.62500000  0.37500000  1
  Zn  Zn11  1  0.25000000  0.87500000  0.12500000  1
  Mo  Mo12  1  0.71495877  0.71495877  0.71495877  1
  Mo  Mo13  1  0.78504123  -0.00000000  0.50000000  1
  Mo  Mo14  1  0.50000000  0.78504123  -0.00000000  1
  Mo  Mo15  1  0.21495877  0.21495877  0.21495877  1
  Mo  Mo16  1  -0.00000000  0.50000000  0.78504123  1
  Mo  Mo17  1  0.28504123  -0.00000000  0.50000000  1
  Mo  Mo18  1  -0.00000000  0.50000000  0.28504123  1
  Mo  Mo19  1  0.50000000  0.28504123  0.00000000  1
  O  O20  1  0.77161222  0.64053776  0.57240285  1
  O  O21  1  0.72838778  0.80079063  0.36892554  1
  O  O22  1  0.43186509  0.85946224  0.13107446  1
  O  O23  1  0.64053776  0.57240285  0.77161222  1
  O  O24  1  0.27161222  0.07240285  0.14053776  1
  O  O25  1  0.06813491  0.69920937  0.92759715  1
  O  O26  1  0.80079063  0.36892554  0.72838778  1
  O  O27  1  0.22838778  0.86892554  0.30079063  1
  O  O28  1  0.85946224  0.13107446  0.43186509  1
  O  O29  1  0.93186509  0.63107446  0.35946224  1
  O  O30  1  0.69920937  0.92759715  0.06813491  1
  O  O31  1  0.56813491  0.42759715  0.19920937  1
  O  O32  1  0.57240285  0.77161222  0.64053776  1
  O  O33  1  0.14053776  0.27161222  0.07240285  1
  O  O34  1  0.13107446  0.43186509  0.85946224  1
  O  O35  1  0.35946224  0.93186509  0.63107446  1
  O  O36  1  0.92759715  0.06813491  0.69920937  1
  O  O37  1  0.19920937  0.56813491  0.42759715  1
  O  O38  1  0.36892554  0.72838778  0.80079063  1
  O  O39  1  0.30079063  0.22838778  0.86892554  1
  O  O40  1  0.07240285  0.14053776  0.27161222  1
  O  O41  1  0.86892554  0.30079063  0.22838778  1
  O  O42  1  0.42759715  0.19920937  0.56813491  1
  O  O43  1  0.63107446  0.35946224  0.93186509  1
  O  O44  1  0.88130902  0.88130902  0.88130902  1
  O  O45  1  0.61869098  0.00000000  0.50000000  1
  O  O46  1  0.50000000  0.61869098  0.00000000  1
  O  O47  1  0.38130902  0.38130902  0.38130902  1
  O  O48  1  0.00000000  0.50000000  0.61869098  1
  O  O49  1  0.11869098  -0.00000000  0.50000000  1
  O  O50  1  0.00000000  0.50000000  0.11869098  1
  O  O51  1  0.50000000  0.11869098  0.00000000  1
