# generated using pymatgen
data_Ti2Te2(OF)5
_symmetry_space_group_name_H-M   'P 1'
_cell_length_a   6.67422415
_cell_length_b   7.67475660
_cell_length_c   16.78201178
_cell_angle_alpha   90.00000000
_cell_angle_beta   90.00000000
_cell_angle_gamma   90.00000000
_symmetry_Int_Tables_number   1
_chemical_formula_structural   Ti2Te2(OF)5
_chemical_formula_sum   'Ti8 Te8 O20 F20'
_cell_volume   859.62575878
_cell_formula_units_Z   4
loop_
 _symmetry_equiv_pos_site_id
 _symmetry_equiv_pos_as_xyz
  1  'x, y, z'
loop_
 _atom_site_type_symbol
 _atom_site_label
 _atom_site_symmetry_multiplicity
 _atom_site_fract_x
 _atom_site_fract_y
 _atom_site_fract_z
 _atom_site_occupancy
  Ti  Ti0  1  0.24758994  0.11234276  0.13136136  1
  Ti  Ti1  1  0.75241006  0.88765724  0.86863864  1
  Ti  Ti2  1  0.74758994  0.38765724  0.86863864  1
  Ti  Ti3  1  0.75241006  0.88765724  0.63136136  1
  Ti  Ti4  1  0.25241006  0.61234276  0.13136136  1
  Ti  Ti5  1  0.24758994  0.11234276  0.36863864  1
  Ti  Ti6  1  0.25241006  0.61234276  0.36863864  1
  Ti  Ti7  1  0.74758994  0.38765724  0.63136136  1
  Te  Te8  1  0.22151212  0.13933523  0.63618019  1
  Te  Te9  1  0.77848788  0.86066477  0.36381981  1
  Te  Te10  1  0.72151212  0.36066477  0.36381981  1
  Te  Te11  1  0.77848788  0.86066477  0.13618019  1
  Te  Te12  1  0.27848788  0.63933523  0.63618019  1
  Te  Te13  1  0.22151212  0.13933523  0.86381981  1
  Te  Te14  1  0.27848788  0.63933523  0.86381981  1
  Te  Te15  1  0.72151212  0.36066477  0.13618019  1
  O  O16  1  0.53422869  0.17260340  0.13218156  1
  O  O17  1  0.46577131  0.82739660  0.86781844  1
  O  O18  1  0.03422869  0.32739660  0.86781844  1
  O  O19  1  0.46577131  0.82739660  0.63218156  1
  O  O20  1  0.96577131  0.67260340  0.13218156  1
  O  O21  1  0.53422869  0.17260340  0.36781844  1
  O  O22  1  0.96577131  0.67260340  0.36781844  1
  O  O23  1  0.03422869  0.32739660  0.63218156  1
  O  O24  1  0.53837946  0.55132166  0.13950244  1
  O  O25  1  0.46162054  0.44867834  0.86049756  1
  O  O26  1  0.03837946  0.94867834  0.86049756  1
  O  O27  1  0.46162054  0.44867834  0.63950244  1
  O  O28  1  0.96162054  0.05132166  0.13950244  1
  O  O29  1  0.53837946  0.55132166  0.36049756  1
  O  O30  1  0.96162054  0.05132166  0.36049756  1
  O  O31  1  0.03837946  0.94867834  0.63950244  1
  O  O32  1  0.77663292  0.35214716  0.25000000  1
  O  O33  1  0.22336708  0.64785284  0.75000000  1
  O  O34  1  0.27663292  0.14785284  0.75000000  1
  O  O35  1  0.72336708  0.85214716  0.25000000  1
  F  F36  1  0.23168929  0.11072460  0.02001658  1
  F  F37  1  0.76831071  0.88927540  0.97998342  1
  F  F38  1  0.73168929  0.38927540  0.97998342  1
  F  F39  1  0.76831071  0.88927540  0.52001658  1
  F  F40  1  0.26831071  0.61072460  0.02001658  1
  F  F41  1  0.23168929  0.11072460  0.47998342  1
  F  F42  1  0.26831071  0.61072460  0.47998342  1
  F  F43  1  0.73168929  0.38927540  0.52001658  1
  F  F44  1  0.17746878  0.36290773  0.13492618  1
  F  F45  1  0.82253122  0.63709227  0.86507382  1
  F  F46  1  0.67746878  0.13709227  0.86507382  1
  F  F47  1  0.82253122  0.63709227  0.63492618  1
  F  F48  1  0.32253122  0.86290773  0.13492618  1
  F  F49  1  0.17746878  0.36290773  0.36507382  1
  F  F50  1  0.32253122  0.86290773  0.36507382  1
  F  F51  1  0.67746878  0.13709227  0.63492618  1
  F  F52  1  0.25562992  0.11475659  0.25000000  1
  F  F53  1  0.74437008  0.88524341  0.75000000  1
  F  F54  1  0.75562992  0.38524341  0.75000000  1
  F  F55  1  0.24437008  0.61475659  0.25000000  1
