# generated using pymatgen
data_RbSO4
_symmetry_space_group_name_H-M   'P 1'
_cell_length_a   7.46983822
_cell_length_b   7.92041252
_cell_length_c   7.66567984
_cell_angle_alpha   90.00000000
_cell_angle_beta   99.32710389
_cell_angle_gamma   90.00000000
_symmetry_Int_Tables_number   1
_chemical_formula_structural   RbSO4
_chemical_formula_sum   'Rb4 S4 O16'
_cell_volume   447.53771761
_cell_formula_units_Z   4
loop_
 _symmetry_equiv_pos_site_id
 _symmetry_equiv_pos_as_xyz
  1  'x, y, z'
loop_
 _atom_site_type_symbol
 _atom_site_label
 _atom_site_symmetry_multiplicity
 _atom_site_fract_x
 _atom_site_fract_y
 _atom_site_fract_z
 _atom_site_occupancy
  Rb  Rb0  1  0.39865159  0.31748727  0.76985356  1
  Rb  Rb1  1  0.60134841  0.68251273  0.23014644  1
  Rb  Rb2  1  0.10134841  0.81748727  0.73014644  1
  Rb  Rb3  1  0.89865159  0.18251273  0.26985356  1
  S  S4  1  0.39601815  0.18581940  0.24509945  1
  S  S5  1  0.60398185  0.81418060  0.75490055  1
  S  S6  1  0.10398185  0.68581940  0.25490055  1
  S  S7  1  0.89601815  0.31418060  0.74509945  1
  O  O8  1  0.51726562  0.04673756  0.32643218  1
  O  O9  1  0.48273438  0.95326244  0.67356782  1
  O  O10  1  0.98273438  0.54673756  0.17356782  1
  O  O11  1  0.01726562  0.45326244  0.82643218  1
  O  O12  1  0.49606713  0.68266206  0.82909773  1
  O  O13  1  0.50393287  0.31733794  0.17090227  1
  O  O14  1  0.00393287  0.18266206  0.67090227  1
  O  O15  1  0.99606713  0.81733794  0.32909773  1
  O  O16  1  0.76201215  0.38839268  0.60084028  1
  O  O17  1  0.23798785  0.61160732  0.39915972  1
  O  O18  1  0.73798785  0.88839268  0.89915972  1
  O  O19  1  0.26201215  0.11160732  0.10084028  1
  O  O20  1  0.80192368  0.24300336  0.88546553  1
  O  O21  1  0.19807632  0.75699664  0.11453447  1
  O  O22  1  0.69807632  0.74300336  0.61453447  1
  O  O23  1  0.30192368  0.25699664  0.38546553  1
