# generated using pymatgen
data_Rb2Na2Al3(SiO4)3
_symmetry_space_group_name_H-M   'P 1'
_cell_length_a   5.29315276
_cell_length_b   8.33480242
_cell_length_c   15.50088876
_cell_angle_alpha   90.00000000
_cell_angle_beta   90.00000000
_cell_angle_gamma   90.00000000
_symmetry_Int_Tables_number   1
_chemical_formula_structural   Rb2Na2Al3(SiO4)3
_chemical_formula_sum   'Rb4 Na4 Al6 Si6 O24'
_cell_volume   683.85863748
_cell_formula_units_Z   2
loop_
 _symmetry_equiv_pos_site_id
 _symmetry_equiv_pos_as_xyz
  1  'x, y, z'
loop_
 _atom_site_type_symbol
 _atom_site_label
 _atom_site_symmetry_multiplicity
 _atom_site_fract_x
 _atom_site_fract_y
 _atom_site_fract_z
 _atom_site_occupancy
  Rb  Rb0  1  0.83027510  0.34606830  0.78613013  1
  Rb  Rb1  1  0.33027510  0.65393170  0.71386987  1
  Rb  Rb2  1  0.33027510  0.65393170  0.28613013  1
  Rb  Rb3  1  0.83027510  0.34606830  0.21386987  1
  Na  Na4  1  0.80529222  0.17217500  0.00000000  1
  Na  Na5  1  0.30529222  0.82782500  0.50000000  1
  Na  Na6  1  0.31610145  0.82663541  0.00000000  1
  Na  Na7  1  0.81610145  0.17336459  0.50000000  1
  Al  Al8  1  0.84283323  0.89405856  0.85473600  1
  Al  Al9  1  0.34283323  0.10594144  0.64526400  1
  Al  Al10  1  0.34283323  0.10594144  0.35473600  1
  Al  Al11  1  0.84283323  0.89405856  0.14526400  1
  Al  Al12  1  0.33676461  0.40057783  0.00000000  1
  Al  Al13  1  0.83676461  0.59942217  0.50000000  1
  Si  Si14  1  0.84108330  0.61496104  0.00000000  1
  Si  Si15  1  0.34108330  0.38503896  0.50000000  1
  Si  Si16  1  0.84205930  0.88967666  0.64172879  1
  Si  Si17  1  0.34205930  0.11032334  0.85827121  1
  Si  Si18  1  0.34205930  0.11032334  0.14172879  1
  Si  Si19  1  0.84205930  0.88967666  0.35827121  1
  O  O20  1  0.00822493  0.44665973  0.00000000  1
  O  O21  1  0.50822493  0.55334027  0.50000000  1
  O  O22  1  0.92018155  0.72221142  0.91510192  1
  O  O23  1  0.42018155  0.27778858  0.58489808  1
  O  O24  1  0.42018155  0.27778858  0.41510192  1
  O  O25  1  0.92018155  0.72221142  0.08489808  1
  O  O26  1  0.53707703  0.57134620  0.00000000  1
  O  O27  1  0.03707703  0.42865380  0.50000000  1
  O  O28  1  0.54416345  0.96999062  0.88735481  1
  O  O29  1  0.04416345  0.03000938  0.61264519  1
  O  O30  1  0.04416345  0.03000938  0.38735481  1
  O  O31  1  0.54416345  0.96999062  0.11264519  1
  O  O32  1  0.86217878  0.84809095  0.74452983  1
  O  O33  1  0.36217878  0.15190905  0.75547017  1
  O  O34  1  0.36217878  0.15190905  0.24452983  1
  O  O35  1  0.86217878  0.84809095  0.25547017  1
  O  O36  1  0.55521835  0.94820263  0.61519370  1
  O  O37  1  0.05521835  0.05179737  0.88480630  1
  O  O38  1  0.05521835  0.05179737  0.11519370  1
  O  O39  1  0.55521835  0.94820263  0.38480630  1
  O  O40  1  0.91381847  0.72375035  0.58956676  1
  O  O41  1  0.41381847  0.27624965  0.91043324  1
  O  O42  1  0.41381847  0.27624965  0.08956676  1
  O  O43  1  0.91381847  0.72375035  0.41043324  1
