# generated using pymatgen
data_Na5Ca4(SiO3)6
_symmetry_space_group_name_H-M   'P 1'
_cell_length_a   10.64912525
_cell_length_b   10.64912524
_cell_length_c   13.37704190
_cell_angle_alpha   90.00000000
_cell_angle_beta   90.00000000
_cell_angle_gamma   120.00000034
_symmetry_Int_Tables_number   1
_chemical_formula_structural   Na5Ca4(SiO3)6
_chemical_formula_sum   'Na15 Ca12 Si18 O54'
_cell_volume   1313.76772115
_cell_formula_units_Z   3
loop_
 _symmetry_equiv_pos_site_id
 _symmetry_equiv_pos_as_xyz
  1  'x, y, z'
loop_
 _atom_site_type_symbol
 _atom_site_label
 _atom_site_symmetry_multiplicity
 _atom_site_fract_x
 _atom_site_fract_y
 _atom_site_fract_z
 _atom_site_occupancy
  Na  Na0  1  0.19225001  0.48843183  0.83091349  1
  Na  Na1  1  0.29618182  0.80774999  0.49758049  1
  Na  Na2  1  0.51156817  0.70381818  0.16424649  1
  Na  Na3  1  0.99768890  0.66681954  0.40105527  1
  Na  Na4  1  0.66913064  0.00231110  0.06772227  1
  Na  Na5  1  0.33318046  0.33086936  0.73438827  1
  Na  Na6  1  0.48251386  0.65110969  0.66437035  1
  Na  Na7  1  0.16859583  0.51748614  0.33103735  1
  Na  Na8  1  0.34889031  0.83140417  0.99770335  1
  Na  Na9  1  0.81702238  0.83715948  0.99026003  1
  Na  Na10  1  0.02013710  0.18297762  0.65692703  1
  Na  Na11  1  0.16284052  0.97986290  0.32359303  1
  Na  Na12  1  0.84160955  0.30876497  0.99442213  1
  Na  Na13  1  0.46715541  0.15839045  0.66108913  1
  Na  Na14  1  0.69123503  0.53284459  0.32775513  1
  Ca  Ca15  1  0.84884671  0.34241581  0.48889275  1
  Ca  Ca16  1  0.49356910  0.15115329  0.15555975  1
  Ca  Ca17  1  0.65758419  0.50643090  0.82222575  1
  Ca  Ca18  1  0.83299286  0.85148999  0.47999804  1
  Ca  Ca19  1  0.01849714  0.16700714  0.14666504  1
  Ca  Ca20  1  0.14851001  0.98150286  0.81333104  1
  Ca  Ca21  1  0.64859952  0.00212678  0.57597627  1
  Ca  Ca22  1  0.35352726  0.35140048  0.24264327  1
  Ca  Ca23  1  0.99787322  0.64647274  0.90930927  1
  Ca  Ca24  1  0.97700924  0.64315976  0.65162722  1
  Ca  Ca25  1  0.66615052  0.02299076  0.31829422  1
  Ca  Ca26  1  0.35684024  0.33384948  0.98496022  1
  Si  Si27  1  0.81940564  0.28843032  0.76283303  1
  Si  Si28  1  0.46902468  0.18059436  0.42950003  1
  Si  Si29  1  0.71156968  0.53097532  0.09616603  1
  Si  Si30  1  0.49058873  0.65374063  0.42853865  1
  Si  Si31  1  0.16315190  0.50941127  0.09520565  1
  Si  Si32  1  0.34625937  0.83684810  0.76187165  1
  Si  Si33  1  0.51678162  0.70544973  0.89157862  1
  Si  Si34  1  0.18866810  0.48321838  0.55824562  1
  Si  Si35  1  0.29455027  0.81133190  0.22491162  1
  Si  Si36  1  0.51748948  0.13894514  0.88252388  1
  Si  Si37  1  0.62145566  0.48251052  0.54919088  1
  Si  Si38  1  0.86105486  0.37854434  0.21585688  1
  Si  Si39  1  0.98786301  0.15641174  0.88390792  1
  Si  Si40  1  0.16854873  0.01213699  0.55057492  1
  Si  Si41  1  0.84358826  0.83145127  0.21724092  1
  Si  Si42  1  0.81528702  0.85459810  0.75215522  1
  Si  Si43  1  0.03931108  0.18471298  0.41882222  1
  Si  Si44  1  0.14540190  0.96068892  0.08548822  1
  O  O45  1  0.86336889  0.10528327  0.43375419  1
  O  O46  1  0.24191439  0.13663111  0.10042119  1
  O  O47  1  0.89471673  0.75808561  0.76708719  1
  O  O48  1  0.66745019  0.17369714  0.82186901  1
  O  O49  1  0.50624695  0.33254981  0.48853601  1
  O  O50  1  0.82630286  0.49375305  0.15520201  1
  O  O51  1  0.77773399  0.93952457  0.20918167  1
  O  O52  1  0.16179058  0.22226601  0.87584867  1
  O  O53  1  0.06047543  0.83820942  0.54251467  1
  O  O54  1  0.58453949  0.83071273  0.43607446  1
  O  O55  1  0.24617324  0.41546051  0.10274146  1
  O  O56  1  0.16928727  0.75382676  0.76940746  1
  O  O57  1  0.55465813  0.77772939  0.00030352  1
  O  O58  1  0.22307126  0.44534187  0.66697052  1
  O  O59  1  0.22227061  0.77692874  0.33363652  1
  O  O60  1  0.81220181  0.23143283  0.64828084  1
  O  O61  1  0.41923102  0.18779819  0.31494784  1
  O  O62  1  0.76856717  0.58076898  0.98161384  1
  O  O63  1  0.92849476  0.00890114  0.81050144  1
  O  O64  1  0.08040638  0.07150524  0.47716844  1
  O  O65  1  0.99109886  0.91959362  0.14383444  1
  O  O66  1  0.39965538  0.74410469  0.83419338  1
  O  O67  1  0.34444931  0.60034462  0.50086038  1
  O  O68  1  0.25589531  0.65555069  0.16752638  1
  O  O69  1  0.78835752  0.52362286  0.52786417  1
  O  O70  1  0.73526534  0.21164248  0.19453117  1
  O  O71  1  0.47637714  0.26473466  0.86119717  1
  O  O72  1  0.77920433  0.89163184  0.64160575  1
  O  O73  1  0.11242751  0.22079567  0.30827275  1
  O  O74  1  0.10836816  0.88757249  0.97493875  1
  O  O75  1  0.94864435  0.27142748  0.82489607  1
  O  O76  1  0.32278314  0.05135565  0.49156307  1
  O  O77  1  0.72857252  0.67721686  0.15822907  1
  O  O78  1  0.45151740  0.53193227  0.87885888  1
  O  O79  1  0.08041487  0.54848260  0.54552588  1
  O  O80  1  0.46806773  0.91958513  0.21219188  1
  O  O81  1  0.52121059  0.08966317  0.99648500  1
  O  O82  1  0.56845258  0.47878941  0.66315200  1
  O  O83  1  0.91033683  0.43154742  0.32981800  1
  O  O84  1  0.60727347  0.61328698  0.48634589  1
  O  O85  1  0.00601351  0.39272653  0.15301289  1
  O  O86  1  0.38671302  0.99398649  0.81967889  1
  O  O87  1  0.42788136  0.87008434  0.65461807  1
  O  O88  1  0.44220298  0.57211864  0.32128507  1
  O  O89  1  0.12991566  0.55779702  0.98795107  1
  O  O90  1  0.90935705  0.11370344  0.99214995  1
  O  O91  1  0.20434639  0.09064295  0.65881695  1
  O  O92  1  0.88629656  0.79565361  0.32548295  1
  O  O93  1  0.85777905  0.45599416  0.78211702  1
  O  O94  1  0.59821510  0.14222095  0.44878402  1
  O  O95  1  0.54400584  0.40178490  0.11545002  1
  O  O96  1  0.66550585  0.77303275  0.81964781  1
  O  O97  1  0.10752691  0.33449415  0.48631481  1
  O  O98  1  0.22696725  0.89247309  0.15298081  1
