# generated using pymatgen
data_Cr4Cu11O30
_symmetry_space_group_name_H-M   'P 1'
_cell_length_a   5.50603672
_cell_length_b   10.34834829
_cell_length_c   10.56232803
_cell_angle_alpha   93.44226118
_cell_angle_beta   104.31004722
_cell_angle_gamma   95.73453645
_symmetry_Int_Tables_number   1
_chemical_formula_structural   Cr4Cu11O30
_chemical_formula_sum   'Cr4 Cu11 O30'
_cell_volume   577.98732258
_cell_formula_units_Z   1
loop_
 _symmetry_equiv_pos_site_id
 _symmetry_equiv_pos_as_xyz
  1  'x, y, z'
loop_
 _atom_site_type_symbol
 _atom_site_label
 _atom_site_symmetry_multiplicity
 _atom_site_fract_x
 _atom_site_fract_y
 _atom_site_fract_z
 _atom_site_occupancy
  Cr  Cr0  1  0.30599337  0.18292456  0.55811742  1
  Cr  Cr1  1  0.69400663  0.81707544  0.44188258  1
  Cr  Cr2  1  0.05780178  0.19804889  0.02519562  1
  Cr  Cr3  1  0.94219822  0.80195111  0.97480438  1
  Cu  Cu4  1  0.79549571  0.51330474  0.07785298  1
  Cu  Cu5  1  0.20450429  0.48669526  0.92214702  1
  Cu  Cu6  1  0.37053561  0.51290323  0.21373486  1
  Cu  Cu7  1  0.62946439  0.48709677  0.78626514  1
  Cu  Cu8  1  0.88637515  0.02999779  0.25293140  1
  Cu  Cu9  1  0.11362485  0.97000221  0.74706860  1
  Cu  Cu10  1  0.50000000  0.50000000  0.50000000  1
  Cu  Cu11  1  0.06441530  0.49407114  0.64046850  1
  Cu  Cu12  1  0.93558470  0.50592886  0.35953150  1
  Cu  Cu13  1  0.38535459  0.03025147  0.25279754  1
  Cu  Cu14  1  0.61464541  0.96974853  0.74720246  1
  O  O15  1  0.19804734  0.56885803  0.51085253  1
  O  O16  1  0.80195266  0.43114197  0.48914747  1
  O  O17  1  0.67168724  0.43465049  0.21372176  1
  O  O18  1  0.32831276  0.56534951  0.78627824  1
  O  O19  1  0.35650513  0.07450344  0.68862224  1
  O  O20  1  0.64349487  0.92549656  0.31137776  1
  O  O21  1  0.50103270  0.16282436  0.46897255  1
  O  O22  1  0.49896730  0.83717564  0.53102745  1
  O  O23  1  0.12200481  0.13326550  0.18415229  1
  O  O24  1  0.87799519  0.86673450  0.81584771  1
  O  O25  1  0.06106712  0.57975588  0.22350807  1
  O  O26  1  0.93893288  0.42024412  0.77649193  1
  O  O27  1  0.62406969  0.11852626  0.19262615  1
  O  O28  1  0.37593031  0.88147374  0.80737385  1
  O  O29  1  0.22805574  0.85423982  0.05072697  1
  O  O30  1  0.77194426  0.14576018  0.94927303  1
  O  O31  1  0.09736977  0.36736770  0.03706415  1
  O  O32  1  0.90263023  0.63263230  0.96293585  1
  O  O33  1  0.41906175  0.58769826  0.06750832  1
  O  O34  1  0.58093825  0.41230174  0.93249168  1
  O  O35  1  0.14538069  0.93757360  0.30841208  1
  O  O36  1  0.85461931  0.06242640  0.69158792  1
  O  O37  1  0.02056860  0.15339572  0.46685359  1
  O  O38  1  0.97943140  0.84660428  0.53314641  1
  O  O39  1  0.35244635  0.33626930  0.62680498  1
  O  O40  1  0.64755365  0.66373070  0.37319502  1
  O  O41  1  0.32088895  0.41679913  0.34411014  1
  O  O42  1  0.67911105  0.58320087  0.65588986  1
  O  O43  1  0.23887256  0.14095650  0.94368527  1
  O  O44  1  0.76112744  0.85904350  0.05631473  1
