# generated using pymatgen
data_ZrTi(CrFe)2
_symmetry_space_group_name_H-M   'P 1'
_cell_length_a   4.95219601
_cell_length_b   4.90368692
_cell_length_c   7.92879057
_cell_angle_alpha   90.00763544
_cell_angle_beta   89.92522361
_cell_angle_gamma   119.68626850
_symmetry_Int_Tables_number   1
_chemical_formula_structural   ZrTi(CrFe)2
_chemical_formula_sum   'Zr2 Ti2 Cr4 Fe4'
_cell_volume   167.27151643
_cell_formula_units_Z   2
loop_
 _symmetry_equiv_pos_site_id
 _symmetry_equiv_pos_as_xyz
  1  'x, y, z'
loop_
 _atom_site_type_symbol
 _atom_site_label
 _atom_site_symmetry_multiplicity
 _atom_site_fract_x
 _atom_site_fract_y
 _atom_site_fract_z
 _atom_site_occupancy
  Zr  Zr0  1  0.33244010  0.66616393  0.07115482  1
  Zr  Zr1  1  0.66675550  0.33337950  0.93416412  1
  Ti  Ti2  1  0.66711025  0.33353780  0.55695094  1
  Ti  Ti3  1  0.33186990  0.66590169  0.44257299  1
  Cr  Cr4  1  0.99818376  0.99920522  0.50049783  1
  Cr  Cr5  1  0.99910658  0.99963461  0.99807957  1
  Cr  Cr6  1  0.17251887  0.34195015  0.74015937  1
  Cr  Cr7  1  0.17248735  0.83045683  0.74015480  1
  Fe  Fe8  1  0.65731676  0.82863565  0.74244951  1
  Fe  Fe9  1  0.83124667  0.66198492  0.25798896  1
  Fe  Fe10  1  0.83127498  0.16929454  0.25799564  1
  Fe  Fe11  1  0.33968928  0.16985516  0.25783146  1
