# generated using pymatgen
data_C4NCl3
_symmetry_space_group_name_H-M   'P 1'
_cell_length_a   4.11684451
_cell_length_b   13.41463857
_cell_length_c   21.92928793
_cell_angle_alpha   101.05078804
_cell_angle_beta   90.00000000
_cell_angle_gamma   90.00000000
_symmetry_Int_Tables_number   1
_chemical_formula_structural   C4NCl3
_chemical_formula_sum   'C32 N8 Cl24'
_cell_volume   1188.61043730
_cell_formula_units_Z   8
loop_
 _symmetry_equiv_pos_site_id
 _symmetry_equiv_pos_as_xyz
  1  'x, y, z'
loop_
 _atom_site_type_symbol
 _atom_site_label
 _atom_site_symmetry_multiplicity
 _atom_site_fract_x
 _atom_site_fract_y
 _atom_site_fract_z
 _atom_site_occupancy
  C  C0  1  0.84290574  0.85846130  0.89397317  1
  C  C1  1  0.15709426  0.14153870  0.10602683  1
  C  C2  1  0.34290574  0.14153870  0.60602683  1
  C  C3  1  0.65709426  0.85846130  0.39397317  1
  C  C4  1  0.88999989  0.32929757  0.98502324  1
  C  C5  1  0.11000011  0.67070243  0.01497676  1
  C  C6  1  0.38999989  0.67070243  0.51497676  1
  C  C7  1  0.61000011  0.32929757  0.48502324  1
  C  C8  1  0.67589667  0.32908055  0.64890580  1
  C  C9  1  0.32410333  0.67091945  0.35109420  1
  C  C10  1  0.17589667  0.67091945  0.85109420  1
  C  C11  1  0.82410333  0.32908055  0.14890580  1
  C  C12  1  0.59260064  0.26574903  0.69020555  1
  C  C13  1  0.40739936  0.73425097  0.30979445  1
  C  C14  1  0.09260064  0.73425097  0.80979445  1
  C  C15  1  0.90739936  0.26574903  0.19020555  1
  C  C16  1  0.92851731  0.82851647  0.83150236  1
  C  C17  1  0.07148269  0.17148353  0.16849764  1
  C  C18  1  0.42851731  0.17148353  0.66849764  1
  C  C19  1  0.57148269  0.82851647  0.33150236  1
  C  C20  1  0.40191838  0.70152626  0.41541494  1
  C  C21  1  0.59808162  0.29847374  0.58458506  1
  C  C22  1  0.90191838  0.29847374  0.08458506  1
  C  C23  1  0.09808162  0.70152626  0.91541494  1
  C  C24  1  0.56457536  0.76422968  0.53646399  1
  C  C25  1  0.43542464  0.23577032  0.46353601  1
  C  C26  1  0.06457536  0.23577032  0.96353601  1
  C  C27  1  0.93542464  0.76422968  0.03646399  1
  C  C28  1  0.92781716  0.79480072  0.93680652  1
  C  C29  1  0.07218284  0.20519928  0.06319348  1
  C  C30  1  0.42781716  0.20519928  0.56319348  1
  C  C31  1  0.57218284  0.79480072  0.43680652  1
  N  N32  1  0.68511054  0.35797818  0.54366829  1
  N  N33  1  0.31488946  0.64202182  0.45633171  1
  N  N34  1  0.18511054  0.64202182  0.95633171  1
  N  N35  1  0.81488946  0.35797818  0.04366829  1
  N  N36  1  0.84891729  0.82259725  0.99790684  1
  N  N37  1  0.15108271  0.17740275  0.00209316  1
  N  N38  1  0.34891729  0.17740275  0.50209316  1
  N  N39  1  0.65108271  0.82259725  0.49790684  1
  Cl  Cl40  1  0.77204337  0.40608071  0.93439654  1
  Cl  Cl41  1  0.22795663  0.59391929  0.06560346  1
  Cl  Cl42  1  0.27204337  0.59391929  0.56560346  1
  Cl  Cl43  1  0.72795663  0.40608071  0.43439654  1
  Cl  Cl44  1  0.86390998  0.44342099  0.67434858  1
  Cl  Cl45  1  0.13609002  0.55657901  0.32565142  1
  Cl  Cl46  1  0.36390998  0.55657901  0.82565142  1
  Cl  Cl47  1  0.63609002  0.44342099  0.17434858  1
  Cl  Cl48  1  0.63990688  0.96946753  0.92021864  1
  Cl  Cl49  1  0.36009312  0.03053247  0.07978136  1
  Cl  Cl50  1  0.13990688  0.03053247  0.57978136  1
  Cl  Cl51  1  0.86009312  0.96946753  0.42021864  1
  Cl  Cl52  1  0.83480002  0.90600243  0.78012955  1
  Cl  Cl53  1  0.16519998  0.09399757  0.21987045  1
  Cl  Cl54  1  0.33480002  0.09399757  0.71987045  1
  Cl  Cl55  1  0.66519998  0.90600243  0.28012955  1
  Cl  Cl56  1  0.66268406  0.80198156  0.61392168  1
  Cl  Cl57  1  0.33731594  0.19801844  0.38607832  1
  Cl  Cl58  1  0.16268406  0.19801844  0.88607832  1
  Cl  Cl59  1  0.83731594  0.80198156  0.11392168  1
  Cl  Cl60  1  0.68596334  0.30121054  0.76747343  1
  Cl  Cl61  1  0.31403666  0.69878946  0.23252657  1
  Cl  Cl62  1  0.18596334  0.69878946  0.73252657  1
  Cl  Cl63  1  0.81403666  0.30121054  0.26747343  1
