# generated using pymatgen
data_Be3Al2Si6HO18
_symmetry_space_group_name_H-M   'P 1'
_cell_length_a   9.30050634
_cell_length_b   9.30050634
_cell_length_c   9.29435382
_cell_angle_alpha   90.00000000
_cell_angle_beta   90.00000000
_cell_angle_gamma   120.00000487
_symmetry_Int_Tables_number   1
_chemical_formula_structural   Be3Al2Si6HO18
_chemical_formula_sum   'Be6 Al4 Si12 H2 O36'
_cell_volume   696.24645733
_cell_formula_units_Z   2
loop_
 _symmetry_equiv_pos_site_id
 _symmetry_equiv_pos_as_xyz
  1  'x, y, z'
loop_
 _atom_site_type_symbol
 _atom_site_label
 _atom_site_symmetry_multiplicity
 _atom_site_fract_x
 _atom_site_fract_y
 _atom_site_fract_z
 _atom_site_occupancy
  Be  Be0  1  0.50000000  0.50000000  0.75000000  1
  Be  Be1  1  0.50000000  0.50000000  0.25000000  1
  Be  Be2  1  -0.00000000  0.50000000  0.75000000  1
  Be  Be3  1  -0.00000000  0.50000000  0.25000000  1
  Be  Be4  1  0.50000000  0.00000000  0.75000000  1
  Be  Be5  1  0.50000000  0.00000000  0.25000000  1
  Al  Al6  1  0.66666700  0.33333300  0.75000000  1
  Al  Al7  1  0.33333300  0.66666700  0.25000000  1
  Al  Al8  1  0.33333300  0.66666700  0.75000000  1
  Al  Al9  1  0.66666700  0.33333300  0.25000000  1
  Si  Si10  1  0.88453905  0.27238582  -0.00000000  1
  Si  Si11  1  0.11546095  0.72761418  -0.00000000  1
  Si  Si12  1  0.38784677  0.11546095  -0.00000000  1
  Si  Si13  1  0.61215323  0.72761418  0.50000000  1
  Si  Si14  1  0.61215323  0.88453905  -0.00000000  1
  Si  Si15  1  0.38784677  0.27238582  0.50000000  1
  Si  Si16  1  0.72761418  0.61215323  -0.00000000  1
  Si  Si17  1  0.27238582  0.88453905  0.50000000  1
  Si  Si18  1  0.27238582  0.38784677  -0.00000000  1
  Si  Si19  1  0.72761418  0.11546095  0.50000000  1
  Si  Si20  1  0.11546095  0.38784677  0.50000000  1
  Si  Si21  1  0.88453905  0.61215323  0.50000000  1
  H  H22  1  -0.00000000  0.00000000  0.75000000  1
  H  H23  1  -0.00000000  0.00000000  0.25000000  1
  O  O24  1  0.68965143  0.76352650  -0.00000000  1
  O  O25  1  0.31034857  0.23647350  -0.00000000  1
  O  O26  1  0.07387508  0.31034857  -0.00000000  1
  O  O27  1  0.92612492  0.23647350  0.50000000  1
  O  O28  1  0.92612492  0.68965143  -0.00000000  1
  O  O29  1  0.07387508  0.76352650  0.50000000  1
  O  O30  1  0.23647350  0.92612492  -0.00000000  1
  O  O31  1  0.76352650  0.68965143  0.50000000  1
  O  O32  1  0.76352650  0.07387508  -0.00000000  1
  O  O33  1  0.23647350  0.31034857  0.50000000  1
  O  O34  1  0.31034857  0.07387508  0.50000000  1
  O  O35  1  0.68965143  0.92612492  0.50000000  1
  O  O36  1  0.85504768  0.35389952  0.85456704  1
  O  O37  1  0.14495232  0.64610048  0.14543296  1
  O  O38  1  0.49885184  0.14495232  0.85456704  1
  O  O39  1  0.14495232  0.64610048  0.85456704  1
  O  O40  1  0.50114816  0.64610048  0.64543296  1
  O  O41  1  0.50114816  0.85504768  0.14543296  1
  O  O42  1  0.85504768  0.35389952  0.14543296  1
  O  O43  1  0.49885184  0.35389952  0.35456704  1
  O  O44  1  0.64610048  0.50114816  0.85456704  1
  O  O45  1  0.50114816  0.85504768  0.85456704  1
  O  O46  1  0.35389952  0.85504768  0.64543296  1
  O  O47  1  0.35389952  0.49885184  0.14543296  1
  O  O48  1  0.49885184  0.14495232  0.14543296  1
  O  O49  1  0.64610048  0.14495232  0.35456704  1
  O  O50  1  0.49885184  0.35389952  0.64543296  1
  O  O51  1  0.50114816  0.64610048  0.35456704  1
  O  O52  1  0.35389952  0.49885184  0.85456704  1
  O  O53  1  0.64610048  0.14495232  0.64543296  1
  O  O54  1  0.64610048  0.50114816  0.14543296  1
  O  O55  1  0.35389952  0.85504768  0.35456704  1
  O  O56  1  0.14495232  0.49885184  0.64543296  1
  O  O57  1  0.85504768  0.50114816  0.35456704  1
  O  O58  1  0.85504768  0.50114816  0.64543296  1
  O  O59  1  0.14495232  0.49885184  0.35456704  1
