# generated using pymatgen
data_CsSb4F13
_symmetry_space_group_name_H-M   'P 1'
_cell_length_a   7.00657608
_cell_length_b   7.93045578
_cell_length_c   7.93045578
_cell_angle_alpha   78.74685910
_cell_angle_beta   63.78433448
_cell_angle_gamma   63.78433448
_symmetry_Int_Tables_number   1
_chemical_formula_structural   CsSb4F13
_chemical_formula_sum   'Cs1 Sb4 F13'
_cell_volume   354.66658759
_cell_formula_units_Z   1
loop_
 _symmetry_equiv_pos_site_id
 _symmetry_equiv_pos_as_xyz
  1  'x, y, z'
loop_
 _atom_site_type_symbol
 _atom_site_label
 _atom_site_symmetry_multiplicity
 _atom_site_fract_x
 _atom_site_fract_y
 _atom_site_fract_z
 _atom_site_occupancy
  Cs  Cs0  1  0.50000000  0.00000000  0.00000000  1
  Sb  Sb1  1  0.27276876  0.73017487  0.72428760  1
  Sb  Sb2  1  0.72723124  0.26982513  0.27571240  1
  Sb  Sb3  1  0.99705637  0.27571240  0.73017487  1
  Sb  Sb4  1  0.00294363  0.72428760  0.26982513  1
  F  F5  1  0.11534821  0.31543910  0.45386447  1
  F  F6  1  0.88465179  0.68456090  0.54613553  1
  F  F7  1  0.56921269  0.54613553  0.31543910  1
  F  F8  1  0.43078731  0.45386447  0.68456090  1
  F  F9  1  0.00000000  0.00000000  0.00000000  1
  F  F10  1  0.31824522  0.09793079  0.68274381  1
  F  F11  1  0.68175478  0.90206921  0.31725619  1
  F  F12  1  0.09891981  0.90206921  0.31725619  1
  F  F13  1  0.00098903  0.31725619  0.09793079  1
  F  F14  1  0.90108019  0.09793079  0.68274381  1
  F  F15  1  0.99901097  0.68274381  0.90206921  1
  F  F16  1  0.41617600  0.68274381  0.90206921  1
  F  F17  1  0.58382400  0.31725619  0.09793079  1
