# generated using pymatgen
data_NbFeSe5
_symmetry_space_group_name_H-M   'P 1'
_cell_length_a   3.47022614
_cell_length_b   9.41480181
_cell_length_c   10.30049071
_cell_angle_alpha   113.70761622
_cell_angle_beta   90.00000000
_cell_angle_gamma   90.00000000
_symmetry_Int_Tables_number   1
_chemical_formula_structural   NbFeSe5
_chemical_formula_sum   'Nb2 Fe2 Se10'
_cell_volume   308.13213991
_cell_formula_units_Z   2
loop_
 _symmetry_equiv_pos_site_id
 _symmetry_equiv_pos_as_xyz
  1  'x, y, z'
loop_
 _atom_site_type_symbol
 _atom_site_label
 _atom_site_symmetry_multiplicity
 _atom_site_fract_x
 _atom_site_fract_y
 _atom_site_fract_z
 _atom_site_occupancy
  Nb  Nb0  1  0.75000000  0.22432587  0.13291381  1
  Nb  Nb1  1  0.25000000  0.77567413  0.86708619  1
  Fe  Fe2  1  0.75000000  0.94839946  0.59736624  1
  Fe  Fe3  1  0.25000000  0.05160054  0.40263376  1
  Se  Se4  1  0.75000000  0.66657991  0.00143244  1
  Se  Se5  1  0.25000000  0.33342009  0.99856756  1
  Se  Se6  1  0.75000000  0.54430960  0.74378953  1
  Se  Se7  1  0.25000000  0.45569040  0.25621047  1
  Se  Se8  1  0.75000000  0.98717571  0.86285065  1
  Se  Se9  1  0.25000000  0.01282429  0.13714935  1
  Se  Se10  1  0.75000000  0.85430834  0.34295183  1
  Se  Se11  1  0.25000000  0.14569166  0.65704817  1
  Se  Se12  1  0.75000000  0.24738432  0.40942140  1
  Se  Se13  1  0.25000000  0.75261568  0.59057860  1
