# generated using pymatgen
data_ZnNi4
_symmetry_space_group_name_H-M   'P 1'
_cell_length_a   2.52897790
_cell_length_b   2.52897790
_cell_length_c   10.25721776
_cell_angle_alpha   90.00000000
_cell_angle_beta   97.08132134
_cell_angle_gamma   120.00000000
_symmetry_Int_Tables_number   1
_chemical_formula_structural   ZnNi4
_chemical_formula_sum   'Zn1 Ni4'
_cell_volume   56.23477582
_cell_formula_units_Z   1
loop_
 _symmetry_equiv_pos_site_id
 _symmetry_equiv_pos_as_xyz
  1  'x, y, z'
loop_
 _atom_site_type_symbol
 _atom_site_label
 _atom_site_symmetry_multiplicity
 _atom_site_fract_x
 _atom_site_fract_y
 _atom_site_fract_z
 _atom_site_occupancy
  Zn  Zn0  1  -0.00000000  -0.00000000  0.00000000  1
  Ni  Ni1  1  0.80262793  0.40131396  0.20394189  1
  Ni  Ni2  1  0.60116415  0.80058207  0.40174622  1
  Ni  Ni3  1  0.39883585  0.19941793  0.59825378  1
  Ni  Ni4  1  0.19737207  0.59868604  0.79605811  1
