# generated using pymatgen
data_Zr2Ga3Co
_symmetry_space_group_name_H-M   'P 1'
_cell_length_a   6.38642421
_cell_length_b   7.76735240
_cell_length_c   7.86472364
_cell_angle_alpha   83.11788622
_cell_angle_beta   114.84301675
_cell_angle_gamma   66.65842615
_symmetry_Int_Tables_number   1
_chemical_formula_structural   Zr2Ga3Co
_chemical_formula_sum   'Zr6 Ga9 Co3'
_cell_volume   305.26671608
_cell_formula_units_Z   3
loop_
 _symmetry_equiv_pos_site_id
 _symmetry_equiv_pos_as_xyz
  1  'x, y, z'
loop_
 _atom_site_type_symbol
 _atom_site_label
 _atom_site_symmetry_multiplicity
 _atom_site_fract_x
 _atom_site_fract_y
 _atom_site_fract_z
 _atom_site_occupancy
  Zr  Zr0  1  0.47420983  0.47015035  0.98396799  1
  Zr  Zr1  1  0.97428377  0.52403677  0.03269413  1
  Zr  Zr2  1  0.44675999  0.04662270  0.52915830  1
  Zr  Zr3  1  0.94797373  0.96935082  0.45730383  1
  Zr  Zr4  1  0.80663168  0.25761217  0.74821817  1
  Zr  Zr5  1  0.30189719  0.75125105  0.25449795  1
  Ga  Ga6  1  0.27993837  0.26194948  0.74396466  1
  Ga  Ga7  1  0.78888437  0.71957724  0.24543590  1
  Ga  Ga8  1  0.50892865  0.34344654  0.34576423  1
  Ga  Ga9  1  0.48638243  0.66342391  0.66163148  1
  Ga  Ga10  1  0.98564427  0.84617575  0.83987136  1
  Ga  Ga11  1  0.98556429  0.16462562  0.16449102  1
  Ga  Ga12  1  0.40317190  0.11671491  0.12783908  1
  Ga  Ga13  1  0.38967286  0.88407834  0.86738155  1
  Ga  Ga14  1  0.88636113  0.62159778  0.60759322  1
  Co  Co15  1  0.90289474  0.36284691  0.38749534  1
  Co  Co16  1  0.25440259  0.50041114  0.49839730  1
  Co  Co17  1  0.73639821  0.99612852  0.00429449  1
