# generated using pymatgen
data_ZrH8C2S(OF2)2
_symmetry_space_group_name_H-M   'P 1'
_cell_length_a   8.05474173
_cell_length_b   7.93587770
_cell_length_c   15.74445096
_cell_angle_alpha   90.00000000
_cell_angle_beta   90.00000000
_cell_angle_gamma   59.50327732
_symmetry_Int_Tables_number   1
_chemical_formula_structural   ZrH8C2S(OF2)2
_chemical_formula_sum   'Zr4 H32 C8 S4 O8 F16'
_cell_volume   867.17974773
_cell_formula_units_Z   4
loop_
 _symmetry_equiv_pos_site_id
 _symmetry_equiv_pos_as_xyz
  1  'x, y, z'
loop_
 _atom_site_type_symbol
 _atom_site_label
 _atom_site_symmetry_multiplicity
 _atom_site_fract_x
 _atom_site_fract_y
 _atom_site_fract_z
 _atom_site_occupancy
  Zr  Zr0  1  0.46803701  0.05831997  0.88624674  1
  Zr  Zr1  1  0.52635698  0.94168003  0.11375326  1
  Zr  Zr2  1  0.02635698  0.94168003  0.38624674  1
  Zr  Zr3  1  0.96803701  0.05831997  0.61375326  1
  H  H4  1  0.20804706  0.60036244  0.06585240  1
  H  H5  1  0.80840950  0.39963756  0.93414760  1
  H  H6  1  0.30840950  0.39963756  0.56585240  1
  H  H7  1  0.70804706  0.60036244  0.43414760  1
  H  H8  1  0.01245336  0.75736977  0.99552119  1
  H  H9  1  0.76982313  0.24263023  0.00447881  1
  H  H10  1  0.26982313  0.24263023  0.49552119  1
  H  H11  1  0.51245336  0.75736977  0.50447881  1
  H  H12  1  0.01182728  0.18940738  0.97931981  1
  H  H13  1  0.20123466  0.81059262  0.02068019  1
  H  H14  1  0.70123466  0.81059262  0.47931981  1
  H  H15  1  0.51182728  0.18940738  0.52068019  1
  H  H16  1  0.21484941  0.59016529  0.78023116  1
  H  H17  1  0.80501470  0.40983471  0.21976884  1
  H  H18  1  0.30501470  0.40983471  0.28023116  1
  H  H19  1  0.71484941  0.59016529  0.71976884  1
  H  H20  1  0.01754620  0.75088820  0.84877154  1
  H  H21  1  0.76843440  0.24911180  0.15122846  1
  H  H22  1  0.26843440  0.24911180  0.34877154  1
  H  H23  1  0.51754620  0.75088820  0.65122846  1
  H  H24  1  0.00940063  0.19707417  0.17677404  1
  H  H25  1  0.20647480  0.80292583  0.82322596  1
  H  H26  1  0.70647480  0.80292583  0.67677404  1
  H  H27  1  0.50940063  0.19707417  0.32322596  1
  H  H28  1  0.33706250  0.12180272  0.71173207  1
  H  H29  1  0.45886522  0.87819728  0.28826793  1
  H  H30  1  0.95886522  0.87819728  0.21173207  1
  H  H31  1  0.83706250  0.12180272  0.78826793  1
  H  H32  1  0.66223171  0.87674336  0.28749165  1
  H  H33  1  0.53897507  0.12325664  0.71250835  1
  H  H34  1  0.03897507  0.12325664  0.78749165  1
  H  H35  1  0.16223171  0.87674336  0.21250835  1
  C  C36  1  0.17109807  0.68835768  0.83520003  1
  C  C37  1  0.85945575  0.31164232  0.16479997  1
  C  C38  1  0.35945575  0.31164232  0.33520003  1
  C  C39  1  0.67109807  0.68835768  0.66479997  1
  C  C40  1  0.16560210  0.69549216  0.00990207  1
  C  C41  1  0.86109426  0.30450784  0.99009793  1
  C  C42  1  0.36109426  0.30450784  0.50990207  1
  C  C43  1  0.66560210  0.69549216  0.49009793  1
  S  S44  1  0.31385619  0.54735565  0.92380119  1
  S  S45  1  0.86121183  0.45264436  0.07619881  1
  S  S46  1  0.36121183  0.45264436  0.42380119  1
  S  S47  1  0.81385619  0.54735565  0.57619881  1
  O  O48  1  0.29048653  0.36482965  0.92424520  1
  O  O49  1  0.65531618  0.63517035  0.07575480  1
  O  O50  1  0.15531618  0.63517035  0.42424520  1
  O  O51  1  0.79048653  0.36482965  0.57575480  1
  O  O52  1  0.43073482  0.13609660  0.74792160  1
  O  O53  1  0.56683142  0.86390340  0.25207840  1
  O  O54  1  0.06683142  0.86390340  0.24792160  1
  O  O55  1  0.93073482  0.13609660  0.75207840  1
  F  F56  1  0.64528662  0.00000000  -0.00000000  1
  F  F57  1  0.14528662  0.00000000  0.50000000  1
  F  F58  1  0.34914504  1.00000000  0.00000000  1
  F  F59  1  0.84914504  1.00000000  0.50000000  1
  F  F60  1  0.21172882  0.08441797  0.84822649  1
  F  F61  1  0.29614679  0.91558203  0.15177351  1
  F  F62  1  0.79614679  0.91558203  0.34822649  1
  F  F63  1  0.71172882  0.08441797  0.65177351  1
  F  F64  1  0.79116702  0.89630554  0.14898077  1
  F  F65  1  0.68747256  0.10369446  0.85101923  1
  F  F66  1  0.18747256  0.10369446  0.64898077  1
  F  F67  1  0.29116702  0.89630554  0.35101923  1
  F  F68  1  0.61481489  0.77489260  0.86127524  1
  F  F69  1  0.38970749  0.22510740  0.13872476  1
  F  F70  1  0.88970749  0.22510740  0.36127524  1
  F  F71  1  0.11481489  0.77489260  0.63872476  1
