# generated using pymatgen
data_V3(PS3)4
_symmetry_space_group_name_H-M   'P 1'
_cell_length_a   5.97318808
_cell_length_b   5.97318808
_cell_length_c   13.41201639
_cell_angle_alpha   85.82045254
_cell_angle_beta   85.82045254
_cell_angle_gamma   120.43955198
_symmetry_Int_Tables_number   1
_chemical_formula_structural   V3(PS3)4
_chemical_formula_sum   'V3 P4 S12'
_cell_volume   408.10278851
_cell_formula_units_Z   1
loop_
 _symmetry_equiv_pos_site_id
 _symmetry_equiv_pos_as_xyz
  1  'x, y, z'
loop_
 _atom_site_type_symbol
 _atom_site_label
 _atom_site_symmetry_multiplicity
 _atom_site_fract_x
 _atom_site_fract_y
 _atom_site_fract_z
 _atom_site_occupancy
  V  V0  1  0.17057839  0.82942161  0.50000000  1
  V  V1  1  0.32326545  0.67673455  -0.00000000  1
  V  V2  1  0.82933724  0.17066276  0.50000000  1
  P  P3  1  0.97153327  0.97045757  0.08190431  1
  P  P4  1  0.47180921  0.47194351  0.58207300  1
  P  P5  1  0.52805649  0.52819079  0.41792700  1
  P  P6  1  0.02954243  0.02846673  0.91809569  1
  S  S7  1  0.00492425  0.31100503  0.12000287  1
  S  S8  1  0.46089854  0.80015488  0.61722670  1
  S  S9  1  0.27261266  0.92214116  0.12053486  1
  S  S10  1  0.79961259  0.46114132  0.61779554  1
  S  S11  1  0.53885868  0.20038741  0.38220446  1
  S  S12  1  0.07785884  0.72738734  0.87946514  1
  S  S13  1  0.19984512  0.53910146  0.38277330  1
  S  S14  1  0.68899497  0.99507575  0.87999713  1
  S  S15  1  0.61239511  0.64715434  0.12058767  1
  S  S16  1  0.11862995  0.11879886  0.61508769  1
  S  S17  1  0.88120114  0.88137005  0.38491231  1
  S  S18  1  0.35284566  0.38760489  0.87941233  1
