# generated using pymatgen
data_Zr2Cr3Si
_symmetry_space_group_name_H-M   'P 1'
_cell_length_a   4.99479202
_cell_length_b   4.99471265
_cell_length_c   8.40830694
_cell_angle_alpha   90.00000000
_cell_angle_beta   90.00000000
_cell_angle_gamma   60.00053219
_symmetry_Int_Tables_number   1
_chemical_formula_structural   Zr2Cr3Si
_chemical_formula_sum   'Zr4 Cr6 Si2'
_cell_volume   181.66423506
_cell_formula_units_Z   2
loop_
 _symmetry_equiv_pos_site_id
 _symmetry_equiv_pos_as_xyz
  1  'x, y, z'
loop_
 _atom_site_type_symbol
 _atom_site_label
 _atom_site_symmetry_multiplicity
 _atom_site_fract_x
 _atom_site_fract_y
 _atom_site_fract_z
 _atom_site_occupancy
  Zr  Zr0  1  0.33334130  0.33332935  0.56367759  1
  Zr  Zr1  1  0.66665870  0.66667065  0.43632241  1
  Zr  Zr2  1  0.66665870  0.66667065  0.06367759  1
  Zr  Zr3  1  0.33334130  0.33332935  0.93632241  1
  Cr  Cr4  1  0.82847873  0.34311461  0.75000000  1
  Cr  Cr5  1  0.34316439  0.82841781  0.75000000  1
  Cr  Cr6  1  0.82847873  0.82840666  0.75000000  1
  Cr  Cr7  1  0.17152127  0.65688539  0.25000000  1
  Cr  Cr8  1  0.65683561  0.17158219  0.25000000  1
  Cr  Cr9  1  0.17152127  0.17159334  0.25000000  1
  Si  Si10  1  0.00000000  -0.00000000  0.50000000  1
  Si  Si11  1  0.00000000  -0.00000000  -0.00000000  1
