# generated using pymatgen
data_YbAlNi
_symmetry_space_group_name_H-M   'P 1'
_cell_length_a   5.33803227
_cell_length_b   5.46640329
_cell_length_c   8.26307211
_cell_angle_alpha   90.00000000
_cell_angle_beta   90.00000000
_cell_angle_gamma   120.80577932
_symmetry_Int_Tables_number   1
_chemical_formula_structural   YbAlNi
_chemical_formula_sum   'Yb4 Al4 Ni4'
_cell_volume   207.09574608
_cell_formula_units_Z   4
loop_
 _symmetry_equiv_pos_site_id
 _symmetry_equiv_pos_as_xyz
  1  'x, y, z'
loop_
 _atom_site_type_symbol
 _atom_site_label
 _atom_site_symmetry_multiplicity
 _atom_site_fract_x
 _atom_site_fract_y
 _atom_site_fract_z
 _atom_site_occupancy
  Yb  Yb0  1  0.66940351  0.33470525  0.54281820  1
  Yb  Yb1  1  0.33703811  0.66852311  0.42162773  1
  Yb  Yb2  1  0.33703811  0.66852311  0.07837227  1
  Yb  Yb3  1  0.66940351  0.33470525  0.95718180  1
  Al  Al4  1  0.99349562  0.99676212  0.48350214  1
  Al  Al5  1  0.99349562  0.99676212  0.01649786  1
  Al  Al6  1  0.17008309  0.33707915  0.75000000  1
  Al  Al7  1  0.17004743  0.83298065  0.75000000  1
  Ni  Ni8  1  0.66363399  0.83178340  0.75000000  1
  Ni  Ni9  1  0.82765452  0.65712904  0.25000000  1
  Ni  Ni10  1  0.82772246  0.17057838  0.25000000  1
  Ni  Ni11  1  0.34098402  0.17046841  0.25000000  1
