# generated using pymatgen
data_VAs2H4O9
_symmetry_space_group_name_H-M   'P 1'
_cell_length_a   7.84187866
_cell_length_b   7.84187866
_cell_length_c   7.84187866
_cell_angle_alpha   63.16209692
_cell_angle_beta   74.08172020
_cell_angle_gamma   105.91827980
_symmetry_Int_Tables_number   1
_chemical_formula_structural   VAs2H4O9
_chemical_formula_sum   'V2 As4 H8 O18'
_cell_volume   366.56737812
_cell_formula_units_Z   2
loop_
 _symmetry_equiv_pos_site_id
 _symmetry_equiv_pos_as_xyz
  1  'x, y, z'
loop_
 _atom_site_type_symbol
 _atom_site_label
 _atom_site_symmetry_multiplicity
 _atom_site_fract_x
 _atom_site_fract_y
 _atom_site_fract_z
 _atom_site_occupancy
  V  V0  1  0.00000000  0.54214340  0.45785660  1
  V  V1  1  0.00000000  0.04214340  0.95785660  1
  As  As2  1  0.09573459  0.79950058  0.70049942  1
  As  As3  1  0.90426541  0.20376599  0.29623401  1
  As  As4  1  0.50000000  0.29950058  0.79623401  1
  As  As5  1  0.50000000  0.70376599  0.20049942  1
  H  H6  1  0.77185090  0.40401185  0.09598815  1
  H  H7  1  0.22814910  0.13216095  0.36783905  1
  H  H8  1  0.50000000  0.90401185  0.86783905  1
  H  H9  1  0.50000000  0.63216095  0.59598815  1
  H  H10  1  0.22476276  0.59636406  0.90363594  1
  H  H11  1  0.77523724  0.87160130  0.62839870  1
  H  H12  1  0.50000000  0.09636406  0.12839870  1
  H  H13  1  0.50000000  0.37160130  0.40363594  1
  O  O14  1  0.94089208  0.62034076  0.67671219  1
  O  O15  1  0.05910792  0.38239573  0.32055132  1
  O  O16  1  0.29705295  0.12034076  0.82055132  1
  O  O17  1  0.70294705  0.88239573  0.17671219  1
  O  O18  1  0.70294705  0.32328781  0.61760427  1
  O  O19  1  0.29705295  0.67944868  0.37965924  1
  O  O20  1  0.05910792  0.17944868  0.11760427  1
  O  O21  1  0.94089208  0.82328781  0.87965924  1
  O  O22  1  0.27576066  0.04269470  0.45730530  1
  O  O23  1  0.72423934  0.26693404  0.23306596  1
  O  O24  1  0.50000000  0.54269470  0.73306596  1
  O  O25  1  0.50000000  0.76693404  0.95730530  1
  O  O26  1  0.72625132  0.96005100  0.53994900  1
  O  O27  1  0.27374868  0.73379969  0.76620031  1
  O  O28  1  0.50000000  0.46005100  0.26620031  1
  O  O29  1  0.50000000  0.23379969  0.03994900  1
  O  O30  1  -0.00000000  0.74359944  0.25640056  1
  O  O31  1  -0.00000000  0.24359944  0.75640056  1
