# generated using pymatgen
data_La2Ni2O5
_symmetry_space_group_name_H-M   'P 1'
_cell_length_a   5.60134697
_cell_length_b   5.60134698
_cell_length_c   7.55809809
_cell_angle_alpha   85.75092936
_cell_angle_beta   85.75092937
_cell_angle_gamma   90.66535762
_symmetry_Int_Tables_number   1
_chemical_formula_structural   La2Ni2O5
_chemical_formula_sum   'La4 Ni4 O10'
_cell_volume   235.79932033
_cell_formula_units_Z   2
loop_
 _symmetry_equiv_pos_site_id
 _symmetry_equiv_pos_as_xyz
  1  'x, y, z'
loop_
 _atom_site_type_symbol
 _atom_site_label
 _atom_site_symmetry_multiplicity
 _atom_site_fract_x
 _atom_site_fract_y
 _atom_site_fract_z
 _atom_site_occupancy
  O  O0  1  0.06098623  0.93901377  0.25000000  1
  O  O1  1  0.93901377  0.06098623  0.75000000  1
  O  O2  1  0.69467231  0.23126086  0.45521362  1
  O  O3  1  0.76873914  0.30532769  0.04478638  1
  O  O4  1  0.30532769  0.76873914  0.54478638  1
  O  O5  1  0.23126086  0.69467231  0.95521362  1
  O  O6  1  0.22771763  0.31436096  0.46106319  1
  O  O7  1  0.68563904  0.77228237  0.03893681  1
  O  O8  1  0.31436096  0.22771763  0.96106319  1
  O  O9  1  0.77228237  0.68563904  0.53893681  1
  Ni  Ni10  1  0.50000000  0.50000000  0.50000000  1
  Ni  Ni11  1  0.50000000  0.50000000  0.00000000  1
  Ni  Ni12  1  0.00000000  0.00000000  0.50000000  1
  Ni  Ni13  1  0.00000000  0.00000000  0.00000000  1
  La  La14  1  0.97772516  0.51649245  0.25139811  1
  La  La15  1  0.48350755  0.02227484  0.24860189  1
  La  La16  1  0.02227484  0.48350755  0.74860189  1
  La  La17  1  0.51649245  0.97772516  0.75139811  1
