# generated using pymatgen
data_Y4ScSi10
_symmetry_space_group_name_H-M   'P 1'
_cell_length_a   4.05100771
_cell_length_b   4.05746485
_cell_length_c   19.85682316
_cell_angle_alpha   90.00000000
_cell_angle_beta   90.00000000
_cell_angle_gamma   60.05262477
_symmetry_Int_Tables_number   1
_chemical_formula_structural   Y4ScSi10
_chemical_formula_sum   'Y4 Sc1 Si10'
_cell_volume   282.80578596
_cell_formula_units_Z   1
loop_
 _symmetry_equiv_pos_site_id
 _symmetry_equiv_pos_as_xyz
  1  'x, y, z'
loop_
 _atom_site_type_symbol
 _atom_site_label
 _atom_site_symmetry_multiplicity
 _atom_site_fract_x
 _atom_site_fract_y
 _atom_site_fract_z
 _atom_site_occupancy
  Y  Y0  1  0.00001375  1.00000000  0.19418418  1
  Y  Y1  1  -0.00000024  0.00000000  0.39869894  1
  Y  Y2  1  -0.00000024  0.00000000  0.60130106  1
  Y  Y3  1  0.00001375  1.00000000  0.80581582  1
  Sc  Sc4  1  0.99931112  1.00000000  -0.00000000  1
  Si  Si5  1  0.66685009  0.66632584  0.09189813  1
  Si  Si6  1  0.66675735  0.66653571  0.29680223  1
  Si  Si7  1  0.66677305  0.66646290  0.50000000  1
  Si  Si8  1  0.66675735  0.66653571  0.70319777  1
  Si  Si9  1  0.66685009  0.66632584  0.90810187  1
  Si  Si10  1  0.33317593  0.33367416  0.09189813  1
  Si  Si11  1  0.33329306  0.33346429  0.29680223  1
  Si  Si12  1  0.33323595  0.33353710  0.50000000  1
  Si  Si13  1  0.33329306  0.33346429  0.70319777  1
  Si  Si14  1  0.33317593  0.33367416  0.90810187  1
