# generated using pymatgen
data_Ti2As4W3
_symmetry_space_group_name_H-M   'P 1'
_cell_length_a   3.36394866
_cell_length_b   7.03035796
_cell_length_c   7.00501502
_cell_angle_alpha   92.70139702
_cell_angle_beta   103.89303420
_cell_angle_gamma   76.15804678
_symmetry_Int_Tables_number   1
_chemical_formula_structural   Ti2As4W3
_chemical_formula_sum   'Ti2 As4 W3'
_cell_volume   156.14079417
_cell_formula_units_Z   1
loop_
 _symmetry_equiv_pos_site_id
 _symmetry_equiv_pos_as_xyz
  1  'x, y, z'
loop_
 _atom_site_type_symbol
 _atom_site_label
 _atom_site_symmetry_multiplicity
 _atom_site_fract_x
 _atom_site_fract_y
 _atom_site_fract_z
 _atom_site_occupancy
  Ti  Ti0  1  0.99901325  0.00252265  0.00054914  1
  Ti  Ti1  1  0.69719048  0.66976428  0.06414523  1
  As  As2  1  0.94518171  0.34114013  0.23150355  1
  As  As3  1  0.05399285  0.66605269  0.77403840  1
  As  As4  1  0.71263061  0.23323464  0.65849586  1
  As  As5  1  0.28223250  0.77206250  0.33652750  1
  W  W6  1  0.30757106  0.31905234  0.93419446  1
  W  W7  1  0.63169378  0.06307475  0.32646230  1
  W  W8  1  0.37049378  0.93309602  0.67408357  1
