# generated using pymatgen
data_SrLa4Cr5O15
_symmetry_space_group_name_H-M   'P 1'
_cell_length_a   5.54336244
_cell_length_b   6.77971565
_cell_length_c   8.74382399
_cell_angle_alpha   104.85596280
_cell_angle_beta   71.51917258
_cell_angle_gamma   90.00000000
_symmetry_Int_Tables_number   1
_chemical_formula_structural   SrLa4Cr5O15
_chemical_formula_sum   'Sr1 La4 Cr5 O15'
_cell_volume   300.06320219
_cell_formula_units_Z   1
loop_
 _symmetry_equiv_pos_site_id
 _symmetry_equiv_pos_as_xyz
  1  'x, y, z'
loop_
 _atom_site_type_symbol
 _atom_site_label
 _atom_site_symmetry_multiplicity
 _atom_site_fract_x
 _atom_site_fract_y
 _atom_site_fract_z
 _atom_site_occupancy
  Sr  Sr0  1  0.60000000  0.10000000  0.80000000  1
  La  La1  1  0.00147092  0.49868515  0.99705816  1
  La  La2  1  0.40044923  0.89969903  0.19910154  1
  La  La3  1  0.79955077  0.30030097  0.40089846  1
  La  La4  1  0.19852908  0.70131485  0.60294184  1
  Cr  Cr5  1  0.19974192  0.19907135  0.60051616  1
  Cr  Cr6  1  0.60000000  0.60000000  0.80000000  1
  Cr  Cr7  1  0.00025808  0.00092865  0.99948384  1
  Cr  Cr8  1  0.40012558  0.39910080  0.19974885  1
  Cr  Cr9  1  0.79987442  0.80089920  0.40025115  1
  O  O10  1  0.39521823  0.40665612  0.69767507  1
  O  O11  1  0.80478177  0.79334388  0.90232493  1
  O  O12  1  0.19090035  0.20150068  0.10762550  1
  O  O13  1  0.60000000  0.60000000  0.30000000  1
  O  O14  1  0.00909965  0.99849932  0.49237450  1
  O  O15  1  0.29950630  0.30149500  0.40098741  1
  O  O16  1  0.70229457  0.69161426  0.59541087  1
  O  O17  1  0.10000000  0.10000000  0.80000000  1
  O  O18  1  0.49770543  0.50838574  0.00458913  1
  O  O19  1  0.90049370  0.89850500  0.19901259  1
  O  O20  1  0.49852585  0.99849932  0.49237450  1
  O  O21  1  0.90710670  0.40665612  0.69767507  1
  O  O22  1  0.29289330  0.79334388  0.90232493  1
  O  O23  1  0.70147415  0.20150068  0.10762550  1
  O  O24  1  0.10000000  0.60000000  0.30000000  1
