# generated using pymatgen
data_TbAlCu
_symmetry_space_group_name_H-M   'P 1'
_cell_length_a   5.37972171
_cell_length_b   5.37972171
_cell_length_c   5.37972171
_cell_angle_alpha   88.52401211
_cell_angle_beta   60.80511546
_cell_angle_gamma   119.10819031
_symmetry_Int_Tables_number   1
_chemical_formula_structural   TbAlCu
_chemical_formula_sum   'Tb2 Al2 Cu2'
_cell_volume   111.46599856
_cell_formula_units_Z   2
loop_
 _symmetry_equiv_pos_site_id
 _symmetry_equiv_pos_as_xyz
  1  'x, y, z'
loop_
 _atom_site_type_symbol
 _atom_site_label
 _atom_site_symmetry_multiplicity
 _atom_site_fract_x
 _atom_site_fract_y
 _atom_site_fract_z
 _atom_site_occupancy
  Tb  Tb0  1  0.50000000  0.75098772  0.74901228  1
  Tb  Tb1  1  -0.00000000  0.99901228  0.00098772  1
  Al  Al2  1  0.75000000  0.37500000  0.87500000  1
  Al  Al3  1  0.25000000  0.37500000  0.37500000  1
  Cu  Cu4  1  0.25000000  0.87500000  0.37500000  1
  Cu  Cu5  1  0.75000000  0.37500000  0.37500000  1
