# generated using pymatgen
data_Th2CoSi3
_symmetry_space_group_name_H-M   'P 1'
_cell_length_a   4.09790178
_cell_length_b   4.09760274
_cell_length_c   8.12001379
_cell_angle_alpha   90.00000000
_cell_angle_beta   90.00000000
_cell_angle_gamma   60.00076025
_symmetry_Int_Tables_number   1
_chemical_formula_structural   Th2CoSi3
_chemical_formula_sum   'Th2 Co1 Si3'
_cell_volume   118.08157094
_cell_formula_units_Z   1
loop_
 _symmetry_equiv_pos_site_id
 _symmetry_equiv_pos_as_xyz
  1  'x, y, z'
loop_
 _atom_site_type_symbol
 _atom_site_label
 _atom_site_symmetry_multiplicity
 _atom_site_fract_x
 _atom_site_fract_y
 _atom_site_fract_z
 _atom_site_occupancy
  Th  Th0  1  0.99996612  0.00001484  0.01097525  1
  Th  Th1  1  0.99996612  0.00001484  0.48902475  1
  Co  Co2  1  0.66665398  0.66664342  0.25000000  1
  Si  Si3  1  0.66653344  0.66685506  0.75000000  1
  Si  Si4  1  0.33328630  0.33335081  0.25000000  1
  Si  Si5  1  0.33339404  0.33312103  0.75000000  1
