# generated using pymatgen
data_Sr3Ir2O7
_symmetry_space_group_name_H-M   'P 1'
_cell_length_a   3.99753169
_cell_length_b   3.99753169
_cell_length_c   10.78501158
_cell_angle_alpha   79.20745242
_cell_angle_beta   78.26572791
_cell_angle_gamma   86.91150747
_symmetry_Int_Tables_number   1
_chemical_formula_structural   Sr3Ir2O7
_chemical_formula_sum   'Sr3 Ir2 O7'
_cell_volume   165.73826507
_cell_formula_units_Z   1
loop_
 _symmetry_equiv_pos_site_id
 _symmetry_equiv_pos_as_xyz
  1  'x, y, z'
loop_
 _atom_site_type_symbol
 _atom_site_label
 _atom_site_symmetry_multiplicity
 _atom_site_fract_x
 _atom_site_fract_y
 _atom_site_fract_z
 _atom_site_occupancy
  Sr  Sr0  1  0.50000000  0.50000000  0.00000000  1
  Sr  Sr1  1  0.67508409  0.69487846  0.63003745  1
  Sr  Sr2  1  0.32491591  0.30512154  0.36996255  1
  Ir  Ir3  1  0.09413412  0.10251262  0.80335327  1
  Ir  Ir4  1  0.90586588  0.89748738  0.19664673  1
  O  O5  1  0.19602227  0.19595276  0.60802497  1
  O  O6  1  0.80397773  0.80404724  0.39197503  1
  O  O7  1  0.00000000  0.00000000  0.00000000  1
  O  O8  1  0.58447607  0.17045897  0.80553877  1
  O  O9  1  0.02400227  0.60998516  0.80553877  1
  O  O10  1  0.41552393  0.82954103  0.19446123  1
  O  O11  1  0.97599773  0.39001484  0.19446123  1
