# generated using pymatgen
data_SrNd2(CuO3)2
_symmetry_space_group_name_H-M   'P 1'
_cell_length_a   3.85877953
_cell_length_b   3.85877953
_cell_length_c   10.24304896
_cell_angle_alpha   79.14285723
_cell_angle_beta   79.14285723
_cell_angle_gamma   90.00000000
_symmetry_Int_Tables_number   1
_chemical_formula_structural   SrNd2(CuO3)2
_chemical_formula_sum   'Sr1 Nd2 Cu2 O6'
_cell_volume   147.00986196
_cell_formula_units_Z   1
loop_
 _symmetry_equiv_pos_site_id
 _symmetry_equiv_pos_as_xyz
  1  'x, y, z'
loop_
 _atom_site_type_symbol
 _atom_site_label
 _atom_site_symmetry_multiplicity
 _atom_site_fract_x
 _atom_site_fract_y
 _atom_site_fract_z
 _atom_site_occupancy
  Sr  Sr0  1  0.18006376  0.18006376  0.63987249  1
  Nd  Nd1  1  0.00061482  0.00061482  0.99877037  1
  Nd  Nd2  1  0.81971886  0.81971886  0.36056228  1
  Cu  Cu3  1  0.59106872  0.59106872  0.81786257  1
  Cu  Cu4  1  0.41189789  0.41189789  0.17620421  1
  O  O5  1  0.57643341  0.07643341  0.84713319  1
  O  O6  1  0.07643341  0.57643341  0.84713319  1
  O  O7  1  0.41720266  0.91720266  0.16559468  1
  O  O8  1  0.91720266  0.41720266  0.16559468  1
  O  O9  1  0.70726404  0.70726404  0.58547191  1
  O  O10  1  0.30209978  0.30209978  0.39580045  1
