# generated using pymatgen
data_Sr2La6Cu3IrO16
_symmetry_space_group_name_H-M   'P 1'
_cell_length_a   5.41245185
_cell_length_b   8.92653085
_cell_length_c   8.97016485
_cell_angle_alpha   76.32870996
_cell_angle_beta   72.44075011
_cell_angle_gamma   72.35210447
_symmetry_Int_Tables_number   1
_chemical_formula_structural   Sr2La6Cu3IrO16
_chemical_formula_sum   'Sr2 La6 Cu3 Ir1 O16'
_cell_volume   388.70964449
_cell_formula_units_Z   1
loop_
 _symmetry_equiv_pos_site_id
 _symmetry_equiv_pos_as_xyz
  1  'x, y, z'
loop_
 _atom_site_type_symbol
 _atom_site_label
 _atom_site_symmetry_multiplicity
 _atom_site_fract_x
 _atom_site_fract_y
 _atom_site_fract_z
 _atom_site_occupancy
  Sr  Sr0  1  0.63832659  0.35612464  0.36722218  1
  Sr  Sr1  1  0.36167341  0.64387536  0.63277782  1
  La  La2  1  0.86124152  0.88918150  0.38833545  1
  La  La3  1  0.86007994  0.37700318  0.90283695  1
  La  La4  1  0.13875848  0.11081850  0.61166455  1
  La  La5  1  0.13992006  0.62299682  0.09716305  1
  La  La6  1  0.64334237  0.85468933  0.85862592  1
  La  La7  1  0.35665763  0.14531067  0.14137408  1
  Cu  Cu8  1  0.49372330  0.75955489  0.25299851  1
  Cu  Cu9  1  0.50627670  0.24044511  0.74700149  1
  Cu  Cu10  1  -0.00000000  -0.00000000  0.00000000  1
  Ir  Ir11  1  -0.00000000  0.50000000  0.50000000  1
  O  O12  1  0.26336903  0.11460889  0.86979109  1
  O  O13  1  0.26282154  0.61791508  0.35040508  1
  O  O14  1  0.24776901  0.88539111  0.13020891  1
  O  O15  1  0.23114169  0.38208492  0.64959492  1
  O  O16  1  0.73663097  0.88539111  0.13020891  1
  O  O17  1  0.73717846  0.38208492  0.64959492  1
  O  O18  1  0.75223099  0.11460889  0.86979109  1
  O  O19  1  0.76885831  0.61791508  0.35040508  1
  O  O20  1  0.68654554  0.06102045  0.56588848  1
  O  O21  1  0.68995361  0.59874619  0.02134659  1
  O  O22  1  0.31345446  0.93897955  0.43411152  1
  O  O23  1  0.31004639  0.40125381  0.97865341  1
  O  O24  1  0.83712283  0.68386450  0.64188985  1
  O  O25  1  0.82392218  0.19130897  0.16084667  1
  O  O26  1  0.16287717  0.31613550  0.35811015  1
  O  O27  1  0.17607782  0.80869103  0.83915333  1
