# generated using pymatgen
data_Sr4Mn2Nb4Bi4O23
_symmetry_space_group_name_H-M   'P 1'
_cell_length_a   5.60957689
_cell_length_b   5.61004191
_cell_length_c   16.53841925
_cell_angle_alpha   89.95958624
_cell_angle_beta   80.23588613
_cell_angle_gamma   89.76169981
_symmetry_Int_Tables_number   1
_chemical_formula_structural   Sr4Mn2Nb4Bi4O23
_chemical_formula_sum   'Sr4 Mn2 Nb4 Bi4 O23'
_cell_volume   512.91970959
_cell_formula_units_Z   1
loop_
 _symmetry_equiv_pos_site_id
 _symmetry_equiv_pos_as_xyz
  1  'x, y, z'
loop_
 _atom_site_type_symbol
 _atom_site_label
 _atom_site_symmetry_multiplicity
 _atom_site_fract_x
 _atom_site_fract_y
 _atom_site_fract_z
 _atom_site_occupancy
  Sr  Sr0  1  0.43173658  0.49062383  0.11776241  1
  Sr  Sr1  1  0.95050101  0.00937617  0.11776241  1
  Sr  Sr2  1  0.06826342  0.00937617  0.88223759  1
  Sr  Sr3  1  0.54949899  0.49062383  0.88223759  1
  Mn  Mn4  1  0.49489178  0.00510919  1.00000000  1
  Mn  Mn5  1  0.00510822  0.49489081  0.00000000  1
  Nb  Nb6  1  0.12360567  0.50172955  0.74930717  1
  Nb  Nb7  1  0.62708716  0.99827045  0.74930717  1
  Nb  Nb8  1  0.37639433  0.99827045  0.25069283  1
  Nb  Nb9  1  0.87291284  0.50172955  0.25069283  1
  Bi  Bi10  1  0.28677044  0.49947113  0.42487433  1
  Bi  Bi11  1  0.78835523  0.00052887  0.42487433  1
  Bi  Bi12  1  0.21322956  0.00052887  0.57512567  1
  Bi  Bi13  1  0.71164477  0.49947113  0.57512567  1
  O  O14  1  0.18812888  0.49562203  0.63241904  1
  O  O15  1  0.67945208  0.00437797  0.63241904  1
  O  O16  1  0.31187112  0.00437797  0.36758096  1
  O  O17  1  0.82054792  0.49562203  0.36758096  1
  O  O18  1  0.13483954  0.25000000  0.23032092  1
  O  O19  1  0.62808356  0.75000000  0.24383288  1
  O  O20  1  0.86921035  0.25000000  0.76157930  1
  O  O21  1  0.36921469  0.75000000  0.76157062  1
  O  O22  1  0.36516046  0.25000000  0.76967908  1
  O  O23  1  0.87191644  0.75000000  0.75616712  1
  O  O24  1  0.63078965  0.25000000  0.23842070  1
  O  O25  1  0.13078531  0.75000000  0.23842938  1
  O  O26  1  0.03355885  0.52544233  0.88202534  1
  O  O27  1  0.58441581  0.97455767  0.88202534  1
  O  O28  1  0.46644115  0.97455767  0.11797466  1
  O  O29  1  0.91558419  0.52544233  0.11797466  1
  O  O30  1  -0.00000258  0.25000000  0.50000517  1
  O  O31  1  0.50012385  0.75000000  0.49975230  1
  O  O32  1  0.50000258  0.25000000  0.49999483  1
  O  O33  1  0.99987615  0.75000000  0.50024770  1
  O  O34  1  0.25000000  0.25000000  -0.00000000  1
  O  O35  1  0.25000000  0.75000000  -0.00000000  1
  O  O36  1  0.75000000  0.25000000  -0.00000000  1
