# generated using pymatgen
data_Sm2Fe17CN
_symmetry_space_group_name_H-M   'P 1'
_cell_length_a   6.47822922
_cell_length_b   6.50374772
_cell_length_c   6.52152694
_cell_angle_alpha   83.84982292
_cell_angle_beta   83.62167219
_cell_angle_gamma   83.53257395
_symmetry_Int_Tables_number   1
_chemical_formula_structural   Sm2Fe17CN
_chemical_formula_sum   'Sm2 Fe17 C1 N1'
_cell_volume   270.08286480
_cell_formula_units_Z   1
loop_
 _symmetry_equiv_pos_site_id
 _symmetry_equiv_pos_as_xyz
  1  'x, y, z'
loop_
 _atom_site_type_symbol
 _atom_site_label
 _atom_site_symmetry_multiplicity
 _atom_site_fract_x
 _atom_site_fract_y
 _atom_site_fract_z
 _atom_site_occupancy
  Sm  Sm0  1  0.65943770  0.65060634  0.66160741  1
  Sm  Sm1  1  0.34056230  0.34939366  0.33839259  1
  Fe  Fe2  1  0.90415474  0.90464964  0.90507247  1
  Fe  Fe3  1  0.09584526  0.09535036  0.09492753  1
  Fe  Fe4  1  0.34456864  0.85452400  0.34010051  1
  Fe  Fe5  1  0.85233537  0.34279538  0.34025127  1
  Fe  Fe6  1  0.34367046  0.34210472  0.85358512  1
  Fe  Fe7  1  0.65543136  0.14547600  0.65989949  1
  Fe  Fe8  1  0.14766463  0.65720462  0.65974873  1
  Fe  Fe9  1  0.65632954  0.65789528  0.14641488  1
  Fe  Fe10  1  0.71373437  0.00147973  0.28492785  1
  Fe  Fe11  1  0.00093299  0.28261934  0.71698575  1
  Fe  Fe12  1  0.28756389  0.71407645  0.99847105  1
  Fe  Fe13  1  0.99906701  0.71738066  0.28301425  1
  Fe  Fe14  1  0.71243611  0.28592355  0.00152895  1
  Fe  Fe15  1  0.28626563  0.99852027  0.71507215  1
  Fe  Fe16  1  0.00000000  0.50000000  0.00000000  1
  Fe  Fe17  1  0.50000000  0.00000000  0.00000000  1
  Fe  Fe18  1  0.00000000  0.00000000  0.50000000  1
  C  C19  1  0.50000000  0.00000000  0.50000000  1
  N  N20  1  0.00000000  0.50000000  0.50000000  1
