# generated using pymatgen
data_Sn3SbSe2I5
_symmetry_space_group_name_H-M   'P 1'
_cell_length_a   4.37600684
_cell_length_b   7.51954879
_cell_length_c   12.71795472
_cell_angle_alpha   98.04697411
_cell_angle_beta   90.00000022
_cell_angle_gamma   73.08363746
_symmetry_Int_Tables_number   1
_chemical_formula_structural   Sn3SbSe2I5
_chemical_formula_sum   'Sn3 Sb1 Se2 I5'
_cell_volume   396.07499990
_cell_formula_units_Z   1
loop_
 _symmetry_equiv_pos_site_id
 _symmetry_equiv_pos_as_xyz
  1  'x, y, z'
loop_
 _atom_site_type_symbol
 _atom_site_label
 _atom_site_symmetry_multiplicity
 _atom_site_fract_x
 _atom_site_fract_y
 _atom_site_fract_z
 _atom_site_occupancy
  Sn  Sn0  1  0.62785929  0.74428141  0.48218751  1
  Sn  Sn1  1  0.36937163  0.26125673  0.52326582  1
  Sn  Sn2  1  0.65184588  0.69630825  0.82720030  1
  Sb  Sb3  1  0.35323582  0.29352836  0.18138093  1
  Se  Se4  1  0.76200191  0.47599618  0.61608424  1
  Se  Se5  1  0.23976443  0.52047114  0.37907285  1
  I  I6  1  0.71470185  0.57059629  0.13676364  1
  I  I7  1  0.29355608  0.41288785  0.86292909  1
  I  I8  1  0.95656900  0.08686200  0.31268322  1
  I  I9  1  0.03874362  0.92251276  0.66907594  1
  I  I10  1  0.99235048  0.01529903  0.00935645  1
