# generated using pymatgen
data_RbNa2Al3Ge3O13
_symmetry_space_group_name_H-M   'P 1'
_cell_length_a   5.32609892
_cell_length_b   8.35782282
_cell_length_c   15.84961903
_cell_angle_alpha   90.00000000
_cell_angle_beta   89.99974721
_cell_angle_gamma   90.00000000
_symmetry_Int_Tables_number   1
_chemical_formula_structural   RbNa2Al3Ge3O13
_chemical_formula_sum   'Rb2 Na4 Al6 Ge6 O26'
_cell_volume   705.53931013
_cell_formula_units_Z   2
loop_
 _symmetry_equiv_pos_site_id
 _symmetry_equiv_pos_as_xyz
  1  'x, y, z'
loop_
 _atom_site_type_symbol
 _atom_site_label
 _atom_site_symmetry_multiplicity
 _atom_site_fract_x
 _atom_site_fract_y
 _atom_site_fract_z
 _atom_site_occupancy
  Rb  Rb0  1  0.60931378  0.06418901  0.24740388  1
  Rb  Rb1  1  0.10931378  0.93581099  0.74740388  1
  Na  Na2  1  0.56853922  0.32775148  0.99941171  1
  Na  Na3  1  0.06853922  0.67224852  0.49941171  1
  Na  Na4  1  0.06828349  0.67659257  0.00059172  1
  Na  Na5  1  0.56828349  0.32340743  0.50059172  1
  Al  Al6  1  0.52988370  0.60732734  0.35599185  1
  Al  Al7  1  0.53043734  0.60548930  0.64400477  1
  Al  Al8  1  0.03043734  0.39451070  0.14400477  1
  Al  Al9  1  0.02988370  0.39267266  0.85599185  1
  Al  Al10  1  0.53432056  0.89628693  0.99939904  1
  Al  Al11  1  0.03432056  0.10371307  0.49939904  1
  Ge  Ge12  1  0.52928587  0.61242090  0.14331589  1
  Ge  Ge13  1  0.52973373  0.61079829  0.85644945  1
  Ge  Ge14  1  0.02973373  0.38920171  0.35644945  1
  Ge  Ge15  1  0.02928587  0.38757910  0.64331589  1
  Ge  Ge16  1  0.03340197  0.10878562  0.00056857  1
  Ge  Ge17  1  0.53340197  0.89121438  0.50056857  1
  O  O18  1  0.33329297  0.45198970  0.11055629  1
  O  O19  1  0.33153140  0.45314655  0.88990968  1
  O  O20  1  0.83153140  0.54685345  0.38990968  1
  O  O21  1  0.83329297  0.54801030  0.61055629  1
  O  O22  1  0.36009813  0.07662493  0.00049970  1
  O  O23  1  0.86009813  0.92337507  0.50049970  1
  O  O24  1  0.49737414  0.65614957  0.24990258  1
  O  O25  1  0.49558042  0.65722073  0.74996756  1
  O  O26  1  0.99558042  0.34277927  0.24996756  1
  O  O27  1  0.99737414  0.34385043  0.74990258  1
  O  O28  1  0.86195454  0.92858366  0.99975728  1
  O  O29  1  0.36195454  0.07141634  0.49975728  1
  O  O30  1  0.83299281  0.55386219  0.11159237  1
  O  O31  1  0.83499425  0.55510729  0.88786789  1
  O  O32  1  0.33499425  0.44489271  0.38786789  1
  O  O33  1  0.33299281  0.44613781  0.61159237  1
  O  O34  1  0.43810870  0.78500788  0.08829781  1
  O  O35  1  0.43524798  0.78464532  0.91077036  1
  O  O36  1  0.93524798  0.21535468  0.41077036  1
  O  O37  1  0.93810870  0.21499212  0.58829781  1
  O  O38  1  0.93471708  0.22107742  0.08885215  1
  O  O39  1  0.93712601  0.22095151  0.91217644  1
  O  O40  1  0.43712601  0.77904849  0.41217644  1
  O  O41  1  0.43471708  0.77892258  0.58885215  1
  O  O42  1  0.61110189  0.06600392  0.75271301  1
  O  O43  1  0.11110189  0.93399608  0.25271301  1
