# generated using pymatgen
data_Co2Mo3O8
_symmetry_space_group_name_H-M   'P 1'
_cell_length_a   5.87136229
_cell_length_b   5.87136229
_cell_length_c   10.02093675
_cell_angle_alpha   90.00000000
_cell_angle_beta   90.00000000
_cell_angle_gamma   120.00000003
_symmetry_Int_Tables_number   1
_chemical_formula_structural   Co2Mo3O8
_chemical_formula_sum   'Co4 Mo6 O16'
_cell_volume   299.16908363
_cell_formula_units_Z   2
loop_
 _symmetry_equiv_pos_site_id
 _symmetry_equiv_pos_as_xyz
  1  'x, y, z'
loop_
 _atom_site_type_symbol
 _atom_site_label
 _atom_site_symmetry_multiplicity
 _atom_site_fract_x
 _atom_site_fract_y
 _atom_site_fract_z
 _atom_site_occupancy
  O  O0  1  0.83195821  0.16804164  0.13240331  1
  O  O1  1  0.66391675  0.83195779  0.63240365  1
  O  O2  1  0.16804164  0.33608329  0.63240365  1
  O  O3  1  0.83195761  0.66391615  0.13240331  1
  O  O4  1  0.33608423  0.16804164  0.13240331  1
  O  O5  1  0.16804104  0.83195779  0.63240365  1
  O  O6  1  0.51215864  0.48784121  0.86505297  1
  O  O7  1  0.02431589  0.51215822  0.36505363  1
  O  O8  1  0.48784220  0.97568441  0.36505363  1
  O  O9  1  0.51215804  0.02431701  0.86505297  1
  O  O10  1  0.00000000  0.00000000  0.39239787  1
  O  O11  1  0.00000000  0.00000000  0.89239821  1
  O  O12  1  0.33333315  0.66666629  0.14393148  1
  O  O13  1  0.97568336  0.48784121  0.86505297  1
  O  O14  1  0.48784233  0.51215822  0.36505363  1
  O  O15  1  0.66666611  0.33333315  0.64393182  1
  Co  Co16  1  0.33333315  0.66666629  0.94695875  1
  Co  Co17  1  0.66666611  0.33333315  0.44695840  1
  Co  Co18  1  0.33333315  0.66666629  0.51568935  1
  Co  Co19  1  0.66666611  0.33333315  0.01568900  1
  Mo  Mo20  1  0.14598039  0.85401878  0.24921763  1
  Mo  Mo21  1  0.29196258  0.14598066  0.74921697  1
  Mo  Mo22  1  0.85401860  0.70803812  0.74921697  1
  Mo  Mo23  1  0.14598066  0.29196131  0.24921763  1
  Mo  Mo24  1  0.70803839  0.85401878  0.24921763  1
  Mo  Mo25  1  0.85401887  0.14598066  0.74921697  1
