# generated using pymatgen
data_Pr2Ge3
_symmetry_space_group_name_H-M   'P 1'
_cell_length_a   4.23271575
_cell_length_b   4.13705030
_cell_length_c   7.81589056
_cell_angle_alpha   74.65346530
_cell_angle_beta   74.28953392
_cell_angle_gamma   90.00000000
_symmetry_Int_Tables_number   1
_chemical_formula_structural   Pr2Ge3
_chemical_formula_sum   'Pr2 Ge3'
_cell_volume   126.67381270
_cell_formula_units_Z   1
loop_
 _symmetry_equiv_pos_site_id
 _symmetry_equiv_pos_as_xyz
  1  'x, y, z'
loop_
 _atom_site_type_symbol
 _atom_site_label
 _atom_site_symmetry_multiplicity
 _atom_site_fract_x
 _atom_site_fract_y
 _atom_site_fract_z
 _atom_site_occupancy
  Pr  Pr0  1  0.87121942  0.62121942  0.75756116  1
  Pr  Pr1  1  0.11973094  0.36973094  0.26053811  1
  Ge  Ge2  1  0.71563331  0.96563331  0.06873339  1
  Ge  Ge3  1  0.43924796  0.18924796  0.62150408  1
  Ge  Ge4  1  0.54416837  0.79416837  0.41166326  1
