# generated using pymatgen
data_Sr10Cu5Mo3(WO15)2
_symmetry_space_group_name_H-M   'P 1'
_cell_length_a   5.49492551
_cell_length_b   5.75274878
_cell_length_c   23.22004505
_cell_angle_alpha   92.75299024
_cell_angle_beta   96.80947507
_cell_angle_gamma   61.46260348
_symmetry_Int_Tables_number   1
_chemical_formula_structural   Sr10Cu5Mo3(WO15)2
_chemical_formula_sum   'Sr10 Cu5 Mo3 W2 O30'
_cell_volume   640.24939060
_cell_formula_units_Z   1
loop_
 _symmetry_equiv_pos_site_id
 _symmetry_equiv_pos_as_xyz
  1  'x, y, z'
loop_
 _atom_site_type_symbol
 _atom_site_label
 _atom_site_symmetry_multiplicity
 _atom_site_fract_x
 _atom_site_fract_y
 _atom_site_fract_z
 _atom_site_occupancy
  Sr  Sr0  1  0.34992193  0.35007028  0.05006168  1
  Sr  Sr1  1  0.54999429  0.54991926  0.64993472  1
  Sr  Sr2  1  0.75022156  0.75004148  0.25034640  1
  Sr  Sr3  1  0.94979148  0.94990531  0.84949441  1
  Sr  Sr4  1  0.14999457  0.15006063  0.45014047  1
  Sr  Sr5  1  0.64977844  0.64995852  0.94965360  1
  Sr  Sr6  1  0.85000571  0.85008074  0.55006528  1
  Sr  Sr7  1  0.05007807  0.04992972  0.14993832  1
  Sr  Sr8  1  0.25000543  0.24993937  0.74985953  1
  Sr  Sr9  1  0.45020852  0.45009469  0.35050559  1
  Cu  Cu10  1  0.70000000  0.70000000  0.10000000  1
  Cu  Cu11  1  0.90006627  0.89989389  0.69997384  1
  Cu  Cu12  1  0.10014042  0.09972168  0.30048278  1
  Cu  Cu13  1  0.29985958  0.30027832  0.89951722  1
  Cu  Cu14  1  0.49993373  0.50010611  0.50002616  1
  Mo  Mo15  1  0.79984532  0.80026131  0.39997219  1
  Mo  Mo16  1  0.20000000  0.20000000  0.60000000  1
  Mo  Mo17  1  0.60015468  0.59973869  0.80002781  1
  W  W18  1  0.99924697  0.00107219  0.99972693  1
  W  W19  1  0.40075303  0.39892781  0.20027307  1
  O  O20  1  0.86209792  0.32166653  0.04589127  1
  O  O21  1  0.06225010  0.52137907  0.64593423  1
  O  O22  1  0.26239693  0.72124065  0.24597927  1
  O  O23  1  0.46270527  0.92051780  0.84585187  1
  O  O24  1  0.66207583  0.12161816  0.44588850  1
  O  O25  1  0.13760307  0.67875935  0.95402073  1
  O  O26  1  0.33774990  0.87862093  0.55406577  1
  O  O27  1  0.53790208  0.07833347  0.15410873  1
  O  O28  1  0.73792417  0.27838184  0.75411150  1
  O  O29  1  0.93729473  0.47948220  0.35414813  1
  O  O30  1  0.48399879  0.57471158  0.14171942  1
  O  O31  1  0.88454340  0.97485723  0.34178448  1
  O  O32  1  0.28422410  0.37478501  0.54175445  1
  O  O33  1  0.68442601  0.77465291  0.74176997  1
  O  O34  1  0.08410291  0.17517078  0.94156304  1
  O  O35  1  0.91600121  0.82528842  0.05828058  1
  O  O36  1  0.31589709  0.22482922  0.25843696  1
  O  O37  1  0.71557399  0.62534709  0.45823003  1
  O  O38  1  0.11577590  0.02521499  0.65824555  1
  O  O39  1  0.51545660  0.42514277  0.85821552  1
  O  O40  1  0.62791334  0.12088483  0.95972024  1
  O  O41  1  0.02808326  0.52014187  0.15990722  1
  O  O42  1  0.42837298  0.92077223  0.35980685  1
  O  O43  1  0.82842383  0.32045560  0.55983260  1
  O  O44  1  0.22843601  0.72032375  0.75981797  1
  O  O45  1  0.37191674  0.87985813  0.04009278  1
  O  O46  1  0.77208666  0.27911517  0.24027976  1
  O  O47  1  0.17156399  0.67967625  0.44018203  1
  O  O48  1  0.57157617  0.07954440  0.64016740  1
  O  O49  1  0.97162702  0.47922777  0.84019315  1
