# generated using pymatgen
data_Nd2Fe20Si2C
_symmetry_space_group_name_H-M   'P 1'
_cell_length_a   6.39536212
_cell_length_b   7.84488722
_cell_length_c   7.82039281
_cell_angle_alpha   100.46750913
_cell_angle_beta   114.32327171
_cell_angle_gamma   65.66191165
_symmetry_Int_Tables_number   1
_chemical_formula_structural   Nd2Fe20Si2C
_chemical_formula_sum   'Nd2 Fe20 Si2 C1'
_cell_volume   325.72160766
_cell_formula_units_Z   1
loop_
 _symmetry_equiv_pos_site_id
 _symmetry_equiv_pos_as_xyz
  1  'x, y, z'
loop_
 _atom_site_type_symbol
 _atom_site_label
 _atom_site_symmetry_multiplicity
 _atom_site_fract_x
 _atom_site_fract_y
 _atom_site_fract_z
 _atom_site_occupancy
  Nd  Nd0  1  0.37452505  0.75025431  0.25342855  1
  Nd  Nd1  1  0.62547495  0.24974569  0.74657145  1
  Fe  Fe2  1  0.17867061  0.58249195  0.82581891  1
  Fe  Fe3  1  0.43471519  0.32399188  0.08008819  1
  Fe  Fe4  1  0.27143842  0.41999678  0.33240857  1
  Fe  Fe5  1  0.85726248  0.83361656  0.91812175  1
  Fe  Fe6  1  0.19305690  0.16692852  0.42192055  1
  Fe  Fe7  1  0.43802723  0.91998542  0.67072042  1
  Fe  Fe8  1  0.25742079  0.67640013  0.57689390  1
  Fe  Fe9  1  0.85821803  0.07801072  0.17490649  1
  Fe  Fe10  1  0.82132939  0.41750805  0.17418109  1
  Fe  Fe11  1  0.56528481  0.67600812  0.91991181  1
  Fe  Fe12  1  0.72856158  0.58000322  0.66759143  1
  Fe  Fe13  1  0.14273752  0.16638344  0.08187825  1
  Fe  Fe14  1  0.80694310  0.83307148  0.57807945  1
  Fe  Fe15  1  0.56197277  0.08001458  0.32927958  1
  Fe  Fe16  1  0.74257921  0.32359987  0.42310610  1
  Fe  Fe17  1  0.14178197  0.92198928  0.82509351  1
  Fe  Fe18  1  0.12283512  0.24774773  0.74875360  1
  Fe  Fe19  1  0.87716488  0.75225227  0.25124640  1
  Fe  Fe20  1  -0.00000000  0.50000000  0.00000000  1
  Fe  Fe21  1  -0.00000000  0.50000000  0.50000000  1
  Si  Si22  1  0.50000000  -0.00000000  0.00000000  1
  Si  Si23  1  -0.00000000  -0.00000000  0.50000000  1
  C  C24  1  0.50000000  0.50000000  0.00000000  1
