# generated using pymatgen
data_NaV2O4F
_symmetry_space_group_name_H-M   'P 1'
_cell_length_a   3.81419964
_cell_length_b   5.01842402
_cell_length_c   11.22433174
_cell_angle_alpha   90.00000000
_cell_angle_beta   90.00000000
_cell_angle_gamma   90.00000000
_symmetry_Int_Tables_number   1
_chemical_formula_structural   NaV2O4F
_chemical_formula_sum   'Na2 V4 O8 F2'
_cell_volume   214.84797664
_cell_formula_units_Z   2
loop_
 _symmetry_equiv_pos_site_id
 _symmetry_equiv_pos_as_xyz
  1  'x, y, z'
loop_
 _atom_site_type_symbol
 _atom_site_label
 _atom_site_symmetry_multiplicity
 _atom_site_fract_x
 _atom_site_fract_y
 _atom_site_fract_z
 _atom_site_occupancy
  Na  Na0  1  0.50000000  0.64028950  0.99546194  1
  Na  Na1  1  0.00000000  0.35971050  0.49546194  1
  V  V2  1  0.50000000  0.91901202  0.65311017  1
  V  V3  1  -0.00000000  0.08098798  0.15311017  1
  V  V4  1  -0.00000000  0.10967372  0.84650445  1
  V  V5  1  0.50000000  0.89032628  0.34650445  1
  O  O6  1  0.50000000  0.00607106  0.82125145  1
  O  O7  1  0.00000000  0.99392894  0.32125145  1
  O  O8  1  -0.00000000  0.98415175  0.68004689  1
  O  O9  1  0.50000000  0.01584825  0.18004689  1
  O  O10  1  0.50000000  0.04699755  0.50672345  1
  O  O11  1  -0.00000000  0.95300245  0.00672345  1
  O  O12  1  0.00000000  0.43762124  0.86793601  1
  O  O13  1  0.50000000  0.56237876  0.36793601  1
  F  F14  1  0.50000000  0.55095159  0.62896564  1
  F  F15  1  -0.00000000  0.44904841  0.12896564  1
