# generated using pymatgen
data_Nd6Si3Ni2
_symmetry_space_group_name_H-M   'P 1'
_cell_length_a   4.50680902
_cell_length_b   11.80677576
_cell_length_c   11.72013851
_cell_angle_alpha   119.80836609
_cell_angle_beta   90.00000000
_cell_angle_gamma   90.00000000
_symmetry_Int_Tables_number   1
_chemical_formula_structural   Nd6Si3Ni2
_chemical_formula_sum   'Nd12 Si6 Ni4'
_cell_volume   541.12705345
_cell_formula_units_Z   2
loop_
 _symmetry_equiv_pos_site_id
 _symmetry_equiv_pos_as_xyz
  1  'x, y, z'
loop_
 _atom_site_type_symbol
 _atom_site_label
 _atom_site_symmetry_multiplicity
 _atom_site_fract_x
 _atom_site_fract_y
 _atom_site_fract_z
 _atom_site_occupancy
  Nd  Nd0  1  0.75000000  0.77407407  0.01074041  1
  Nd  Nd1  1  0.75000000  0.99770265  0.76549007  1
  Nd  Nd2  1  0.75000000  0.23494720  0.23121620  1
  Nd  Nd3  1  0.25000000  0.23011556  0.99244223  1
  Nd  Nd4  1  0.25000000  0.00874344  0.24056857  1
  Nd  Nd5  1  0.25000000  0.76452771  0.77411018  1
  Nd  Nd6  1  0.75000000  0.62531326  0.48422880  1
  Nd  Nd7  1  0.75000000  0.51423486  0.13585335  1
  Nd  Nd8  1  0.75000000  0.86163173  0.37614614  1
  Nd  Nd9  1  0.25000000  0.38076110  0.51660351  1
  Nd  Nd10  1  0.25000000  0.48149666  0.86232995  1
  Nd  Nd11  1  0.25000000  0.13803503  0.61432321  1
  Si  Si12  1  0.25000000  0.66612781  0.33250892  1
  Si  Si13  1  0.75000000  0.32781605  0.66482679  1
  Si  Si14  1  0.75000000  0.55984593  0.71209041  1
  Si  Si15  1  0.25000000  0.71107162  0.15202976  1
  Si  Si16  1  0.25000000  0.84532878  0.55885668  1
  Si  Si17  1  0.25000000  0.44245019  0.28963823  1
  Ni  Ni18  1  0.49896395  0.00207386  0.00164053  1
  Ni  Ni19  1  0.00103605  0.00207386  0.00164053  1
  Ni  Ni20  1  0.75000000  0.28232542  0.84444756  1
  Ni  Ni21  1  0.75000000  0.14930322  0.43826797  1
