# generated using pymatgen
data_Nb3IrSe8
_symmetry_space_group_name_H-M   'P 1'
_cell_length_a   6.84178019
_cell_length_b   6.84526448
_cell_length_c   7.64283066
_cell_angle_alpha   63.38456882
_cell_angle_beta   77.21800187
_cell_angle_gamma   59.96876488
_symmetry_Int_Tables_number   1
_chemical_formula_structural   Nb3IrSe8
_chemical_formula_sum   'Nb3 Ir1 Se8'
_cell_volume   277.04995941
_cell_formula_units_Z   1
loop_
 _symmetry_equiv_pos_site_id
 _symmetry_equiv_pos_as_xyz
  1  'x, y, z'
loop_
 _atom_site_type_symbol
 _atom_site_label
 _atom_site_symmetry_multiplicity
 _atom_site_fract_x
 _atom_site_fract_y
 _atom_site_fract_z
 _atom_site_occupancy
  Nb  Nb0  1  0.00000000  0.50000000  0.00000000  1
  Nb  Nb1  1  0.50000000  -0.00000000  0.00000000  1
  Nb  Nb2  1  0.50000000  0.50000000  0.00000000  1
  Ir  Ir3  1  0.00000000  -0.00000000  0.00000000  1
  Se  Se4  1  0.32275472  0.71445419  0.24827544  1
  Se  Se5  1  0.33487522  0.20783396  0.24937705  1
  Se  Se6  1  0.84057027  0.71468365  0.24771999  1
  Se  Se7  1  0.84056783  0.19695986  0.24768424  1
  Se  Se8  1  0.15942973  0.28531635  0.75228001  1
  Se  Se9  1  0.15943217  0.80304014  0.75231576  1
  Se  Se10  1  0.67724528  0.28554581  0.75172456  1
  Se  Se11  1  0.66512478  0.79216604  0.75062295  1
