# generated using pymatgen
data_Nb12Al3Ga
_symmetry_space_group_name_H-M   'P 1'
_cell_length_a   5.20313579
_cell_length_b   5.20249767
_cell_length_c   10.39905836
_cell_angle_alpha   90.00000000
_cell_angle_beta   90.00000000
_cell_angle_gamma   90.00000000
_symmetry_Int_Tables_number   1
_chemical_formula_structural   Nb12Al3Ga
_chemical_formula_sum   'Nb12 Al3 Ga1'
_cell_volume   281.49524943
_cell_formula_units_Z   1
loop_
 _symmetry_equiv_pos_site_id
 _symmetry_equiv_pos_as_xyz
  1  'x, y, z'
loop_
 _atom_site_type_symbol
 _atom_site_label
 _atom_site_symmetry_multiplicity
 _atom_site_fract_x
 _atom_site_fract_y
 _atom_site_fract_z
 _atom_site_occupancy
  Nb  Nb0  1  -0.00000000  0.50000000  0.37487249  1
  Nb  Nb1  1  -0.00000000  0.50000000  0.87432140  1
  Nb  Nb2  1  0.50000000  0.24957430  -0.00000000  1
  Nb  Nb3  1  0.50000000  0.25137795  0.50000000  1
  Nb  Nb4  1  0.74870053  0.00000000  0.24991923  1
  Nb  Nb5  1  0.74870053  0.00000000  0.75008077  1
  Nb  Nb6  1  0.00000000  0.50000000  0.12567860  1
  Nb  Nb7  1  0.00000000  0.50000000  0.62512751  1
  Nb  Nb8  1  0.50000000  0.75042570  -0.00000000  1
  Nb  Nb9  1  0.50000000  0.74862205  0.50000000  1
  Nb  Nb10  1  0.25129947  -0.00000000  0.24991923  1
  Nb  Nb11  1  0.25129947  -0.00000000  0.75008077  1
  Al  Al12  1  0.50000000  0.50000000  0.24999659  1
  Al  Al13  1  0.50000000  0.50000000  0.75000341  1
  Al  Al14  1  -0.00000000  0.00000000  -0.00000000  1
  Ga  Ga15  1  -0.00000000  -0.00000000  0.50000000  1
