# generated using pymatgen
data_NbCo3
_symmetry_space_group_name_H-M   'P 1'
_cell_length_a   4.73320895
_cell_length_b   4.73606462
_cell_length_c   15.46363480
_cell_angle_alpha   90.00000000
_cell_angle_beta   90.02538544
_cell_angle_gamma   59.98004008
_symmetry_Int_Tables_number   1
_chemical_formula_structural   NbCo3
_chemical_formula_sum   'Nb6 Co18'
_cell_volume   300.14289747
_cell_formula_units_Z   6
loop_
 _symmetry_equiv_pos_site_id
 _symmetry_equiv_pos_as_xyz
  1  'x, y, z'
loop_
 _atom_site_type_symbol
 _atom_site_label
 _atom_site_symmetry_multiplicity
 _atom_site_fract_x
 _atom_site_fract_y
 _atom_site_fract_z
 _atom_site_occupancy
  Nb  Nb0  1  0.00016847  -0.00008423  0.09169301  1
  Nb  Nb1  1  -0.00016847  0.00008423  0.90830699  1
  Nb  Nb2  1  0.33316798  0.33341601  0.35078355  1
  Nb  Nb3  1  0.66683202  0.66658399  0.64921645  1
  Nb  Nb4  1  0.66655500  0.66672250  0.83944801  1
  Nb  Nb5  1  0.33344500  0.33327750  0.16055199  1
  Co  Co6  1  0.16314599  0.67377687  0.74714651  1
  Co  Co7  1  0.67378808  0.16310596  0.74717885  1
  Co  Co8  1  0.16314599  0.16307714  0.74714651  1
  Co  Co9  1  0.83685401  0.32622313  0.25285349  1
  Co  Co10  1  0.32621192  0.83689404  0.25282115  1
  Co  Co11  1  0.83685401  0.83692286  0.25285349  1
  Co  Co12  1  0.50000000  0.00000000  0.50000000  1
  Co  Co13  1  -0.00000000  0.50000000  0.50000000  1
  Co  Co14  1  0.50000000  0.50000000  0.50000000  1
  Co  Co15  1  0.50000000  0.00000000  -0.00000000  1
  Co  Co16  1  -0.00000000  0.50000000  -0.00000000  1
  Co  Co17  1  0.50000000  0.50000000  -0.00000000  1
  Co  Co18  1  0.33311882  0.33344059  0.62502083  1
  Co  Co19  1  0.66688118  0.66655941  0.37497917  1
  Co  Co20  1  0.66658371  0.66670814  0.12761638  1
  Co  Co21  1  0.33341629  0.33329186  0.87238362  1
  Co  Co22  1  0.00001350  -0.00000675  0.58718351  1
  Co  Co23  1  -0.00001350  0.00000675  0.41281649  1
