# generated using pymatgen
data_NdV2(FeCo)5
_symmetry_space_group_name_H-M   'P 1'
_cell_length_a   4.67500516
_cell_length_b   6.44121366
_cell_length_c   6.44121366
_cell_angle_alpha   97.14006053
_cell_angle_beta   111.27826984
_cell_angle_gamma   68.72173016
_symmetry_Int_Tables_number   1
_chemical_formula_structural   NdV2(FeCo)5
_chemical_formula_sum   'Nd1 V2 Fe5 Co5'
_cell_volume   168.41241854
_cell_formula_units_Z   1
loop_
 _symmetry_equiv_pos_site_id
 _symmetry_equiv_pos_as_xyz
  1  'x, y, z'
loop_
 _atom_site_type_symbol
 _atom_site_label
 _atom_site_symmetry_multiplicity
 _atom_site_fract_x
 _atom_site_fract_y
 _atom_site_fract_z
 _atom_site_occupancy
  Nd  Nd0  1  0.00000000  0.99842395  0.99842395  1
  V  V1  1  0.00000000  0.36037557  0.36037557  1
  V  V2  1  0.00000000  0.64001041  0.64001041  1
  Fe  Fe3  1  0.50127051  0.99851458  0.50131462  1
  Fe  Fe4  1  0.00152953  0.99851458  0.50131462  1
  Fe  Fe5  1  0.49872949  0.50131462  0.99851458  1
  Fe  Fe6  1  0.99847047  0.50131462  0.99851458  1
  Fe  Fe7  1  0.50000000  0.23170533  0.23170533  1
  Co  Co8  1  0.72774717  0.77306048  0.22855483  1
  Co  Co9  1  0.27225283  0.22855483  0.77306048  1
  Co  Co10  1  0.50000000  0.77004879  0.77004879  1
  Co  Co11  1  0.64030304  0.35877808  0.63938416  1
  Co  Co12  1  0.35969696  0.63938416  0.35877808  1
