# generated using pymatgen
data_Nd3AlSi5N10O
_symmetry_space_group_name_H-M   'P 1'
_cell_length_a   4.93033063
_cell_length_b   10.20013194
_cell_length_c   10.21005476
_cell_angle_alpha   90.00000000
_cell_angle_beta   90.00000000
_cell_angle_gamma   89.74638229
_symmetry_Int_Tables_number   1
_chemical_formula_structural   Nd3AlSi5N10O
_chemical_formula_sum   'Nd6 Al2 Si10 N20 O2'
_cell_volume   513.45885727
_cell_formula_units_Z   2
loop_
 _symmetry_equiv_pos_site_id
 _symmetry_equiv_pos_as_xyz
  1  'x, y, z'
loop_
 _atom_site_type_symbol
 _atom_site_label
 _atom_site_symmetry_multiplicity
 _atom_site_fract_x
 _atom_site_fract_y
 _atom_site_fract_z
 _atom_site_occupancy
  Nd  Nd0  1  0.03239557  0.68648292  0.80789013  1
  Nd  Nd1  1  0.01841814  0.30746912  0.18279995  1
  Nd  Nd2  1  0.01841814  0.80746912  0.31720005  1
  Nd  Nd3  1  0.03239557  0.18648292  0.69210987  1
  Nd  Nd4  1  0.03740302  0.50245601  0.49908238  1
  Nd  Nd5  1  0.03740302  0.00245601  0.00091762  1
  Al  Al6  1  0.48511107  0.71541599  0.56997612  1
  Al  Al7  1  0.48511107  0.21541599  0.93002388  1
  Si  Si8  1  0.97436971  0.88379531  0.61890423  1
  Si  Si9  1  0.97011549  0.11833840  0.38517679  1
  Si  Si10  1  0.97011549  0.61833840  0.11482321  1
  Si  Si11  1  0.97436971  0.38379531  0.88109577  1
  Si  Si12  1  0.48005794  0.28873698  0.42520658  1
  Si  Si13  1  0.48005794  0.78873698  0.07479342  1
  Si  Si14  1  0.48006076  0.57092817  0.28279688  1
  Si  Si15  1  0.47680272  0.42744816  0.71119864  1
  Si  Si16  1  0.48006076  0.07092817  0.21720312  1
  Si  Si17  1  0.47680272  0.92744816  0.78880136  1
  N  N18  1  0.85925360  0.73715223  0.56129966  1
  N  N19  1  0.83070831  0.26603346  0.42941446  1
  N  N20  1  0.83070831  0.76603346  0.07058554  1
  N  N21  1  0.85925360  0.23715223  0.93870034  1
  N  N22  1  0.83191778  0.56670473  0.26012343  1
  N  N23  1  0.82748284  0.42899976  0.73471576  1
  N  N24  1  0.83191778  0.06670473  0.23987657  1
  N  N25  1  0.82748284  0.92899976  0.76528424  1
  N  N26  1  0.36736785  0.67314696  0.40477362  1
  N  N27  1  0.36919159  0.32418912  0.58188023  1
  N  N28  1  0.36919159  0.82418912  0.91811977  1
  N  N29  1  0.36736785  0.17314696  0.09522638  1
  N  N30  1  0.37045675  0.41323418  0.31855458  1
  N  N31  1  0.36111670  0.58117778  0.67680366  1
  N  N32  1  0.37045675  0.91323418  0.18144542  1
  N  N33  1  0.36111670  0.08117778  0.82319634  1
  N  N34  1  0.31340414  0.86028524  0.65185984  1
  N  N35  1  0.31571908  0.14548497  0.35855521  1
  N  N36  1  0.31571908  0.64548497  0.14144479  1
  N  N37  1  0.31340414  0.36028524  0.84814016  1
  O  O38  1  0.94205695  0.00252050  0.50218804  1
  O  O39  1  0.94205695  0.50252050  0.99781196  1
