# generated using pymatgen
data_Na(VSe2)2
_symmetry_space_group_name_H-M   'P 1'
_cell_length_a   3.62438931
_cell_length_b   3.62438931
_cell_length_c   14.57963280
_cell_angle_alpha   97.14012166
_cell_angle_beta   97.14012166
_cell_angle_gamma   60.00000560
_symmetry_Int_Tables_number   1
_chemical_formula_structural   Na(VSe2)2
_chemical_formula_sum   'Na1 V2 Se4'
_cell_volume   164.14478859
_cell_formula_units_Z   1
loop_
 _symmetry_equiv_pos_site_id
 _symmetry_equiv_pos_as_xyz
  1  'x, y, z'
loop_
 _atom_site_type_symbol
 _atom_site_label
 _atom_site_symmetry_multiplicity
 _atom_site_fract_x
 _atom_site_fract_y
 _atom_site_fract_z
 _atom_site_occupancy
  Na  Na0  1  0.08312499  0.08312499  0.24937498  1
  V  V1  1  0.99856213  0.99856213  0.99568638  1
  V  V2  1  0.50120464  0.50120464  0.50361393  1
  Se  Se3  1  0.79935121  0.79935121  0.39805362  1
  Se  Se4  1  0.29962129  0.29962129  0.89886386  1
  Se  Se5  1  0.70048313  0.70048313  0.10144940  1
  Se  Se6  1  0.20020261  0.20020261  0.60060784  1
