# generated using pymatgen
data_Mn3Zn(FeO2)8
_symmetry_space_group_name_H-M   'P 1'
_cell_length_a   6.07797084
_cell_length_b   6.07797084
_cell_length_c   10.50232565
_cell_angle_alpha   73.18017093
_cell_angle_beta   90.00000000
_cell_angle_gamma   120.00000000
_symmetry_Int_Tables_number   1
_chemical_formula_structural   Mn3Zn(FeO2)8
_chemical_formula_sum   'Mn3 Zn1 Fe8 O16'
_cell_volume   316.68501182
_cell_formula_units_Z   1
loop_
 _symmetry_equiv_pos_site_id
 _symmetry_equiv_pos_as_xyz
  1  'x, y, z'
loop_
 _atom_site_type_symbol
 _atom_site_label
 _atom_site_symmetry_multiplicity
 _atom_site_fract_x
 _atom_site_fract_y
 _atom_site_fract_z
 _atom_site_occupancy
  Mn  Mn0  1  0.81257569  0.12515137  0.56227294  1
  Mn  Mn1  1  0.18757981  0.87515962  0.43726056  1
  Mn  Mn2  1  0.68708761  0.87417521  0.93873718  1
  Zn  Zn3  1  0.31270846  0.12541692  0.06187461  1
  Fe  Fe4  1  0.49991758  0.49983516  0.50024726  1
  Fe  Fe5  1  0.00011967  0.50023933  0.99964100  1
  Fe  Fe6  1  0.75024894  0.00049787  0.24872526  1
  Fe  Fe7  1  0.24916919  0.99833837  0.75151350  1
  Fe  Fe8  1  0.75024894  0.50102580  0.24872526  1
  Fe  Fe9  1  0.24916919  0.49931731  0.75151350  1
  Fe  Fe10  1  0.25077687  0.50102580  0.24872526  1
  Fe  Fe11  1  0.75014813  0.49931731  0.75151350  1
  O  O12  1  0.88138647  0.26277294  0.35584059  1
  O  O13  1  0.37987614  0.25975229  0.86037157  1
  O  O14  1  0.10863135  0.71726270  0.12756002  1
  O  O15  1  0.60718232  0.71436465  0.63155263  1
  O  O16  1  0.10863135  0.26380863  0.12756002  1
  O  O17  1  0.60718232  0.26126505  0.63155263  1
  O  O18  1  0.65517727  0.26380863  0.12756002  1
  O  O19  1  0.15408272  0.26126505  0.63155263  1
  O  O20  1  0.61899495  0.73798989  0.14301516  1
  O  O21  1  0.11909682  0.73819363  0.64270955  1
  O  O22  1  0.39275016  0.28550031  0.36884188  1
  O  O23  1  0.89420607  0.28841214  0.87114989  1
  O  O24  1  0.39275016  0.73840797  0.36884188  1
  O  O25  1  0.89420607  0.73464404  0.87114989  1
  O  O26  1  0.84565781  0.73840797  0.36884188  1
  O  O27  1  0.34043797  0.73464404  0.87114989  1
