# generated using pymatgen
data_Mn4VSe5
_symmetry_space_group_name_H-M   'P 1'
_cell_length_a   3.81992825
_cell_length_b   3.81992825
_cell_length_c   15.76422883
_cell_angle_alpha   90.00000000
_cell_angle_beta   96.95894840
_cell_angle_gamma   120.00000000
_symmetry_Int_Tables_number   1
_chemical_formula_structural   Mn4VSe5
_chemical_formula_sum   'Mn4 V1 Se5'
_cell_volume   197.25205547
_cell_formula_units_Z   1
loop_
 _symmetry_equiv_pos_site_id
 _symmetry_equiv_pos_as_xyz
  1  'x, y, z'
loop_
 _atom_site_type_symbol
 _atom_site_label
 _atom_site_symmetry_multiplicity
 _atom_site_fract_x
 _atom_site_fract_y
 _atom_site_fract_z
 _atom_site_occupancy
  Mn  Mn0  1  0.79997335  0.39998667  0.19996002  1
  Mn  Mn1  1  0.59980257  0.79990129  0.39970386  1
  Mn  Mn2  1  0.40019743  0.20009871  0.60029614  1
  Mn  Mn3  1  0.20002665  0.60001333  0.80003998  1
  V  V4  1  0.00000000  0.00000000  -0.00000000  1
  Se  Se5  1  0.60297537  0.30148769  0.90446306  1
  Se  Se6  1  0.80184257  0.90092128  0.70276385  1
  Se  Se7  1  0.00000000  0.50000000  0.50000000  1
  Se  Se8  1  0.39702463  0.69851231  0.09553694  1
  Se  Se9  1  0.19815743  0.09907872  0.29723615  1
