# generated using pymatgen
data_Mn3Ni3Sn2
_symmetry_space_group_name_H-M   'P 1'
_cell_length_a   4.31190368
_cell_length_b   4.31190368
_cell_length_c   7.44757062
_cell_angle_alpha   73.17293921
_cell_angle_beta   90.00000000
_cell_angle_gamma   120.00000000
_symmetry_Int_Tables_number   1
_chemical_formula_structural   Mn3Ni3Sn2
_chemical_formula_sum   'Mn3 Ni3 Sn2'
_cell_volume   113.01985400
_cell_formula_units_Z   1
loop_
 _symmetry_equiv_pos_site_id
 _symmetry_equiv_pos_as_xyz
  1  'x, y, z'
loop_
 _atom_site_type_symbol
 _atom_site_label
 _atom_site_symmetry_multiplicity
 _atom_site_fract_x
 _atom_site_fract_y
 _atom_site_fract_z
 _atom_site_occupancy
  Mn  Mn0  1  0.24857974  0.49715948  0.25426078  1
  Mn  Mn1  1  0.75114867  0.50229734  0.74655399  1
  Mn  Mn2  1  0.62304030  0.24608059  0.13087911  1
  Ni  Ni3  1  0.12782409  0.25564819  0.61652772  1
  Ni  Ni4  1  0.87777990  0.75555979  0.36666031  1
  Ni  Ni5  1  0.37129944  0.74259889  0.88610167  1
  Sn  Sn6  1  0.00420975  0.00841949  0.98737076  1
  Sn  Sn7  1  0.49611811  0.99223622  0.51164567  1
