# generated using pymatgen
data_MgAlCu
_symmetry_space_group_name_H-M   'P 1'
_cell_length_a   5.25281243
_cell_length_b   5.25281242
_cell_length_c   12.76816700
_cell_angle_alpha   89.98293142
_cell_angle_beta   78.13750011
_cell_angle_gamma   119.97394180
_symmetry_Int_Tables_number   1
_chemical_formula_structural   MgAlCu
_chemical_formula_sum   'Mg6 Al6 Cu6'
_cell_volume   296.45057199
_cell_formula_units_Z   6
loop_
 _symmetry_equiv_pos_site_id
 _symmetry_equiv_pos_as_xyz
  1  'x, y, z'
loop_
 _atom_site_type_symbol
 _atom_site_label
 _atom_site_symmetry_multiplicity
 _atom_site_fract_x
 _atom_site_fract_y
 _atom_site_fract_z
 _atom_site_occupancy
  Mg  Mg0  1  0.46255827  0.73100985  0.80643188  1
  Mg  Mg1  1  0.53742635  0.26897575  0.19359789  1
  Mg  Mg2  1  0.07690771  0.03829871  0.88479358  1
  Mg  Mg3  1  0.92308142  0.96168923  0.11522935  1
  Mg  Mg4  1  0.36232085  0.18101921  0.45665995  1
  Mg  Mg5  1  0.63769089  0.81897263  0.54333648  1
  Al  Al6  1  0.44756760  0.72354988  0.33034083  1
  Al  Al7  1  0.94610930  0.22209157  0.33034083  1
  Al  Al8  1  0.94603692  0.72375982  0.33020326  1
  Al  Al9  1  0.55240388  0.27643877  0.66967796  1
  Al  Al10  1  0.05388327  0.77791816  0.66967796  1
  Al  Al11  1  0.05394944  0.27623991  0.66981065  1
  Cu  Cu12  1  0.77665463  0.38896377  0.83438160  1
  Cu  Cu13  1  0.22333996  0.61105941  0.16560063  1
  Cu  Cu14  1  0.00001507  0.50000859  0.00000468  1
  Cu  Cu15  1  0.49998673  0.99998025  0.00000468  1
  Cu  Cu16  1  0.49998759  0.50000768  0.00000473  1
  Cu  Cu17  1  0.99998013  0.50001680  0.50000307  1
