# generated using pymatgen
data_Mn3SiIr
_symmetry_space_group_name_H-M   'P 1'
_cell_length_a   6.46536875
_cell_length_b   6.46536875
_cell_length_c   6.46536875
_cell_angle_alpha   90.00000000
_cell_angle_beta   90.00000000
_cell_angle_gamma   90.00000000
_symmetry_Int_Tables_number   1
_chemical_formula_structural   Mn3SiIr
_chemical_formula_sum   'Mn12 Si4 Ir4'
_cell_volume   270.25883434
_cell_formula_units_Z   4
loop_
 _symmetry_equiv_pos_site_id
 _symmetry_equiv_pos_as_xyz
  1  'x, y, z'
loop_
 _atom_site_type_symbol
 _atom_site_label
 _atom_site_symmetry_multiplicity
 _atom_site_fract_x
 _atom_site_fract_y
 _atom_site_fract_z
 _atom_site_occupancy
  Mn  Mn0  1  0.54715728  0.62480822  0.29010419  1
  Mn  Mn1  1  0.87519178  0.70989581  0.04715728  1
  Mn  Mn2  1  0.70989581  0.04715728  0.87519178  1
  Mn  Mn3  1  0.20989581  0.45284272  0.12480822  1
  Mn  Mn4  1  0.62480822  0.29010419  0.54715728  1
  Mn  Mn5  1  0.29010419  0.54715728  0.62480822  1
  Mn  Mn6  1  0.95284272  0.37519178  0.79010419  1
  Mn  Mn7  1  0.37519178  0.79010419  0.95284272  1
  Mn  Mn8  1  0.12480822  0.20989581  0.45284272  1
  Mn  Mn9  1  0.79010419  0.95284272  0.37519178  1
  Mn  Mn10  1  0.04715728  0.87519178  0.70989581  1
  Mn  Mn11  1  0.45284272  0.12480822  0.20989581  1
  Si  Si12  1  0.56368836  0.43631164  0.93631164  1
  Si  Si13  1  0.06368836  0.06368836  0.06368836  1
  Si  Si14  1  0.93631164  0.56368836  0.43631164  1
  Si  Si15  1  0.43631164  0.93631164  0.56368836  1
  Ir  Ir16  1  0.18521579  0.81478421  0.31478421  1
  Ir  Ir17  1  0.31478421  0.18521579  0.81478421  1
  Ir  Ir18  1  0.81478421  0.31478421  0.18521579  1
  Ir  Ir19  1  0.68521579  0.68521579  0.68521579  1
