# generated using pymatgen
data_Mg2TiGa3S8
_symmetry_space_group_name_H-M   'P 1'
_cell_length_a   3.76607974
_cell_length_b   3.76605647
_cell_length_c   24.75200968
_cell_angle_alpha   89.99999999
_cell_angle_beta   90.00135955
_cell_angle_gamma   119.99979700
_symmetry_Int_Tables_number   1
_chemical_formula_structural   Mg2TiGa3S8
_chemical_formula_sum   'Mg2 Ti1 Ga3 S8'
_cell_volume   304.03131994
_cell_formula_units_Z   1
loop_
 _symmetry_equiv_pos_site_id
 _symmetry_equiv_pos_as_xyz
  1  'x, y, z'
loop_
 _atom_site_type_symbol
 _atom_site_label
 _atom_site_symmetry_multiplicity
 _atom_site_fract_x
 _atom_site_fract_y
 _atom_site_fract_z
 _atom_site_occupancy
  Mg  Mg0  1  0.99999691  0.99999846  0.25197133  1
  Mg  Mg1  1  0.99999110  0.99999555  0.74999968  1
  Ti  Ti2  1  0.33332289  0.66666145  0.10308912  1
  Ga  Ga3  1  0.33334153  0.66667076  0.60572193  1
  Ga  Ga4  1  0.66665687  0.33332843  0.39502466  1
  Ga  Ga5  1  0.66665745  0.33332872  0.89437466  1
  S  S6  1  0.33334687  0.66667344  0.43438292  1
  S  S7  1  0.33334842  0.66667421  0.93449033  1
  S  S8  1  0.66666743  0.33333372  0.06521233  1
  S  S9  1  0.66666733  0.33333366  0.56559342  1
  S  S10  1  0.33334533  0.66667267  0.19477319  1
  S  S11  1  0.33334201  0.66667101  0.69507575  1
  S  S12  1  0.66666694  0.33333347  0.30528850  1
  S  S13  1  0.66664892  0.33332446  0.80500220  1
