# generated using pymatgen
data_Mg3Cr8FeO16
_symmetry_space_group_name_H-M   'P 1'
_cell_length_a   6.02174489
_cell_length_b   6.02175644
_cell_length_c   10.37920270
_cell_angle_alpha   73.13679813
_cell_angle_beta   89.99987372
_cell_angle_gamma   120.00006343
_symmetry_Int_Tables_number   1
_chemical_formula_structural   Mg3Cr8FeO16
_chemical_formula_sum   'Mg3 Cr8 Fe1 O16'
_cell_volume   307.11211046
_cell_formula_units_Z   1
loop_
 _symmetry_equiv_pos_site_id
 _symmetry_equiv_pos_as_xyz
  1  'x, y, z'
loop_
 _atom_site_type_symbol
 _atom_site_label
 _atom_site_symmetry_multiplicity
 _atom_site_fract_x
 _atom_site_fract_y
 _atom_site_fract_z
 _atom_site_occupancy
  Mg  Mg0  1  0.81244076  0.12487887  0.56268303  1
  Mg  Mg1  1  0.18756442  0.87513397  0.43729648  1
  Mg  Mg2  1  0.68746581  0.87493419  0.93759744  1
  Cr  Cr3  1  0.00004655  0.50008324  -0.00011992  1
  Cr  Cr4  1  0.49993998  0.49987723  0.50018552  1
  Cr  Cr5  1  0.74971332  0.99943149  0.25011940  1
  Cr  Cr6  1  0.24960118  0.99920385  0.75034272  1
  Cr  Cr7  1  0.74971332  0.50016243  0.25011940  1
  Cr  Cr8  1  0.24960118  0.50005462  0.75034272  1
  Cr  Cr9  1  0.25044736  0.50016300  0.25012136  1
  Cr  Cr10  1  0.75045744  0.50005545  0.75034655  1
  Fe  Fe11  1  0.31287201  0.12574436  0.06138329  1
  O  O12  1  0.88055410  0.26111010  0.35833390  1
  O  O13  1  0.38020840  0.26041774  0.85937291  1
  O  O14  1  0.10655478  0.71311067  0.13017715  1
  O  O15  1  0.60820821  0.71642089  0.63069296  1
  O  O16  1  0.10655478  0.26326696  0.13017715  1
  O  O17  1  0.60820821  0.26109436  0.63069296  1
  O  O18  1  0.65671181  0.26326714  0.13017754  1
  O  O19  1  0.15288841  0.26109778  0.63069285  1
  O  O20  1  0.61936550  0.73872943  0.14190664  1
  O  O21  1  0.11949185  0.73898309  0.64152568  1
  O  O22  1  0.39152733  0.28305321  0.36962913  1
  O  O23  1  0.89175278  0.28350484  0.86898183  1
  O  O24  1  0.39152733  0.73884499  0.36962913  1
  O  O25  1  0.89175278  0.73926611  0.86898183  1
  O  O26  1  0.84731740  0.73884394  0.36962951  1
  O  O27  1  0.34751301  0.73926606  0.86898088  1
