# generated using pymatgen
data_Li4MnCo2NiO8
_symmetry_space_group_name_H-M   'P 1'
_cell_length_a   2.95398373
_cell_length_b   5.16317561
_cell_length_c   10.12765273
_cell_angle_alpha   100.09079499
_cell_angle_beta   90.00000000
_cell_angle_gamma   106.62238063
_symmetry_Int_Tables_number   1
_chemical_formula_structural   Li4MnCo2NiO8
_chemical_formula_sum   'Li4 Mn1 Co2 Ni1 O8'
_cell_volume   145.51597144
_cell_formula_units_Z   1
loop_
 _symmetry_equiv_pos_site_id
 _symmetry_equiv_pos_as_xyz
  1  'x, y, z'
loop_
 _atom_site_type_symbol
 _atom_site_label
 _atom_site_symmetry_multiplicity
 _atom_site_fract_x
 _atom_site_fract_y
 _atom_site_fract_z
 _atom_site_occupancy
  Li  Li0  1  0.00280244  0.00560488  0.00368271  1
  Li  Li1  1  0.49981997  0.99963994  0.24684016  1
  Li  Li2  1  0.00302762  0.00605525  0.48724153  1
  Li  Li3  1  0.49619256  0.99238513  0.75790816  1
  Mn  Mn4  1  0.74974746  0.49949492  0.62410693  1
  Co  Co5  1  0.25409321  0.50818643  0.88575617  1
  Co  Co6  1  0.74814207  0.49628414  0.13416325  1
  Ni  Ni7  1  0.24777230  0.49554460  0.37146320  1
  O  O8  1  0.12885465  0.25770930  0.18300556  1
  O  O9  1  0.63545110  0.27090221  0.45100074  1
  O  O10  1  0.14365395  0.28730790  0.68588221  1
  O  O11  1  0.63489410  0.26978820  0.93736790  1
  O  O12  1  0.35966144  0.71932287  0.57059122  1
  O  O13  1  0.86235697  0.72471394  0.80312080  1
  O  O14  1  0.36495116  0.72990232  0.05493604  1
  O  O15  1  0.86857899  0.73715797  0.30293341  1
