# generated using pymatgen
data_LiLaTa2O7
_symmetry_space_group_name_H-M   'P 1'
_cell_length_a   3.88932818
_cell_length_b   3.88932818
_cell_length_c   10.72738737
_cell_angle_alpha   79.55565697
_cell_angle_beta   79.55565697
_cell_angle_gamma   90.00000000
_symmetry_Int_Tables_number   1
_chemical_formula_structural   LiLaTa2O7
_chemical_formula_sum   'Li1 La1 Ta2 O7'
_cell_volume   156.84854144
_cell_formula_units_Z   1
loop_
 _symmetry_equiv_pos_site_id
 _symmetry_equiv_pos_as_xyz
  1  'x, y, z'
loop_
 _atom_site_type_symbol
 _atom_site_label
 _atom_site_symmetry_multiplicity
 _atom_site_fract_x
 _atom_site_fract_y
 _atom_site_fract_z
 _atom_site_occupancy
  Li  Li0  1  0.75000000  0.25000000  0.50000000  1
  La  La1  1  0.00000000  -0.00000000  0.00000000  1
  Ta  Ta2  1  0.38848886  0.38848886  0.22302229  1
  Ta  Ta3  1  0.61151114  0.61151114  0.77697771  1
  O  O4  1  0.59003702  0.09003702  0.81992597  1
  O  O5  1  0.08899803  0.58899803  0.82200394  1
  O  O6  1  0.41100197  0.91100197  0.17799606  1
  O  O7  1  0.90996298  0.40996298  0.18007403  1
  O  O8  1  0.30129293  0.30129293  0.39741415  1
  O  O9  1  0.69870707  0.69870707  0.60258585  1
  O  O10  1  0.50000000  0.50000000  -0.00000000  1
