# generated using pymatgen
data_LiLa(WO4)2
_symmetry_space_group_name_H-M   'P 1'
_cell_length_a   5.38091982
_cell_length_b   5.38091982
_cell_length_c   6.94095883
_cell_angle_alpha   67.19346152
_cell_angle_beta   67.19346152
_cell_angle_gamma   90.00000000
_symmetry_Int_Tables_number   1
_chemical_formula_structural   LiLa(WO4)2
_chemical_formula_sum   'Li1 La1 W2 O8'
_cell_volume   168.08402832
_cell_formula_units_Z   1
loop_
 _symmetry_equiv_pos_site_id
 _symmetry_equiv_pos_as_xyz
  1  'x, y, z'
loop_
 _atom_site_type_symbol
 _atom_site_label
 _atom_site_symmetry_multiplicity
 _atom_site_fract_x
 _atom_site_fract_y
 _atom_site_fract_z
 _atom_site_occupancy
  Li  Li0  1  0.87500000  0.12500000  0.25000000  1
  La  La1  1  0.12500000  0.87500000  0.75000000  1
  W  W2  1  0.37500000  0.62500000  0.25000000  1
  W  W3  1  0.62500000  0.37500000  0.75000000  1
  O  O4  1  0.44116786  0.77642103  0.42327537  1
  O  O5  1  0.13555677  0.30030360  0.42327537  1
  O  O6  1  0.78520701  0.13965732  0.91786967  1
  O  O7  1  0.29692332  0.44247301  0.91786967  1
  O  O8  1  0.55752699  0.21479299  0.58213033  1
  O  O9  1  0.86034268  0.70307668  0.58213033  1
  O  O10  1  0.22357897  0.86444323  0.07672463  1
  O  O11  1  0.69969640  0.55883214  0.07672463  1
