# generated using pymatgen
data_Lu2Ti12(CuO4)9
_symmetry_space_group_name_H-M   'P 1'
_cell_length_a   6.43899360
_cell_length_b   10.48998413
_cell_length_c   10.48998413
_cell_angle_alpha   60.00000000
_cell_angle_beta   90.00000000
_cell_angle_gamma   90.00000000
_symmetry_Int_Tables_number   1
_chemical_formula_structural   Lu2Ti12(CuO4)9
_chemical_formula_sum   'Lu2 Ti12 Cu9 O36'
_cell_volume   613.61827764
_cell_formula_units_Z   1
loop_
 _symmetry_equiv_pos_site_id
 _symmetry_equiv_pos_as_xyz
  1  'x, y, z'
loop_
 _atom_site_type_symbol
 _atom_site_label
 _atom_site_symmetry_multiplicity
 _atom_site_fract_x
 _atom_site_fract_y
 _atom_site_fract_z
 _atom_site_occupancy
  Lu  Lu0  1  0.00586343  0.00000000  -0.00000000  1
  Lu  Lu1  1  0.66080357  0.33333300  0.33333300  1
  Ti  Ti2  1  0.83333300  0.16666700  0.16666700  1
  Ti  Ti3  1  0.49671670  0.50551208  0.50830948  1
  Ti  Ti4  1  0.16995030  0.82782092  0.82502352  1
  Ti  Ti5  1  0.83333300  0.66666700  0.66666700  1
  Ti  Ti6  1  0.49240543  -0.00000000  0.00000000  1
  Ti  Ti7  1  0.17426157  0.33333300  0.33333300  1
  Ti  Ti8  1  0.49671670  0.50830948  0.98617844  1
  Ti  Ti9  1  0.16995030  0.82502352  0.34715456  1
  Ti  Ti10  1  0.83333300  0.16666700  0.66666700  1
  Ti  Ti11  1  0.16995030  0.34715456  0.82782092  1
  Ti  Ti12  1  0.83333300  0.66666700  0.16666700  1
  Ti  Ti13  1  0.49671670  0.98617844  0.50551208  1
  Cu  Cu14  1  0.99402479  0.49792554  0.49854961  1
  Cu  Cu15  1  0.67264221  0.83540746  0.83478339  1
  Cu  Cu16  1  0.33333300  0.16666700  0.16666700  1
  Cu  Cu17  1  0.67264221  0.32980815  0.83540746  1
  Cu  Cu18  1  0.33333300  0.66666700  0.16666700  1
  Cu  Cu19  1  0.99402479  0.00352485  0.49792554  1
  Cu  Cu20  1  0.99402479  0.49854961  0.00352485  1
  Cu  Cu21  1  0.67264221  0.83478339  0.32980815  1
  Cu  Cu22  1  0.33333300  0.16666700  0.66666700  1
  O  O23  1  0.24416269  0.44114939  0.62208348  1
  O  O24  1  0.92027858  0.78624203  0.95978112  1
  O  O25  1  0.58404563  0.11923603  0.29228515  1
  O  O26  1  0.35330374  0.34958918  0.17719531  1
  O  O27  1  0.00285608  0.68338014  0.50160619  1
  O  O28  1  0.68846270  0.01679308  0.84400506  1
  O  O29  1  0.97820430  0.31653992  0.48932794  1
  O  O30  1  0.66381092  0.64995286  0.83172681  1
  O  O31  1  0.31336226  0.98374482  0.15613869  1
  O  O32  1  0.08262037  0.21409797  0.04104885  1
  O  O33  1  0.74638842  0.54709097  0.37355188  1
  O  O34  1  0.42250431  0.89218361  0.71124952  1
  O  O35  1  0.42250431  0.39656587  0.89218361  1
  O  O36  1  0.08262037  0.74485417  0.21409797  1
  O  O37  1  0.74638842  0.07935715  0.54709097  1
  O  O38  1  0.66381092  0.51831933  0.64995286  1
  O  O39  1  0.31336226  0.86011749  0.98374482  1
  O  O40  1  0.97820430  0.19413215  0.31653992  1
  O  O41  1  0.68846270  0.13920085  0.01679308  1
  O  O42  1  0.35330374  0.47321651  0.34958918  1
  O  O43  1  0.00285608  0.81501367  0.68338014  1
  O  O44  1  0.92027858  0.25397585  0.78624203  1
  O  O45  1  0.58404563  0.58847983  0.11923603  1
  O  O46  1  0.24416269  0.93676713  0.44114939  1
  O  O47  1  0.00285608  0.50160619  0.81501367  1
  O  O48  1  0.68846270  0.84400506  0.13920085  1
  O  O49  1  0.35330374  0.17719531  0.47321651  1
  O  O50  1  0.58404563  0.29228515  0.58847983  1
  O  O51  1  0.24416269  0.62208348  0.93676713  1
  O  O52  1  0.92027858  0.95978112  0.25397585  1
  O  O53  1  0.74638842  0.37355188  0.07935715  1
  O  O54  1  0.42250431  0.71124952  0.39656587  1
  O  O55  1  0.08262037  0.04104885  0.74485417  1
  O  O56  1  0.31336226  0.15613869  0.86011749  1
  O  O57  1  0.97820430  0.48932794  0.19413215  1
  O  O58  1  0.66381092  0.83172681  0.51831933  1
