# generated using pymatgen
data_LiV5O10
_symmetry_space_group_name_H-M   'P 1'
_cell_length_a   5.26952475
_cell_length_b   7.40036310
_cell_length_c   5.51064380
_cell_angle_alpha   99.65652175
_cell_angle_beta   61.89154649
_cell_angle_gamma   110.85667235
_symmetry_Int_Tables_number   1
_chemical_formula_structural   LiV5O10
_chemical_formula_sum   'Li1 V5 O10'
_cell_volume   177.12948437
_cell_formula_units_Z   1
loop_
 _symmetry_equiv_pos_site_id
 _symmetry_equiv_pos_as_xyz
  1  'x, y, z'
loop_
 _atom_site_type_symbol
 _atom_site_label
 _atom_site_symmetry_multiplicity
 _atom_site_fract_x
 _atom_site_fract_y
 _atom_site_fract_z
 _atom_site_occupancy
  Li  Li0  1  0.98557599  0.97115197  0.00000000  1
  V  V1  1  0.59587335  0.19174670  0.00000000  1
  V  V2  1  0.20789755  0.41579511  1.00000000  1
  V  V3  1  0.29128459  0.58256918  0.50000000  1
  V  V4  1  0.89483625  0.78967249  0.50000000  1
  V  V5  1  0.51154251  0.02308503  0.50000000  1
  O  O6  1  0.82112387  0.19668128  0.20811475  1
  O  O7  1  0.41640718  0.39779548  0.19331564  1
  O  O8  1  0.07464254  0.60052434  0.28509485  1
  O  O9  1  0.67166609  0.81095008  0.30715171  1
  O  O10  1  0.28487884  0.00703858  0.28043684  1
  O  O11  1  0.52588180  0.60052434  0.71490515  1
  O  O12  1  0.13928399  0.81095008  0.69284829  1
  O  O13  1  0.72215974  0.00703858  0.71956316  1
  O  O14  1  0.37555741  0.19668128  0.79188525  1
  O  O15  1  0.98138829  0.39779548  0.80668436  1
