# generated using pymatgen
data_LiCd3
_symmetry_space_group_name_H-M   'P 1'
_cell_length_a   3.18431186
_cell_length_b   3.18431186
_cell_length_c   9.65058726
_cell_angle_alpha   90.00000000
_cell_angle_beta   90.00000000
_cell_angle_gamma   120.47898439
_symmetry_Int_Tables_number   1
_chemical_formula_structural   LiCd3
_chemical_formula_sum   'Li1 Cd3'
_cell_volume   84.33330336
_cell_formula_units_Z   1
loop_
 _symmetry_equiv_pos_site_id
 _symmetry_equiv_pos_as_xyz
  1  'x, y, z'
loop_
 _atom_site_type_symbol
 _atom_site_label
 _atom_site_symmetry_multiplicity
 _atom_site_fract_x
 _atom_site_fract_y
 _atom_site_fract_z
 _atom_site_occupancy
  Li  Li0  1  0.66614240  0.33385760  0.37500000  1
  Cd  Cd1  1  0.66707523  0.33292477  0.87500000  1
  Cd  Cd2  1  0.33339119  0.66660881  0.14022563  1
  Cd  Cd3  1  0.33339119  0.66660881  0.60977437  1
