# generated using pymatgen
data_Li3Mg5Bi3Pb
_symmetry_space_group_name_H-M   'P 1'
_cell_length_a   4.89272823
_cell_length_b   4.89272823
_cell_length_c   15.92388386
_cell_angle_alpha   90.00000000
_cell_angle_beta   81.16272917
_cell_angle_gamma   120.00000000
_symmetry_Int_Tables_number   1
_chemical_formula_structural   Li3Mg5Bi3Pb
_chemical_formula_sum   'Li3 Mg5 Bi3 Pb1'
_cell_volume   324.89167214
_cell_formula_units_Z   1
loop_
 _symmetry_equiv_pos_site_id
 _symmetry_equiv_pos_as_xyz
  1  'x, y, z'
loop_
 _atom_site_type_symbol
 _atom_site_label
 _atom_site_symmetry_multiplicity
 _atom_site_fract_x
 _atom_site_fract_y
 _atom_site_fract_z
 _atom_site_occupancy
  Li  Li0  1  0.24985794  0.62492897  0.12521309  1
  Li  Li1  1  0.74971449  0.87485725  0.37542826  1
  Li  Li2  1  0.24995641  0.12497821  0.62506538  1
  Mg  Mg3  1  0.00095377  0.50047688  0.49856935  1
  Mg  Mg4  1  0.49910936  0.74955468  0.75133596  1
  Mg  Mg5  1  0.99988942  0.99994471  0.00016587  1
  Mg  Mg6  1  0.50039427  0.25019714  0.24940859  1
  Mg  Mg7  1  0.74888609  0.37444304  0.87667087  1
  Bi  Bi8  1  0.87495706  0.93747853  0.18756441  1
  Bi  Bi9  1  0.37481457  0.18740728  0.43777815  1
  Bi  Bi10  1  0.87616891  0.43808445  0.68574664  1
  Pb  Pb11  1  0.37529771  0.68764886  0.93705343  1
