# generated using pymatgen
data_La2CuO4
_symmetry_space_group_name_H-M   'P 1'
_cell_length_a   3.81951608
_cell_length_b   3.81951608
_cell_length_c   7.11497816
_cell_angle_alpha   74.47810796
_cell_angle_beta   74.47810796
_cell_angle_gamma   90.17230814
_symmetry_Int_Tables_number   1
_chemical_formula_structural   La2CuO4
_chemical_formula_sum   'La2 Cu1 O4'
_cell_volume   96.05318548
_cell_formula_units_Z   1
loop_
 _symmetry_equiv_pos_site_id
 _symmetry_equiv_pos_as_xyz
  1  'x, y, z'
loop_
 _atom_site_type_symbol
 _atom_site_label
 _atom_site_symmetry_multiplicity
 _atom_site_fract_x
 _atom_site_fract_y
 _atom_site_fract_z
 _atom_site_occupancy
  La  La0  1  0.63962632  0.63803613  0.72233755  1
  La  La1  1  0.36196387  0.36037368  0.27766245  1
  Cu  Cu2  1  0.99844170  0.00155830  -0.00000000  1
  O  O3  1  0.49755385  0.99868591  -0.00000000  1
  O  O4  1  0.00131409  0.50244615  -0.00000000  1
  O  O5  1  0.78764952  0.84054935  0.37180114  1
  O  O6  1  0.15945065  0.21235048  0.62819886  1
