# generated using pymatgen
data_La2Ti3CuO10
_symmetry_space_group_name_H-M   'P 1'
_cell_length_a   3.84499912
_cell_length_b   3.84468198
_cell_length_c   13.60432327
_cell_angle_alpha   81.87500761
_cell_angle_beta   81.87456502
_cell_angle_gamma   90.00487025
_symmetry_Int_Tables_number   1
_chemical_formula_structural   La2Ti3CuO10
_chemical_formula_sum   'La2 Ti3 Cu1 O10'
_cell_volume   197.05128086
_cell_formula_units_Z   1
loop_
 _symmetry_equiv_pos_site_id
 _symmetry_equiv_pos_as_xyz
  1  'x, y, z'
loop_
 _atom_site_type_symbol
 _atom_site_label
 _atom_site_symmetry_multiplicity
 _atom_site_fract_x
 _atom_site_fract_y
 _atom_site_fract_z
 _atom_site_occupancy
  La  La0  1  0.41752649  0.41760417  0.16494331  1
  La  La1  1  0.58240537  0.58245183  0.83505392  1
  Ti  Ti2  1  0.16056402  0.16017699  0.67912775  1
  Ti  Ti3  1  0.83982237  0.83943457  0.32087633  1
  Ti  Ti4  1  0.99989077  0.00011542  0.00000085  1
  Cu  Cu5  1  0.75011069  0.24988773  0.50000215  1
  O  O6  1  0.22812285  0.22844109  0.54349235  1
  O  O7  1  0.77155323  0.77188715  0.45650827  1
  O  O8  1  0.64498030  0.14512984  0.70987531  1
  O  O9  1  0.14330968  0.64336219  0.71341700  1
  O  O10  1  0.35663896  0.85670321  0.28658361  1
  O  O11  1  0.85487365  0.35500929  0.29012061  1
  O  O12  1  0.07361012  0.07344520  0.85336650  1
  O  O13  1  0.92654763  0.92639864  0.14662987  1
  O  O14  1  0.50021598  0.00016740  0.99963147  1
  O  O15  1  0.99982788  0.49978527  0.00037068  1
