# generated using pymatgen
data_Ge5Te4Se
_symmetry_space_group_name_H-M   'P 1'
_cell_length_a   4.20307532
_cell_length_b   15.39442292
_cell_length_c   4.20307532
_cell_angle_alpha   82.15388604
_cell_angle_beta   90.00000000
_cell_angle_gamma   82.15388604
_symmetry_Int_Tables_number   1
_chemical_formula_structural   Ge5Te4Se
_chemical_formula_sum   'Ge5 Te4 Se1'
_cell_volume   266.83921867
_cell_formula_units_Z   1
loop_
 _symmetry_equiv_pos_site_id
 _symmetry_equiv_pos_as_xyz
  1  'x, y, z'
loop_
 _atom_site_type_symbol
 _atom_site_label
 _atom_site_symmetry_multiplicity
 _atom_site_fract_x
 _atom_site_fract_y
 _atom_site_fract_z
 _atom_site_occupancy
  Ge  Ge0  1  0.20000352  0.59999297  0.20000352  1
  Ge  Ge1  1  0.59999648  0.80000703  0.59999648  1
  Ge  Ge2  1  0.99884538  0.00230924  0.99884538  1
  Ge  Ge3  1  0.40000000  0.20000000  0.40000000  1
  Ge  Ge4  1  0.80115462  0.39769076  0.80115462  1
  Te  Te5  1  0.30016104  0.39967792  0.30016104  1
  Te  Te6  1  0.70014613  0.59970774  0.70014613  1
  Te  Te7  1  0.09985387  0.80029226  0.09985387  1
  Te  Te8  1  0.49983896  0.00032208  0.49983896  1
  Se  Se9  1  0.90000000  0.20000000  0.90000000  1
