# generated using pymatgen
data_Hf10(AlSi)3
_symmetry_space_group_name_H-M   'P 1'
_cell_length_a   5.59993625
_cell_length_b   7.99403665
_cell_length_c   7.99363671
_cell_angle_alpha   120.00165512
_cell_angle_beta   89.99945168
_cell_angle_gamma   90.00109652
_symmetry_Int_Tables_number   1
_chemical_formula_structural   Hf10(AlSi)3
_chemical_formula_sum   'Hf10 Al3 Si3'
_cell_volume   309.89674381
_cell_formula_units_Z   1
loop_
 _symmetry_equiv_pos_site_id
 _symmetry_equiv_pos_as_xyz
  1  'x, y, z'
loop_
 _atom_site_type_symbol
 _atom_site_label
 _atom_site_symmetry_multiplicity
 _atom_site_fract_x
 _atom_site_fract_y
 _atom_site_fract_z
 _atom_site_occupancy
  Hf  Hf0  1  0.49800395  0.33332885  0.66669289  1
  Hf  Hf1  1  0.49800395  0.66663597  0.33330711  1
  Hf  Hf2  1  0.00199571  0.66667538  0.33331966  1
  Hf  Hf3  1  0.00199571  0.33335572  0.66668034  1
  Hf  Hf4  1  0.74998985  0.24589658  0.00000000  1
  Hf  Hf5  1  0.75000508  0.75411076  0.75410473  1
  Hf  Hf6  1  0.75000508  0.00000604  0.24589527  1
  Hf  Hf7  1  0.25000406  0.75436218  1.00000000  1
  Hf  Hf8  1  0.24999705  0.24562998  0.24563973  1
  Hf  Hf9  1  0.24999705  0.99999025  0.75436027  1
  Al  Al10  1  0.74999663  0.60770453  1.00000000  1
  Al  Al11  1  0.75000115  0.39228781  0.39229305  1
  Al  Al12  1  0.75000115  0.99999476  0.60770695  1
  Si  Si13  1  0.24998723  0.39026487  1.00000000  1
  Si  Si14  1  0.25000818  0.60975000  0.60974369  1
  Si  Si15  1  0.25000818  0.00000631  0.39025631  1
