# generated using pymatgen
data_Ga4BiAs3
_symmetry_space_group_name_H-M   'P 1'
_cell_length_a   4.19108047
_cell_length_b   7.26283504
_cell_length_c   7.26283504
_cell_angle_alpha   70.73618132
_cell_angle_beta   90.00000000
_cell_angle_gamma   90.00000000
_symmetry_Int_Tables_number   1
_chemical_formula_structural   Ga4BiAs3
_chemical_formula_sum   'Ga4 Bi1 As3'
_cell_volume   208.69628321
_cell_formula_units_Z   1
loop_
 _symmetry_equiv_pos_site_id
 _symmetry_equiv_pos_as_xyz
  1  'x, y, z'
loop_
 _atom_site_type_symbol
 _atom_site_label
 _atom_site_symmetry_multiplicity
 _atom_site_fract_x
 _atom_site_fract_y
 _atom_site_fract_z
 _atom_site_occupancy
  Ga  Ga0  1  0.50000000  0.36093450  0.36093450  1
  Ga  Ga1  1  0.00000000  0.36709229  0.89436108  1
  Ga  Ga2  1  0.00000000  0.89436108  0.36709229  1
  Ga  Ga3  1  0.50000000  0.87614424  0.87614424  1
  Bi  Bi4  1  -0.00000000  0.50128966  0.50128966  1
  As  As5  1  -0.00000000  0.00047827  0.00047827  1
  As  As6  1  0.50000000  0.00005925  0.49964071  1
  As  As7  1  0.50000000  0.49964071  0.00005925  1
