# generated using pymatgen
data_In2CuTe3Br
_symmetry_space_group_name_H-M   'P 1'
_cell_length_a   6.22516766
_cell_length_b   6.20639808
_cell_length_c   7.55744398
_cell_angle_alpha   67.03615215
_cell_angle_beta   65.72719349
_cell_angle_gamma   90.69826691
_symmetry_Int_Tables_number   1
_chemical_formula_structural   In2CuTe3Br
_chemical_formula_sum   'In2 Cu1 Te3 Br1'
_cell_volume   239.84621431
_cell_formula_units_Z   1
loop_
 _symmetry_equiv_pos_site_id
 _symmetry_equiv_pos_as_xyz
  1  'x, y, z'
loop_
 _atom_site_type_symbol
 _atom_site_label
 _atom_site_symmetry_multiplicity
 _atom_site_fract_x
 _atom_site_fract_y
 _atom_site_fract_z
 _atom_site_occupancy
  In  In0  1  0.99746664  0.98410224  0.98929222  1
  In  In1  1  0.73344599  0.24818290  0.52120721  1
  Cu  Cu2  1  0.52736328  0.52128231  0.98779474  1
  Te  Te3  1  0.90068529  0.41391146  0.74767508  1
  Te  Te4  1  0.37868177  0.82564440  0.74170057  1
  Te  Te5  1  0.57942567  0.62014764  0.27049634  1
  Br  Br6  1  0.13293137  0.13672905  0.24183383  1
