# generated using pymatgen
data_Ho4CdSe7
_symmetry_space_group_name_H-M   'P 1'
_cell_length_a   3.98697914
_cell_length_b   6.93529744
_cell_length_c   12.13255840
_cell_angle_alpha   104.30161871
_cell_angle_beta   90.00000005
_cell_angle_gamma   73.29518317
_symmetry_Int_Tables_number   1
_chemical_formula_structural   Ho4CdSe7
_chemical_formula_sum   'Ho4 Cd1 Se7'
_cell_volume   310.44775203
_cell_formula_units_Z   1
loop_
 _symmetry_equiv_pos_site_id
 _symmetry_equiv_pos_as_xyz
  1  'x, y, z'
loop_
 _atom_site_type_symbol
 _atom_site_label
 _atom_site_symmetry_multiplicity
 _atom_site_fract_x
 _atom_site_fract_y
 _atom_site_fract_z
 _atom_site_occupancy
  Ho  Ho0  1  0.69422468  0.61155064  0.19870009  1
  Ho  Ho1  1  0.30649879  0.38700242  0.80401221  1
  Ho  Ho2  1  0.00003241  0.99993517  0.00239735  1
  Ho  Ho3  1  0.11520976  0.76958049  0.57141094  1
  Cd  Cd4  1  0.88405969  0.23188062  0.42183348  1
  Se  Se5  1  0.74216784  0.51566432  0.64722932  1
  Se  Se6  1  0.25789284  0.48421432  0.35089355  1
  Se  Se7  1  0.33968328  0.32063343  0.04893154  1
  Se  Se8  1  0.66045360  0.67909280  0.94895608  1
  Se  Se9  1  0.03804436  0.92391128  0.21805562  1
  Se  Se10  1  0.96179718  0.07640565  0.78517641  1
  Se  Se11  1  0.49993557  0.00012885  0.50240341  1
