# generated using pymatgen
data_Fe(SbS2)2
_symmetry_space_group_name_H-M   'P 1'
_cell_length_a   3.63153779
_cell_length_b   11.29513540
_cell_length_c   13.73866230
_cell_angle_alpha   90.00000000
_cell_angle_beta   90.00000000
_cell_angle_gamma   90.00000000
_symmetry_Int_Tables_number   1
_chemical_formula_structural   Fe(SbS2)2
_chemical_formula_sum   'Fe4 Sb8 S16'
_cell_volume   563.54221907
_cell_formula_units_Z   4
loop_
 _symmetry_equiv_pos_site_id
 _symmetry_equiv_pos_as_xyz
  1  'x, y, z'
loop_
 _atom_site_type_symbol
 _atom_site_label
 _atom_site_symmetry_multiplicity
 _atom_site_fract_x
 _atom_site_fract_y
 _atom_site_fract_z
 _atom_site_occupancy
  Fe  Fe0  1  0.25000000  0.83027178  0.16254836  1
  Fe  Fe1  1  0.25000000  0.33027178  0.33745164  1
  Fe  Fe2  1  0.75000000  0.16972822  0.83745164  1
  Fe  Fe3  1  0.75000000  0.66972822  0.66254836  1
  Sb  Sb4  1  0.25000000  0.64885689  0.42501256  1
  Sb  Sb5  1  0.25000000  0.14885689  0.07498744  1
  Sb  Sb6  1  0.75000000  0.35114311  0.57498744  1
  Sb  Sb7  1  0.75000000  0.85114311  0.92501256  1
  Sb  Sb8  1  0.75000000  0.53399199  0.11130058  1
  Sb  Sb9  1  0.75000000  0.03399199  0.38869942  1
  Sb  Sb10  1  0.25000000  0.46600801  0.88869942  1
  Sb  Sb11  1  0.25000000  0.96600801  0.61130058  1
  S  S12  1  0.75000000  0.71551378  0.21858178  1
  S  S13  1  0.75000000  0.21551378  0.28141822  1
  S  S14  1  0.25000000  0.28448622  0.78141822  1
  S  S15  1  0.25000000  0.78448622  0.71858178  1
  S  S16  1  0.25000000  0.90405955  0.31276978  1
  S  S17  1  0.25000000  0.40405955  0.18723022  1
  S  S18  1  0.75000000  0.09594045  0.68723022  1
  S  S19  1  0.75000000  0.59594045  0.81276978  1
  S  S20  1  0.25000000  0.73323675  0.01754970  1
  S  S21  1  0.25000000  0.23323675  0.48245030  1
  S  S22  1  0.75000000  0.26676325  0.98245030  1
  S  S23  1  0.75000000  0.76676325  0.51754970  1
  S  S24  1  0.75000000  0.93862576  0.10188122  1
  S  S25  1  0.75000000  0.43862576  0.39811878  1
  S  S26  1  0.25000000  0.06137424  0.89811878  1
  S  S27  1  0.25000000  0.56137424  0.60188122  1
