# generated using pymatgen
data_Fe4Te3Se
_symmetry_space_group_name_H-M   'P 1'
_cell_length_a   5.13773782
_cell_length_b   5.13773782
_cell_length_c   7.42904851
_cell_angle_alpha   69.77015122
_cell_angle_beta   69.77015122
_cell_angle_gamma   90.00000000
_symmetry_Int_Tables_number   1
_chemical_formula_structural   Fe4Te3Se
_chemical_formula_sum   'Fe4 Te3 Se1'
_cell_volume   171.05280102
_cell_formula_units_Z   1
loop_
 _symmetry_equiv_pos_site_id
 _symmetry_equiv_pos_as_xyz
  1  'x, y, z'
loop_
 _atom_site_type_symbol
 _atom_site_label
 _atom_site_symmetry_multiplicity
 _atom_site_fract_x
 _atom_site_fract_y
 _atom_site_fract_z
 _atom_site_occupancy
  Fe  Fe0  1  0.49548571  0.99548571  0.00479892  1
  Fe  Fe1  1  -0.00028463  0.49971537  0.00479892  1
  Fe  Fe2  1  0.49548571  0.49971537  0.00479892  1
  Fe  Fe3  1  -0.00028463  0.99548571  0.00479892  1
  Te  Te4  1  0.60657149  0.10657149  0.28685702  1
  Te  Te5  1  0.39029257  0.39029257  0.71941486  1
  Te  Te6  1  0.89029257  0.89029257  0.71941486  1
  Se  Se7  1  0.12244122  0.62244122  0.25511756  1
