# generated using pymatgen
data_CuSeS
_symmetry_space_group_name_H-M   'P 1'
_cell_length_a   5.98536914
_cell_length_b   5.98536914
_cell_length_c   5.98536914
_cell_angle_alpha   90.00000000
_cell_angle_beta   90.00000000
_cell_angle_gamma   90.00000000
_symmetry_Int_Tables_number   1
_chemical_formula_structural   CuSeS
_chemical_formula_sum   'Cu4 Se4 S4'
_cell_volume   214.42371711
_cell_formula_units_Z   4
loop_
 _symmetry_equiv_pos_site_id
 _symmetry_equiv_pos_as_xyz
  1  'x, y, z'
loop_
 _atom_site_type_symbol
 _atom_site_label
 _atom_site_symmetry_multiplicity
 _atom_site_fract_x
 _atom_site_fract_y
 _atom_site_fract_z
 _atom_site_occupancy
  Cu  Cu0  1  0.49374197  0.99374197  0.50625803  1
  Cu  Cu1  1  0.99374197  0.50625803  0.49374197  1
  Cu  Cu2  1  0.50625803  0.49374197  0.99374197  1
  Cu  Cu3  1  0.00625803  0.00625803  0.00625803  1
  Se  Se4  1  0.10677464  0.60677464  0.89322536  1
  Se  Se5  1  0.60677464  0.89322536  0.10677464  1
  Se  Se6  1  0.89322536  0.10677464  0.60677464  1
  Se  Se7  1  0.39322536  0.39322536  0.39322536  1
  S  S8  1  0.89257020  0.39257020  0.10742980  1
  S  S9  1  0.39257020  0.10742980  0.89257020  1
  S  S10  1  0.10742980  0.89257020  0.39257020  1
  S  S11  1  0.60742980  0.60742980  0.60742980  1
