# generated using pymatgen
data_FeSiMo
_symmetry_space_group_name_H-M   'P 1'
_cell_length_a   4.80048401
_cell_length_b   4.80020657
_cell_length_c   7.49618720
_cell_angle_alpha   90.00000000
_cell_angle_beta   90.00000000
_cell_angle_gamma   60.15469549
_symmetry_Int_Tables_number   1
_chemical_formula_structural   FeSiMo
_chemical_formula_sum   'Fe4 Si4 Mo4'
_cell_volume   149.82727671
_cell_formula_units_Z   4
loop_
 _symmetry_equiv_pos_site_id
 _symmetry_equiv_pos_as_xyz
  1  'x, y, z'
loop_
 _atom_site_type_symbol
 _atom_site_label
 _atom_site_symmetry_multiplicity
 _atom_site_fract_x
 _atom_site_fract_y
 _atom_site_fract_z
 _atom_site_occupancy
  Fe  Fe0  1  0.99863135  0.99860648  0.49330254  1
  Fe  Fe1  1  0.99863135  0.99860648  0.00669746  1
  Fe  Fe2  1  0.83150193  0.34427157  0.75000000  1
  Fe  Fe3  1  0.34430575  0.83148182  0.75000000  1
  Si  Si4  1  0.83345775  0.83344968  0.75000000  1
  Si  Si5  1  0.16709568  0.66229834  0.25000000  1
  Si  Si6  1  0.66232217  0.16710302  0.25000000  1
  Si  Si7  1  0.16696335  0.16701010  0.25000000  1
  Mo  Mo8  1  0.33261893  0.33263883  0.55916188  1
  Mo  Mo9  1  0.66592641  0.66594743  0.42869011  1
  Mo  Mo10  1  0.66592641  0.66594743  0.07130989  1
  Mo  Mo11  1  0.33261893  0.33263883  0.94083812  1
