# generated using pymatgen
data_Eu2CuSi3
_symmetry_space_group_name_H-M   'P 1'
_cell_length_a   4.07778744
_cell_length_b   4.07659903
_cell_length_c   8.77888344
_cell_angle_alpha   90.00000000
_cell_angle_beta   90.00000000
_cell_angle_gamma   60.00413007
_symmetry_Int_Tables_number   1
_chemical_formula_structural   Eu2CuSi3
_chemical_formula_sum   'Eu2 Cu1 Si3'
_cell_volume   126.38937569
_cell_formula_units_Z   1
loop_
 _symmetry_equiv_pos_site_id
 _symmetry_equiv_pos_as_xyz
  1  'x, y, z'
loop_
 _atom_site_type_symbol
 _atom_site_label
 _atom_site_symmetry_multiplicity
 _atom_site_fract_x
 _atom_site_fract_y
 _atom_site_fract_z
 _atom_site_occupancy
  Eu  Eu0  1  0.99992200  0.00009627  0.00771075  1
  Eu  Eu1  1  0.99992200  0.00009627  0.49228925  1
  Cu  Cu2  1  0.66661896  0.66671421  0.25000000  1
  Si  Si3  1  0.66663597  0.66656028  0.75000000  1
  Si  Si4  1  0.33338067  0.33314964  0.25000000  1
  Si  Si5  1  0.33332040  0.33338333  0.75000000  1
