# generated using pymatgen
data_DyAlCo4
_symmetry_space_group_name_H-M   'P 1'
_cell_length_a   4.04543883
_cell_length_b   4.90831098
_cell_length_c   4.98694441
_cell_angle_alpha   119.47975507
_cell_angle_beta   90.00000000
_cell_angle_gamma   90.00000000
_symmetry_Int_Tables_number   1
_chemical_formula_structural   DyAlCo4
_chemical_formula_sum   'Dy1 Al1 Co4'
_cell_volume   86.20169326
_cell_formula_units_Z   1
loop_
 _symmetry_equiv_pos_site_id
 _symmetry_equiv_pos_as_xyz
  1  'x, y, z'
loop_
 _atom_site_type_symbol
 _atom_site_label
 _atom_site_symmetry_multiplicity
 _atom_site_fract_x
 _atom_site_fract_y
 _atom_site_fract_z
 _atom_site_occupancy
  Dy  Dy0  1  -0.00000000  0.99998057  1.00000000  1
  Al  Al1  1  0.50000000  0.49998631  0.00000000  1
  Co  Co2  1  -0.00000000  0.32769107  0.65543179  1
  Co  Co3  1  -0.00000000  0.67225929  0.34456821  1
  Co  Co4  1  0.50000000  0.49999237  0.50000197  1
  Co  Co5  1  0.50000000  0.99999040  0.49999803  1
