# generated using pymatgen
data_Gd2NbGaO7
_symmetry_space_group_name_H-M   'P 1'
_cell_length_a   7.34907002
_cell_length_b   7.23889138
_cell_length_c   7.43998413
_cell_angle_alpha   90.00000000
_cell_angle_beta   59.58992545
_cell_angle_gamma   119.50528935
_symmetry_Int_Tables_number   1
_chemical_formula_structural   Gd2NbGaO7
_chemical_formula_sum   'Gd4 Nb2 Ga2 O14'
_cell_volume   280.21347506
_cell_formula_units_Z   2
loop_
 _symmetry_equiv_pos_site_id
 _symmetry_equiv_pos_as_xyz
  1  'x, y, z'
loop_
 _atom_site_type_symbol
 _atom_site_label
 _atom_site_symmetry_multiplicity
 _atom_site_fract_x
 _atom_site_fract_y
 _atom_site_fract_z
 _atom_site_occupancy
  Gd  Gd0  1  0.50000000  0.00000000  0.50000000  1
  Gd  Gd1  1  0.50000000  0.50000000  0.50000000  1
  Gd  Gd2  1  0.00000000  0.50000000  0.00000000  1
  Gd  Gd3  1  0.00000000  0.50000000  0.50000000  1
  Nb  Nb4  1  0.00000000  0.00000000  0.50000000  1
  Nb  Nb5  1  0.00000000  0.00000000  0.00000000  1
  Ga  Ga6  1  0.50000000  0.50000000  0.00000000  1
  Ga  Ga7  1  0.50000000  0.00000000  0.00000000  1
  O  O8  1  0.74895962  0.37447981  0.37552019  1
  O  O9  1  0.25104038  0.62552019  0.62447981  1
  O  O10  1  0.83960388  0.91980194  0.33019806  1
  O  O11  1  0.66543673  0.33271837  0.91728163  1
  O  O12  1  0.25046412  0.92081694  0.91747877  1
  O  O13  1  0.25046412  0.32964718  0.33205711  1
  O  O14  1  0.25046412  0.32964718  0.91747877  1
  O  O15  1  0.25046412  0.92081694  0.33205711  1
  O  O16  1  0.16039612  0.08019806  0.66980194  1
  O  O17  1  0.33456327  0.66728163  0.08271837  1
  O  O18  1  0.74953588  0.07918306  0.08252123  1
  O  O19  1  0.74953588  0.67035282  0.66794289  1
  O  O20  1  0.74953588  0.67035282  0.08252123  1
  O  O21  1  0.74953588  0.07918306  0.66794289  1
