# generated using pymatgen
data_GaCuNiSe3
_symmetry_space_group_name_H-M   'P 1'
_cell_length_a   7.82830445
_cell_length_b   12.36980823
_cell_length_c   11.12678881
_cell_angle_alpha   89.99145177
_cell_angle_beta   90.02701477
_cell_angle_gamma   108.44703823
_symmetry_Int_Tables_number   1
_chemical_formula_structural   GaCuNiSe3
_chemical_formula_sum   'Ga8 Cu8 Ni8 Se24'
_cell_volume   1022.09477890
_cell_formula_units_Z   8
loop_
 _symmetry_equiv_pos_site_id
 _symmetry_equiv_pos_as_xyz
  1  'x, y, z'
loop_
 _atom_site_type_symbol
 _atom_site_label
 _atom_site_symmetry_multiplicity
 _atom_site_fract_x
 _atom_site_fract_y
 _atom_site_fract_z
 _atom_site_occupancy
  Ga  Ga0  1  0.66261876  0.82815171  0.75279393  1
  Ga  Ga1  1  0.34341269  0.17181732  0.74956078  1
  Ga  Ga2  1  0.99349196  0.50010358  0.74779278  1
  Ga  Ga3  1  0.50113306  0.50518129  0.25279393  1
  Ga  Ga4  1  0.16005538  0.83322942  0.24779278  1
  Ga  Ga5  1  0.83826237  0.16151668  0.24956078  1
  Ga  Ga6  1  0.16702162  0.33339751  0.99997056  1
  Ga  Ga7  1  0.50029010  0.99993549  0.49997056  1
  Cu  Cu8  1  0.50453953  0.49983091  0.74901865  1
  Cu  Cu9  1  0.16595421  0.83046778  0.75113464  1
  Cu  Cu10  1  0.83027229  0.17011029  0.74926285  1
  Cu  Cu11  1  0.67137562  0.83350209  0.24901865  1
  Cu  Cu12  1  0.32682900  0.16322371  0.24926285  1
  Cu  Cu13  1  0.00215243  0.50286522  0.25113464  1
  Cu  Cu14  1  0.49935596  0.99980816  0.00005855  1
  Cu  Cu15  1  0.16621480  0.33352484  0.50005855  1
  Ni  Ni16  1  0.33220635  0.66490859  0.50433368  1
  Ni  Ni17  1  0.99845608  0.99841798  0.49441431  1
  Ni  Ni18  1  0.66921376  0.33679505  0.50138310  1
  Ni  Ni19  1  0.33396476  0.66842541  0.00433368  1
  Ni  Ni20  1  0.99908471  0.99653795  0.00138310  1
  Ni  Ni21  1  0.66670510  0.33491502  0.99441431  1
  Ni  Ni22  1  0.83389006  0.66715475  0.00045324  1
  Ni  Ni23  1  0.83340231  0.66617925  0.50045324  1
  Se  Se24  1  0.23672904  0.99662129  0.62324891  1
  Se  Se25  1  0.91137985  0.33112228  0.61952469  1
  Se  Se26  1  0.58252944  0.66252438  0.61620942  1
  Se  Se27  1  0.76224773  0.00229067  0.62369050  1
  Se  Se28  1  0.42373883  0.33857790  0.61885675  1
  Se  Se29  1  0.08379245  0.67005405  0.61658649  1
  Se  Se30  1  0.59024711  0.16930280  0.88064949  1
  Se  Se31  1  0.25903654  0.50806563  0.87698877  1
  Se  Se32  1  0.92102852  0.83175052  0.88314335  1
  Se  Se33  1  0.40927724  0.82960268  0.88047549  1
  Se  Se34  1  0.07472423  0.15846193  0.87653295  1
  Se  Se35  1  0.74578786  0.50256644  0.88391611  1
  Se  Se36  1  0.58292930  0.17487107  0.37653295  1
  Se  Se37  1  0.24634156  0.50373132  0.38047549  1
  Se  Se38  1  0.90988742  0.83076656  0.38391611  1
  Se  Se39  1  0.41763791  0.82526837  0.37698877  1
  Se  Se40  1  0.08761031  0.16403020  0.38064949  1
  Se  Se41  1  0.75594500  0.50158248  0.38314335  1
  Se  Se42  1  0.75182793  0.99475510  0.11885675  1
  Se  Se43  1  0.42662406  0.33104333  0.12369050  1
  Se  Se44  1  0.08040439  0.66327895  0.11658649  1
  Se  Se45  1  0.24692457  0.00221172  0.11952469  1
  Se  Se46  1  0.90677375  0.33671171  0.12324891  1
  Se  Se47  1  0.58667205  0.67080862  0.11620942  1
