# generated using pymatgen
data_Cu5Sn(BO5)2
_symmetry_space_group_name_H-M   'P 1'
_cell_length_a   6.47402524
_cell_length_b   9.63949916
_cell_length_c   12.28677891
_cell_angle_alpha   90.00000000
_cell_angle_beta   94.58899319
_cell_angle_gamma   90.00000000
_symmetry_Int_Tables_number   1
_chemical_formula_structural   Cu5Sn(BO5)2
_chemical_formula_sum   'Cu20 Sn4 B8 O40'
_cell_volume   764.31508857
_cell_formula_units_Z   4
loop_
 _symmetry_equiv_pos_site_id
 _symmetry_equiv_pos_as_xyz
  1  'x, y, z'
loop_
 _atom_site_type_symbol
 _atom_site_label
 _atom_site_symmetry_multiplicity
 _atom_site_fract_x
 _atom_site_fract_y
 _atom_site_fract_z
 _atom_site_occupancy
  Cu  Cu0  1  0.01851879  0.49879989  0.27757417  1
  Cu  Cu1  1  0.98148121  0.99879989  0.22242583  1
  Cu  Cu2  1  0.98148121  0.50120011  0.72242583  1
  Cu  Cu3  1  0.01851879  0.00120011  0.77757417  1
  Cu  Cu4  1  0.00000000  0.50000000  0.00000000  1
  Cu  Cu5  1  0.00000000  -0.00000000  0.50000000  1
  Cu  Cu6  1  0.52825994  0.48275235  0.27567160  1
  Cu  Cu7  1  0.47174006  0.98275235  0.22432840  1
  Cu  Cu8  1  0.47174006  0.51724765  0.72432840  1
  Cu  Cu9  1  0.52825994  0.01724765  0.77567160  1
  Cu  Cu10  1  0.50000000  0.50000000  0.00000000  1
  Cu  Cu11  1  0.50000000  -0.00000000  0.50000000  1
  Cu  Cu12  1  0.74087633  0.48456076  0.49886763  1
  Cu  Cu13  1  0.25912367  0.98456076  0.00113237  1
  Cu  Cu14  1  0.25912367  0.51543924  0.50113237  1
  Cu  Cu15  1  0.74087633  0.01543924  0.99886763  1
  Cu  Cu16  1  0.78671794  0.26483263  0.87699495  1
  Cu  Cu17  1  0.21328206  0.76483263  0.62300505  1
  Cu  Cu18  1  0.21328206  0.73516737  0.12300505  1
  Cu  Cu19  1  0.78671794  0.23516737  0.37699495  1
  Sn  Sn20  1  0.28262681  0.26344148  0.87718701  1
  Sn  Sn21  1  0.71737319  0.76344148  0.62281299  1
  Sn  Sn22  1  0.71737319  0.73655852  0.12281299  1
  Sn  Sn23  1  0.28262681  0.23655852  0.37718701  1
  B  B24  1  0.18634504  0.72755405  0.86763389  1
  B  B25  1  0.81365496  0.22755405  0.63236611  1
  B  B26  1  0.81365496  0.27244595  0.13236611  1
  B  B27  1  0.18634504  0.77244595  0.36763389  1
  B  B28  1  0.69047908  0.74345320  0.86991732  1
  B  B29  1  0.30952092  0.24345320  0.63008268  1
  B  B30  1  0.30952092  0.25654680  0.13008268  1
  B  B31  1  0.69047908  0.75654680  0.36991732  1
  O  O32  1  0.82050111  0.34448044  0.03532227  1
  O  O33  1  0.17949889  0.84448044  0.46467773  1
  O  O34  1  0.17949889  0.65551956  0.96467773  1
  O  O35  1  0.82050111  0.15551956  0.53532227  1
  O  O36  1  0.49887553  0.41349617  0.85647132  1
  O  O37  1  0.50112447  0.91349617  0.64352868  1
  O  O38  1  0.50112447  0.58650383  0.14352868  1
  O  O39  1  0.49887553  0.08650383  0.35647132  1
  O  O40  1  0.16929558  0.66025662  0.76661348  1
  O  O41  1  0.83070442  0.16025662  0.73338652  1
  O  O42  1  0.83070442  0.33974338  0.23338652  1
  O  O43  1  0.16929558  0.83974338  0.26661348  1
  O  O44  1  0.78226514  0.37002911  0.63316651  1
  O  O45  1  0.21773486  0.87002911  0.86683349  1
  O  O46  1  0.21773486  0.62997089  0.36683349  1
  O  O47  1  0.78226514  0.12997089  0.13316651  1
  O  O48  1  0.68352097  0.66927058  0.77312474  1
  O  O49  1  0.31647903  0.16927058  0.72687526  1
  O  O50  1  0.31647903  0.33072942  0.22687526  1
  O  O51  1  0.68352097  0.83072942  0.27312474  1
  O  O52  1  0.08275595  0.10773418  0.91220088  1
  O  O53  1  0.91724405  0.60773418  0.58779912  1
  O  O54  1  0.91724405  0.89226582  0.08779912  1
  O  O55  1  0.08275595  0.39226582  0.41220088  1
  O  O56  1  0.55932485  0.13402869  0.90618218  1
  O  O57  1  0.44067515  0.63402869  0.59381782  1
  O  O58  1  0.44067515  0.86597131  0.09381782  1
  O  O59  1  0.55932485  0.36597131  0.40618218  1
  O  O60  1  0.01909276  0.39566984  0.85574166  1
  O  O61  1  0.98090724  0.89566984  0.64425834  1
  O  O62  1  0.98090724  0.60433016  0.14425834  1
  O  O63  1  0.01909276  0.10433016  0.35574166  1
  O  O64  1  0.28619344  0.38438910  0.62988240  1
  O  O65  1  0.71380656  0.88438910  0.87011760  1
  O  O66  1  0.71380656  0.61561090  0.37011760  1
  O  O67  1  0.28619344  0.11561090  0.12988240  1
  O  O68  1  0.31958792  0.33577249  0.03679399  1
  O  O69  1  0.68041208  0.83577249  0.46320601  1
  O  O70  1  0.68041208  0.66422751  0.96320601  1
  O  O71  1  0.31958792  0.16422751  0.53679399  1
