# generated using pymatgen
data_Cr3Co2
_symmetry_space_group_name_H-M   'P 1'
_cell_length_a   4.49359071
_cell_length_b   8.64322443
_cell_length_c   8.64322443
_cell_angle_alpha   90.70348406
_cell_angle_beta   90.00000000
_cell_angle_gamma   90.00000000
_symmetry_Int_Tables_number   1
_chemical_formula_structural   Cr3Co2
_chemical_formula_sum   'Cr18 Co12'
_cell_volume   335.66986749
_cell_formula_units_Z   6
loop_
 _symmetry_equiv_pos_site_id
 _symmetry_equiv_pos_as_xyz
  1  'x, y, z'
loop_
 _atom_site_type_symbol
 _atom_site_label
 _atom_site_symmetry_multiplicity
 _atom_site_fract_x
 _atom_site_fract_y
 _atom_site_fract_z
 _atom_site_occupancy
  Cr  Cr0  1  0.49880642  0.10309002  0.89690998  1
  Cr  Cr1  1  0.49880642  0.89690998  0.10309002  1
  Cr  Cr2  1  0.00287569  0.39316506  0.39316506  1
  Cr  Cr3  1  0.00287569  0.60683494  0.60683494  1
  Cr  Cr4  1  0.49754499  0.37313957  0.96032465  1
  Cr  Cr5  1  0.49754499  0.62686043  0.03967535  1
  Cr  Cr6  1  0.00122230  0.12987587  0.46596090  1
  Cr  Cr7  1  0.00122230  0.87012413  0.53403910  1
  Cr  Cr8  1  0.49754499  0.96032465  0.37313957  1
  Cr  Cr9  1  0.49754499  0.03967535  0.62686043  1
  Cr  Cr10  1  0.00122230  0.46596090  0.12987587  1
  Cr  Cr11  1  0.00122230  0.53403910  0.87012413  1
  Cr  Cr12  1  0.75081394  0.18315811  0.18315811  1
  Cr  Cr13  1  0.75081394  0.81684189  0.81684189  1
  Cr  Cr14  1  0.75125401  0.68070637  0.31929363  1
  Cr  Cr15  1  0.75125401  0.31929363  0.68070637  1
  Cr  Cr16  1  0.25101604  0.81793575  0.81793575  1
  Cr  Cr17  1  0.25101604  0.18206425  0.18206425  1
  Co  Co18  1  0.49603911  0.43460673  0.23891799  1
  Co  Co19  1  0.49603911  0.56539327  0.76108201  1
  Co  Co20  1  0.99978265  0.06597948  0.73831400  1
  Co  Co21  1  0.99978265  0.93402052  0.26168600  1
  Co  Co22  1  0.49603911  0.23891799  0.43460673  1
  Co  Co23  1  0.49603911  0.76108201  0.56539327  1
  Co  Co24  1  0.99978265  0.73831400  0.06597948  1
  Co  Co25  1  0.99978265  0.26168600  0.93402052  1
  Co  Co26  1  0.51130199  0.50000000  0.50000000  1
  Co  Co27  1  0.00102056  -0.00000000  -0.00000000  1
  Co  Co28  1  0.24989452  0.31551882  0.68448118  1
  Co  Co29  1  0.24989452  0.68448118  0.31551882  1
