# generated using pymatgen
data_CePr4O10
_symmetry_space_group_name_H-M   'P 1'
_cell_length_a   3.95009845
_cell_length_b   14.89705298
_cell_length_c   3.95009845
_cell_angle_alpha   97.61869821
_cell_angle_beta   90.00000000
_cell_angle_gamma   82.38130179
_symmetry_Int_Tables_number   1
_chemical_formula_structural   CePr4O10
_chemical_formula_sum   'Ce1 Pr4 O10'
_cell_volume   228.32055592
_cell_formula_units_Z   1
loop_
 _symmetry_equiv_pos_site_id
 _symmetry_equiv_pos_as_xyz
  1  'x, y, z'
loop_
 _atom_site_type_symbol
 _atom_site_label
 _atom_site_symmetry_multiplicity
 _atom_site_fract_x
 _atom_site_fract_y
 _atom_site_fract_z
 _atom_site_occupancy
  Ce  Ce0  1  0.00000000  -0.00000000  -0.00000000  1
  Pr  Pr1  1  0.40545596  0.18908807  0.59454404  1
  Pr  Pr2  1  0.80120672  0.39758656  0.19879328  1
  Pr  Pr3  1  0.19879328  0.60241344  0.80120672  1
  Pr  Pr4  1  0.59454404  0.81091193  0.40545596  1
  O  O5  1  0.64738961  0.70522078  0.85261039  1
  O  O6  1  0.04563565  0.90872870  0.45436435  1
  O  O7  1  0.45436435  0.09127130  0.04563565  1
  O  O8  1  0.85261039  0.29477922  0.64738961  1
  O  O9  1  0.25000000  0.50000000  0.25000000  1
  O  O10  1  0.54563565  0.90872870  0.95436435  1
  O  O11  1  0.95436435  0.09127130  0.54563565  1
  O  O12  1  0.35261039  0.29477922  0.14738961  1
  O  O13  1  0.75000000  0.50000000  0.75000000  1
  O  O14  1  0.14738961  0.70522078  0.35261039  1
