# generated using pymatgen
data_Ce2Ge3
_symmetry_space_group_name_H-M   'P 1'
_cell_length_a   4.18956544
_cell_length_b   4.04419442
_cell_length_c   7.72837845
_cell_angle_alpha   74.83226075
_cell_angle_beta   74.27319521
_cell_angle_gamma   90.00000000
_symmetry_Int_Tables_number   1
_chemical_formula_structural   Ce2Ge3
_chemical_formula_sum   'Ce2 Ge3'
_cell_volume   121.29739983
_cell_formula_units_Z   1
loop_
 _symmetry_equiv_pos_site_id
 _symmetry_equiv_pos_as_xyz
  1  'x, y, z'
loop_
 _atom_site_type_symbol
 _atom_site_label
 _atom_site_symmetry_multiplicity
 _atom_site_fract_x
 _atom_site_fract_y
 _atom_site_fract_z
 _atom_site_occupancy
  Ce  Ce0  1  0.75138015  0.25138015  0.49723970  1
  Ce  Ce1  1  0.99909626  0.99909626  0.00180747  1
  Ge  Ge2  1  0.59549334  0.59549334  0.80901333  1
  Ge  Ge3  1  0.31442413  0.81442413  0.37115173  1
  Ge  Ge4  1  0.42170611  0.42170611  0.15658777  1
