# generated using pymatgen
data_Co3C
_symmetry_space_group_name_H-M   'P 1'
_cell_length_a   4.43388567
_cell_length_b   4.93872827
_cell_length_c   6.69669617
_cell_angle_alpha   90.00000000
_cell_angle_beta   90.00000000
_cell_angle_gamma   90.00000000
_symmetry_Int_Tables_number   1
_chemical_formula_structural   Co3C
_chemical_formula_sum   'Co12 C4'
_cell_volume   146.64262211
_cell_formula_units_Z   4
loop_
 _symmetry_equiv_pos_site_id
 _symmetry_equiv_pos_as_xyz
  1  'x, y, z'
loop_
 _atom_site_type_symbol
 _atom_site_label
 _atom_site_symmetry_multiplicity
 _atom_site_fract_x
 _atom_site_fract_y
 _atom_site_fract_z
 _atom_site_occupancy
  C  C0  1  0.55346326  0.11945707  0.75000000  1
  C  C1  1  0.05346326  0.38054293  0.25000000  1
  C  C2  1  0.94653674  0.61945707  0.75000000  1
  C  C3  1  0.44653674  0.88054293  0.25000000  1
  Co  Co4  1  0.67042672  0.81980322  0.93022223  1
  Co  Co5  1  0.17042672  0.68019678  0.06977777  1
  Co  Co6  1  0.82957328  0.31980322  0.56977777  1
  Co  Co7  1  0.32957328  0.18019678  0.43022223  1
  Co  Co8  1  0.84343859  0.03794807  0.25000000  1
  Co  Co9  1  0.34343859  0.46205193  0.75000000  1
  Co  Co10  1  0.65656141  0.53794807  0.25000000  1
  Co  Co11  1  0.15656141  0.96205193  0.75000000  1
  Co  Co12  1  0.67042672  0.81980322  0.56977777  1
  Co  Co13  1  0.17042672  0.68019678  0.43022223  1
  Co  Co14  1  0.82957328  0.31980322  0.93022223  1
  Co  Co15  1  0.32957328  0.18019678  0.06977777  1
