# generated using pymatgen
data_Cr8Co3NiS16
_symmetry_space_group_name_H-M   'P 1'
_cell_length_a   6.89893480
_cell_length_b   9.74433349
_cell_length_c   6.89893480
_cell_angle_alpha   90.00000000
_cell_angle_beta   90.00000000
_cell_angle_gamma   90.00000000
_symmetry_Int_Tables_number   1
_chemical_formula_structural   Cr8Co3NiS16
_chemical_formula_sum   'Cr8 Co3 Ni1 S16'
_cell_volume   463.78448914
_cell_formula_units_Z   1
loop_
 _symmetry_equiv_pos_site_id
 _symmetry_equiv_pos_as_xyz
  1  'x, y, z'
loop_
 _atom_site_type_symbol
 _atom_site_label
 _atom_site_symmetry_multiplicity
 _atom_site_fract_x
 _atom_site_fract_y
 _atom_site_fract_z
 _atom_site_occupancy
  Cr  Cr0  1  0.25000000  0.25044151  0.24890453  1
  Cr  Cr1  1  0.75000000  0.74955783  0.75130240  1
  Cr  Cr2  1  0.25000000  0.25044151  0.75109547  1
  Cr  Cr3  1  0.75000000  0.74955783  0.24869760  1
  Cr  Cr4  1  0.99890453  0.49955849  0.50000000  1
  Cr  Cr5  1  0.50130240  0.00044217  0.00000000  1
  Cr  Cr6  1  -0.00130240  0.00044217  0.00000000  1
  Cr  Cr7  1  0.50109547  0.49955849  0.50000000  1
  Co  Co8  1  0.25000000  0.87500000  0.50000000  1
  Co  Co9  1  0.25000000  0.62534630  0.00000000  1
  Co  Co10  1  0.75000000  0.12465370  0.50000000  1
  Ni  Ni11  1  0.75000000  0.37500000  0.00000000  1
  S  S12  1  0.75000000  0.50552504  0.26098057  1
  S  S13  1  0.25000000  0.00502642  0.76039698  1
  S  S14  1  0.75000000  0.50552504  0.73901943  1
  S  S15  1  0.25000000  0.00502642  0.23960302  1
  S  S16  1  0.01098057  0.24447496  0.00000000  1
  S  S17  1  0.51039698  0.74497358  0.50000000  1
  S  S18  1  0.48901943  0.24447496  -0.00000000  1
  S  S19  1  0.98960302  0.74497358  0.50000000  1
  S  S20  1  0.25000000  0.49553857  0.74164064  1
  S  S21  1  0.75000000  0.99616727  0.24096433  1
  S  S22  1  0.25000000  0.49553857  0.25835936  1
  S  S23  1  0.75000000  0.99616727  0.75903567  1
  S  S24  1  0.99096433  0.75383273  -0.00000000  1
  S  S25  1  0.49164064  0.25446143  0.50000000  1
  S  S26  1  0.50903567  0.75383273  -0.00000000  1
  S  S27  1  0.00835936  0.25446143  0.50000000  1
