# generated using pymatgen
data_Ce2(MoO4)3
_symmetry_space_group_name_H-M   'P 1'
_cell_length_a   6.92607066
_cell_length_b   6.92607066
_cell_length_c   11.97532442
_cell_angle_alpha   79.74599366
_cell_angle_beta   100.25400634
_cell_angle_gamma   66.95971052
_symmetry_Int_Tables_number   1
_chemical_formula_structural   Ce2(MoO4)3
_chemical_formula_sum   'Ce4 Mo6 O24'
_cell_volume   500.35649362
_cell_formula_units_Z   2
loop_
 _symmetry_equiv_pos_site_id
 _symmetry_equiv_pos_as_xyz
  1  'x, y, z'
loop_
 _atom_site_type_symbol
 _atom_site_label
 _atom_site_symmetry_multiplicity
 _atom_site_fract_x
 _atom_site_fract_y
 _atom_site_fract_z
 _atom_site_occupancy
  Ce  Ce0  1  0.79475167  0.45777349  0.59029878  1
  Ce  Ce1  1  0.45777349  0.79475167  0.90970122  1
  Ce  Ce2  1  0.54222651  0.20524833  0.09029878  1
  Ce  Ce3  1  0.20524833  0.54222651  0.40970122  1
  Mo  Mo4  1  0.28850659  0.96096177  0.57726055  1
  Mo  Mo5  1  0.96096177  0.28850659  0.92273945  1
  Mo  Mo6  1  0.62592645  0.62592645  0.25000000  1
  Mo  Mo7  1  0.71149341  0.03903823  0.42273945  1
  Mo  Mo8  1  0.37407355  0.37407355  0.75000000  1
  Mo  Mo9  1  0.03903823  0.71149341  0.07726055  1
  O  O10  1  0.84959198  0.24605425  0.78755797  1
  O  O11  1  0.53874704  0.55275851  0.11144558  1
  O  O12  1  0.17571603  0.87445027  0.46055413  1
  O  O13  1  0.24605425  0.84959198  0.71244203  1
  O  O14  1  0.87445027  0.17571603  0.03944587  1
  O  O15  1  0.55275851  0.53874704  0.38855442  1
  O  O16  1  0.48754439  0.07719208  0.78540755  1
  O  O17  1  0.17429053  0.42029757  0.10245840  1
  O  O18  1  0.84488408  0.73648132  0.45535331  1
  O  O19  1  0.07719208  0.48754439  0.71459245  1
  O  O20  1  0.73648132  0.84488408  0.04464669  1
  O  O21  1  0.42029757  0.17429053  0.39754160  1
  O  O22  1  0.46125296  0.44724149  0.88855442  1
  O  O23  1  0.15040802  0.75394575  0.21244203  1
  O  O24  1  0.82428397  0.12554973  0.53944587  1
  O  O25  1  0.12554973  0.82428397  0.96055413  1
  O  O26  1  0.75394575  0.15040802  0.28755797  1
  O  O27  1  0.44724149  0.46125296  0.61144558  1
  O  O28  1  0.82570947  0.57970243  0.89754160  1
  O  O29  1  0.51245561  0.92280792  0.21459245  1
  O  O30  1  0.15511592  0.26351868  0.54464669  1
  O  O31  1  0.26351868  0.15511592  0.95535331  1
  O  O32  1  0.92280792  0.51245561  0.28540755  1
  O  O33  1  0.57970243  0.82570947  0.60245840  1
