# generated using pymatgen
data_BaCa3
_symmetry_space_group_name_H-M   'P 1'
_cell_length_a   4.01908906
_cell_length_b   4.01908906
_cell_length_c   13.32631657
_cell_angle_alpha   90.00000000
_cell_angle_beta   81.32698782
_cell_angle_gamma   120.00000000
_symmetry_Int_Tables_number   1
_chemical_formula_structural   BaCa3
_chemical_formula_sum   'Ba1 Ca3'
_cell_volume   183.57370715
_cell_formula_units_Z   1
loop_
 _symmetry_equiv_pos_site_id
 _symmetry_equiv_pos_as_xyz
  1  'x, y, z'
loop_
 _atom_site_type_symbol
 _atom_site_label
 _atom_site_symmetry_multiplicity
 _atom_site_fract_x
 _atom_site_fract_y
 _atom_site_fract_z
 _atom_site_occupancy
  Ba  Ba0  1  0.00000000  0.00000000  0.00000000  1
  Ca  Ca1  1  0.49148845  0.24574422  0.26276733  1
  Ca  Ca2  1  0.00000000  0.50000000  0.50000000  1
  Ca  Ca3  1  0.50851155  0.75425578  0.73723267  1
