# generated using pymatgen
data_Ba6Sm3Al(Cu2O5)4
_symmetry_space_group_name_H-M   'P 1'
_cell_length_a   5.54678450
_cell_length_b   8.85100215
_cell_length_c   12.67449787
_cell_angle_alpha   97.59828648
_cell_angle_beta   77.78694667
_cell_angle_gamma   69.83088010
_symmetry_Int_Tables_number   1
_chemical_formula_structural   Ba6Sm3Al(Cu2O5)4
_chemical_formula_sum   'Ba6 Sm3 Al1 Cu8 O20'
_cell_volume   556.41513246
_cell_formula_units_Z   1
loop_
 _symmetry_equiv_pos_site_id
 _symmetry_equiv_pos_as_xyz
  1  'x, y, z'
loop_
 _atom_site_type_symbol
 _atom_site_label
 _atom_site_symmetry_multiplicity
 _atom_site_fract_x
 _atom_site_fract_y
 _atom_site_fract_z
 _atom_site_occupancy
  Ba  Ba0  1  0.29146770  0.60426513  0.81278480  1
  Ba  Ba1  1  0.95033954  0.27237672  0.80836372  1
  Ba  Ba2  1  0.63853327  0.93319603  0.80831865  1
  Ba  Ba3  1  0.69479973  0.40013697  0.19168135  1
  Ba  Ba4  1  0.38299446  0.06095728  0.19163628  1
  Ba  Ba5  1  0.04186530  0.72906787  0.18721520  1
  Sm  Sm6  1  0.49978544  0.49993610  0.50075839  1
  Sm  Sm7  1  0.16666700  0.16666700  0.50000000  1
  Sm  Sm8  1  0.83354756  0.83339690  0.49924161  1
  Al  Al9  1  0.66666700  0.66666700  0.00000000  1
  Cu  Cu10  1  0.24038913  0.88070461  0.64196555  1
  Cu  Cu11  1  0.90554514  0.54726698  0.64146027  1
  Cu  Cu12  1  0.56993108  0.21399898  0.64257162  1
  Cu  Cu13  1  0.42778786  0.78606602  0.35853973  1
  Cu  Cu14  1  0.09294487  0.45262939  0.35803445  1
  Cu  Cu15  1  0.76340192  0.11933402  0.35742838  1
  Cu  Cu16  1  0.98483618  0.98173137  0.00001489  1
  Cu  Cu17  1  0.34849682  0.35160163  0.99998511  1
  O  O18  1  0.11610339  0.95995671  0.84983951  1
  O  O19  1  0.76667398  0.61664016  0.84987172  1
  O  O20  1  0.41759552  0.27328592  0.84970207  1
  O  O21  1  0.56665902  0.71669284  0.15012828  1
  O  O22  1  0.21722961  0.37337629  0.15016049  1
  O  O23  1  0.91573848  0.06004808  0.15029793  1
  O  O24  1  0.58608723  0.70701268  0.62255587  1
  O  O25  1  0.25028252  0.37477165  0.62270622  1
  O  O26  1  0.91848622  0.04077908  0.62261780  1
  O  O27  1  0.08183454  0.70933961  0.62649993  1
  O  O28  1  0.74919063  0.37535715  0.62684808  1
  O  O29  1  0.41682328  0.04131584  0.62475449  1
  O  O30  1  0.74724677  0.62632132  0.37744413  1
  O  O31  1  0.41484678  0.29255392  0.37738220  1
  O  O32  1  0.08305048  0.95856135  0.37729378  1
  O  O33  1  0.25149946  0.62399439  0.37350007  1
  O  O34  1  0.91650972  0.29201716  0.37524551  1
  O  O35  1  0.58414237  0.95797585  0.37315192  1
  O  O36  1  0.81787576  0.82412640  0.99998254  1
  O  O37  1  0.51545724  0.50920660  0.00001746  1
