# generated using pymatgen
data_BaTi4Bi4O15
_symmetry_space_group_name_H-M   'P 1'
_cell_length_a   3.89890631
_cell_length_b   3.89890631
_cell_length_c   20.55167824
_cell_angle_alpha   84.55695799
_cell_angle_beta   84.55695799
_cell_angle_gamma   90.00000000
_symmetry_Int_Tables_number   1
_chemical_formula_structural   BaTi4Bi4O15
_chemical_formula_sum   'Ba1 Ti4 Bi4 O15'
_cell_volume   309.59194599
_cell_formula_units_Z   1
loop_
 _symmetry_equiv_pos_site_id
 _symmetry_equiv_pos_as_xyz
  1  'x, y, z'
loop_
 _atom_site_type_symbol
 _atom_site_label
 _atom_site_symmetry_multiplicity
 _atom_site_fract_x
 _atom_site_fract_y
 _atom_site_fract_z
 _atom_site_occupancy
  Ba  Ba0  1  -0.00000000  -0.00000000  0.00000000  1
  Ti  Ti1  1  0.34719478  0.34719478  0.30561044  1
  Ti  Ti2  1  0.65280522  0.65280522  0.69438956  1
  Ti  Ti3  1  0.44870641  0.44870641  0.10258719  1
  Ti  Ti4  1  0.55129359  0.55129359  0.89741281  1
  Bi  Bi5  1  0.10408451  0.10408451  0.79183098  1
  Bi  Bi6  1  0.89591549  0.89591549  0.20816902  1
  Bi  Bi7  1  0.21932208  0.21932208  0.56135583  1
  Bi  Bi8  1  0.78067792  0.78067792  0.43864417  1
  O  O9  1  0.30341886  0.30341886  0.39316228  1
  O  O10  1  0.69658114  0.69658114  0.60683772  1
  O  O11  1  0.40138751  0.40138751  0.19722498  1
  O  O12  1  0.59861249  0.59861249  0.80277502  1
  O  O13  1  0.75000000  0.25000000  0.50000000  1
  O  O14  1  0.25000000  0.75000000  0.50000000  1
  O  O15  1  0.64338870  0.14338870  0.71322260  1
  O  O16  1  0.14338870  0.64338870  0.71322260  1
  O  O17  1  0.35661130  0.85661130  0.28677740  1
  O  O18  1  0.85661130  0.35661130  0.28677740  1
  O  O19  1  0.55176508  0.05176508  0.89646984  1
  O  O20  1  0.05176508  0.55176508  0.89646984  1
  O  O21  1  0.44823492  0.94823492  0.10353016  1
  O  O22  1  0.94823492  0.44823492  0.10353016  1
  O  O23  1  0.50000000  0.50000000  0.00000000  1
