# generated using pymatgen
data_Ba4La4Cu4(BO6)3
_symmetry_space_group_name_H-M   'P 1'
_cell_length_a   7.75467642
_cell_length_b   7.75721244
_cell_length_c   8.14620690
_cell_angle_alpha   90.00000000
_cell_angle_beta   90.00000000
_cell_angle_gamma   90.00000000
_symmetry_Int_Tables_number   1
_chemical_formula_structural   Ba4La4Cu4(BO6)3
_chemical_formula_sum   'Ba4 La4 Cu4 B3 O18'
_cell_volume   490.03240737
_cell_formula_units_Z   1
loop_
 _symmetry_equiv_pos_site_id
 _symmetry_equiv_pos_as_xyz
  1  'x, y, z'
loop_
 _atom_site_type_symbol
 _atom_site_label
 _atom_site_symmetry_multiplicity
 _atom_site_fract_x
 _atom_site_fract_y
 _atom_site_fract_z
 _atom_site_occupancy
  Ba  Ba0  1  0.50711146  0.50782481  0.99672339  1
  Ba  Ba1  1  0.50711146  0.99217519  0.50327661  1
  Ba  Ba2  1  0.50711146  0.99217519  0.99672339  1
  Ba  Ba3  1  0.50711146  0.50782481  0.50327661  1
  La  La4  1  0.98847508  0.49747906  0.01460029  1
  La  La5  1  0.98847508  0.00252094  0.48539971  1
  La  La6  1  0.98847508  0.00252094  0.01460029  1
  La  La7  1  0.98847508  0.49747906  0.48539971  1
  Cu  Cu8  1  0.79858926  0.25000000  0.75000000  1
  Cu  Cu9  1  0.77827089  0.75000000  0.25000000  1
  Cu  Cu10  1  0.76105950  0.25000000  0.25000000  1
  Cu  Cu11  1  0.76186675  0.75000000  0.75000000  1
  B  B12  1  0.26890324  0.25000000  0.75000000  1
  B  B13  1  0.26372617  0.75000000  0.25000000  1
  B  B14  1  0.26787092  0.25000000  0.25000000  1
  O  O15  1  0.84846681  0.49917393  0.75000000  1
  O  O16  1  0.79621360  0.99952161  0.25000000  1
  O  O17  1  0.79621360  0.50047839  0.25000000  1
  O  O18  1  0.84846681  0.00082607  0.75000000  1
  O  O19  1  0.79091909  0.75000000  0.00628659  1
  O  O20  1  0.78648373  0.25000000  0.49644703  1
  O  O21  1  0.78648373  0.25000000  0.00355297  1
  O  O22  1  0.79091909  0.75000000  0.49371341  1
  O  O23  1  0.44791968  0.25000000  0.75000000  1
  O  O24  1  0.44259732  0.75000000  0.25000000  1
  O  O25  1  0.44714067  0.25000000  0.25000000  1
  O  O26  1  0.48399957  0.75000000  0.75000000  1
  O  O27  1  0.17905157  0.09431056  0.25000000  1
  O  O28  1  0.17905157  0.40568944  0.25000000  1
  O  O29  1  0.17791588  0.75000000  0.09749288  1
  O  O30  1  0.18205424  0.25000000  0.59980472  1
  O  O31  1  0.18205424  0.25000000  0.90019528  1
  O  O32  1  0.17791588  0.75000000  0.40250712  1
