# generated using pymatgen
data_Cd2GaCuS4
_symmetry_space_group_name_H-M   'P 1'
_cell_length_a   3.97936460
_cell_length_b   7.72014340
_cell_length_c   6.89566652
_cell_angle_alpha   62.98050017
_cell_angle_beta   89.99170945
_cell_angle_gamma   75.04261060
_symmetry_Int_Tables_number   1
_chemical_formula_structural   Cd2GaCuS4
_chemical_formula_sum   'Cd2 Ga1 Cu1 S4'
_cell_volume   180.63132586
_cell_formula_units_Z   1
loop_
 _symmetry_equiv_pos_site_id
 _symmetry_equiv_pos_as_xyz
  1  'x, y, z'
loop_
 _atom_site_type_symbol
 _atom_site_label
 _atom_site_symmetry_multiplicity
 _atom_site_fract_x
 _atom_site_fract_y
 _atom_site_fract_z
 _atom_site_occupancy
  Cd  Cd0  1  0.00476749  0.99053766  0.34837913  1
  Cd  Cd1  1  0.50134322  0.99734754  0.82716806  1
  Ga  Ga2  1  0.24816660  0.50372064  0.90306655  1
  Cu  Cu3  1  0.74909825  0.50161922  0.42288751  1
  S  S4  1  0.92484927  0.15024892  0.59287569  1
  S  S5  1  0.42497497  0.15006626  0.09097353  1
  S  S6  1  0.19746599  0.60501849  0.52928795  1
  S  S7  1  0.69933420  0.60144128  0.03536158  1
