# generated using pymatgen
data_BaLa2Ti3O10
_symmetry_space_group_name_H-M   'P 1'
_cell_length_a   3.95336705
_cell_length_b   7.73406156
_cell_length_c   13.95517640
_cell_angle_alpha   90.00000000
_cell_angle_beta   81.85694365
_cell_angle_gamma   90.00000000
_symmetry_Int_Tables_number   1
_chemical_formula_structural   BaLa2Ti3O10
_chemical_formula_sum   'Ba2 La4 Ti6 O20'
_cell_volume   422.38558927
_cell_formula_units_Z   2
loop_
 _symmetry_equiv_pos_site_id
 _symmetry_equiv_pos_as_xyz
  1  'x, y, z'
loop_
 _atom_site_type_symbol
 _atom_site_label
 _atom_site_symmetry_multiplicity
 _atom_site_fract_x
 _atom_site_fract_y
 _atom_site_fract_z
 _atom_site_occupancy
  Ba  Ba0  1  0.42544312  0.75000000  0.14911376  1
  Ba  Ba1  1  0.57455688  0.25000000  0.85088624  1
  La  La2  1  0.27730341  0.75000000  0.44539319  1
  La  La3  1  0.72269659  0.25000000  0.55460681  1
  La  La4  1  0.57906880  0.75000000  0.84186240  1
  La  La5  1  0.42093120  0.25000000  0.15813760  1
  Ti  Ti6  1  0.15327450  0.50288455  0.69345100  1
  Ti  Ti7  1  0.84672550  0.49711545  0.30654900  1
  Ti  Ti8  1  0.15327450  0.99711545  0.69345100  1
  Ti  Ti9  1  0.84672550  0.00288455  0.30654900  1
  Ti  Ti10  1  0.00000000  0.50000000  -0.00000000  1
  Ti  Ti11  1  0.00000000  -0.00000000  -0.00000000  1
  O  O12  1  0.14729836  0.75000000  0.70540328  1
  O  O13  1  0.85270164  0.25000000  0.29459672  1
  O  O14  1  0.35401611  0.50000126  0.29196778  1
  O  O15  1  0.64598389  0.49999874  0.70803222  1
  O  O16  1  0.35401611  -0.00000126  0.29196778  1
  O  O17  1  0.64598389  0.00000126  0.70803222  1
  O  O18  1  0.21867210  0.45838699  0.56265579  1
  O  O19  1  0.78132790  0.54161301  0.43734421  1
  O  O20  1  0.21867210  0.04161301  0.56265579  1
  O  O21  1  0.78132790  0.95838699  0.43734421  1
  O  O22  1  0.99650934  0.75000000  0.00698133  1
  O  O23  1  0.00349066  0.25000000  0.99301867  1
  O  O24  1  0.85627901  0.75000000  0.28744199  1
  O  O25  1  0.14372099  0.25000000  0.71255801  1
  O  O26  1  0.07198399  0.52885333  0.85603201  1
  O  O27  1  0.92801601  0.47114667  0.14396799  1
  O  O28  1  0.07198399  0.97114667  0.85603201  1
  O  O29  1  0.92801601  0.02885333  0.14396799  1
  O  O30  1  0.50000000  0.50000000  -0.00000000  1
  O  O31  1  0.50000000  0.00000000  -0.00000000  1
