# generated using pymatgen
data_B2P6H60Ir2C18O3F8
_symmetry_space_group_name_H-M   'P 1'
_cell_length_a   9.48432262
_cell_length_b   10.02675851
_cell_length_c   11.50478620
_cell_angle_alpha   94.33412294
_cell_angle_beta   96.94460639
_cell_angle_gamma   97.78265434
_symmetry_Int_Tables_number   1
_chemical_formula_structural   B2P6H60Ir2C18O3F8
_chemical_formula_sum   'B2 P6 H60 Ir2 C18 O3 F8'
_cell_volume   1071.32802861
_cell_formula_units_Z   1
loop_
 _symmetry_equiv_pos_site_id
 _symmetry_equiv_pos_as_xyz
  1  'x, y, z'
loop_
 _atom_site_type_symbol
 _atom_site_label
 _atom_site_symmetry_multiplicity
 _atom_site_fract_x
 _atom_site_fract_y
 _atom_site_fract_z
 _atom_site_occupancy
  B  B0  1  0.86036746  0.82643499  0.18192345  1
  B  B1  1  0.14063869  0.17380753  0.81838113  1
  P  P2  1  0.73996319  0.79213192  0.64355135  1
  P  P3  1  0.26306419  0.19984083  0.36076362  1
  P  P4  1  0.42875444  0.69471808  0.75148793  1
  P  P5  1  0.56273231  0.31002983  0.25153043  1
  P  P6  1  0.68891980  0.45536193  0.70900657  1
  P  P7  1  0.29935944  0.53444429  0.28323988  1
  H  H8  1  0.19344806  0.62951740  0.80273452  1
  H  H9  1  0.80117886  0.38120953  0.20360932  1
  H  H10  1  0.60895938  0.97627846  0.58978679  1
  H  H11  1  0.39369659  0.01611423  0.41370440  1
  H  H12  1  0.29718640  0.88034678  0.78892374  1
  H  H13  1  0.70277816  0.12807518  0.21345837  1
  H  H14  1  0.66890439  0.89401275  0.46521424  1
  H  H15  1  0.33139809  0.09814573  0.53773895  1
  H  H16  1  0.19302849  0.61182484  0.64522483  1
  H  H17  1  0.79880901  0.39064669  0.35983305  1
  H  H18  1  0.75960272  0.31739020  0.54974657  1
  H  H19  1  0.24422845  0.67323104  0.44710410  1
  H  H20  1  0.87502250  0.72211943  0.48860769  1
  H  H21  1  0.12798578  0.27534283  0.51291309  1
  H  H22  1  0.88632891  0.96942565  0.77852947  1
  H  H23  1  0.11775718  0.03055205  0.22033293  1
  H  H24  1  0.59270767  0.74809555  0.93505215  1
  H  H25  1  0.40971109  0.25241187  0.06183237  1
  H  H26  1  0.89750465  0.45521915  0.60168283  1
  H  H27  1  0.09781533  0.54410877  0.39692565  1
  H  H28  1  0.25696474  0.48713582  0.73188204  1
  H  H29  1  0.73577501  0.51959687  0.27662963  1
  H  H30  1  0.87470699  0.31281613  0.68532718  1
  H  H31  1  0.12674391  0.68757354  0.31434318  1
  H  H32  1  0.50159817  0.57803130  0.91908397  1
  H  H33  1  0.49847609  0.42258965  0.07740223  1
  H  H34  1  0.09710815  0.80449205  0.03614808  1
  H  H35  1  0.90421331  0.19460715  0.96374607  1
  H  H36  1  0.64935397  0.24622405  0.80296660  1
  H  H37  1  0.35325280  0.74679168  0.19751232  1
  H  H38  1  0.98179899  0.84489406  0.59623364  1
  H  H39  1  0.01974106  0.15207624  0.40494415  1
  H  H40  1  0.85065204  0.43660636  0.88734870  1
  H  H41  1  0.14444234  0.56201790  0.10451197  1
  H  H42  1  0.37434310  0.89202046  0.65502579  1
  H  H43  1  0.62463633  0.11361666  0.34692996  1
  H  H44  1  0.47114958  0.72610462  0.54875826  1
  H  H45  1  0.53074539  0.29961125  0.47725501  1
  H  H46  1  0.40748591  0.71548568  0.95699869  1
  H  H47  1  0.59630545  0.28616681  0.04604120  1
  H  H48  1  0.49452924  0.33135653  0.79856788  1
  H  H49  1  0.50459415  0.65714490  0.20183308  1
  H  H50  1  0.74304987  0.56696526  0.91044362  1
  H  H51  1  0.24949518  0.42914984  0.08128015  1
  H  H52  1  0.79370894  0.00982151  0.56694934  1
  H  H53  1  0.20786673  0.98241172  0.43451639  1
  H  H54  1  0.72305865  0.90983227  0.83302068  1
  H  H55  1  0.28238608  0.09099377  0.16775525  1
  H  H56  1  0.89184856  0.59580109  0.83130821  1
  H  H57  1  0.09706254  0.40127224  0.15676753  1
  H  H58  1  0.94568176  0.67245579  0.62767080  1
  H  H59  1  0.06083699  0.32380263  0.37265908  1
  H  H60  1  0.48344792  0.94018718  0.79357614  1
  H  H61  1  0.51770345  0.06437642  0.20777616  1
  H  H62  1  0.86645584  0.81271940  0.84329924  1
  H  H63  1  0.14068070  0.19061428  0.16164349  1
  H  H64  1  0.52956312  0.24322484  0.66865657  1
  H  H65  1  0.46678529  0.74108596  0.33293021  1
  H  H66  1  0.16422459  0.90829887  0.95722867  1
  H  H67  1  0.83627123  0.09237662  0.04355055  1
  Ir  Ir68  1  0.55399488  0.61684894  0.61558524  1
  Ir  Ir69  1  0.43005040  0.38151211  0.39153018  1
  C  C70  1  0.81085298  0.87913861  0.78808574  1
  C  C71  1  0.19513458  0.12074690  0.21363479  1
  C  C72  1  0.69870130  0.93221531  0.55823548  1
  C  C73  1  0.30357113  0.05969518  0.44471151  1
  C  C74  1  0.58059626  0.30476697  0.74947763  1
  C  C75  1  0.41740240  0.68320627  0.24964722  1
  C  C76  1  0.90140269  0.75349834  0.58322842  1
  C  C77  1  0.10183303  0.24238338  0.41867408  1
  C  C78  1  0.25001146  0.59530022  0.73043800  1
  C  C79  1  0.74190707  0.41101570  0.27554085  1
  C  C80  1  0.39316555  0.86866573  0.74660837  1
  C  C81  1  0.60613992  0.13761548  0.25533987  1
  C  C82  1  0.80373278  0.51949930  0.84762942  1
  C  C83  1  0.18747707  0.47663164  0.14309159  1
  C  C84  1  0.81806065  0.37765105  0.62877152  1
  C  C85  1  0.17948983  0.61806206  0.36822464  1
  C  C86  1  0.48993565  0.68338755  0.90574285  1
  C  C87  1  0.51127457  0.31819651  0.09405050  1
  O  O88  1  0.16734508  0.81631495  0.98019373  1
  O  O89  1  0.83555660  0.18467037  0.02105170  1
  O  O90  1  0.38616466  0.49951921  0.52216305  1
  F  F91  1  0.98146422  0.76780500  0.14901260  1
  F  F92  1  0.01796291  0.23092419  0.84944191  1
  F  F93  1  0.74512432  0.72243406  0.18455671  1
  F  F94  1  0.25551381  0.27881486  0.81834371  1
  F  F95  1  0.89992052  0.89970571  0.29375414  1
  F  F96  1  0.10449716  0.10127481  0.70600982  1
  F  F97  1  0.82047190  0.91512770  0.09635587  1
  F  F98  1  0.17924923  0.08438496  0.90390775  1
