# generated using pymatgen
data_Ba14U2V4S25O
_symmetry_space_group_name_H-M   'P 1'
_cell_length_a   9.65792744
_cell_length_b   12.54183182
_cell_length_c   12.54183182
_cell_angle_alpha   98.52535297
_cell_angle_beta   112.64551626
_cell_angle_gamma   67.35448374
_symmetry_Int_Tables_number   1
_chemical_formula_structural   Ba14U2V4S25O
_chemical_formula_sum   'Ba14 U2 V4 S25 O1'
_cell_volume   1293.95609634
_cell_formula_units_Z   1
loop_
 _symmetry_equiv_pos_site_id
 _symmetry_equiv_pos_as_xyz
  1  'x, y, z'
loop_
 _atom_site_type_symbol
 _atom_site_label
 _atom_site_symmetry_multiplicity
 _atom_site_fract_x
 _atom_site_fract_y
 _atom_site_fract_z
 _atom_site_occupancy
  Ba  Ba0  1  0.03115994  0.21736943  0.78227333  1
  Ba  Ba1  1  0.46625604  0.78263057  0.21772667  1
  Ba  Ba2  1  0.53852840  0.21074205  0.78943294  1
  Ba  Ba3  1  0.95983751  0.78925795  0.21056706  1
  Ba  Ba4  1  0.24888661  0.78227333  0.78263057  1
  Ba  Ba5  1  0.24852937  0.21772667  0.21736943  1
  Ba  Ba6  1  0.74909546  0.78943294  0.78925795  1
  Ba  Ba7  1  0.74927045  0.21056706  0.21074205  1
  Ba  Ba8  1  0.24977708  0.50000000  0.50000000  1
  Ba  Ba9  1  0.74977708  0.50000000  0.50000000  1
  Ba  Ba10  1  0.78620536  0.49998629  0.07373152  1
  Ba  Ba11  1  0.21246013  0.50001371  0.92626848  1
  Ba  Ba12  1  0.28619166  0.92626848  0.49998629  1
  Ba  Ba13  1  0.71247384  0.07373152  0.50001371  1
  U  U14  1  0.47154296  1.00000000  0.00000000  1
  U  U15  1  0.02469952  0.00000000  1.00000000  1
  V  V16  1  0.37443016  0.49999856  0.24996636  1
  V  V17  1  0.62446236  0.50000144  0.75003364  1
  V  V18  1  0.87442872  0.75003364  0.49999856  1
  V  V19  1  0.12446379  0.24996636  0.50000144  1
  S  S20  1  0.12312745  0.50206798  0.14960506  1
  S  S21  1  0.47559037  0.49793202  0.85039494  1
  S  S22  1  0.62519543  0.85039494  0.50206798  1
  S  S23  1  0.97352239  0.14960506  0.49793202  1
  S  S24  1  0.87359355  0.50213101  0.85056280  1
  S  S25  1  0.52516176  0.49786899  0.14943720  1
  S  S26  1  0.37572456  0.14943720  0.50213101  1
  S  S27  1  0.02303075  0.85056280  0.49786899  1
  S  S28  1  0.48930689  0.66413398  0.64187527  1
  S  S29  1  0.51156560  0.33586602  0.35812473  1
  S  S30  1  0.98700847  0.35829807  0.33594973  1
  S  S31  1  0.00935680  0.64170193  0.66405027  1
  S  S32  1  0.84743162  0.64187527  0.33586602  1
  S  S33  1  0.15344087  0.35812473  0.66413398  1
  S  S34  1  0.65105873  0.33594973  0.64170193  1
  S  S35  1  0.34530653  0.66405027  0.35829807  1
  S  S36  1  0.37714058  0.98994610  0.77371318  1
  S  S37  1  0.59337350  0.01005390  0.22628682  1
  S  S38  1  0.90143386  0.22626879  0.01001393  1
  S  S39  1  0.11768872  0.77373121  0.98998607  1
  S  S40  1  0.60342740  0.77371318  0.01005390  1
  S  S41  1  0.36708668  0.22628682  0.98994610  1
  S  S42  1  0.89141993  0.01001393  0.77373121  1
  S  S43  1  0.12770266  0.98998607  0.22626879  1
  S  S44  1  0.74812456  1.00000000  0.00000000  1
  O  O45  1  0.24776389  0.00000000  1.00000000  1
