# generated using pymatgen
data_Ba9(FeSe4)4
_symmetry_space_group_name_H-M   'P 1'
_cell_length_a   9.96718023
_cell_length_b   10.05379987
_cell_length_c   19.35899851
_cell_angle_alpha   74.82529716
_cell_angle_beta   74.95698764
_cell_angle_gamma   89.53354920
_symmetry_Int_Tables_number   1
_chemical_formula_structural   Ba9(FeSe4)4
_chemical_formula_sum   'Ba18 Fe8 Se32'
_cell_volume   1804.40017860
_cell_formula_units_Z   2
loop_
 _symmetry_equiv_pos_site_id
 _symmetry_equiv_pos_as_xyz
  1  'x, y, z'
loop_
 _atom_site_type_symbol
 _atom_site_label
 _atom_site_symmetry_multiplicity
 _atom_site_fract_x
 _atom_site_fract_y
 _atom_site_fract_z
 _atom_site_occupancy
  Ba  Ba0  1  0.37560156  0.62560156  0.24879687  1
  Ba  Ba1  1  0.62512290  0.37512290  0.74975421  1
  Ba  Ba2  1  0.68939767  0.86616163  0.03739367  1
  Ba  Ba3  1  0.27320865  0.59644469  0.03739367  1
  Ba  Ba4  1  0.86063085  0.27048097  0.53805558  1
  Ba  Ba5  1  0.60131357  0.69146345  0.53805558  1
  Ba  Ba6  1  0.28686165  0.15570823  0.96633178  1
  Ba  Ba7  1  0.74680657  0.37795999  0.96633178  1
  Ba  Ba8  1  0.13890701  0.72878452  0.46245119  1
  Ba  Ba9  1  0.39864180  0.30876429  0.46245119  1
  Ba  Ba10  1  0.19776393  0.56877275  0.82238520  1
  Ba  Ba11  1  0.97985088  0.10884206  0.82238520  1
  Ba  Ba12  1  0.57320012  0.98096433  0.31765747  1
  Ba  Ba13  1  0.10914240  0.20137820  0.31765747  1
  Ba  Ba14  1  0.81020341  0.42303901  0.17785418  1
  Ba  Ba15  1  0.01194241  0.89910681  0.17785418  1
  Ba  Ba16  1  0.41998956  0.01694102  0.68517442  1
  Ba  Ba17  1  0.89483603  0.79788456  0.68517442  1
  Fe  Fe18  1  0.62051050  0.95602602  0.83854316  1
  Fe  Fe19  1  0.54094634  0.70543082  0.83854316  1
  Fe  Fe20  1  0.95982085  0.54029049  0.33661519  1
  Fe  Fe21  1  0.70356396  0.62309432  0.33661519  1
  Fe  Fe22  1  0.37406558  0.03922971  0.16238005  1
  Fe  Fe23  1  0.46355438  0.29839025  0.16238005  1
  Fe  Fe24  1  0.03992749  0.46086119  0.66276099  1
  Fe  Fe25  1  0.29731152  0.37637782  0.66276099  1
  Se  Se26  1  0.46926199  0.64515119  0.40643923  1
  Se  Se27  1  0.12429878  0.44840958  0.40643923  1
  Se  Se28  1  0.63254893  0.12179010  0.90516844  1
  Se  Se29  1  0.46228263  0.47304146  0.90516844  1
  Se  Se30  1  0.53124645  0.35445068  0.59268189  1
  Se  Se31  1  0.87607166  0.55286743  0.59268189  1
  Se  Se32  1  0.34907633  0.88100781  0.09176303  1
  Se  Se33  1  0.55916064  0.52722917  0.09176303  1
  Se  Se34  1  0.73369533  0.07876074  0.71241828  1
  Se  Se35  1  0.55388639  0.70882098  0.71241828  1
  Se  Se36  1  0.08266073  0.55657975  0.21073210  1
  Se  Se37  1  0.70660716  0.73268815  0.21073210  1
  Se  Se38  1  0.26322323  0.91838685  0.28791295  1
  Se  Se39  1  0.44886382  0.29370020  0.28791295  1
  Se  Se40  1  0.91729901  0.44813769  0.78786586  1
  Se  Se41  1  0.29483512  0.26399645  0.78786586  1
  Se  Se42  1  0.24282952  0.61498622  0.63038793  1
  Se  Se43  1  0.12678254  0.25462585  0.63038793  1
  Se  Se44  1  0.61408398  0.12192939  0.13129515  1
  Se  Se45  1  0.25462088  0.24677546  0.13129515  1
  Se  Se46  1  0.75822218  0.38602597  0.36889158  1
  Se  Se47  1  0.87288624  0.74508245  0.36889158  1
  Se  Se48  1  0.38226552  0.87365510  0.87219110  1
  Se  Se49  1  0.74554337  0.75415379  0.87219110  1
  Se  Se50  1  0.87314671  0.12314671  0.25370658  1
  Se  Se51  1  0.12023431  0.87023431  0.75953137  1
  Se  Se52  1  0.61832397  0.04789659  0.47636754  1
  Se  Se53  1  0.90530849  0.97573587  0.47636754  1
  Se  Se54  1  0.02211023  0.46301803  0.00181120  1
  Se  Se55  1  0.97607858  0.03517077  0.00181120  1
  Se  Se56  1  0.38080490  0.95181557  0.52377632  1
  Se  Se57  1  0.09541879  0.02440811  0.52377632  1
