# generated using pymatgen
data_Ba4Nd5Cu9O22
_symmetry_space_group_name_H-M   'P 1'
_cell_length_a   3.90841968
_cell_length_b   12.31540132
_cell_length_c   11.71235696
_cell_angle_alpha   108.50067930
_cell_angle_beta   90.00000000
_cell_angle_gamma   90.00000000
_symmetry_Int_Tables_number   1
_chemical_formula_structural   Ba4Nd5Cu9O22
_chemical_formula_sum   'Ba4 Nd5 Cu9 O22'
_cell_volume   534.62457882
_cell_formula_units_Z   1
loop_
 _symmetry_equiv_pos_site_id
 _symmetry_equiv_pos_as_xyz
  1  'x, y, z'
loop_
 _atom_site_type_symbol
 _atom_site_label
 _atom_site_symmetry_multiplicity
 _atom_site_fract_x
 _atom_site_fract_y
 _atom_site_fract_z
 _atom_site_occupancy
  Ba  Ba0  1  0.50000000  0.81614144  0.10742193  1
  Ba  Ba1  1  0.50000000  0.81813454  0.43695041  1
  Ba  Ba2  1  0.50000000  0.18186546  0.22971659  1
  Ba  Ba3  1  0.50000000  0.18385856  0.55924507  1
  Nd  Nd4  1  0.50000000  0.50599937  0.66932070  1
  Nd  Nd5  1  0.50000000  0.50000000  0.33333300  1
  Nd  Nd6  1  0.50000000  0.49400063  0.99734630  1
  Nd  Nd7  1  0.50000000  0.84703494  0.78244101  1
  Nd  Nd8  1  0.50000000  0.15296506  0.88422499  1
  Cu  Cu9  1  -0.00000000  0.65403341  0.88391852  1
  Cu  Cu10  1  0.00000000  0.65510153  0.55311946  1
  Cu  Cu11  1  0.00000000  0.64823523  0.21539987  1
  Cu  Cu12  1  -0.00000000  0.34596659  0.78274848  1
  Cu  Cu13  1  0.00000000  0.35176477  0.45126613  1
  Cu  Cu14  1  -0.00000000  0.34489847  0.11354754  1
  Cu  Cu15  1  -0.00000000  0.00009997  0.66873325  1
  Cu  Cu16  1  0.00000000  0.00000000  0.33333300  1
  Cu  Cu17  1  0.00000000  0.99990003  0.99793375  1
  O  O18  1  -0.00000000  0.63810476  0.71318354  1
  O  O19  1  0.00000000  0.63111030  0.37731087  1
  O  O20  1  0.00000000  0.62560756  0.04101330  1
  O  O21  1  0.50000000  0.63286655  0.87685503  1
  O  O22  1  0.50000000  0.63346435  0.54593353  1
  O  O23  1  0.50000000  0.62630119  0.20813660  1
  O  O24  1  -0.00000000  0.37439244  0.62565370  1
  O  O25  1  -0.00000000  0.36888970  0.28935513  1
  O  O26  1  -0.00000000  0.36189524  0.95348346  1
  O  O27  1  0.50000000  0.36713345  0.78981097  1
  O  O28  1  0.50000000  0.37369881  0.45853040  1
  O  O29  1  0.50000000  0.36653565  0.12073347  1
  O  O30  1  -0.00000000  0.83579099  0.93234982  1
  O  O31  1  0.00000000  0.83616589  0.62537302  1
  O  O32  1  0.00000000  0.83953515  0.27916716  1
  O  O33  1  0.00000000  0.16420901  0.73431618  1
  O  O34  1  0.00000000  0.16046485  0.38749984  1
  O  O35  1  -0.00000000  0.16383411  0.04129398  1
  O  O36  1  0.50000000  0.99989695  0.99064100  1
  O  O37  1  0.50000000  0.00000000  0.33333300  1
  O  O38  1  0.50000000  0.00010305  0.67602600  1
  O  O39  1  -0.00000000  0.00000000  0.83333300  1
