# generated using pymatgen
data_Ba3Sr(HgO2)4
_symmetry_space_group_name_H-M   'P 1'
_cell_length_a   6.85444339
_cell_length_b   6.85432712
_cell_length_c   25.39766840
_cell_angle_alpha   89.99999143
_cell_angle_beta   90.00000000
_cell_angle_gamma   120.00055274
_symmetry_Int_Tables_number   1
_chemical_formula_structural   Ba3Sr(HgO2)4
_chemical_formula_sum   'Ba9 Sr3 Hg12 O24'
_cell_volume   1033.37769338
_cell_formula_units_Z   3
loop_
 _symmetry_equiv_pos_site_id
 _symmetry_equiv_pos_as_xyz
  1  'x, y, z'
loop_
 _atom_site_type_symbol
 _atom_site_label
 _atom_site_symmetry_multiplicity
 _atom_site_fract_x
 _atom_site_fract_y
 _atom_site_fract_z
 _atom_site_occupancy
  Ba  Ba0  1  0.66667872  0.33333355  0.01652173  1
  Ba  Ba1  1  0.66667881  0.33333418  0.51677919  1
  Ba  Ba2  1  0.33334517  0.66666645  0.48347827  1
  Ba  Ba3  1  0.33334462  0.66666582  0.98322081  1
  Ba  Ba4  1  0.33332241  0.66666558  0.26678060  1
  Ba  Ba5  1  0.33331993  0.66666637  0.76652385  1
  Ba  Ba6  1  0.66665684  0.33333442  0.23321940  1
  Ba  Ba7  1  0.66665356  0.33333363  0.73347615  1
  Ba  Ba8  1  0.99998768  1.00000000  0.25000000  1
  Sr  Sr9  1  0.99998666  1.00000000  0.75000000  1
  Sr  Sr10  1  0.00001394  0.00000023  0.99989398  1
  Sr  Sr11  1  0.00001371  0.99999977  0.50010602  1
  Hg  Hg12  1  0.82963490  0.65658903  0.37577328  1
  Hg  Hg13  1  0.83017372  0.66032281  0.87497927  1
  Hg  Hg14  1  0.82695750  0.17036641  0.37577319  1
  Hg  Hg15  1  0.83015200  0.16982663  0.87497879  1
  Hg  Hg16  1  0.34340918  0.17304693  0.37577329  1
  Hg  Hg17  1  0.33967498  0.16985331  0.87497887  1
  Hg  Hg18  1  0.17304586  0.34341097  0.12422672  1
  Hg  Hg19  1  0.16985091  0.33967719  0.62502073  1
  Hg  Hg20  1  0.65659109  0.82963359  0.12422681  1
  Hg  Hg21  1  0.66032537  0.83017337  0.62502121  1
  Hg  Hg22  1  0.17036225  0.82695307  0.12422671  1
  Hg  Hg23  1  0.16982167  0.83014669  0.62502113  1
  O  O24  1  0.33404339  0.03706534  0.44677938  1
  O  O25  1  0.33476286  0.03821063  0.94648942  1
  O  O26  1  0.70303579  0.66596173  0.44678065  1
  O  O27  1  0.70345939  0.66524041  0.94649093  1
  O  O28  1  0.96294384  0.29697369  0.44677920  1
  O  O29  1  0.96179932  0.29654946  0.94648952  1
  O  O30  1  0.29697806  0.96293466  0.05322062  1
  O  O31  1  0.29655223  0.96178937  0.55351058  1
  O  O32  1  0.03707406  0.33403827  0.05321935  1
  O  O33  1  0.03821898  0.33475959  0.55350907  1
  O  O34  1  0.66597015  0.70302631  0.05322080  1
  O  O35  1  0.66524986  0.70345054  0.55351048  1
  O  O36  1  0.64958094  0.96306576  0.19466070  1
  O  O37  1  0.66521445  0.96171661  0.69652742  1
  O  O38  1  0.31347293  0.35041603  0.19466174  1
  O  O39  1  0.29648748  0.33477943  0.69652832  1
  O  O40  1  0.03692451  0.68651846  0.19466051  1
  O  O41  1  0.03827382  0.70350137  0.69652752  1
  O  O42  1  0.68651518  0.03693424  0.30533930  1
  O  O43  1  0.70349784  0.03828339  0.80347258  1
  O  O44  1  0.96305690  0.64958397  0.30533826  1
  O  O45  1  0.96170805  0.66522057  0.80347168  1
  O  O46  1  0.35040605  0.31348154  0.30533949  1
  O  O47  1  0.33477245  0.29649863  0.80347248  1
