# generated using pymatgen
data_K2SrNi(NO2)6
_symmetry_space_group_name_H-M   'P 1'
_cell_length_a   7.57241532
_cell_length_b   7.57241531
_cell_length_c   7.57241531
_cell_angle_alpha   59.99999997
_cell_angle_beta   59.99999998
_cell_angle_gamma   59.99999998
_symmetry_Int_Tables_number   1
_chemical_formula_structural   K2SrNi(NO2)6
_chemical_formula_sum   'K2 Sr1 Ni1 N6 O12'
_cell_volume   307.03527712
_cell_formula_units_Z   1
loop_
 _symmetry_equiv_pos_site_id
 _symmetry_equiv_pos_as_xyz
  1  'x, y, z'
loop_
 _atom_site_type_symbol
 _atom_site_label
 _atom_site_symmetry_multiplicity
 _atom_site_fract_x
 _atom_site_fract_y
 _atom_site_fract_z
 _atom_site_occupancy
  N  N0  1  0.80142879  0.80142852  0.19857145  1
  N  N1  1  0.19857094  0.80142852  0.80142868  1
  N  N2  1  0.80142892  0.19857181  0.80142804  1
  N  N3  1  0.19857094  0.80142852  0.19857207  1
  N  N4  1  0.80142892  0.19857181  0.19857143  1
  N  N5  1  0.19857107  0.19857181  0.80142866  1
  O  O6  1  0.15977930  0.84022060  0.36076102  1
  O  O7  1  0.63923868  0.36076154  0.84022182  1
  O  O8  1  0.84022059  0.36076154  0.15977856  1
  O  O9  1  0.63923919  0.15977809  0.36076098  1
  O  O10  1  0.84022110  0.15977809  0.63923963  1
  O  O11  1  0.36076079  0.15977809  0.84022201  1
  O  O12  1  0.36076118  0.63923879  0.15977829  1
  O  O13  1  0.84022149  0.63923879  0.36076131  1
  O  O14  1  0.63923961  0.84022060  0.15977865  1
  O  O15  1  0.15977837  0.36076154  0.63923880  1
  O  O16  1  0.15977927  0.63923879  0.84022155  1
  O  O17  1  0.36076121  0.84022060  0.63923967  1
  K  K18  1  0.75000028  0.75000025  0.74999923  1
  K  K19  1  0.24999958  0.25000008  0.24999955  1
  Ni  Ni20  1  0.00000000  0.00000000  0.00000000  1
  Sr  Sr21  1  0.50000070  0.50000016  0.49999967  1
