# generated using pymatgen
data_Nb3AgO8
_symmetry_space_group_name_H-M   'P 1'
_cell_length_a   7.14415476
_cell_length_b   7.37982577
_cell_length_c   7.37982578
_cell_angle_alpha   61.61975675
_cell_angle_beta   61.05087966
_cell_angle_gamma   61.05087964
_symmetry_Int_Tables_number   1
_chemical_formula_structural   Nb3AgO8
_chemical_formula_sum   'Nb6 Ag2 O16'
_cell_volume   282.78072821
_cell_formula_units_Z   2
loop_
 _symmetry_equiv_pos_site_id
 _symmetry_equiv_pos_as_xyz
  1  'x, y, z'
loop_
 _atom_site_type_symbol
 _atom_site_label
 _atom_site_symmetry_multiplicity
 _atom_site_fract_x
 _atom_site_fract_y
 _atom_site_fract_z
 _atom_site_occupancy
  O  O0  1  0.55764586  0.45029362  0.83392171  1
  O  O1  1  0.84186119  0.54970638  0.16607829  1
  O  O2  1  0.94235414  0.16607829  0.54970638  1
  O  O3  1  0.65813881  0.83392171  0.45029362  1
  O  O4  1  0.44235414  0.54970638  0.16607829  1
  O  O5  1  0.15813881  0.45029362  0.83392171  1
  O  O6  1  0.05764586  0.83392171  0.45029362  1
  O  O7  1  0.34186119  0.16607829  0.54970638  1
  O  O8  1  0.83402621  0.17899888  0.15294871  1
  O  O9  1  0.16597379  0.82100112  0.84705129  1
  O  O10  1  0.66597379  0.84705129  0.82100112  1
  O  O11  1  0.33402621  0.15294871  0.17899888  1
  O  O12  1  0.57521957  0.31678172  0.53277913  1
  O  O13  1  0.42478043  0.68321828  0.46722087  1
  O  O14  1  0.92478043  0.46722087  0.68321828  1
  O  O15  1  0.07521957  0.53277913  0.31678172  1
  Nb  Nb16  1  0.23315202  0.52451132  0.00918465  1
  Nb  Nb17  1  0.76684798  0.47548868  0.99081535  1
  Nb  Nb18  1  0.26684798  0.99081535  0.47548868  1
  Nb  Nb19  1  0.73315202  0.00918465  0.52451132  1
  Nb  Nb20  1  0.25000000  0.50000000  0.50000000  1
  Nb  Nb21  1  0.75000000  0.50000000  0.50000000  1
  Ag  Ag22  1  0.25000000  0.00000000  0.00000000  1
  Ag  Ag23  1  0.75000000  0.00000000  0.00000000  1
