# generated using pymatgen
data_DySi2
_symmetry_space_group_name_H-M   'P 1'
_cell_length_a   3.99436417
_cell_length_b   3.99436417
_cell_length_c   7.78539130
_cell_angle_alpha   104.86422560
_cell_angle_beta   104.86422560
_cell_angle_gamma   90.00000000
_symmetry_Int_Tables_number   1
_chemical_formula_structural   DySi2
_chemical_formula_sum   'Dy2 Si4'
_cell_volume   115.75293493
_cell_formula_units_Z   2
loop_
 _symmetry_equiv_pos_site_id
 _symmetry_equiv_pos_as_xyz
  1  'x, y, z'
loop_
 _atom_site_type_symbol
 _atom_site_label
 _atom_site_symmetry_multiplicity
 _atom_site_fract_x
 _atom_site_fract_y
 _atom_site_fract_z
 _atom_site_occupancy
  Dy  Dy0  1  0.25000000  0.75000000  0.50000000  1
  Dy  Dy1  1  0.00000000  0.00000000  -0.00000000  1
  Si  Si2  1  0.66725276  0.16725276  0.33450552  1
  Si  Si3  1  0.58274724  0.58274724  0.16549448  1
  Si  Si4  1  0.83274724  0.33274724  0.66549448  1
  Si  Si5  1  0.41725276  0.41725276  0.83450552  1
