# generated using pymatgen
data_BaSi6
_symmetry_space_group_name_H-M   'P 1'
_cell_length_a   4.47100256
_cell_length_b   5.70899481
_cell_length_c   12.04552514
_cell_angle_alpha   90.00000000
_cell_angle_beta   90.00000000
_cell_angle_gamma   113.05255392
_symmetry_Int_Tables_number   1
_chemical_formula_structural   BaSi6
_chemical_formula_sum   'Ba2 Si12'
_cell_volume   282.90920718
_cell_formula_units_Z   2
loop_
 _symmetry_equiv_pos_site_id
 _symmetry_equiv_pos_as_xyz
  1  'x, y, z'
loop_
 _atom_site_type_symbol
 _atom_site_label
 _atom_site_symmetry_multiplicity
 _atom_site_fract_x
 _atom_site_fract_y
 _atom_site_fract_z
 _atom_site_occupancy
  Si  Si0  1  0.02173191  0.04346382  0.09801376  1
  Si  Si1  1  0.97826809  0.95653618  0.90198624  1
  Si  Si2  1  0.24531999  0.49063998  0.46239229  1
  Si  Si3  1  0.75468001  0.50936002  0.53760771  1
  Si  Si4  1  0.75468001  0.50936002  0.96239229  1
  Si  Si5  1  0.24531999  0.49063998  0.03760771  1
  Si  Si6  1  0.56256640  0.12513280  0.64779599  1
  Si  Si7  1  0.43743360  0.87486720  0.35220401  1
  Si  Si8  1  0.43743360  0.87486720  0.14779599  1
  Si  Si9  1  0.56256640  0.12513280  0.85220401  1
  Si  Si10  1  0.02173191  0.04346382  0.40198624  1
  Si  Si11  1  0.97826809  0.95653618  0.59801376  1
  Ba  Ba12  1  0.72040675  0.44081349  0.25000000  1
  Ba  Ba13  1  0.27959325  0.55918651  0.75000000  1
