# generated using pymatgen
data_Yb2AlB6
_symmetry_space_group_name_H-M   'P 1'
_cell_length_a   3.58452446
_cell_length_b   9.33498982
_cell_length_c   11.50125120
_cell_angle_alpha   90.00000000
_cell_angle_beta   90.00000000
_cell_angle_gamma   90.00000000
_symmetry_Int_Tables_number   1
_chemical_formula_structural   Yb2AlB6
_chemical_formula_sum   'Yb8 Al4 B24'
_cell_volume   384.84910948
_cell_formula_units_Z   4
loop_
 _symmetry_equiv_pos_site_id
 _symmetry_equiv_pos_as_xyz
  1  'x, y, z'
loop_
 _atom_site_type_symbol
 _atom_site_label
 _atom_site_symmetry_multiplicity
 _atom_site_fract_x
 _atom_site_fract_y
 _atom_site_fract_z
 _atom_site_occupancy
  Yb  Yb0  1  -0.00000000  0.33331822  0.40826933  1
  Yb  Yb1  1  -0.00000000  0.04991657  0.61484829  1
  Yb  Yb2  1  0.00000000  0.16668178  0.90826933  1
  Yb  Yb3  1  -0.00000000  0.54991657  0.88515171  1
  Yb  Yb4  1  0.00000000  0.66668178  0.59173067  1
  Yb  Yb5  1  -0.00000000  0.83331822  0.09173067  1
  Yb  Yb6  1  -0.00000000  0.45008343  0.11484829  1
  Yb  Yb7  1  0.00000000  0.95008343  0.38515171  1
  Al  Al8  1  -0.00000000  0.85832796  0.82116617  1
  Al  Al9  1  0.00000000  0.35832796  0.67883383  1
  Al  Al10  1  -0.00000000  0.14167204  0.17883383  1
  Al  Al11  1  0.00000000  0.64167204  0.32116617  1
  B  B12  1  0.50000000  0.44885112  0.56623765  1
  B  B13  1  0.50000000  0.36009282  0.81440777  1
  B  B14  1  0.50000000  0.75319793  0.92376943  1
  B  B15  1  0.50000000  0.20059112  0.73072543  1
  B  B16  1  0.50000000  0.24680207  0.07623057  1
  B  B17  1  0.50000000  0.79940888  0.26927457  1
  B  B18  1  0.50000000  0.36508641  0.96253883  1
  B  B19  1  0.50000000  0.74680207  0.42376943  1
  B  B20  1  0.50000000  0.86508641  0.53746117  1
  B  B21  1  0.50000000  0.13491359  0.46253883  1
  B  B22  1  0.50000000  0.01602561  0.78301560  1
  B  B23  1  0.50000000  0.48397439  0.28301560  1
  B  B24  1  0.50000000  0.05114888  0.06623765  1
  B  B25  1  0.50000000  0.98397439  0.21698440  1
  B  B26  1  0.50000000  0.94885112  0.93376235  1
  B  B27  1  0.50000000  0.29940888  0.23072543  1
  B  B28  1  0.50000000  0.70059112  0.76927457  1
  B  B29  1  0.50000000  0.63990718  0.18559223  1
  B  B30  1  0.50000000  0.63491359  0.03746117  1
  B  B31  1  0.50000000  0.55114888  0.43376235  1
  B  B32  1  0.50000000  0.25319793  0.57623057  1
  B  B33  1  0.50000000  0.51602561  0.71698440  1
  B  B34  1  0.50000000  0.86009282  0.68559223  1
  B  B35  1  0.50000000  0.13990718  0.31440777  1
