# generated using pymatgen
data_Li3CrPCO7
_symmetry_space_group_name_H-M   'P 1'
_cell_length_a   5.10778224
_cell_length_b   6.49625737
_cell_length_c   8.63862811
_cell_angle_alpha   90.00000000
_cell_angle_beta   84.64671034
_cell_angle_gamma   90.00000000
_symmetry_Int_Tables_number   1
_chemical_formula_structural   Li3CrPCO7
_chemical_formula_sum   'Li6 Cr2 P2 C2 O14'
_cell_volume   285.39212990
_cell_formula_units_Z   2
loop_
 _symmetry_equiv_pos_site_id
 _symmetry_equiv_pos_as_xyz
  1  'x, y, z'
loop_
 _atom_site_type_symbol
 _atom_site_label
 _atom_site_symmetry_multiplicity
 _atom_site_fract_x
 _atom_site_fract_y
 _atom_site_fract_z
 _atom_site_occupancy
  Li  Li0  1  0.76886995  0.97384284  0.71082270  1
  Li  Li1  1  0.23112956  0.02615696  0.28917703  1
  Li  Li2  1  0.84376927  0.25000034  0.08402641  1
  Li  Li3  1  0.15623024  0.74999946  0.91597332  1
  Li  Li4  1  0.76886995  0.52615764  0.71082270  1
  Li  Li5  1  0.23112956  0.47384372  0.28917703  1
  C  C6  1  0.65842109  0.74999946  0.01252066  1
  C  C7  1  0.34157842  0.25000034  0.98747907  1
  O  O8  1  0.20921821  0.74999946  0.41649866  1
  O  O9  1  0.86372179  0.74999946  0.09392130  1
  O  O10  1  0.57693608  0.25000034  0.92149804  1
  O  O11  1  0.42306539  0.74999946  0.07850163  1
  O  O12  1  0.19545454  0.56304424  0.68210574  1
  O  O13  1  0.13627773  0.25000034  0.90607843  1
  O  O14  1  0.19545454  0.93695468  0.68210574  1
  O  O15  1  0.80454498  0.43695556  0.31789399  1
  O  O16  1  0.80454498  0.06304512  0.31789399  1
  O  O17  1  0.39040591  0.25000034  0.43625051  1
  O  O18  1  0.70872712  0.74999946  0.86267707  1
  O  O19  1  0.29127435  0.25000034  0.13732260  1
  O  O20  1  0.60959360  0.74999946  0.56374922  1
  O  O21  1  0.79078118  0.25000034  0.58350224  1
  P  P22  1  0.69880416  0.25000034  0.41765071  1
  P  P23  1  0.30119536  0.74999946  0.58234902  1
  Cr  Cr24  1  0.76012726  0.74999946  0.32973692  1
  Cr  Cr25  1  0.23987226  0.25000034  0.67026281  1
