# generated using pymatgen
data_In(FeO2)2
_symmetry_space_group_name_H-M   'P 1'
_cell_length_a   8.90157818
_cell_length_b   8.90157818
_cell_length_c   8.90157818
_cell_angle_alpha   22.05088603
_cell_angle_beta   22.05088605
_cell_angle_gamma   22.05088606
_symmetry_Int_Tables_number   1
_chemical_formula_structural   In(FeO2)2
_chemical_formula_sum   'In1 Fe2 O4'
_cell_volume   87.15954411
_cell_formula_units_Z   1
loop_
 _symmetry_equiv_pos_site_id
 _symmetry_equiv_pos_as_xyz
  1  'x, y, z'
loop_
 _atom_site_type_symbol
 _atom_site_label
 _atom_site_symmetry_multiplicity
 _atom_site_fract_x
 _atom_site_fract_y
 _atom_site_fract_z
 _atom_site_occupancy
  O  O0  1  0.70783463  0.70783536  0.70783414  1
  O  O1  1  0.29216489  0.29216433  0.29216624  1
  O  O2  1  0.87061547  0.87061740  0.87061509  1
  O  O3  1  0.12938242  0.12938570  0.12938365  1
  Fe  Fe4  1  0.78505863  0.78505995  0.78506085  1
  Fe  Fe5  1  0.21494091  0.21493976  0.21494064  1
  In  In6  1  0.00000000  0.00000000  0.00000000  1
