# generated using pymatgen
data_Ce(NiSn)2
_symmetry_space_group_name_H-M   'P 1'
_cell_length_a   4.43018098
_cell_length_b   4.43018098
_cell_length_c   6.07296814
_cell_angle_alpha   111.39194842
_cell_angle_beta   111.39194840
_cell_angle_gamma   90.00000000
_symmetry_Int_Tables_number   1
_chemical_formula_structural   Ce(NiSn)2
_chemical_formula_sum   'Ce1 Ni2 Sn2'
_cell_volume   102.11006084
_cell_formula_units_Z   1
loop_
 _symmetry_equiv_pos_site_id
 _symmetry_equiv_pos_as_xyz
  1  'x, y, z'
loop_
 _atom_site_type_symbol
 _atom_site_label
 _atom_site_symmetry_multiplicity
 _atom_site_fract_x
 _atom_site_fract_y
 _atom_site_fract_z
 _atom_site_occupancy
  Ni  Ni0  1  0.75000000  0.25000000  0.50000000  1
  Ni  Ni1  1  0.25000000  0.75000000  0.50000000  1
  Sn  Sn2  1  0.63616172  0.63616172  0.27232343  1
  Sn  Sn3  1  0.36383828  0.36383828  0.72767657  1
  Ce  Ce4  1  0.00000000  0.00000000  0.00000000  1
