# generated using pymatgen
data_In2CoS4
_symmetry_space_group_name_H-M   'P 1'
_cell_length_a   7.50241708
_cell_length_b   7.50241708
_cell_length_c   7.50241708
_cell_angle_alpha   59.99999998
_cell_angle_beta   60.00000000
_cell_angle_gamma   59.99999998
_symmetry_Int_Tables_number   1
_chemical_formula_structural   In2CoS4
_chemical_formula_sum   'In4 Co2 S8'
_cell_volume   298.59918231
_cell_formula_units_Z   2
loop_
 _symmetry_equiv_pos_site_id
 _symmetry_equiv_pos_as_xyz
  1  'x, y, z'
loop_
 _atom_site_type_symbol
 _atom_site_label
 _atom_site_symmetry_multiplicity
 _atom_site_fract_x
 _atom_site_fract_y
 _atom_site_fract_z
 _atom_site_occupancy
  S  S0  1  0.74932025  0.74932025  0.74932025  1
  S  S1  1  0.25067975  0.25067975  0.74796076  1
  S  S2  1  0.25067975  0.74796076  0.25067975  1
  S  S3  1  0.74796076  0.25067975  0.25067975  1
  S  S4  1  0.74932025  0.25203924  0.74932025  1
  S  S5  1  0.25203924  0.74932025  0.74932025  1
  S  S6  1  0.25067975  0.25067975  0.25067975  1
  S  S7  1  0.74932025  0.74932025  0.25203924  1
  Co  Co8  1  0.87500000  0.87500000  0.87500000  1
  Co  Co9  1  0.12500000  0.12500000  0.12500000  1
  In  In10  1  0.50000000  0.50000000  0.00000000  1
  In  In11  1  0.50000000  0.50000000  0.50000000  1
  In  In12  1  0.00000000  0.50000000  0.50000000  1
  In  In13  1  0.50000000  0.00000000  0.50000000  1
