# generated using pymatgen
data_K2CaNi(NO2)6
_symmetry_space_group_name_H-M   'P 1'
_cell_length_a   7.43929224
_cell_length_b   7.43929225
_cell_length_c   7.43929225
_cell_angle_alpha   60.00000004
_cell_angle_beta   60.00000002
_cell_angle_gamma   60.00000004
_symmetry_Int_Tables_number   1
_chemical_formula_structural   K2CaNi(NO2)6
_chemical_formula_sum   'K2 Ca1 Ni1 N6 O12'
_cell_volume   291.12524199
_cell_formula_units_Z   1
loop_
 _symmetry_equiv_pos_site_id
 _symmetry_equiv_pos_as_xyz
  1  'x, y, z'
loop_
 _atom_site_type_symbol
 _atom_site_label
 _atom_site_symmetry_multiplicity
 _atom_site_fract_x
 _atom_site_fract_y
 _atom_site_fract_z
 _atom_site_occupancy
  N  N0  1  0.79749979  0.20249930  0.79749991  1
  N  N1  1  0.20249991  0.79750002  0.79749950  1
  N  N2  1  0.79750015  0.79750002  0.20250032  1
  N  N3  1  0.20249955  0.20249930  0.79750098  1
  N  N4  1  0.79749979  0.20249930  0.20250046  1
  N  N5  1  0.20249991  0.79750002  0.20250004  1
  O  O6  1  0.83633088  0.36758580  0.63241367  1
  O  O7  1  0.16366882  0.63241352  0.36758628  1
  O  O8  1  0.36758640  0.63241352  0.83633133  1
  O  O9  1  0.63241426  0.16366844  0.83633066  1
  O  O10  1  0.36758700  0.83633087  0.16366851  1
  O  O11  1  0.36758700  0.16366844  0.63241341  1
  O  O12  1  0.83633184  0.16366844  0.36758659  1
  O  O13  1  0.63241330  0.36758580  0.16366863  1
  O  O14  1  0.83633124  0.63241352  0.16366875  1
  O  O15  1  0.63241426  0.83633087  0.36758577  1
  O  O16  1  0.16366942  0.83633087  0.63241394  1
  O  O17  1  0.16366846  0.36758580  0.83633121  1
  K  K18  1  0.25000018  0.25000024  0.24999932  1
  K  K19  1  0.75000053  0.75000073  0.74999930  1
  Ca  Ca20  1  0.50000035  0.50000048  0.49999999  1
  Ni  Ni21  1  0.00000000  0.00000000  0.00000000  1
