# generated using pymatgen
data_NaZn2H3(SO4)2
_symmetry_space_group_name_H-M   'P 1'
_cell_length_a   6.38264422
_cell_length_b   7.93289329
_cell_length_c   8.99946020
_cell_angle_alpha   99.79430992
_cell_angle_beta   109.57709151
_cell_angle_gamma   112.28069239
_symmetry_Int_Tables_number   1
_chemical_formula_structural   NaZn2H3(SO4)2
_chemical_formula_sum   'Na2 Zn4 H6 S4 O16'
_cell_volume   373.48501872
_cell_formula_units_Z   2
loop_
 _symmetry_equiv_pos_site_id
 _symmetry_equiv_pos_as_xyz
  1  'x, y, z'
loop_
 _atom_site_type_symbol
 _atom_site_label
 _atom_site_symmetry_multiplicity
 _atom_site_fract_x
 _atom_site_fract_y
 _atom_site_fract_z
 _atom_site_occupancy
  H  H0  1  0.54991173  0.55794097  0.26965664  1
  H  H1  1  0.45008827  0.44205903  0.73034336  1
  H  H2  1  0.29703852  0.55260965  0.27124780  1
  H  H3  1  0.70296148  0.44739035  0.72875220  1
  H  H4  1  0.38855033  0.28013708  0.50717416  1
  H  H5  1  0.61144967  0.71986292  0.49282584  1
  O  O6  1  0.40935467  0.49207160  0.29857519  1
  O  O7  1  0.59064533  0.50792840  0.70142481  1
  O  O8  1  0.28925293  0.14398422  0.43131872  1
  O  O9  1  0.71074707  0.85601578  0.56868128  1
  O  O10  1  0.81839275  0.74275167  0.27128444  1
  O  O11  1  0.18160725  0.25724833  0.72871556  1
  O  O12  1  0.79264893  0.25509831  0.73449066  1
  O  O13  1  0.20735107  0.74490169  0.26550934  1
  O  O14  1  0.97067786  0.86338712  0.07408303  1
  O  O15  1  0.02932214  0.13661288  0.92591697  1
  O  O16  1  0.72839777  0.07927640  0.36531854  1
  O  O17  1  0.27160223  0.92072360  0.63468146  1
  O  O18  1  0.50977342  0.82537144  0.84511624  1
  O  O19  1  0.49022658  0.17462856  0.15488376  1
  O  O20  1  0.09640622  0.75648801  0.80699235  1
  O  O21  1  0.90359378  0.24351199  0.19300765  1
  Na  Na22  1  0.43557926  0.82591776  0.08994165  1
  Na  Na23  1  0.56442074  0.17408224  0.91005835  1
  S  S24  1  0.24076081  0.74575624  0.70298856  1
  S  S25  1  0.93451054  0.70029097  0.15292821  1
  S  S26  1  0.75923919  0.25424376  0.29701144  1
  S  S27  1  0.06548946  0.29970903  0.84707179  1
  Zn  Zn28  1  0.18658237  0.17252322  0.19433485  1
  Zn  Zn29  1  0.81341763  0.82747678  0.80566515  1
  Zn  Zn30  1  0.50000000  0.00000000  0.50000000  1
  Zn  Zn31  1  0.00000000  0.00000000  0.50000000  1
