# generated using pymatgen
data_Er3Ru2
_symmetry_space_group_name_H-M   'P 1'
_cell_length_a   7.53108168
_cell_length_b   7.53108169
_cell_length_c   4.71861047
_cell_angle_alpha   90.00000000
_cell_angle_beta   90.00000000
_cell_angle_gamma   119.99999998
_symmetry_Int_Tables_number   1
_chemical_formula_structural   Er3Ru2
_chemical_formula_sum   'Er6 Ru4'
_cell_volume   231.77120297
_cell_formula_units_Z   2
loop_
 _symmetry_equiv_pos_site_id
 _symmetry_equiv_pos_as_xyz
  1  'x, y, z'
loop_
 _atom_site_type_symbol
 _atom_site_label
 _atom_site_symmetry_multiplicity
 _atom_site_fract_x
 _atom_site_fract_y
 _atom_site_fract_z
 _atom_site_occupancy
  Ru  Ru0  1  0.66666667  0.33333333  0.75000000  1
  Ru  Ru1  1  0.33333333  0.66666667  0.25000000  1
  Ru  Ru2  1  0.00000000  0.00000000  0.50000000  1
  Ru  Ru3  1  0.00000000  0.00000000  0.00000000  1
  Er  Er4  1  0.69500012  0.61622052  0.25000000  1
  Er  Er5  1  0.61622052  0.92122040  0.75000000  1
  Er  Er6  1  0.92122040  0.30499988  0.25000000  1
  Er  Er7  1  0.07877960  0.69500012  0.75000000  1
  Er  Er8  1  0.30499988  0.38377948  0.75000000  1
  Er  Er9  1  0.38377948  0.07877960  0.25000000  1
