# generated using pymatgen
data_Zr9Pt11
_symmetry_space_group_name_H-M   'P 1'
_cell_length_a   6.86006037
_cell_length_b   8.17528289
_cell_length_c   8.17528290
_cell_angle_alpha   79.86131135
_cell_angle_beta   65.19312280
_cell_angle_gamma   65.19312283
_symmetry_Int_Tables_number   1
_chemical_formula_structural   Zr9Pt11
_chemical_formula_sum   'Zr9 Pt11'
_cell_volume   377.78450759
_cell_formula_units_Z   1
loop_
 _symmetry_equiv_pos_site_id
 _symmetry_equiv_pos_as_xyz
  1  'x, y, z'
loop_
 _atom_site_type_symbol
 _atom_site_label
 _atom_site_symmetry_multiplicity
 _atom_site_fract_x
 _atom_site_fract_y
 _atom_site_fract_z
 _atom_site_occupancy
  Zr  Zr0  1  0.58208650  0.17112140  0.66470560  1
  Zr  Zr1  1  0.24679210  0.33529440  0.17112140  1
  Zr  Zr2  1  0.75320790  0.66470560  0.82887860  1
  Zr  Zr3  1  0.41791350  0.82887860  0.33529440  1
  Zr  Zr4  1  0.90458377  0.78809481  0.40273766  1
  Zr  Zr5  1  0.30732143  0.59726234  0.78809481  1
  Zr  Zr6  1  0.69267857  0.40273766  0.21190519  1
  Zr  Zr7  1  0.09541623  0.21190519  0.59726234  1
  Zr  Zr8  1  0.00000000  0.00000000  0.00000000  1
  Pt  Pt9  1  0.67599508  0.34182741  0.88703479  1
  Pt  Pt10  1  0.01782249  0.88703479  0.65817259  1
  Pt  Pt11  1  0.90485728  0.65817259  0.11296521  1
  Pt  Pt12  1  0.56302987  0.11296521  0.34182741  1
  Pt  Pt13  1  0.98217751  0.11296521  0.34182741  1
  Pt  Pt14  1  0.32400492  0.65817259  0.11296521  1
  Pt  Pt15  1  0.09514272  0.34182741  0.88703479  1
  Pt  Pt16  1  0.43697013  0.88703479  0.65817259  1
  Pt  Pt17  1  0.75000000  0.50000000  0.50000000  1
  Pt  Pt18  1  0.25000000  0.50000000  0.50000000  1
  Pt  Pt19  1  0.50000000  0.00000000  0.00000000  1
