# generated using pymatgen
data_TbCl
_symmetry_space_group_name_H-M   'P 1'
_cell_length_a   9.86647903
_cell_length_b   9.86647896
_cell_length_c   9.86647903
_cell_angle_alpha   22.02836033
_cell_angle_beta   22.02836125
_cell_angle_gamma   22.02836038
_symmetry_Int_Tables_number   1
_chemical_formula_structural   TbCl
_chemical_formula_sum   'Tb2 Cl2'
_cell_volume   118.45303613
_cell_formula_units_Z   2
loop_
 _symmetry_equiv_pos_site_id
 _symmetry_equiv_pos_as_xyz
  1  'x, y, z'
loop_
 _atom_site_type_symbol
 _atom_site_label
 _atom_site_symmetry_multiplicity
 _atom_site_fract_x
 _atom_site_fract_y
 _atom_site_fract_z
 _atom_site_occupancy
  Tb  Tb0  1  0.21536541  0.21536541  0.21536541  1
  Tb  Tb1  1  0.78463459  0.78463459  0.78463459  1
  Cl  Cl2  1  0.39103546  0.39103546  0.39103546  1
  Cl  Cl3  1  0.60896454  0.60896454  0.60896454  1
