# generated using pymatgen
data_Bi(PO3)4
_symmetry_space_group_name_H-M   'P 1'
_cell_length_a   5.27097639
_cell_length_b   11.05941986
_cell_length_c   11.05941987
_cell_angle_alpha   64.97421045
_cell_angle_beta   106.56290918
_cell_angle_gamma   106.56290915
_symmetry_Int_Tables_number   1
_chemical_formula_structural   Bi(PO3)4
_chemical_formula_sum   'Bi2 P8 O24'
_cell_volume   549.80036962
_cell_formula_units_Z   2
loop_
 _symmetry_equiv_pos_site_id
 _symmetry_equiv_pos_as_xyz
  1  'x, y, z'
loop_
 _atom_site_type_symbol
 _atom_site_label
 _atom_site_symmetry_multiplicity
 _atom_site_fract_x
 _atom_site_fract_y
 _atom_site_fract_z
 _atom_site_occupancy
  O  O0  1  0.59536536  0.30266991  0.54145180  1
  O  O1  1  0.75112028  0.32918730  0.04594906  1
  O  O2  1  0.24887972  0.67081270  0.95405094  1
  O  O3  1  0.24887972  0.95405094  0.67081270  1
  O  O4  1  0.00000000  0.26930255  0.73069745  1
  O  O5  1  0.00000000  0.73069745  0.26930255  1
  O  O6  1  0.01767066  0.25458038  0.50869892  1
  O  O7  1  0.01767066  0.50869892  0.25458038  1
  O  O8  1  0.24951578  0.31707695  0.92631218  1
  O  O9  1  0.24951578  0.92631218  0.31707695  1
  O  O10  1  0.63766983  0.85591346  0.85591346  1
  O  O11  1  0.40463464  0.45854820  0.69733009  1
  O  O12  1  0.40463464  0.69733009  0.45854820  1
  O  O13  1  0.58366692  0.61500089  0.86750736  1
  O  O14  1  0.58366692  0.86750736  0.61500089  1
  O  O15  1  0.98232934  0.74541962  0.49130108  1
  O  O16  1  0.41633308  0.38499911  0.13249264  1
  O  O17  1  0.41633308  0.13249264  0.38499911  1
  O  O18  1  0.59536536  0.54145180  0.30266991  1
  O  O19  1  0.36233017  0.14408654  0.14408654  1
  O  O20  1  0.75048422  0.07368782  0.68292305  1
  O  O21  1  0.75048422  0.68292305  0.07368782  1
  O  O22  1  0.98232934  0.49130108  0.74541962  1
  O  O23  1  0.75112028  0.04594906  0.32918730  1
  P  P24  1  0.46663398  0.30446529  0.06241343  1
  P  P25  1  0.83565985  0.23236431  0.60084749  1
  P  P26  1  0.16434015  0.39915251  0.76763569  1
  P  P27  1  0.16434015  0.76763569  0.39915251  1
  P  P28  1  0.53336602  0.69553471  0.93758657  1
  P  P29  1  0.83565985  0.60084749  0.23236431  1
  P  P30  1  0.46663398  0.06241343  0.30446529  1
  P  P31  1  0.53336602  0.93758657  0.69553471  1
  Bi  Bi32  1  0.71048854  0.65781796  0.65781796  1
  Bi  Bi33  1  0.28951146  0.34218204  0.34218204  1
