# generated using pymatgen
data_CeBN2
_symmetry_space_group_name_H-M   'P 1'
_cell_length_a   6.41872385
_cell_length_b   6.79649515
_cell_length_c   7.70279374
_cell_angle_alpha   106.55513087
_cell_angle_beta   90.18766878
_cell_angle_gamma   115.64396958
_symmetry_Int_Tables_number   1
_chemical_formula_structural   CeBN2
_chemical_formula_sum   'Ce6 B6 N12'
_cell_volume   287.24345857
_cell_formula_units_Z   6
loop_
 _symmetry_equiv_pos_site_id
 _symmetry_equiv_pos_as_xyz
  1  'x, y, z'
loop_
 _atom_site_type_symbol
 _atom_site_label
 _atom_site_symmetry_multiplicity
 _atom_site_fract_x
 _atom_site_fract_y
 _atom_site_fract_z
 _atom_site_occupancy
  B  B0  1  0.89927738  0.20523319  0.33165237  1
  B  B1  1  0.09922072  0.78379172  0.98787415  1
  B  B2  1  0.90077928  0.21620828  0.01212585  1
  B  B3  1  0.10072262  0.79476681  0.66834763  1
  B  B4  1  0.27776077  0.42922555  0.23053835  1
  B  B5  1  0.72223923  0.57077445  0.76946165  1
  N  N6  1  0.15433342  0.36824878  0.04495143  1
  N  N7  1  0.84566658  0.63175122  0.95504857  1
  N  N8  1  0.23129401  0.79884989  0.83024213  1
  N  N9  1  0.76306324  0.05370039  0.43126258  1
  N  N10  1  0.23693676  0.94629961  0.56873742  1
  N  N11  1  0.76870599  0.20115011  0.16975787  1
  N  N12  1  0.46786434  0.48245405  0.74723043  1
  N  N13  1  0.53213566  0.51754595  0.25276957  1
  N  N14  1  0.76397058  0.08348569  0.83390142  1
  N  N15  1  0.23602942  0.91651431  0.16609858  1
  N  N16  1  0.15100399  0.36953161  0.38438103  1
  N  N17  1  0.84899601  0.63046839  0.61561897  1
  Ce  Ce18  1  0.53678850  0.77877422  0.06618719  1
  Ce  Ce19  1  0.46321150  0.22122578  0.93381281  1
  Ce  Ce20  1  0.46504562  0.21764357  0.42429881  1
  Ce  Ce21  1  0.53495438  0.78235643  0.57570119  1
  Ce  Ce22  1  0.95329375  0.64843914  0.29431161  1
  Ce  Ce23  1  0.04670625  0.35156086  0.70568839  1
