# generated using pymatgen
data_Nb3CuO8
_symmetry_space_group_name_H-M   'P 1'
_cell_length_a   5.10103252
_cell_length_b   7.66205721
_cell_length_c   15.18264983
_cell_angle_alpha   101.65884342
_cell_angle_beta   90.00000000
_cell_angle_gamma   90.00000000
_symmetry_Int_Tables_number   1
_chemical_formula_structural   Nb3CuO8
_chemical_formula_sum   'Nb12 Cu4 O32'
_cell_volume   581.16180958
_cell_formula_units_Z   4
loop_
 _symmetry_equiv_pos_site_id
 _symmetry_equiv_pos_as_xyz
  1  'x, y, z'
loop_
 _atom_site_type_symbol
 _atom_site_label
 _atom_site_symmetry_multiplicity
 _atom_site_fract_x
 _atom_site_fract_y
 _atom_site_fract_z
 _atom_site_occupancy
  O  O0  1  0.58041428  0.56494057  0.34526494  1
  O  O1  1  0.08041428  0.93505943  0.15473506  1
  O  O2  1  0.41958572  0.43505943  0.65473506  1
  O  O3  1  0.91958572  0.06494057  0.84526494  1
  O  O4  1  0.07492056  0.44219303  0.39996146  1
  O  O5  1  0.57492056  0.05780697  0.10003854  1
  O  O6  1  0.92507944  0.55780697  0.60003854  1
  O  O7  1  0.42507944  0.94219303  0.89996146  1
  O  O8  1  0.92779764  0.80385717  0.45222066  1
  O  O9  1  0.42779764  0.69614283  0.04777934  1
  O  O10  1  0.07220236  0.19614283  0.54777934  1
  O  O11  1  0.57220236  0.30385717  0.95222066  1
  O  O12  1  0.43298570  0.90347322  0.40073294  1
  O  O13  1  0.93298570  0.59652678  0.09926706  1
  O  O14  1  0.56701430  0.09652678  0.59926706  1
  O  O15  1  0.06701430  0.40347322  0.90073294  1
  O  O16  1  0.56948848  0.80269749  0.71919280  1
  O  O17  1  0.06948848  0.69730251  0.78080720  1
  O  O18  1  0.43051152  0.19730251  0.28080720  1
  O  O19  1  0.93051152  0.30269749  0.21919280  1
  O  O20  1  0.59780256  0.58040288  0.84665017  1
  O  O21  1  0.09780256  0.91959712  0.65334983  1
  O  O22  1  0.40219744  0.41959712  0.15334983  1
  O  O23  1  0.90219744  0.08040288  0.34665017  1
  O  O24  1  0.41504047  0.19962731  0.78401852  1
  O  O25  1  0.91504047  0.30037269  0.71598148  1
  O  O26  1  0.58495953  0.80037269  0.21598148  1
  O  O27  1  0.08495953  0.69962731  0.28401852  1
  O  O28  1  0.90041163  0.80907655  0.96111905  1
  O  O29  1  0.40041163  0.69092345  0.53888095  1
  O  O30  1  0.09958837  0.19092345  0.03888095  1
  O  O31  1  0.59958837  0.30907655  0.46111905  1
  Cu  Cu32  1  0.75815139  0.34383378  0.07775997  1
  Cu  Cu33  1  0.25815139  0.15616622  0.42224003  1
  Cu  Cu34  1  0.24184861  0.65616622  0.92224003  1
  Cu  Cu35  1  0.74184861  0.84383378  0.57775997  1
  Nb  Nb36  1  0.75963871  0.85220065  0.33507582  1
  Nb  Nb37  1  0.25963871  0.64779935  0.16492418  1
  Nb  Nb38  1  0.24036129  0.14779935  0.66492418  1
  Nb  Nb39  1  0.74036129  0.35220065  0.83507582  1
  Nb  Nb40  1  0.25416096  0.67551403  0.42410330  1
  Nb  Nb41  1  0.75416096  0.82448597  0.07589670  1
  Nb  Nb42  1  0.74583904  0.32448597  0.57589670  1
  Nb  Nb43  1  0.24583904  0.17551403  0.92410330  1
  Nb  Nb44  1  0.76455000  0.34063780  0.33267659  1
  Nb  Nb45  1  0.26455000  0.15936220  0.16732341  1
  Nb  Nb46  1  0.23545000  0.65936220  0.66732341  1
  Nb  Nb47  1  0.73545000  0.84063780  0.83267659  1
