# generated using pymatgen
data_Na2TbO3
_symmetry_space_group_name_H-M   'P 1'
_cell_length_a   5.97884567
_cell_length_b   5.98966587
_cell_length_c   11.34652230
_cell_angle_alpha   84.88122405
_cell_angle_beta   79.70220643
_cell_angle_gamma   60.05973983
_symmetry_Int_Tables_number   1
_chemical_formula_structural   Na2TbO3
_chemical_formula_sum   'Na8 Tb4 O12'
_cell_volume   346.43507699
_cell_formula_units_Z   4
loop_
 _symmetry_equiv_pos_site_id
 _symmetry_equiv_pos_as_xyz
  1  'x, y, z'
loop_
 _atom_site_type_symbol
 _atom_site_label
 _atom_site_symmetry_multiplicity
 _atom_site_fract_x
 _atom_site_fract_y
 _atom_site_fract_z
 _atom_site_occupancy
  O  O0  1  0.95359903  0.80682006  0.63632225  1
  O  O1  1  0.23958091  0.80682006  0.86367775  1
  O  O2  1  0.04640097  0.19317994  0.36367775  1
  O  O3  1  0.76041909  0.19317994  0.13632225  1
  O  O4  1  0.58976681  0.53314180  0.63869056  1
  O  O5  1  0.87709139  0.53314180  0.86130944  1
  O  O6  1  0.41023319  0.46685820  0.36130944  1
  O  O7  1  0.12290861  0.46685820  0.13869056  1
  O  O8  1  0.31558826  0.16968472  0.63912824  1
  O  O9  1  0.48527297  0.83031528  0.13912824  1
  O  O10  1  0.68441174  0.83031528  0.36087176  1
  O  O11  1  0.51472703  0.16968472  0.86087176  1
  Na  Na12  1  0.91412738  0.17174523  0.75000000  1
  Na  Na13  1  0.84082767  0.84095035  0.99983668  1
  Na  Na14  1  0.68177802  0.15904965  0.49983668  1
  Na  Na15  1  0.15917233  0.15904965  0.00016332  1
  Na  Na16  1  0.50000000  0.50000000  0.00000000  1
  Na  Na17  1  0.00000000  0.50000000  0.50000000  1
  Na  Na18  1  0.08587262  0.82825477  0.25000000  1
  Na  Na19  1  0.31822198  0.84095035  0.50016332  1
  Tb  Tb20  1  0.24752838  0.50494324  0.75000000  1
  Tb  Tb21  1  0.75247162  0.49505676  0.25000000  1
  Tb  Tb22  1  0.58158891  0.83682218  0.75000000  1
  Tb  Tb23  1  0.41841109  0.16317782  0.25000000  1
