# generated using pymatgen
data_LiCr2(PO4)3
_symmetry_space_group_name_H-M   'P 1'
_cell_length_a   4.77718796
_cell_length_b   4.77718795
_cell_length_c   19.99676831
_cell_angle_alpha   87.57711381
_cell_angle_beta   87.57711384
_cell_angle_gamma   66.46825076
_symmetry_Int_Tables_number   1
_chemical_formula_structural   LiCr2(PO4)3
_chemical_formula_sum   'Li2 Cr4 P6 O24'
_cell_volume   417.87091190
_cell_formula_units_Z   2
loop_
 _symmetry_equiv_pos_site_id
 _symmetry_equiv_pos_as_xyz
  1  'x, y, z'
loop_
 _atom_site_type_symbol
 _atom_site_label
 _atom_site_symmetry_multiplicity
 _atom_site_fract_x
 _atom_site_fract_y
 _atom_site_fract_z
 _atom_site_occupancy
  Li  Li0  1  0.00395296  0.00395186  0.50952012  1
  Li  Li1  1  0.99604681  0.99604746  0.82381320  1
  O  O2  1  0.23109960  0.72014927  0.08835484  1
  O  O3  1  0.76405562  0.76405446  0.86496293  1
  O  O4  1  0.72014792  0.23110030  0.08835484  1
  O  O5  1  0.78644630  0.78644616  0.99462065  1
  O  O6  1  0.21355557  0.21355316  0.33871265  1
  O  O7  1  0.26156009  0.26155929  0.02471494  1
  O  O8  1  0.24596462  0.24596231  0.15260441  1
  O  O9  1  0.23260183  0.23260188  0.68311408  1
  O  O10  1  0.23594625  0.23594487  0.46837038  1
  O  O11  1  0.24823863  0.24824098  0.81202042  1
  O  O12  1  0.76739794  0.76739743  0.65021924  1
  O  O13  1  0.20263833  0.68059512  0.39364208  1
  O  O14  1  0.21561779  0.70126509  0.73867672  1
  O  O15  1  0.75403636  0.75403566  0.18072848  1
  O  O16  1  0.29873392  0.78438145  0.59465661  1
  O  O17  1  0.31940495  0.79736134  0.93969123  1
  O  O18  1  0.73843994  0.73844096  0.30861844  1
  O  O19  1  0.68059482  0.20263798  0.39364209  1
  O  O20  1  0.70126585  0.21561787  0.73867671  1
  O  O21  1  0.76890044  0.27985097  0.24497854  1
  O  O22  1  0.78438197  0.29873422  0.59465660  1
  O  O23  1  0.79736143  0.31940419  0.93969124  1
  O  O24  1  0.75176022  0.75176063  0.52131289  1
  O  O25  1  0.27985211  0.76889994  0.24497854  1
  P  P26  1  0.32664437  0.32664517  0.39945205  1
  P  P27  1  0.34605712  0.34605751  0.74454597  1
  P  P28  1  0.64232591  0.64232496  0.24440561  1
  P  P29  1  0.65394384  0.65394412  0.58878733  1
  P  P30  1  0.35767504  0.35767298  0.08892778  1
  P  P31  1  0.67335539  0.67335415  0.93388127  1
  Cr  Cr32  1  0.97742899  0.97743006  0.32580290  1
  Cr  Cr33  1  0.02256986  0.02257156  0.00753041  1
  Cr  Cr34  1  0.00000093  0.00000016  0.66666644  1
  Cr  Cr35  1  0.00000047  0.99999947  0.16666649  1
