# generated using pymatgen
data_Li2(LuGe)3
_symmetry_space_group_name_H-M   'P 1'
_cell_length_a   4.13240883
_cell_length_b   5.95466825
_cell_length_c   13.88789068
_cell_angle_alpha   90.00000000
_cell_angle_beta   90.00000000
_cell_angle_gamma   110.30325939
_symmetry_Int_Tables_number   1
_chemical_formula_structural   Li2(LuGe)3
_chemical_formula_sum   'Li4 Lu6 Ge6'
_cell_volume   320.50839785
_cell_formula_units_Z   2
loop_
 _symmetry_equiv_pos_site_id
 _symmetry_equiv_pos_as_xyz
  1  'x, y, z'
loop_
 _atom_site_type_symbol
 _atom_site_label
 _atom_site_symmetry_multiplicity
 _atom_site_fract_x
 _atom_site_fract_y
 _atom_site_fract_z
 _atom_site_occupancy
  Li  Li0  1  0.27820441  0.55640882  0.42146850  1
  Li  Li1  1  0.72179559  0.44359118  0.57853150  1
  Li  Li2  1  0.27820441  0.55640882  0.07853150  1
  Li  Li3  1  0.72179559  0.44359118  0.92146850  1
  Ge  Ge4  1  0.83217492  0.66434985  0.75000000  1
  Ge  Ge5  1  0.09949180  0.19898360  0.54519197  1
  Ge  Ge6  1  0.90050820  0.80101640  0.04519197  1
  Ge  Ge7  1  0.09949180  0.19898360  0.95480803  1
  Ge  Ge8  1  0.16782508  0.33565015  0.25000000  1
  Ge  Ge9  1  0.90050820  0.80101640  0.45480803  1
  Lu  Lu10  1  0.13879880  0.27759760  0.75000000  1
  Lu  Lu11  1  0.86120120  0.72240240  0.25000000  1
  Lu  Lu12  1  0.43042255  0.86084510  0.88123148  1
  Lu  Lu13  1  0.56957745  0.13915490  0.11876852  1
  Lu  Lu14  1  0.56957745  0.13915490  0.38123148  1
  Lu  Lu15  1  0.43042255  0.86084510  0.61876852  1
