# generated using pymatgen
data_Nd2NiO4
_symmetry_space_group_name_H-M   'P 1'
_cell_length_a   5.57569496
_cell_length_b   5.57569496
_cell_length_c   12.14209081
_cell_angle_alpha   90.00000000
_cell_angle_beta   90.00000000
_cell_angle_gamma   90.00000000
_symmetry_Int_Tables_number   1
_chemical_formula_structural   Nd2NiO4
_chemical_formula_sum   'Nd8 Ni4 O16'
_cell_volume   377.47786373
_cell_formula_units_Z   4
loop_
 _symmetry_equiv_pos_site_id
 _symmetry_equiv_pos_as_xyz
  1  'x, y, z'
loop_
 _atom_site_type_symbol
 _atom_site_label
 _atom_site_symmetry_multiplicity
 _atom_site_fract_x
 _atom_site_fract_y
 _atom_site_fract_z
 _atom_site_occupancy
  Ni  Ni0  1  0.00000000  0.00000000  0.00000000  1
  Ni  Ni1  1  0.50000000  0.00000000  0.50000000  1
  Ni  Ni2  1  0.00000000  0.50000000  0.50000000  1
  Ni  Ni3  1  0.50000000  0.50000000  0.00000000  1
  Nd  Nd4  1  0.98322874  0.98322874  0.36317534  1
  Nd  Nd5  1  0.51677126  0.98322874  0.86317534  1
  Nd  Nd6  1  0.98322874  0.51677126  0.86317534  1
  Nd  Nd7  1  0.48322874  0.01677126  0.13682466  1
  Nd  Nd8  1  0.01677126  0.48322874  0.13682466  1
  Nd  Nd9  1  0.51677126  0.51677126  0.36317534  1
  Nd  Nd10  1  0.48322874  0.48322874  0.63682466  1
  Nd  Nd11  1  0.01677126  0.01677126  0.63682466  1
  O  O12  1  0.25000000  0.25000000  0.97000470  1
  O  O13  1  0.25000000  0.25000000  0.47000470  1
  O  O14  1  0.75000000  0.75000000  0.52999530  1
  O  O15  1  0.75000000  0.75000000  0.02999530  1
  O  O16  1  0.05380072  0.05380072  0.17998093  1
  O  O17  1  0.44619928  0.05380072  0.67998093  1
  O  O18  1  0.05380072  0.44619928  0.67998093  1
  O  O19  1  0.55380072  0.94619928  0.32001907  1
  O  O20  1  0.94619928  0.55380072  0.32001907  1
  O  O21  1  0.44619928  0.44619928  0.17998093  1
  O  O22  1  0.55380072  0.55380072  0.82001907  1
  O  O23  1  0.94619928  0.94619928  0.82001907  1
  O  O24  1  0.75000000  0.25000000  0.00000000  1
  O  O25  1  0.25000000  0.75000000  0.50000000  1
  O  O26  1  0.25000000  0.75000000  0.00000000  1
  O  O27  1  0.75000000  0.25000000  0.50000000  1
