# generated using pymatgen
data_LiFe2(PO4)3
_symmetry_space_group_name_H-M   'P 1'
_cell_length_a   8.48079228
_cell_length_b   9.01155403
_cell_length_c   8.41693608
_cell_angle_alpha   117.84175020
_cell_angle_beta   60.27837907
_cell_angle_gamma   117.80422713
_symmetry_Int_Tables_number   1
_chemical_formula_structural   LiFe2(PO4)3
_chemical_formula_sum   'Li2 Fe4 P6 O24'
_cell_volume   470.29344205
_cell_formula_units_Z   2
loop_
 _symmetry_equiv_pos_site_id
 _symmetry_equiv_pos_as_xyz
  1  'x, y, z'
loop_
 _atom_site_type_symbol
 _atom_site_label
 _atom_site_symmetry_multiplicity
 _atom_site_fract_x
 _atom_site_fract_y
 _atom_site_fract_z
 _atom_site_occupancy
  Li  Li0  1  0.06839565  0.13327641  0.75598548  1
  Li  Li1  1  0.93160335  0.86672259  0.24401552  1
  O  O2  1  0.54478230  0.19662367  0.17236517  1
  O  O3  1  1.00536469  0.58599229  0.37427258  1
  O  O4  1  0.61524848  0.42761211  0.79639805  1
  O  O5  1  0.82381305  0.79426342  0.50089864  1
  O  O6  1  0.17618695  0.20573658  0.49910236  1
  O  O7  1  0.12316737  0.27038285  0.26632340  1
  O  O8  1  -0.00536469  0.41400671  0.62572642  1
  O  O9  1  0.26264793  0.26188316  0.87915112  1
  O  O10  1  0.49064412  0.10654630  0.77480239  1
  O  O11  1  0.48985038  0.20246852  0.53454675  1
  O  O12  1  0.87683263  0.72961815  0.73367560  1
  O  O13  1  0.78841200  0.10527048  0.83291522  1
  O  O14  1  0.21820125  0.57594762  0.98690301  1
  O  O15  1  0.50935588  0.89345470  0.22519761  1
  O  O16  1  0.09830176  0.72763112  0.90066777  1
  O  O17  1  0.38475152  0.57238889  0.20360295  1
  O  O18  1  0.73735207  0.73811684  0.12084888  1
  O  O19  1  0.90169824  0.27236888  0.09933123  1
  O  O20  1  0.14275153  0.91700815  0.53858178  1
  O  O21  1  0.78179875  0.42405238  0.01309699  1
  O  O22  1  0.21158900  0.89472952  0.16708578  1
  O  O23  1  0.45521670  0.80337633  0.82763483  1
  O  O24  1  0.51014962  0.79753148  0.46545225  1
  O  O25  1  0.85724947  0.08299185  0.46141822  1
  P  P26  1  0.46647232  0.25007853  0.74441050  1
  P  P27  1  0.74932509  0.25018329  0.03378286  1
  P  P28  1  0.25067491  0.74981671  0.96621814  1
  P  P29  1  0.53352768  0.74992147  0.25558950  1
  P  P30  1  0.03871059  0.24832832  0.46602125  1
  P  P31  1  0.96128941  0.75167268  0.53397975  1
  Fe  Fe32  1  0.64163583  0.94418463  0.65388117  1
  Fe  Fe33  1  0.85331517  0.57013330  0.85453143  1
  Fe  Fe34  1  0.14668483  0.42986670  0.14546957  1
  Fe  Fe35  1  0.35836517  0.05581537  0.34611883  1
