# generated using pymatgen
data_LiNiP2O7
_symmetry_space_group_name_H-M   'P 1'
_cell_length_a   5.03263774
_cell_length_b   6.82675446
_cell_length_c   8.39176221
_cell_angle_alpha   67.61026541
_cell_angle_beta   87.89629944
_cell_angle_gamma   87.74421979
_symmetry_Int_Tables_number   1
_chemical_formula_structural   LiNiP2O7
_chemical_formula_sum   'Li2 Ni2 P4 O14'
_cell_volume   266.29747549
_cell_formula_units_Z   2
loop_
 _symmetry_equiv_pos_site_id
 _symmetry_equiv_pos_as_xyz
  1  'x, y, z'
loop_
 _atom_site_type_symbol
 _atom_site_label
 _atom_site_symmetry_multiplicity
 _atom_site_fract_x
 _atom_site_fract_y
 _atom_site_fract_z
 _atom_site_occupancy
  Li  Li0  1  0.27601453  0.82416881  0.00330265  1
  Li  Li1  1  0.78271007  0.17385846  0.43920169  1
  O  O2  1  0.28302222  0.36090610  0.15458275  1
  O  O3  1  0.89154687  0.35025589  0.76076808  1
  O  O4  1  0.06418399  0.92253785  0.79658821  1
  O  O5  1  0.12355200  0.66239491  0.22632620  1
  O  O6  1  0.14570624  0.28914326  0.46704966  1
  O  O7  1  0.95472451  0.06519273  0.24364808  1
  O  O8  1  0.27200607  0.12515189  0.98827599  1
  O  O9  1  0.43066434  0.48729052  0.67876845  1
  O  O10  1  0.44495100  0.97891522  0.29154214  1
  O  O11  1  0.82152256  0.71645635  0.52121298  1
  O  O12  1  0.59739567  0.05192831  0.68888188  1
  O  O13  1  0.66724142  0.85880007  0.01224041  1
  O  O14  1  0.71025093  0.65390342  0.83140181  1
  O  O15  1  0.57430276  0.48381047  0.33432293  1
  P  P16  1  0.76546215  0.88753130  0.83007636  1
  P  P17  1  0.71607230  0.55061138  0.68789136  1
  P  P18  1  0.23753047  0.12396023  0.16961406  1
  P  P19  1  0.28099333  0.45373692  0.30927391  1
  Ni  Ni20  1  0.24359366  0.21495286  0.72045256  1
  Ni  Ni21  1  0.75715991  0.78065004  0.27009184  1
