# generated using pymatgen
data_Li3Ni2(PO4)3
_symmetry_space_group_name_H-M   'P 1'
_cell_length_a   4.89819416
_cell_length_b   4.89819417
_cell_length_c   18.80911169
_cell_angle_alpha   89.89801349
_cell_angle_beta   89.89801349
_cell_angle_gamma   65.81006599
_symmetry_Int_Tables_number   1
_chemical_formula_structural   Li3Ni2(PO4)3
_chemical_formula_sum   'Li6 Ni4 P6 O24'
_cell_volume   411.64762970
_cell_formula_units_Z   2
loop_
 _symmetry_equiv_pos_site_id
 _symmetry_equiv_pos_as_xyz
  1  'x, y, z'
loop_
 _atom_site_type_symbol
 _atom_site_label
 _atom_site_symmetry_multiplicity
 _atom_site_fract_x
 _atom_site_fract_y
 _atom_site_fract_z
 _atom_site_occupancy
  Li  Li0  1  0.32769785  0.32769785  0.58298103  1
  Li  Li1  1  0.32886368  0.32886368  0.91482908  1
  Li  Li2  1  0.67230215  0.67230215  0.75035297  1
  Li  Li3  1  0.99965096  0.99965096  0.50025924  1
  Li  Li4  1  0.00034904  0.00034904  0.83307376  1
  Li  Li5  1  0.67113632  0.67113632  0.41850392  1
  Ni  Ni6  1  0.00060816  0.00060816  0.33242993  1
  Ni  Ni7  1  0.00000000  0.00000000  0.16666700  1
  Ni  Ni8  1  0.99939184  0.99939184  0.00090307  1
  Ni  Ni9  1  0.00000000  -0.00000000  0.66666700  1
  P  P10  1  0.64381965  0.64381965  0.58555358  1
  P  P11  1  0.64530852  0.64530852  0.25025818  1
  P  P12  1  0.35469148  0.35469148  0.08307482  1
  P  P13  1  0.35618035  0.35618035  0.74777942  1
  P  P14  1  0.35478256  0.35478256  0.41457401  1
  P  P15  1  0.64521744  0.64521744  0.91875999  1
  O  O16  1  0.74885383  0.74885383  0.31945765  1
  O  O17  1  0.25637954  0.25637954  0.48479742  1
  O  O18  1  0.75389043  0.75389043  0.18297792  1
  O  O19  1  0.76747668  0.29666354  0.92021960  1
  O  O20  1  0.74537971  0.74537971  0.51637443  1
  O  O21  1  0.70477395  0.23524349  0.74678050  1
  O  O22  1  0.24528107  0.24528107  0.68165288  1
  O  O23  1  0.23524349  0.70477395  0.74678050  1
  O  O24  1  0.75471893  0.75471893  0.65168012  1
  O  O25  1  0.29666354  0.76747668  0.92021960  1
  O  O26  1  0.74362046  0.74362046  0.84853658  1
  O  O27  1  0.70334964  0.22406591  0.08370746  1
  O  O28  1  0.24610957  0.24610957  0.15035608  1
  O  O29  1  0.29522605  0.76475651  0.58655350  1
  O  O30  1  0.25462029  0.25462029  0.81695957  1
  O  O31  1  0.29665036  0.77593409  0.24962654  1
  O  O32  1  0.75772428  0.75772428  0.98397395  1
  O  O33  1  0.24227572  0.24227572  0.34936005  1
  O  O34  1  0.77593409  0.29665036  0.24962654  1
  O  O35  1  0.22406591  0.70334964  0.08370746  1
  O  O36  1  0.25114617  0.25114617  0.01387535  1
  O  O37  1  0.23252332  0.70333646  0.41311340  1
  O  O38  1  0.76475651  0.29522605  0.58655350  1
  O  O39  1  0.70333646  0.23252332  0.41311340  1
