# generated using pymatgen
data_Cu9S5
_symmetry_space_group_name_H-M   'P 1'
_cell_length_a   16.22725093
_cell_length_b   16.22725092
_cell_length_c   16.22725047
_cell_angle_alpha   13.71040591
_cell_angle_beta   13.71040597
_cell_angle_gamma   13.71040786
_symmetry_Int_Tables_number   1
_chemical_formula_structural   Cu9S5
_chemical_formula_sum   'Cu9 S5'
_cell_volume   208.87331637
_cell_formula_units_Z   1
loop_
 _symmetry_equiv_pos_site_id
 _symmetry_equiv_pos_as_xyz
  1  'x, y, z'
loop_
 _atom_site_type_symbol
 _atom_site_label
 _atom_site_symmetry_multiplicity
 _atom_site_fract_x
 _atom_site_fract_y
 _atom_site_fract_z
 _atom_site_occupancy
  S  S0  1  0.00000000  0.00000000  0.00000000  1
  S  S1  1  0.20116764  0.20116764  0.20116764  1
  S  S2  1  0.79883236  0.79883236  0.79883236  1
  S  S3  1  0.40013109  0.40013109  0.40013109  1
  S  S4  1  0.59986891  0.59986891  0.59986891  1
  Cu  Cu5  1  0.50000000  0.50000000  0.50000000  1
  Cu  Cu6  1  0.05204124  0.05204124  0.05204124  1
  Cu  Cu7  1  0.94795876  0.94795876  0.94795876  1
  Cu  Cu8  1  0.13704955  0.13704955  0.13704955  1
  Cu  Cu9  1  0.86295045  0.86295045  0.86295045  1
  Cu  Cu10  1  0.24810989  0.24810989  0.24810989  1
  Cu  Cu11  1  0.75189011  0.75189011  0.75189011  1
  Cu  Cu12  1  0.35171037  0.35171037  0.35171037  1
  Cu  Cu13  1  0.64828963  0.64828963  0.64828963  1
