# generated using pymatgen
data_ZnGa3N3O
_symmetry_space_group_name_H-M   'P 1'
_cell_length_a   6.49749839
_cell_length_b   6.49284753
_cell_length_c   10.54161894
_cell_angle_alpha   89.98765135
_cell_angle_beta   90.02564054
_cell_angle_gamma   120.01946475
_symmetry_Int_Tables_number   1
_chemical_formula_structural   ZnGa3N3O
_chemical_formula_sum   'Zn4 Ga12 N12 O4'
_cell_volume   385.06502224
_cell_formula_units_Z   4
loop_
 _symmetry_equiv_pos_site_id
 _symmetry_equiv_pos_as_xyz
  1  'x, y, z'
loop_
 _atom_site_type_symbol
 _atom_site_label
 _atom_site_symmetry_multiplicity
 _atom_site_fract_x
 _atom_site_fract_y
 _atom_site_fract_z
 _atom_site_occupancy
  Zn  Zn0  1  0.84432032  0.67157511  0.73472430  1
  Zn  Zn1  1  0.66666527  0.83328951  0.48663389  1
  Zn  Zn2  1  0.32265202  0.16098126  0.73436563  1
  Zn  Zn3  1  0.66649215  0.33298687  0.48928238  1
  Ga  Ga4  1  0.67144078  0.32776684  0.00693131  1
  Ga  Ga5  1  0.32200414  0.66318297  0.74545373  1
  Ga  Ga6  1  0.84238025  0.17291808  0.74721929  1
  Ga  Ga7  1  0.16239010  0.33861487  0.00498406  1
  Ga  Ga8  1  0.66074457  0.83787142  0.00514998  1
  Ga  Ga9  1  0.16416788  0.33302599  0.49503726  1
  Ga  Ga10  1  0.83421505  0.66794617  0.25648022  1
  Ga  Ga11  1  0.33271881  0.66565703  0.25475420  1
  Ga  Ga12  1  0.33155947  0.16669676  0.25483934  1
  Ga  Ga13  1  0.83509370  0.16688726  0.25676307  1
  Ga  Ga14  1  0.17225373  0.82842458  0.00577670  1
  Ga  Ga15  1  0.16613914  0.83195198  0.49658495  1
  N  N16  1  0.83426225  0.16599396  0.93680165  1
  N  N17  1  0.17491185  0.83031089  0.68474252  1
  N  N18  1  0.84199416  0.17121003  0.43717248  1
  N  N19  1  0.32514784  0.66220322  0.43661235  1
  N  N20  1  0.84299364  0.67130467  0.43739841  1
  N  N21  1  0.66609149  0.33337405  0.18790988  1
  N  N22  1  0.16681941  0.83380784  0.18649068  1
  N  N23  1  0.32427066  0.16259689  0.43741356  1
  N  N24  1  0.16337703  0.33904073  0.68640774  1
  N  N25  1  0.33365936  0.66571447  0.93636428  1
  N  N26  1  0.66629946  0.83315304  0.18744367  1
  N  N27  1  0.16707088  0.33349824  0.18664766  1
  O  O28  1  0.67085873  0.32564255  0.70129406  1
  O  O29  1  0.33410842  0.16697669  0.94853533  1
  O  O30  1  0.83253748  0.66596010  0.94730525  1
  O  O31  1  0.66035997  0.83943594  0.70246418  1
