# generated using pymatgen
data_YbPS4
_symmetry_space_group_name_H-M   'P 1'
_cell_length_a   11.19407346
_cell_length_b   11.20389368
_cell_length_c   12.08826894
_cell_angle_alpha   117.61603737
_cell_angle_beta   117.58176099
_cell_angle_gamma   90.00000357
_symmetry_Int_Tables_number   1
_chemical_formula_structural   YbPS4
_chemical_formula_sum   'Yb8 P8 S32'
_cell_volume   1145.36075872
_cell_formula_units_Z   8
loop_
 _symmetry_equiv_pos_site_id
 _symmetry_equiv_pos_as_xyz
  1  'x, y, z'
loop_
 _atom_site_type_symbol
 _atom_site_label
 _atom_site_symmetry_multiplicity
 _atom_site_fract_x
 _atom_site_fract_y
 _atom_site_fract_z
 _atom_site_occupancy
  Yb  Yb0  1  0.87511351  0.62518486  0.75030199  1
  Yb  Yb1  1  0.62481152  0.87481514  0.24969801  1
  Yb  Yb2  1  0.37518848  0.12518486  0.75030199  1
  Yb  Yb3  1  0.37508806  0.62503473  0.75009071  1
  Yb  Yb4  1  0.87500265  0.12503473  0.75009071  1
  Yb  Yb5  1  0.12499735  0.87496527  0.24990929  1
  Yb  Yb6  1  0.12488649  0.37481514  0.24969801  1
  Yb  Yb7  1  0.62491194  0.37496527  0.24990929  1
  P  P8  1  0.29912450  0.25000000  0.50000000  1
  P  P9  1  0.24997144  0.20067528  0.99991795  1
  P  P10  1  0.24994651  0.70067528  0.99991795  1
  P  P11  1  0.75005349  0.29932472  0.00008205  1
  P  P12  1  0.70087550  0.75000000  0.50000000  1
  P  P13  1  0.75002856  0.79932472  0.00008205  1
  P  P14  1  0.20082042  0.75000000  0.50000000  1
  P  P15  1  0.79917958  0.25000000  0.50000000  1
  S  S16  1  0.21886498  0.66388583  0.31974158  1
  S  S17  1  0.59982176  0.90012876  1.00933829  1
  S  S18  1  0.60087660  0.16388583  0.31974158  1
  S  S19  1  0.78113502  0.33611417  0.68025842  1
  S  S20  1  0.40017824  0.09987124  -0.00933829  1
  S  S21  1  0.90018759  0.89085558  -0.00924287  1
  S  S22  1  0.34405947  0.39903806  0.18005703  1
  S  S23  1  0.83612004  0.28126235  0.18029363  1
  S  S24  1  0.09981719  0.59063015  0.49062705  1
  S  S25  1  0.10078512  0.15583266  0.31976911  1
  S  S26  1  0.15582642  0.21873765  0.81970637  1
  S  S27  1  0.66400244  0.10096194  0.81994297  1
  S  S28  1  0.89921488  0.84416734  0.68023089  1
  S  S29  1  0.10919014  0.90936985  0.50937295  1
  S  S30  1  0.59056954  0.39085558  -0.00924287  1
  S  S31  1  0.09048347  0.59987124  -0.00933829  1
  S  S32  1  0.40010130  0.09997915  0.50931796  1
  S  S33  1  0.39912340  0.83611417  0.68025842  1
  S  S34  1  0.39078334  0.40002085  0.49068204  1
  S  S35  1  0.71898399  0.65583266  0.31976911  1
  S  S36  1  0.40943046  0.60914442  1.00924287  1
  S  S37  1  0.89080986  0.09063015  0.49062705  1
  S  S38  1  0.60921666  0.59997915  0.50931796  1
  S  S39  1  0.33599756  0.89903806  0.18005703  1
  S  S40  1  0.84417358  0.78126235  0.18029363  1
  S  S41  1  0.28101601  0.34416734  0.68023089  1
  S  S42  1  0.09981241  0.10914442  1.00924287  1
  S  S43  1  0.65594053  0.60096194  0.81994297  1
  S  S44  1  0.16387996  0.71873765  0.81970637  1
  S  S45  1  0.90951653  0.40012876  1.00933829  1
  S  S46  1  0.90018281  0.40936985  0.50937295  1
  S  S47  1  0.59989870  0.90002085  0.49068204  1
