# generated using pymatgen
data_Pb(SeO3)2
_symmetry_space_group_name_H-M   'P 1'
_cell_length_a   4.97852757
_cell_length_b   7.27996795
_cell_length_c   9.02668916
_cell_angle_alpha   90.00000000
_cell_angle_beta   90.00000000
_cell_angle_gamma   109.69335525
_symmetry_Int_Tables_number   1
_chemical_formula_structural   Pb(SeO3)2
_chemical_formula_sum   'Pb2 Se4 O12'
_cell_volume   308.02334933
_cell_formula_units_Z   2
loop_
 _symmetry_equiv_pos_site_id
 _symmetry_equiv_pos_as_xyz
  1  'x, y, z'
loop_
 _atom_site_type_symbol
 _atom_site_label
 _atom_site_symmetry_multiplicity
 _atom_site_fract_x
 _atom_site_fract_y
 _atom_site_fract_z
 _atom_site_occupancy
  Pb  Pb0  1  0.00000000  0.50000000  0.50000000  1
  Pb  Pb1  1  0.50000000  0.00000000  0.00000000  1
  Se  Se2  1  0.67333744  0.81384511  0.34848737  1
  Se  Se3  1  0.32666256  0.18615489  0.65151263  1
  Se  Se4  1  0.17333744  0.31384511  0.15151263  1
  Se  Se5  1  0.82666256  0.68615489  0.84848737  1
  O  O6  1  0.85597822  0.27019781  0.05680208  1
  O  O7  1  0.78052477  0.91369990  0.84655315  1
  O  O8  1  0.56803353  0.79334907  0.16395545  1
  O  O9  1  0.06803353  0.29334907  0.33604455  1
  O  O10  1  0.64402178  0.22980219  0.55680208  1
  O  O11  1  0.14402178  0.72980219  0.94319792  1
  O  O12  1  0.35597822  0.77019781  0.44319792  1
  O  O13  1  0.93196647  0.70665093  0.66395545  1
  O  O14  1  0.43196647  0.20665093  0.83604455  1
  O  O15  1  0.71947523  0.58630010  0.34655315  1
  O  O16  1  0.28052477  0.41369990  0.65344685  1
  O  O17  1  0.21947523  0.08630010  0.15344685  1
