# generated using pymatgen
data_CaCuO2
_symmetry_space_group_name_H-M   'P 1'
_cell_length_a   3.20286330
_cell_length_b   5.46027114
_cell_length_c   11.13506554
_cell_angle_alpha   90.00000000
_cell_angle_beta   90.00000000
_cell_angle_gamma   90.03118921
_symmetry_Int_Tables_number   1
_chemical_formula_structural   CaCuO2
_chemical_formula_sum   'Ca4 Cu4 O8'
_cell_volume   194.73558772
_cell_formula_units_Z   4
loop_
 _symmetry_equiv_pos_site_id
 _symmetry_equiv_pos_as_xyz
  1  'x, y, z'
loop_
 _atom_site_type_symbol
 _atom_site_label
 _atom_site_symmetry_multiplicity
 _atom_site_fract_x
 _atom_site_fract_y
 _atom_site_fract_z
 _atom_site_occupancy
  Ca  Ca0  1  0.50599344  0.22555538  0.11297820  1
  Ca  Ca1  1  0.49673795  0.72555927  0.88756698  1
  Ca  Ca2  1  0.50326205  0.27444073  0.38756698  1
  Ca  Ca3  1  0.49400656  0.77444462  0.61297820  1
  Cu  Cu4  1  0.00843776  0.73498545  0.12838927  1
  Cu  Cu5  1  0.99156224  0.26501455  0.62838927  1
  Cu  Cu6  1  0.99310408  0.23504829  0.87201814  1
  Cu  Cu7  1  0.00689592  0.76495171  0.37201814  1
  O  O8  1  1.00038104  0.02329710  0.49596325  1
  O  O9  1  0.01691484  0.00649163  0.24416924  1
  O  O10  1  0.99722643  0.52325711  0.50458413  1
  O  O11  1  0.00277357  0.47674289  0.00458413  1
  O  O12  1  -0.00038104  0.97670290  0.99596325  1
  O  O13  1  0.98308516  0.99350837  0.74416924  1
  O  O14  1  0.01416061  0.49334153  0.25633079  1
  O  O15  1  0.98583939  0.50665847  0.75633079  1
