# generated using pymatgen
data_Nd5Cu5O13
_symmetry_space_group_name_H-M   'P 1'
_cell_length_a   3.83474508
_cell_length_b   8.48873810
_cell_length_c   8.46410004
_cell_angle_alpha   90.17737612
_cell_angle_beta   90.00000000
_cell_angle_gamma   90.00000000
_symmetry_Int_Tables_number   1
_chemical_formula_structural   Nd5Cu5O13
_chemical_formula_sum   'Nd5 Cu5 O13'
_cell_volume   275.52330547
_cell_formula_units_Z   1
loop_
 _symmetry_equiv_pos_site_id
 _symmetry_equiv_pos_as_xyz
  1  'x, y, z'
loop_
 _atom_site_type_symbol
 _atom_site_label
 _atom_site_symmetry_multiplicity
 _atom_site_fract_x
 _atom_site_fract_y
 _atom_site_fract_z
 _atom_site_occupancy
  Nd  Nd0  1  0.50000000  0.15336273  0.26390949  1
  Nd  Nd1  1  0.50000000  0.73599400  0.15193318  1
  Nd  Nd2  1  0.50000000  0.50000000  0.50000000  1
  Nd  Nd3  1  0.50000000  0.84663727  0.73609051  1
  Nd  Nd4  1  0.50000000  0.26400600  0.84806682  1
  Cu  Cu5  1  0.00000000  0.56667285  0.84060736  1
  Cu  Cu6  1  0.00000000  0.43332715  0.15939264  1
  Cu  Cu7  1  0.00000000  0.83757611  0.43389876  1
  Cu  Cu8  1  0.00000000  0.16242389  0.56610124  1
  Cu  Cu9  1  0.00000000  0.00000000  0.00000000  1
  O  O10  1  0.00000000  0.29996325  0.38827730  1
  O  O11  1  0.00000000  0.75973253  0.95864265  1
  O  O12  1  0.50000000  0.56648930  0.82086703  1
  O  O13  1  0.00000000  0.70003675  0.61172270  1
  O  O14  1  0.50000000  0.18314852  0.56493190  1
  O  O15  1  0.00000000  0.24026747  0.04135735  1
  O  O16  1  0.00000000  0.03813107  0.75512244  1
  O  O17  1  0.00000000  0.38573847  0.70747096  1
  O  O18  1  0.00000000  0.61426153  0.29252904  1
  O  O19  1  0.50000000  0.81685148  0.43506810  1
  O  O20  1  0.00000000  0.96186893  0.24487756  1
  O  O21  1  0.50000000  0.00000000  0.00000000  1
  O  O22  1  0.50000000  0.43351070  0.17913297  1
