# generated using pymatgen
data_Zn2In2S5
_symmetry_space_group_name_H-M   'P 1'
_cell_length_a   15.79556591
_cell_length_b   15.79556594
_cell_length_c   15.79556587
_cell_angle_alpha   14.26324751
_cell_angle_beta   14.26324722
_cell_angle_gamma   14.26324836
_symmetry_Int_Tables_number   1
_chemical_formula_structural   Zn2In2S5
_chemical_formula_sum   'Zn2 In2 S5'
_cell_volume   208.24509828
_cell_formula_units_Z   1
loop_
 _symmetry_equiv_pos_site_id
 _symmetry_equiv_pos_as_xyz
  1  'x, y, z'
loop_
 _atom_site_type_symbol
 _atom_site_label
 _atom_site_symmetry_multiplicity
 _atom_site_fract_x
 _atom_site_fract_y
 _atom_site_fract_z
 _atom_site_occupancy
  In  In0  1  0.10390429  0.10390429  0.10390429  1
  In  In1  1  0.92226517  0.92226517  0.92226517  1
  S  S2  1  0.00824033  0.00824033  0.00824033  1
  S  S3  1  0.46922598  0.46922598  0.46922598  1
  S  S4  1  0.61117394  0.61117394  0.61117394  1
  S  S5  1  0.74298377  0.74298377  0.74298377  1
  S  S6  1  0.86887774  0.86887774  0.86887774  1
  Zn  Zn7  1  0.68819618  0.68819618  0.68819618  1
  Zn  Zn8  1  0.51713260  0.51713260  0.51713260  1
