# generated using pymatgen
data_Mn3GeIr
_symmetry_space_group_name_H-M   'P 1'
_cell_length_a   6.60948578
_cell_length_b   6.60948578
_cell_length_c   6.60948578
_cell_angle_alpha   90.00000000
_cell_angle_beta   90.00000000
_cell_angle_gamma   90.00000000
_symmetry_Int_Tables_number   1
_chemical_formula_structural   Mn3GeIr
_chemical_formula_sum   'Mn12 Ge4 Ir4'
_cell_volume   288.73738419
_cell_formula_units_Z   4
loop_
 _symmetry_equiv_pos_site_id
 _symmetry_equiv_pos_as_xyz
  1  'x, y, z'
loop_
 _atom_site_type_symbol
 _atom_site_label
 _atom_site_symmetry_multiplicity
 _atom_site_fract_x
 _atom_site_fract_y
 _atom_site_fract_z
 _atom_site_occupancy
  Mn  Mn0  1  0.12062977  0.20617940  0.45303121  1
  Mn  Mn1  1  0.45303121  0.12062977  0.20617940  1
  Mn  Mn2  1  0.20617940  0.45303121  0.12062977  1
  Mn  Mn3  1  0.29382060  0.54696879  0.62062977  1
  Mn  Mn4  1  0.95303121  0.37937023  0.79382060  1
  Mn  Mn5  1  0.79382060  0.95303121  0.37937023  1
  Mn  Mn6  1  0.04696879  0.87937023  0.70617940  1
  Mn  Mn7  1  0.54696879  0.62062977  0.29382060  1
  Mn  Mn8  1  0.70617940  0.04696879  0.87937023  1
  Mn  Mn9  1  0.62062977  0.29382060  0.54696879  1
  Mn  Mn10  1  0.87937023  0.70617940  0.04696879  1
  Mn  Mn11  1  0.37937023  0.79382060  0.95303121  1
  Ge  Ge12  1  0.93813852  0.56186148  0.43813852  1
  Ge  Ge13  1  0.56186148  0.43813852  0.93813852  1
  Ge  Ge14  1  0.43813852  0.93813852  0.56186148  1
  Ge  Ge15  1  0.06186148  0.06186148  0.06186148  1
  Ir  Ir16  1  0.31034569  0.18965431  0.81034569  1
  Ir  Ir17  1  0.18965431  0.81034569  0.31034569  1
  Ir  Ir18  1  0.81034569  0.31034569  0.18965431  1
  Ir  Ir19  1  0.68965431  0.68965431  0.68965431  1
