# generated using pymatgen
data_SiO2
_symmetry_space_group_name_H-M   'P 1'
_cell_length_a   5.17587992
_cell_length_b   5.17587913
_cell_length_c   6.80731536
_cell_angle_alpha   98.33039896
_cell_angle_beta   98.33039771
_cell_angle_gamma   96.36527982
_symmetry_Int_Tables_number   1
_chemical_formula_structural   SiO2
_chemical_formula_sum   'Si4 O8'
_cell_volume   176.91142548
_cell_formula_units_Z   4
loop_
 _symmetry_equiv_pos_site_id
 _symmetry_equiv_pos_as_xyz
  1  'x, y, z'
loop_
 _atom_site_type_symbol
 _atom_site_label
 _atom_site_symmetry_multiplicity
 _atom_site_fract_x
 _atom_site_fract_y
 _atom_site_fract_z
 _atom_site_occupancy
  Si  Si0  1  0.44424352  0.18280149  0.56929375  1
  Si  Si1  1  0.81719851  0.55575648  0.43070625  1
  Si  Si2  1  0.98971650  0.99493607  0.76283841  1
  Si  Si3  1  0.00506393  0.01028350  0.23716159  1
  O  O4  1  0.23322000  0.20444052  0.72657787  1
  O  O5  1  0.53522220  0.46477780  0.50000000  1
  O  O6  1  0.01116213  0.70415116  0.63851444  1
  O  O7  1  0.92137796  0.29573007  0.32060286  1
  O  O8  1  0.79555948  0.76678000  0.27342213  1
  O  O9  1  0.01518699  0.98481301  1.00000000  1
  O  O10  1  0.70426993  0.07862204  0.67939714  1
  O  O11  1  0.29584884  0.98883787  0.36148556  1
