# generated using pymatgen
data_BaCaSiO4
_symmetry_space_group_name_H-M   'P 1'
_cell_length_a   11.37596120
_cell_length_b   11.37596090
_cell_length_c   7.30110473
_cell_angle_alpha   90.00000000
_cell_angle_beta   90.00000000
_cell_angle_gamma   120.00000089
_symmetry_Int_Tables_number   1
_chemical_formula_structural   BaCaSiO4
_chemical_formula_sum   'Ba8 Ca8 Si8 O32'
_cell_volume   818.26768176
_cell_formula_units_Z   8
loop_
 _symmetry_equiv_pos_site_id
 _symmetry_equiv_pos_as_xyz
  1  'x, y, z'
loop_
 _atom_site_type_symbol
 _atom_site_label
 _atom_site_symmetry_multiplicity
 _atom_site_fract_x
 _atom_site_fract_y
 _atom_site_fract_z
 _atom_site_occupancy
  Ba  Ba0  1  0.66606257  0.83303129  0.95481426  1
  Ba  Ba1  1  0.33393743  0.16696871  0.45481426  1
  Ba  Ba2  1  0.83303129  0.16696871  0.45481426  1
  Ba  Ba3  1  0.16696871  0.33393743  0.95481426  1
  Ba  Ba4  1  0.16696871  0.83303129  0.95481426  1
  Ba  Ba5  1  0.66666700  0.33333300  0.14270067  1
  Ba  Ba6  1  0.83303129  0.66606257  0.45481426  1
  Ba  Ba7  1  0.33333300  0.66666700  0.64270067  1
  Ca  Ca8  1  0.47084591  0.94169183  0.27767001  1
  Ca  Ca9  1  0.52915409  0.05830817  0.77767001  1
  Ca  Ca10  1  0.94169183  0.47084591  0.77767001  1
  Ca  Ca11  1  0.00000000  0.00000000  0.25180520  1
  Ca  Ca12  1  0.00000000  0.00000000  0.75180520  1
  Ca  Ca13  1  0.47084591  0.52915409  0.27767001  1
  Ca  Ca14  1  0.05830817  0.52915409  0.27767001  1
  Ca  Ca15  1  0.52915409  0.47084591  0.77767001  1
  Si  Si16  1  0.34265128  0.17132564  0.00547277  1
  Si  Si17  1  0.17132564  0.82867436  0.50547277  1
  Si  Si18  1  0.33333300  0.66666700  0.07018752  1
  Si  Si19  1  0.82867436  0.17132564  0.00547277  1
  Si  Si20  1  0.65734872  0.82867436  0.50547277  1
  Si  Si21  1  0.17132564  0.34265128  0.50547277  1
  Si  Si22  1  0.82867436  0.65734872  0.00547277  1
  Si  Si23  1  0.66666700  0.33333300  0.57018752  1
  O  O24  1  0.37393340  0.18696670  0.78786062  1
  O  O25  1  0.81303330  0.62606660  0.78786062  1
  O  O26  1  0.18696670  0.81303330  0.28786062  1
  O  O27  1  0.58792527  0.17585054  0.48813081  1
  O  O28  1  0.58792527  0.41207473  0.48813081  1
  O  O29  1  0.91270487  0.82540974  0.03953282  1
  O  O30  1  0.91270487  0.08729513  0.03953282  1
  O  O31  1  0.91439697  0.59045838  0.09937366  1
  O  O32  1  0.59045838  0.91439697  0.59937366  1
  O  O33  1  0.17459026  0.08729513  0.03953282  1
  O  O34  1  0.66666700  0.33333300  0.79262074  1
  O  O35  1  0.32393860  0.40954162  0.59937366  1
  O  O36  1  0.33333300  0.66666700  0.29262074  1
  O  O37  1  0.82540974  0.91270487  0.53953282  1
  O  O38  1  0.67606140  0.08560303  0.09937366  1
  O  O39  1  0.62606660  0.81303330  0.28786062  1
  O  O40  1  0.67606140  0.59045838  0.09937366  1
  O  O41  1  0.41207473  0.58792527  0.98813081  1
  O  O42  1  0.40954162  0.08560303  0.09937366  1
  O  O43  1  0.91439697  0.32393860  0.09937366  1
  O  O44  1  0.32393860  0.91439697  0.59937366  1
  O  O45  1  0.81303330  0.18696670  0.78786062  1
  O  O46  1  0.08729513  0.17459026  0.53953282  1
  O  O47  1  0.17585054  0.58792527  0.98813081  1
  O  O48  1  0.08560303  0.40954162  0.59937366  1
  O  O49  1  0.08560303  0.67606140  0.59937366  1
  O  O50  1  0.82414946  0.41207473  0.48813081  1
  O  O51  1  0.08729513  0.91270487  0.53953282  1
  O  O52  1  0.18696670  0.37393340  0.28786062  1
  O  O53  1  0.59045838  0.67606140  0.59937366  1
  O  O54  1  0.41207473  0.82414946  0.98813081  1
  O  O55  1  0.40954162  0.32393860  0.09937366  1
