# generated using pymatgen
data_NaB(CO2)4
_symmetry_space_group_name_H-M   'P 1'
_cell_length_a   6.69107283
_cell_length_b   6.69107366
_cell_length_c   8.03952772
_cell_angle_alpha   90.00000000
_cell_angle_beta   90.00000000
_cell_angle_gamma   102.59700039
_symmetry_Int_Tables_number   1
_chemical_formula_structural   NaB(CO2)4
_chemical_formula_sum   'Na2 B2 C8 O16'
_cell_volume   351.26911271
_cell_formula_units_Z   2
loop_
 _symmetry_equiv_pos_site_id
 _symmetry_equiv_pos_as_xyz
  1  'x, y, z'
loop_
 _atom_site_type_symbol
 _atom_site_label
 _atom_site_symmetry_multiplicity
 _atom_site_fract_x
 _atom_site_fract_y
 _atom_site_fract_z
 _atom_site_occupancy
  Na  Na0  1  0.07114955  0.92885045  0.75000000  1
  Na  Na1  1  0.92885045  0.07114955  0.25000000  1
  B  B2  1  0.43028041  0.56971959  0.25000000  1
  B  B3  1  0.56971959  0.43028041  0.75000000  1
  C  C4  1  0.22330517  0.77669483  0.34551331  1
  C  C5  1  0.22330517  0.77669483  0.15448669  1
  C  C6  1  0.77669483  0.22330517  0.65448669  1
  C  C7  1  0.54564325  0.27059578  0.25000000  1
  C  C8  1  0.77669483  0.22330517  0.84551331  1
  C  C9  1  0.72940422  0.45435675  0.25000000  1
  C  C10  1  0.45435675  0.72940422  0.75000000  1
  C  C11  1  0.27059578  0.54564325  0.75000000  1
  O  O12  1  0.12771811  0.87228189  0.06704259  1
  O  O13  1  0.34151488  0.37478952  0.75000000  1
  O  O14  1  0.65559588  0.34440412  0.89691707  1
  O  O15  1  0.12771811  0.87228189  0.43295741  1
  O  O16  1  0.87228189  0.12771811  0.56704259  1
  O  O17  1  0.65848512  0.62521048  0.25000000  1
  O  O18  1  0.34440412  0.65559588  0.10308293  1
  O  O19  1  0.90838455  0.44121799  0.25000000  1
  O  O20  1  0.87228189  0.12771811  0.93295741  1
  O  O21  1  0.09161545  0.55878201  0.75000000  1
  O  O22  1  0.37478952  0.34151488  0.25000000  1
  O  O23  1  0.65559588  0.34440412  0.60308293  1
  O  O24  1  0.55878201  0.09161545  0.25000000  1
  O  O25  1  0.62521048  0.65848512  0.75000000  1
  O  O26  1  0.44121799  0.90838455  0.75000000  1
  O  O27  1  0.34440412  0.65559588  0.39691707  1
