# generated using pymatgen
data_Rb4TmI6
_symmetry_space_group_name_H-M   'P 1'
_cell_length_a   10.19499040
_cell_length_b   10.19498991
_cell_length_c   10.19498990
_cell_angle_alpha   90.15911751
_cell_angle_beta   90.15911757
_cell_angle_gamma   90.15911461
_symmetry_Int_Tables_number   1
_chemical_formula_structural   Rb4TmI6
_chemical_formula_sum   'Rb8 Tm2 I12'
_cell_volume   1059.63278753
_cell_formula_units_Z   2
loop_
 _symmetry_equiv_pos_site_id
 _symmetry_equiv_pos_as_xyz
  1  'x, y, z'
loop_
 _atom_site_type_symbol
 _atom_site_label
 _atom_site_symmetry_multiplicity
 _atom_site_fract_x
 _atom_site_fract_y
 _atom_site_fract_z
 _atom_site_occupancy
  Rb  Rb0  1  0.75000000  0.36963383  0.13036617  1
  Rb  Rb1  1  0.63036617  0.86963383  0.25000000  1
  Rb  Rb2  1  0.86963383  0.25000000  0.63036617  1
  Rb  Rb3  1  0.25000000  0.63036617  0.86963383  1
  Rb  Rb4  1  0.75000000  0.75000000  0.75000000  1
  Rb  Rb5  1  0.36963383  0.13036617  0.75000000  1
  Rb  Rb6  1  0.13036617  0.75000000  0.36963383  1
  Rb  Rb7  1  0.25000000  0.25000000  0.25000000  1
  Tm  Tm8  1  0.00000000  0.00000000  0.00000000  1
  Tm  Tm9  1  0.50000000  0.50000000  0.50000000  1
  I  I10  1  0.55729361  0.21098229  0.43272094  1
  I  I11  1  0.44270639  0.78901771  0.56727906  1
  I  I12  1  0.94270639  0.06727906  0.28901771  1
  I  I13  1  0.78901771  0.56727906  0.44270639  1
  I  I14  1  0.93272094  0.71098229  0.05729361  1
  I  I15  1  0.06727906  0.28901771  0.94270639  1
  I  I16  1  0.43272094  0.55729361  0.21098229  1
  I  I17  1  0.05729361  0.93272094  0.71098229  1
  I  I18  1  0.71098229  0.05729361  0.93272094  1
  I  I19  1  0.28901771  0.94270639  0.06727906  1
  I  I20  1  0.21098229  0.43272094  0.55729361  1
  I  I21  1  0.56727906  0.44270639  0.78901771  1
