# generated using pymatgen
data_SbCSF11
_symmetry_space_group_name_H-M   'P 1'
_cell_length_a   7.50320401
_cell_length_b   9.36670931
_cell_length_c   13.62933725
_cell_angle_alpha   91.26020001
_cell_angle_beta   90.00000000
_cell_angle_gamma   113.61100796
_symmetry_Int_Tables_number   1
_chemical_formula_structural   SbCSF11
_chemical_formula_sum   'Sb4 C4 S4 F44'
_cell_volume   877.43378759
_cell_formula_units_Z   4
loop_
 _symmetry_equiv_pos_site_id
 _symmetry_equiv_pos_as_xyz
  1  'x, y, z'
loop_
 _atom_site_type_symbol
 _atom_site_label
 _atom_site_symmetry_multiplicity
 _atom_site_fract_x
 _atom_site_fract_y
 _atom_site_fract_z
 _atom_site_occupancy
  Sb  Sb0  1  0.00296169  0.21749608  0.87895095  1
  Sb  Sb1  1  0.78546560  0.78250392  0.62104905  1
  Sb  Sb2  1  0.99703831  0.78250392  0.12104905  1
  Sb  Sb3  1  0.21453440  0.21749608  0.37895095  1
  C  C4  1  0.28893250  0.69689722  0.41914227  1
  C  C5  1  0.59203527  0.30310278  0.08085773  1
  C  C6  1  0.71106750  0.30310278  0.58085773  1
  C  C7  1  0.40796473  0.69689722  0.91914227  1
  S  S8  1  0.52814764  0.70314244  0.35076306  1
  S  S9  1  0.47185236  0.29685756  0.64923694  1
  S  S10  1  0.17499480  0.70314244  0.85076306  1
  S  S11  1  0.82500520  0.29685756  0.14923694  1
  F  F12  1  0.71901478  0.36763990  0.49434483  1
  F  F13  1  0.53696913  0.84298661  0.92872075  1
  F  F14  1  0.64862512  0.36763990  0.99434483  1
  F  F15  1  0.30601748  0.84298661  0.42872075  1
  F  F16  1  0.77191010  0.72277713  0.03924667  1
  F  F17  1  0.72251632  0.12220261  0.17932278  1
  F  F18  1  0.97607251  0.56710735  0.10676269  1
  F  F19  1  0.66931169  0.82722528  0.50303609  1
  F  F20  1  0.84208641  0.17277472  0.99696391  1
  F  F21  1  0.88333083  0.72038951  0.73539981  1
  F  F22  1  0.83705868  0.72038951  0.23539981  1
  F  F23  1  0.20678993  0.63052331  0.75054271  1
  F  F24  1  0.47488486  0.61142393  0.86314643  1
  F  F25  1  0.52511514  0.38857607  0.13685357  1
  F  F26  1  0.39968629  0.12220261  0.67932278  1
  F  F27  1  0.13653907  0.61142393  0.36314643  1
  F  F28  1  0.16294132  0.27961049  0.76460019  1
  F  F29  1  0.35137488  0.63236010  0.00565517  1
  F  F30  1  0.15791359  0.82722528  0.00303609  1
  F  F31  1  0.79321007  0.36947669  0.24945729  1
  F  F32  1  0.60190049  0.83008876  0.69631240  1
  F  F33  1  0.22818827  0.83008876  0.19631240  1
  F  F34  1  0.28098522  0.63236010  0.50565517  1
  F  F35  1  0.02026530  0.99145402  0.13028391  1
  F  F36  1  0.40896515  0.43289265  0.39323731  1
  F  F37  1  0.86346093  0.38857607  0.63685357  1
  F  F38  1  0.42373338  0.63052331  0.25054271  1
  F  F39  1  0.60031371  0.87779739  0.32067722  1
  F  F40  1  0.27748368  0.87779739  0.82067722  1
  F  F41  1  0.02392749  0.43289265  0.89323731  1
  F  F42  1  0.69398252  0.15701339  0.57127925  1
  F  F43  1  0.59103485  0.56710735  0.60676269  1
  F  F44  1  0.77181173  0.16991124  0.80368760  1
  F  F45  1  0.11666917  0.27961049  0.26460019  1
  F  F46  1  0.97118872  0.99145402  0.63028391  1
  F  F47  1  0.22808990  0.27722287  0.96075333  1
  F  F48  1  0.02881128  0.00854598  0.36971609  1
  F  F49  1  0.39809951  0.16991124  0.30368760  1
  F  F50  1  0.97973470  0.00854598  0.86971609  1
  F  F51  1  0.57626662  0.36947669  0.74945729  1
  F  F52  1  0.04913297  0.27722287  0.46075333  1
  F  F53  1  0.46303087  0.15701339  0.07127925  1
  F  F54  1  0.95086703  0.72277713  0.53924667  1
  F  F55  1  0.33068831  0.17277472  0.49696391  1
