# generated using pymatgen
data_CrBr2
_symmetry_space_group_name_H-M   'P 1'
_cell_length_a   3.66210961
_cell_length_b   4.16837026
_cell_length_c   6.50667115
_cell_angle_alpha   95.75951216
_cell_angle_beta   89.99999965
_cell_angle_gamma   116.05754993
_symmetry_Int_Tables_number   1
_chemical_formula_structural   CrBr2
_chemical_formula_sum   'Cr1 Br2'
_cell_volume   88.67003565
_cell_formula_units_Z   1
loop_
 _symmetry_equiv_pos_site_id
 _symmetry_equiv_pos_as_xyz
  1  'x, y, z'
loop_
 _atom_site_type_symbol
 _atom_site_label
 _atom_site_symmetry_multiplicity
 _atom_site_fract_x
 _atom_site_fract_y
 _atom_site_fract_z
 _atom_site_occupancy
  Cr  Cr0  1  -0.00000000  -0.00000000  -0.00000000  1
  Br  Br1  1  0.64577395  0.29154790  0.23322781  1
  Br  Br2  1  0.35422605  0.70845210  0.76677219  1
