# generated using pymatgen
data_Tb3Mn3Ga2Si
_symmetry_space_group_name_H-M   'P 1'
_cell_length_a   7.15714019
_cell_length_b   7.15714020
_cell_length_c   3.93285019
_cell_angle_alpha   90.00000000
_cell_angle_beta   90.00000000
_cell_angle_gamma   120.00000001
_symmetry_Int_Tables_number   1
_chemical_formula_structural   Tb3Mn3Ga2Si
_chemical_formula_sum   'Tb3 Mn3 Ga2 Si1'
_cell_volume   174.46852273
_cell_formula_units_Z   1
loop_
 _symmetry_equiv_pos_site_id
 _symmetry_equiv_pos_as_xyz
  1  'x, y, z'
loop_
 _atom_site_type_symbol
 _atom_site_label
 _atom_site_symmetry_multiplicity
 _atom_site_fract_x
 _atom_site_fract_y
 _atom_site_fract_z
 _atom_site_occupancy
  Si  Si0  1  0.00000000  0.00000000  0.50000000  1
  Mn  Mn1  1  0.78026406  0.78026406  0.00000000  1
  Mn  Mn2  1  0.21973594  0.00000000  0.00000000  1
  Mn  Mn3  1  0.00000000  0.21973594  0.00000000  1
  Ga  Ga4  1  0.66666667  0.33333333  0.00000000  1
  Ga  Ga5  1  0.33333333  0.66666667  0.00000000  1
  Tb  Tb6  1  0.00000000  0.59616655  0.50000000  1
  Tb  Tb7  1  0.40383345  0.40383345  0.50000000  1
  Tb  Tb8  1  0.59616655  0.00000000  0.50000000  1
