# generated using pymatgen
data_Sb2Pt2O7
_symmetry_space_group_name_H-M   'P 1'
_cell_length_a   7.35808158
_cell_length_b   7.35808159
_cell_length_c   7.35808158
_cell_angle_alpha   60.00000003
_cell_angle_beta   59.99999999
_cell_angle_gamma   60.00000003
_symmetry_Int_Tables_number   1
_chemical_formula_structural   Sb2Pt2O7
_chemical_formula_sum   'Sb4 Pt4 O14'
_cell_volume   281.69477945
_cell_formula_units_Z   2
loop_
 _symmetry_equiv_pos_site_id
 _symmetry_equiv_pos_as_xyz
  1  'x, y, z'
loop_
 _atom_site_type_symbol
 _atom_site_label
 _atom_site_symmetry_multiplicity
 _atom_site_fract_x
 _atom_site_fract_y
 _atom_site_fract_z
 _atom_site_occupancy
  O  O0  1  0.62500000  0.62500000  0.62500000  1
  O  O1  1  0.37500000  0.37500000  0.37500000  1
  O  O2  1  0.08565743  0.66434257  0.66434257  1
  O  O3  1  0.33565743  0.91434257  0.91434257  1
  O  O4  1  0.66434257  0.08565743  0.66434257  1
  O  O5  1  0.66434257  0.66434257  0.08565743  1
  O  O6  1  0.08565743  0.08565743  0.66434257  1
  O  O7  1  0.08565743  0.66434257  0.08565743  1
  O  O8  1  0.66434257  0.08565743  0.08565743  1
  O  O9  1  0.91434257  0.91434257  0.33565743  1
  O  O10  1  0.33565743  0.33565743  0.91434257  1
  O  O11  1  0.91434257  0.33565743  0.33565743  1
  O  O12  1  0.91434257  0.33565743  0.91434257  1
  O  O13  1  0.33565743  0.91434257  0.33565743  1
  Sb  Sb14  1  0.50000000  0.00000000  0.50000000  1
  Sb  Sb15  1  0.00000000  0.50000000  0.50000000  1
  Sb  Sb16  1  0.50000000  0.50000000  0.00000000  1
  Sb  Sb17  1  0.50000000  0.50000000  0.50000000  1
  Pt  Pt18  1  0.00000000  0.50000000  0.00000000  1
  Pt  Pt19  1  0.50000000  0.00000000  0.00000000  1
  Pt  Pt20  1  0.00000000  0.00000000  0.50000000  1
  Pt  Pt21  1  0.00000000  0.00000000  0.00000000  1
