# generated using pymatgen
data_SnH20C6(NCl3)2
_symmetry_space_group_name_H-M   'P 1'
_cell_length_a   12.38980794
_cell_length_b   12.38980794
_cell_length_c   12.38980794
_cell_angle_alpha   90.00000000
_cell_angle_beta   90.00000000
_cell_angle_gamma   90.00000000
_symmetry_Int_Tables_number   1
_chemical_formula_structural   SnH20C6(NCl3)2
_chemical_formula_sum   'Sn4 H80 C24 N8 Cl24'
_cell_volume   1901.92646977
_cell_formula_units_Z   4
loop_
 _symmetry_equiv_pos_site_id
 _symmetry_equiv_pos_as_xyz
  1  'x, y, z'
loop_
 _atom_site_type_symbol
 _atom_site_label
 _atom_site_symmetry_multiplicity
 _atom_site_fract_x
 _atom_site_fract_y
 _atom_site_fract_z
 _atom_site_occupancy
  Sn  Sn0  1  0.00000000  0.00000000  0.00000000  1
  Sn  Sn1  1  0.50000000  0.50000000  0.00000000  1
  Sn  Sn2  1  0.50000000  0.00000000  0.50000000  1
  Sn  Sn3  1  0.00000000  0.50000000  0.50000000  1
  H  H4  1  0.63221420  0.34462440  0.36135019  1
  H  H5  1  0.42830814  0.75349321  0.30070659  1
  H  H6  1  0.15537560  0.63864981  0.13221420  1
  H  H7  1  0.30070659  0.42830814  0.75349321  1
  H  H8  1  0.07169186  0.24650679  0.80070659  1
  H  H9  1  0.84462440  0.36135019  0.86778580  1
  H  H10  1  0.86351063  0.20104513  0.23773844  1
  H  H11  1  0.34489215  0.65510785  0.15510785  1
  H  H12  1  0.07169186  0.25349321  0.30070659  1
  H  H13  1  0.13221420  0.34462440  0.13864981  1
  H  H14  1  0.15537560  0.86135019  0.63221420  1
  H  H15  1  0.36135019  0.63221420  0.34462440  1
  H  H16  1  0.92830814  0.75349321  0.19929341  1
  H  H17  1  0.75349321  0.30070659  0.42830814  1
  H  H18  1  0.84489215  0.65510785  0.34489215  1
  H  H19  1  0.86351063  0.29895487  0.73773844  1
  H  H20  1  0.36135019  0.86778580  0.84462440  1
  H  H21  1  0.65510785  0.15510785  0.34489215  1
  H  H22  1  0.70104513  0.26226156  0.13648937  1
  H  H23  1  0.63864981  0.13221420  0.15537560  1
  H  H24  1  0.63648937  0.79895487  0.73773844  1
  H  H25  1  0.19929341  0.92830814  0.75349321  1
  H  H26  1  0.75349321  0.19929341  0.92830814  1
  H  H27  1  0.23773844  0.63648937  0.70104513  1
  H  H28  1  0.15510785  0.15510785  0.15510785  1
  H  H29  1  0.76226156  0.13648937  0.79895487  1
  H  H30  1  0.34462440  0.13864981  0.13221420  1
  H  H31  1  0.73773844  0.63648937  0.79895487  1
  H  H32  1  0.13648937  0.79895487  0.76226156  1
  H  H33  1  0.36778580  0.84462440  0.13864981  1
  H  H34  1  0.36351063  0.20104513  0.26226156  1
  H  H35  1  0.26226156  0.36351063  0.20104513  1
  H  H36  1  0.73773844  0.86351063  0.29895487  1
  H  H37  1  0.36351063  0.29895487  0.76226156  1
  H  H38  1  0.42830814  0.74650679  0.80070659  1
  H  H39  1  0.25349321  0.19929341  0.57169186  1
  H  H40  1  0.13648937  0.70104513  0.26226156  1
  H  H41  1  0.20104513  0.23773844  0.86351063  1
  H  H42  1  0.69929341  0.57169186  0.24650679  1
  H  H43  1  0.65510785  0.34489215  0.84489215  1
  H  H44  1  0.86778580  0.65537560  0.86135019  1
  H  H45  1  0.20104513  0.26226156  0.36351063  1
  H  H46  1  0.13221420  0.15537560  0.63864981  1
  H  H47  1  0.74650679  0.69929341  0.92830814  1
  H  H48  1  0.84489215  0.84489215  0.84489215  1
  H  H49  1  0.86135019  0.86778580  0.65537560  1
  H  H50  1  0.19929341  0.57169186  0.25349321  1
  H  H51  1  0.26226156  0.13648937  0.70104513  1
  H  H52  1  0.13864981  0.13221420  0.34462440  1
  H  H53  1  0.63648937  0.70104513  0.23773844  1
  H  H54  1  0.25349321  0.30070659  0.07169186  1
  H  H55  1  0.13864981  0.36778580  0.84462440  1
  H  H56  1  0.63864981  0.36778580  0.65537560  1
  H  H57  1  0.24650679  0.69929341  0.57169186  1
  H  H58  1  0.29895487  0.76226156  0.36351063  1
  H  H59  1  0.15510785  0.34489215  0.65510785  1
  H  H60  1  0.65537560  0.86135019  0.86778580  1
  H  H61  1  0.70104513  0.23773844  0.63648937  1
  H  H62  1  0.92830814  0.74650679  0.69929341  1
  H  H63  1  0.57169186  0.25349321  0.19929341  1
  H  H64  1  0.74650679  0.80070659  0.42830814  1
  H  H65  1  0.30070659  0.07169186  0.25349321  1
  H  H66  1  0.34489215  0.84489215  0.65510785  1
  H  H67  1  0.36778580  0.65537560  0.63864981  1
  H  H68  1  0.63221420  0.15537560  0.86135019  1
  H  H69  1  0.79895487  0.76226156  0.13648937  1
  H  H70  1  0.57169186  0.24650679  0.69929341  1
  H  H71  1  0.65537560  0.63864981  0.36778580  1
  H  H72  1  0.69929341  0.92830814  0.74650679  1
  H  H73  1  0.24650679  0.80070659  0.07169186  1
  H  H74  1  0.80070659  0.07169186  0.24650679  1
  H  H75  1  0.84462440  0.13864981  0.36778580  1
  H  H76  1  0.23773844  0.86351063  0.20104513  1
  H  H77  1  0.29895487  0.73773844  0.86351063  1
  H  H78  1  0.79895487  0.73773844  0.63648937  1
  H  H79  1  0.34462440  0.36135019  0.63221420  1
  H  H80  1  0.80070659  0.42830814  0.74650679  1
  H  H81  1  0.86778580  0.84462440  0.36135019  1
  H  H82  1  0.76226156  0.36351063  0.29895487  1
  H  H83  1  0.86135019  0.63221420  0.15537560  1
  C  C84  1  0.35042168  0.78684396  0.81102955  1
  C  C85  1  0.21315604  0.18897045  0.64957832  1
  C  C86  1  0.18897045  0.85042168  0.71315604  1
  C  C87  1  0.64957832  0.28684396  0.68897045  1
  C  C88  1  0.68897045  0.85042168  0.78684396  1
  C  C89  1  0.81102955  0.35042168  0.78684396  1
  C  C90  1  0.31102955  0.14957832  0.21315604  1
  C  C91  1  0.64957832  0.21315604  0.18897045  1
  C  C92  1  0.21315604  0.31102955  0.14957832  1
  C  C93  1  0.81102955  0.14957832  0.28684396  1
  C  C94  1  0.28684396  0.81102955  0.14957832  1
  C  C95  1  0.14957832  0.28684396  0.81102955  1
  C  C96  1  0.71315604  0.31102955  0.35042168  1
  C  C97  1  0.35042168  0.71315604  0.31102955  1
  C  C98  1  0.85042168  0.78684396  0.68897045  1
  C  C99  1  0.85042168  0.71315604  0.18897045  1
  C  C100  1  0.71315604  0.18897045  0.85042168  1
  C  C101  1  0.18897045  0.64957832  0.21315604  1
  C  C102  1  0.31102955  0.35042168  0.71315604  1
  C  C103  1  0.78684396  0.68897045  0.85042168  1
  C  C104  1  0.14957832  0.21315604  0.31102955  1
  C  C105  1  0.68897045  0.64957832  0.28684396  1
  C  C106  1  0.28684396  0.68897045  0.64957832  1
  C  C107  1  0.78684396  0.81102955  0.35042168  1
  N  N108  1  0.20344877  0.29655123  0.70344877  1
  N  N109  1  0.79655123  0.79655123  0.79655123  1
  N  N110  1  0.29655123  0.70344877  0.20344877  1
  N  N111  1  0.70344877  0.20344877  0.29655123  1
  N  N112  1  0.70344877  0.29655123  0.79655123  1
  N  N113  1  0.20344877  0.20344877  0.20344877  1
  N  N114  1  0.79655123  0.70344877  0.29655123  1
  N  N115  1  0.29655123  0.79655123  0.70344877  1
  Cl  Cl116  1  0.52590138  0.80408444  0.53317039  1
  Cl  Cl117  1  0.69591556  0.03317039  0.52590138  1
  Cl  Cl118  1  0.80408444  0.53317039  0.52590138  1
  Cl  Cl119  1  0.97409862  0.19591556  0.03317039  1
  Cl  Cl120  1  0.03317039  0.52590138  0.69591556  1
  Cl  Cl121  1  0.19591556  0.03317039  0.97409862  1
  Cl  Cl122  1  0.30408444  0.53317039  0.97409862  1
  Cl  Cl123  1  0.53317039  0.97409862  0.30408444  1
  Cl  Cl124  1  0.80408444  0.96682961  0.02590138  1
  Cl  Cl125  1  0.96682961  0.02590138  0.80408444  1
  Cl  Cl126  1  0.30408444  0.96682961  0.47409862  1
  Cl  Cl127  1  0.19591556  0.46682961  0.47409862  1
  Cl  Cl128  1  0.52590138  0.69591556  0.03317039  1
  Cl  Cl129  1  0.46682961  0.47409862  0.19591556  1
  Cl  Cl130  1  0.69591556  0.46682961  0.02590138  1
  Cl  Cl131  1  0.03317039  0.97409862  0.19591556  1
  Cl  Cl132  1  0.02590138  0.80408444  0.96682961  1
  Cl  Cl133  1  0.02590138  0.69591556  0.46682961  1
  Cl  Cl134  1  0.47409862  0.19591556  0.46682961  1
  Cl  Cl135  1  0.46682961  0.02590138  0.69591556  1
  Cl  Cl136  1  0.96682961  0.47409862  0.30408444  1
  Cl  Cl137  1  0.97409862  0.30408444  0.53317039  1
  Cl  Cl138  1  0.53317039  0.52590138  0.80408444  1
  Cl  Cl139  1  0.47409862  0.30408444  0.96682961  1
