# generated using pymatgen
data_Mn3As2
_symmetry_space_group_name_H-M   'P 1'
_cell_length_a   3.42879400
_cell_length_b   6.74731087
_cell_length_c   12.87303408
_cell_angle_alpha   90.00000000
_cell_angle_beta   90.00000000
_cell_angle_gamma   104.71943111
_symmetry_Int_Tables_number   1
_chemical_formula_structural   Mn3As2
_chemical_formula_sum   'Mn12 As8'
_cell_volume   288.04548720
_cell_formula_units_Z   4
loop_
 _symmetry_equiv_pos_site_id
 _symmetry_equiv_pos_as_xyz
  1  'x, y, z'
loop_
 _atom_site_type_symbol
 _atom_site_label
 _atom_site_symmetry_multiplicity
 _atom_site_fract_x
 _atom_site_fract_y
 _atom_site_fract_z
 _atom_site_occupancy
  Mn  Mn0  1  0.17269690  0.34539379  0.89335748  1
  Mn  Mn1  1  0.55819694  0.11639387  0.13257848  1
  Mn  Mn2  1  0.96960931  0.93921863  0.81298664  1
  Mn  Mn3  1  0.23327689  0.46655378  0.17879021  1
  Mn  Mn4  1  0.37111995  0.74223991  0.97990797  1
  Mn  Mn5  1  0.76672311  0.53344622  0.67879021  1
  Mn  Mn6  1  0.10888062  0.21776123  0.63921797  1
  Mn  Mn7  1  0.62888005  0.25776009  0.47990797  1
  Mn  Mn8  1  0.82730310  0.65460621  0.39335748  1
  Mn  Mn9  1  0.03039069  0.06078137  0.31298664  1
  Mn  Mn10  1  0.89111938  0.78223877  0.13921797  1
  Mn  Mn11  1  0.44180306  0.88360613  0.63257848  1
  As  As12  1  0.26508266  0.53016532  0.53064246  1
  As  As13  1  0.73491734  0.46983468  0.03064246  1
  As  As14  1  0.40294657  0.80589315  0.26795402  1
  As  As15  1  0.33787346  0.67574691  0.79782946  1
  As  As16  1  0.59705343  0.19410685  0.76795402  1
  As  As17  1  0.00971594  0.01943189  0.99673531  1
  As  As18  1  0.66212654  0.32425309  0.29782946  1
  As  As19  1  0.99028406  0.98056811  0.49673531  1
