# generated using pymatgen
data_InH24C6(Br2N)3
_symmetry_space_group_name_H-M   'P 1'
_cell_length_a   17.34815614
_cell_length_b   17.34815588
_cell_length_c   17.34815625
_cell_angle_alpha   117.40072430
_cell_angle_beta   117.40072385
_cell_angle_gamma   117.40072698
_symmetry_Int_Tables_number   1
_chemical_formula_structural   InH24C6(Br2N)3
_chemical_formula_sum   'In4 H96 C24 Br24 N12'
_cell_volume   2150.66114274
_cell_formula_units_Z   4
loop_
 _symmetry_equiv_pos_site_id
 _symmetry_equiv_pos_as_xyz
  1  'x, y, z'
loop_
 _atom_site_type_symbol
 _atom_site_label
 _atom_site_symmetry_multiplicity
 _atom_site_fract_x
 _atom_site_fract_y
 _atom_site_fract_z
 _atom_site_occupancy
  In  In0  1  0.50000000  0.00000000  0.50000000  1
  In  In1  1  0.00000000  0.00000000  0.00000000  1
  In  In2  1  0.00000000  0.50000000  0.50000000  1
  In  In3  1  0.50000000  0.50000000  0.00000000  1
  H  H4  1  0.43698917  0.90473181  0.67394906  1
  H  H5  1  0.52324376  0.88443101  0.05641508  1
  H  H6  1  0.67377976  0.38481029  0.45104352  1
  H  H7  1  0.98213305  0.35131659  0.76051896  1
  H  H8  1  0.12280553  0.04025307  0.32689884  1
  H  H9  1  0.43041314  0.30975808  0.59789432  1
  H  H10  1  0.45749726  0.33192583  0.51788557  1
  H  H11  1  0.28335427  0.24308111  0.06434061  1
  H  H12  1  0.19851404  0.01900220  0.41246431  1
  H  H13  1  0.24308111  0.06434061  0.28335427  1
  H  H14  1  0.76051896  0.98213305  0.35131659  1
  H  H15  1  0.11556899  0.94358492  0.47675624  1
  H  H16  1  0.40210568  0.56958686  0.69024192  1
  H  H17  1  0.44598980  0.96859791  0.05416317  1
  H  H18  1  0.35131659  0.76051896  0.98213305  1
  H  H19  1  0.61518971  0.54895648  0.32622024  1
  H  H20  1  0.32040977  0.05588025  0.37480032  1
  H  H21  1  0.05416317  0.44598980  0.96859791  1
  H  H22  1  0.55173540  0.93047826  0.79989677  1
  H  H23  1  0.94358492  0.47675624  0.11556899  1
  H  H24  1  0.45104352  0.67377976  0.38481029  1
  H  H25  1  0.86663549  0.19918244  0.04541048  1
  H  H26  1  0.62519968  0.67959023  0.94411975  1
  H  H27  1  0.20010323  0.44826460  0.06952174  1
  H  H28  1  0.32605094  0.56301083  0.09526819  1
  H  H29  1  0.69024192  0.40210568  0.56958687  1
  H  H30  1  0.75090402  0.36182506  0.87839272  1
  H  H31  1  0.13336451  0.80081756  0.95458952  1
  H  H32  1  0.96859791  0.05416317  0.44598980  1
  H  H33  1  0.32622024  0.61518971  0.54895648  1
  H  H34  1  0.56958686  0.69024192  0.40210568  1
  H  H35  1  0.79989677  0.55173540  0.93047826  1
  H  H36  1  0.51788557  0.45749726  0.33192583  1
  H  H37  1  0.80081756  0.95458952  0.13336451  1
  H  H38  1  0.56301083  0.09526819  0.32605094  1
  H  H39  1  0.59789432  0.43041314  0.30975808  1
  H  H40  1  0.55401020  0.03140209  0.94583683  1
  H  H41  1  0.80918546  0.44475791  0.07745692  1
  H  H42  1  0.88579521  0.65102347  0.10815701  1
  H  H43  1  0.23948104  0.01786695  0.64868341  1
  H  H44  1  0.30975808  0.59789432  0.43041313  1
  H  H45  1  0.24909598  0.63817494  0.12160728  1
  H  H46  1  0.94583683  0.55401020  0.03140209  1
  H  H47  1  0.66807417  0.48211443  0.54250274  1
  H  H48  1  0.95974693  0.67310116  0.87719447  1
  H  H49  1  0.34897653  0.89184299  0.11420479  1
  H  H50  1  0.67310116  0.87719447  0.95974693  1
  H  H51  1  0.93047826  0.79989677  0.55173540  1
  H  H52  1  0.03140209  0.94583683  0.55401020  1
  H  H53  1  0.07745692  0.80918546  0.44475791  1
  H  H54  1  0.44475791  0.07745692  0.80918546  1
  H  H55  1  0.87839272  0.75090402  0.36182506  1
  H  H56  1  0.71664573  0.75691889  0.93565939  1
  H  H57  1  0.33192583  0.51788557  0.45749726  1
  H  H58  1  0.93565939  0.71664572  0.75691889  1
  H  H59  1  0.01786695  0.64868341  0.23948104  1
  H  H60  1  0.75691889  0.93565939  0.71664573  1
  H  H61  1  0.54895648  0.32622024  0.61518971  1
  H  H62  1  0.04541048  0.86663549  0.19918244  1
  H  H63  1  0.36182506  0.87839272  0.75090402  1
  H  H64  1  0.37480032  0.32040977  0.05588025  1
  H  H65  1  0.06952174  0.20010323  0.44826460  1
  H  H66  1  0.55524209  0.92254308  0.19081454  1
  H  H67  1  0.09526819  0.32605094  0.56301083  1
  H  H68  1  0.32689884  0.12280553  0.04025307  1
  H  H69  1  0.01900220  0.41246431  0.19851404  1
  H  H70  1  0.90473181  0.67394906  0.43698917  1
  H  H71  1  0.10815701  0.88579521  0.65102347  1
  H  H72  1  0.54250274  0.66807417  0.48211443  1
  H  H73  1  0.12160728  0.24909598  0.63817494  1
  H  H74  1  0.88443101  0.05641508  0.52324376  1
  H  H75  1  0.05641508  0.52324376  0.88443101  1
  H  H76  1  0.80148596  0.98099780  0.58753569  1
  H  H77  1  0.98099780  0.58753569  0.80148596  1
  H  H78  1  0.47675624  0.11556899  0.94358492  1
  H  H79  1  0.04025307  0.32689884  0.12280553  1
  H  H80  1  0.95458952  0.13336451  0.80081756  1
  H  H81  1  0.58753569  0.80148596  0.98099780  1
  H  H82  1  0.06434061  0.28335428  0.24308111  1
  H  H83  1  0.19918244  0.04541048  0.86663549  1
  H  H84  1  0.65102347  0.10815701  0.88579521  1
  H  H85  1  0.38481029  0.45104352  0.67377976  1
  H  H86  1  0.89184299  0.11420479  0.34897653  1
  H  H87  1  0.67394906  0.43698917  0.90473181  1
  H  H88  1  0.92254308  0.19081454  0.55524209  1
  H  H89  1  0.41246431  0.19851404  0.01900220  1
  H  H90  1  0.67959023  0.94411975  0.62519968  1
  H  H91  1  0.19081454  0.55524209  0.92254308  1
  H  H92  1  0.94411975  0.62519968  0.67959023  1
  H  H93  1  0.87719447  0.95974693  0.67310116  1
  H  H94  1  0.63817494  0.12160728  0.24909598  1
  H  H95  1  0.11420479  0.34897653  0.89184299  1
  H  H96  1  0.48211443  0.54250274  0.66807417  1
  H  H97  1  0.05588025  0.37480032  0.32040977  1
  H  H98  1  0.64868341  0.23948104  0.01786695  1
  H  H99  1  0.44826460  0.06952174  0.20010323  1
  C  C100  1  0.72061158  0.46141816  0.55737101  1
  C  C101  1  0.44262899  0.27938842  0.53858184  1
  C  C102  1  0.48391731  0.88447755  0.09096079  1
  C  C103  1  0.84547797  0.00148162  0.67482114  1
  C  C104  1  0.53515947  0.98405520  0.79894646  1
  C  C105  1  0.99851838  0.32517886  0.15452203  1
  C  C106  1  0.00148162  0.67482114  0.84547797  1
  C  C107  1  0.11552245  0.90903921  0.51608269  1
  C  C108  1  0.27938842  0.53858184  0.44262899  1
  C  C109  1  0.09096079  0.48391731  0.88447755  1
  C  C110  1  0.67482114  0.84547797  0.00148162  1
  C  C111  1  0.46484053  0.01594480  0.20105354  1
  C  C112  1  0.51608269  0.11552245  0.90903921  1
  C  C113  1  0.01594480  0.20105354  0.46484053  1
  C  C114  1  0.53858184  0.44262899  0.27938842  1
  C  C115  1  0.46141816  0.55737101  0.72061158  1
  C  C116  1  0.98405520  0.79894646  0.53515947  1
  C  C117  1  0.79894646  0.53515947  0.98405520  1
  C  C118  1  0.90903921  0.51608269  0.11552245  1
  C  C119  1  0.15452203  0.99851838  0.32517886  1
  C  C120  1  0.88447755  0.09096079  0.48391731  1
  C  C121  1  0.55737101  0.72061158  0.46141816  1
  C  C122  1  0.20105354  0.46484053  0.01594480  1
  C  C123  1  0.32517886  0.15452203  0.99851838  1
  Br  Br124  1  0.73622188  0.88862580  0.82617404  1
  Br  Br125  1  0.05755060  0.59854531  0.42303414  1
  Br  Br126  1  0.27682138  0.63745572  0.68545213  1
  Br  Br127  1  0.19448087  0.21673914  0.80571169  1
  Br  Br128  1  0.88862580  0.82617404  0.73622188  1
  Br  Br129  1  0.94244940  0.40145469  0.57696586  1
  Br  Br130  1  0.21673914  0.80571169  0.19448087  1
  Br  Br131  1  0.40145469  0.57696586  0.94244940  1
  Br  Br132  1  0.57696586  0.94244940  0.40145469  1
  Br  Br133  1  0.82617404  0.73622188  0.88862580  1
  Br  Br134  1  0.80551913  0.78326086  0.19428831  1
  Br  Br135  1  0.78326086  0.19428831  0.80551913  1
  Br  Br136  1  0.17382596  0.26377812  0.11137420  1
  Br  Br137  1  0.11137420  0.17382596  0.26377812  1
  Br  Br138  1  0.80571169  0.19448087  0.21673914  1
  Br  Br139  1  0.59854531  0.42303414  0.05755060  1
  Br  Br140  1  0.31454787  0.72317862  0.36254428  1
  Br  Br141  1  0.68545213  0.27682138  0.63745572  1
  Br  Br142  1  0.72317862  0.36254428  0.31454787  1
  Br  Br143  1  0.42303414  0.05755060  0.59854531  1
  Br  Br144  1  0.19428831  0.80551913  0.78326086  1
  Br  Br145  1  0.63745572  0.68545213  0.27682138  1
  Br  Br146  1  0.26377812  0.11137420  0.17382596  1
  Br  Br147  1  0.36254428  0.31454787  0.72317862  1
  N  N148  1  0.09379529  0.37365201  0.28856857  1
  N  N149  1  0.99577905  0.85102445  0.48704837  1
  N  N150  1  0.37365201  0.28856857  0.09379529  1
  N  N151  1  0.51295163  0.00422095  0.14897555  1
  N  N152  1  0.00422095  0.14897555  0.51295163  1
  N  N153  1  0.14897555  0.51295163  0.00422095  1
  N  N154  1  0.71143143  0.90620471  0.62634799  1
  N  N155  1  0.28856857  0.09379529  0.37365201  1
  N  N156  1  0.90620471  0.62634799  0.71143143  1
  N  N157  1  0.62634799  0.71143143  0.90620471  1
  N  N158  1  0.85102445  0.48704837  0.99577905  1
  N  N159  1  0.48704837  0.99577905  0.85102445  1
