# generated using pymatgen
data_Ga2Os
_symmetry_space_group_name_H-M   'P 1'
_cell_length_a   4.78451852
_cell_length_b   4.80974472
_cell_length_c   5.00492509
_cell_angle_alpha   76.24697882
_cell_angle_beta   61.44636987
_cell_angle_gamma   60.17334590
_symmetry_Int_Tables_number   1
_chemical_formula_structural   Ga2Os
_chemical_formula_sum   'Ga4 Os2'
_cell_volume   87.76512561
_cell_formula_units_Z   2
loop_
 _symmetry_equiv_pos_site_id
 _symmetry_equiv_pos_as_xyz
  1  'x, y, z'
loop_
 _atom_site_type_symbol
 _atom_site_label
 _atom_site_symmetry_multiplicity
 _atom_site_fract_x
 _atom_site_fract_y
 _atom_site_fract_z
 _atom_site_occupancy
  Ga  Ga0  1  0.20676107  0.58647785  0.25000000  1
  Ga  Ga1  1  0.54323893  0.91352215  0.25000000  1
  Ga  Ga2  1  0.79323893  0.41352215  0.75000000  1
  Ga  Ga3  1  0.45676107  0.08647785  0.75000000  1
  Os  Os4  1  0.87500000  0.25000000  0.25000000  1
  Os  Os5  1  0.12500000  0.75000000  0.75000000  1
