# generated using pymatgen
data_Pu
_symmetry_space_group_name_H-M   'P 1'
_cell_length_a   3.58553525
_cell_length_b   3.32818912
_cell_length_c   3.98167664
_cell_angle_alpha   75.75665554
_cell_angle_beta   62.71978027
_cell_angle_gamma   57.48469997
_symmetry_Int_Tables_number   1
_chemical_formula_structural   Pu
_chemical_formula_sum   Pu2
_cell_volume   35.61027351
_cell_formula_units_Z   2
loop_
 _symmetry_equiv_pos_site_id
 _symmetry_equiv_pos_as_xyz
  1  'x, y, z'
loop_
 _atom_site_type_symbol
 _atom_site_label
 _atom_site_symmetry_multiplicity
 _atom_site_fract_x
 _atom_site_fract_y
 _atom_site_fract_z
 _atom_site_occupancy
  Pu  Pu0  1  0.75030026  0.49934947  0.49991752  1
  Pu  Pu1  1  0.99969974  0.00065053  0.00008248  1
