# generated using pymatgen
data_NiH14C3NCl3O2
_symmetry_space_group_name_H-M   'P 1'
_cell_length_a   7.22142919
_cell_length_b   8.28795738
_cell_length_c   16.91159169
_cell_angle_alpha   90.00002371
_cell_angle_beta   89.99999865
_cell_angle_gamma   90.00001272
_symmetry_Int_Tables_number   1
_chemical_formula_structural   NiH14C3NCl3O2
_chemical_formula_sum   'Ni4 H56 C12 N4 Cl12 O8'
_cell_volume   1012.17393825
_cell_formula_units_Z   4
loop_
 _symmetry_equiv_pos_site_id
 _symmetry_equiv_pos_as_xyz
  1  'x, y, z'
loop_
 _atom_site_type_symbol
 _atom_site_label
 _atom_site_symmetry_multiplicity
 _atom_site_fract_x
 _atom_site_fract_y
 _atom_site_fract_z
 _atom_site_occupancy
  Ni  Ni0  1  0.49997646  0.00001958  0.00000443  1
  Ni  Ni1  1  0.99997819  0.00000101  0.99999791  1
  Ni  Ni2  1  0.50004463  0.50002576  0.50000533  1
  Ni  Ni3  1  0.00000391  0.49999680  0.49999507  1
  H  H4  1  0.42676491  0.69872585  0.95857078  1
  H  H5  1  0.12570848  0.51492176  0.13458334  1
  H  H6  1  0.37429122  0.51492188  0.13458333  1
  H  H7  1  0.24999952  0.24969086  0.12860102  1
  H  H8  1  0.09811630  0.19272491  0.48370788  1
  H  H9  1  0.87429121  0.48507662  0.86541650  1
  H  H10  1  0.42274353  0.31366173  0.28447331  1
  H  H11  1  0.62570859  0.01492192  0.36541638  1
  H  H12  1  0.08659631  0.12344376  0.23288603  1
  H  H13  1  0.57725612  0.68633681  0.71552667  1
  H  H14  1  0.54057937  0.21216825  0.69091658  1
  H  H15  1  0.62570855  0.48507671  0.86541651  1
  H  H16  1  0.95942030  0.21216817  0.69091661  1
  H  H17  1  0.91340355  0.62344389  0.26711375  1
  H  H18  1  0.12570868  0.98507647  0.63458348  1
  H  H19  1  0.90188441  0.80727321  0.51629210  1
  H  H20  1  0.92676338  0.19872378  0.54142915  1
  H  H21  1  0.04057977  0.71216813  0.80908337  1
  H  H22  1  0.09811554  0.30727260  0.98370777  1
  H  H23  1  0.74999988  0.45175246  0.77483185  1
  H  H24  1  0.42274342  0.18633665  0.78447342  1
  H  H25  1  0.92274377  0.68633674  0.71552662  1
  H  H26  1  0.57323745  0.30127486  0.04142950  1
  H  H27  1  0.24999984  0.54824582  0.22516808  1
  H  H28  1  0.75000028  0.74969084  0.37139907  1
  H  H29  1  0.24999990  0.95175243  0.72516828  1
  H  H30  1  0.57725626  0.81366174  0.21552641  1
  H  H31  1  0.87429113  0.01492177  0.36541640  1
  H  H32  1  0.42676228  0.80127403  0.45857051  1
  H  H33  1  0.07725624  0.18633660  0.78447344  1
  H  H34  1  0.74999946  0.75030748  0.87139904  1
  H  H35  1  0.58659609  0.62344385  0.26711365  1
  H  H36  1  0.07323642  0.69872512  0.95857075  1
  H  H37  1  0.74999996  0.04824578  0.27483164  1
  H  H38  1  0.04057960  0.78782991  0.30908332  1
  H  H39  1  0.40188518  0.19272871  0.48370826  1
  H  H40  1  0.41340353  0.12344394  0.23288603  1
  H  H41  1  0.92274343  0.81366176  0.21552643  1
  H  H42  1  0.59811516  0.69272725  0.01629164  1
  H  H43  1  0.08659633  0.37655441  0.73288611  1
  H  H44  1  0.91340361  0.87655442  0.76711382  1
  H  H45  1  0.25000037  0.25030788  0.62860041  1
  H  H46  1  0.45942003  0.78783002  0.30908322  1
  H  H47  1  0.90188331  0.69272479  0.01629199  1
  H  H48  1  0.41340352  0.37655448  0.73288606  1
  H  H49  1  0.92676374  0.30127439  0.04142941  1
  H  H50  1  0.45942013  0.71216823  0.80908342  1
  H  H51  1  0.07725642  0.31366168  0.28447328  1
  H  H52  1  0.95942018  0.28782996  0.19091644  1
  H  H53  1  0.40188268  0.30727476  0.98370752  1
  H  H54  1  0.37429106  0.98507667  0.63458349  1
  H  H55  1  0.57323452  0.19872433  0.54142913  1
  H  H56  1  0.54057971  0.28783018  0.19091646  1
  H  H57  1  0.58659622  0.87655442  0.76711387  1
  H  H58  1  0.07323600  0.80127362  0.45857057  1
  H  H59  1  0.59811747  0.80727678  0.51629233  1
  C  C60  1  0.07997687  0.25442246  0.22642167  1
  C  C61  1  0.57997674  0.75442228  0.27357828  1
  C  C62  1  0.24999987  0.01560273  0.66830089  1
  C  C63  1  0.42002282  0.24557608  0.72642140  1
  C  C64  1  0.92002289  0.74557567  0.77357823  1
  C  C65  1  0.57997691  0.74557574  0.77357829  1
  C  C66  1  0.74999978  0.98439557  0.33169894  1
  C  C67  1  0.74999991  0.51560262  0.83169885  1
  C  C68  1  0.42002298  0.25442263  0.22642166  1
  C  C69  1  0.24999989  0.48439586  0.16830101  1
  C  C70  1  0.92002300  0.75442225  0.27357835  1
  C  C71  1  0.07997695  0.24557605  0.72642143  1
  N  N72  1  0.24999991  0.30701824  0.18356188  1
  N  N73  1  0.24999993  0.19297978  0.68356227  1
  N  N74  1  0.74999986  0.69298018  0.81643810  1
  N  N75  1  0.74999985  0.80701855  0.31643755  1
  Cl  Cl76  1  0.74999970  0.50219898  0.08491267  1
  Cl  Cl77  1  0.75000583  0.50718445  0.59485489  1
  Cl  Cl78  1  0.25000150  0.56793218  0.59350779  1
  Cl  Cl79  1  0.24999777  0.93206685  0.09350817  1
  Cl  Cl80  1  0.75000239  0.43206633  0.40649060  1
  Cl  Cl81  1  0.25000463  0.49281611  0.40514758  1
  Cl  Cl82  1  0.24999740  0.00718415  0.90514694  1
  Cl  Cl83  1  0.74999755  0.06793201  0.90649153  1
  Cl  Cl84  1  0.25000002  0.00219816  0.41508762  1
  Cl  Cl85  1  0.75000000  0.99779803  0.58491244  1
  Cl  Cl86  1  0.74999688  0.99281644  0.09485421  1
  Cl  Cl87  1  0.25000003  0.49779816  0.91508736  1
  O  O88  1  0.45896586  0.24281352  0.02669439  1
  O  O89  1  0.45897130  0.25719484  0.52669358  1
  O  O90  1  0.54103591  0.74281461  0.47330590  1
  O  O91  1  0.04103166  0.25718896  0.52669362  1
  O  O92  1  0.95896695  0.75718886  0.97330627  1
  O  O93  1  0.04103073  0.24280846  0.02669380  1
  O  O94  1  0.54103046  0.75719428  0.97330673  1
  O  O95  1  0.95896771  0.74280873  0.47330594  1
