# generated using pymatgen
data_Zr2Cu
_symmetry_space_group_name_H-M   'P 1'
_cell_length_a   8.70384696
_cell_length_b   8.70384642
_cell_length_c   8.70384607
_cell_angle_alpha   59.99999748
_cell_angle_beta   59.99999953
_cell_angle_gamma   59.99999546
_symmetry_Int_Tables_number   1
_chemical_formula_structural   Zr2Cu
_chemical_formula_sum   'Zr16 Cu8'
_cell_volume   466.24978491
_cell_formula_units_Z   8
loop_
 _symmetry_equiv_pos_site_id
 _symmetry_equiv_pos_as_xyz
  1  'x, y, z'
loop_
 _atom_site_type_symbol
 _atom_site_label
 _atom_site_symmetry_multiplicity
 _atom_site_fract_x
 _atom_site_fract_y
 _atom_site_fract_z
 _atom_site_occupancy
  Zr  Zr0  1  0.93987091  0.93987091  0.31012909  1
  Zr  Zr1  1  0.93987091  0.31012909  0.31012909  1
  Zr  Zr2  1  0.68987091  0.68987091  0.06012909  1
  Zr  Zr3  1  0.68987091  0.06012909  0.68987091  1
  Zr  Zr4  1  0.06012909  0.06012909  0.68987091  1
  Zr  Zr5  1  0.93987091  0.31012909  0.93987091  1
  Zr  Zr6  1  0.31012909  0.31012909  0.93987091  1
  Zr  Zr7  1  0.50000000  0.50000000  0.50000000  1
  Zr  Zr8  1  0.31012909  0.93987091  0.31012909  1
  Zr  Zr9  1  0.06012909  0.68987091  0.68987091  1
  Zr  Zr10  1  0.31012909  0.93987091  0.93987091  1
  Zr  Zr11  1  0.68987091  0.06012909  0.06012909  1
  Zr  Zr12  1  0.06012909  0.68987091  0.06012909  1
  Zr  Zr13  1  0.00000000  0.50000000  0.50000000  1
  Zr  Zr14  1  0.50000000  0.00000000  0.50000000  1
  Zr  Zr15  1  0.50000000  0.50000000  0.00000000  1
  Cu  Cu16  1  0.70876872  0.70876872  0.37369383  1
  Cu  Cu17  1  0.37369383  0.70876872  0.70876872  1
  Cu  Cu18  1  0.29123128  0.29123128  0.29123128  1
  Cu  Cu19  1  0.29123128  0.29123128  0.62630617  1
  Cu  Cu20  1  0.62630617  0.29123128  0.29123128  1
  Cu  Cu21  1  0.29123128  0.62630617  0.29123128  1
  Cu  Cu22  1  0.70876872  0.37369383  0.70876872  1
  Cu  Cu23  1  0.70876872  0.70876872  0.70876872  1
