# generated using pymatgen
data_YH3(CO2)3
_symmetry_space_group_name_H-M   'P 1'
_cell_length_a   6.20746691
_cell_length_b   6.20746691
_cell_length_c   6.20746691
_cell_angle_alpha   115.52885657
_cell_angle_beta   115.52885663
_cell_angle_gamma   115.52885667
_symmetry_Int_Tables_number   1
_chemical_formula_structural   YH3(CO2)3
_chemical_formula_sum   'Y1 H3 C3 O6'
_cell_volume   127.18038717
_cell_formula_units_Z   1
loop_
 _symmetry_equiv_pos_site_id
 _symmetry_equiv_pos_as_xyz
  1  'x, y, z'
loop_
 _atom_site_type_symbol
 _atom_site_label
 _atom_site_symmetry_multiplicity
 _atom_site_fract_x
 _atom_site_fract_y
 _atom_site_fract_z
 _atom_site_occupancy
  H  H0  1  0.36690559  0.36690559  0.85078656  1
  H  H1  1  0.36690559  0.85078656  0.36690559  1
  H  H2  1  0.85078656  0.36690559  0.36690559  1
  C  C3  1  0.15048121  0.61173765  0.61173765  1
  C  C4  1  0.61173765  0.15048121  0.61173765  1
  C  C5  1  0.61173765  0.61173765  0.15048121  1
  O  O6  1  0.33957795  0.59214009  0.59214009  1
  O  O7  1  0.88910377  0.28427653  0.88910377  1
  O  O8  1  0.88910377  0.88910377  0.28427653  1
  O  O9  1  0.28427653  0.88910377  0.88910377  1
  O  O10  1  0.59214009  0.33957795  0.59214009  1
  O  O11  1  0.59214009  0.59214009  0.33957795  1
  Y  Y12  1  0.00080353  0.00080353  0.00080353  1
