# generated using pymatgen
data_UMoO5
_symmetry_space_group_name_H-M   'P 1'
_cell_length_a   4.13291120
_cell_length_b   7.47103693
_cell_length_c   13.01502025
_cell_angle_alpha   90.00000000
_cell_angle_beta   90.00000000
_cell_angle_gamma   90.00000000
_symmetry_Int_Tables_number   1
_chemical_formula_structural   UMoO5
_chemical_formula_sum   'U4 Mo4 O20'
_cell_volume   401.86650089
_cell_formula_units_Z   4
loop_
 _symmetry_equiv_pos_site_id
 _symmetry_equiv_pos_as_xyz
  1  'x, y, z'
loop_
 _atom_site_type_symbol
 _atom_site_label
 _atom_site_symmetry_multiplicity
 _atom_site_fract_x
 _atom_site_fract_y
 _atom_site_fract_z
 _atom_site_occupancy
  U  U0  1  -0.00000000  0.75000000  0.02074482  1
  U  U1  1  -0.00000000  0.25000000  0.97925518  1
  U  U2  1  -0.00000000  0.75000000  0.52074482  1
  U  U3  1  -0.00000000  0.25000000  0.47925518  1
  Mo  Mo4  1  0.08915314  0.50000000  0.25000000  1
  Mo  Mo5  1  0.91084686  0.50000000  0.75000000  1
  Mo  Mo6  1  0.08915314  -0.00000000  0.75000000  1
  Mo  Mo7  1  0.91084686  -0.00000000  0.25000000  1
  O  O8  1  0.00716639  0.95376188  0.90147420  1
  O  O9  1  0.00716639  0.54623812  0.40147420  1
  O  O10  1  0.00716639  0.45376188  0.09852580  1
  O  O11  1  0.48876358  0.50000000  0.75000000  1
  O  O12  1  0.50000000  0.75000000  0.02583765  1
  O  O13  1  0.51123642  -0.00000000  0.75000000  1
  O  O14  1  0.99283361  0.04623812  0.09852580  1
  O  O15  1  0.00716639  0.04623812  0.59852580  1
  O  O16  1  -0.00000000  0.25000000  0.79794309  1
  O  O17  1  0.99283361  0.45376188  0.59852580  1
  O  O18  1  0.99283361  0.54623812  0.90147420  1
  O  O19  1  0.50000000  0.25000000  0.97416235  1
  O  O20  1  -0.00000000  0.75000000  0.70205691  1
  O  O21  1  0.51123642  0.50000000  0.25000000  1
  O  O22  1  -0.00000000  0.75000000  0.20205691  1
  O  O23  1  0.50000000  0.75000000  0.52583765  1
  O  O24  1  0.50000000  0.25000000  0.47416235  1
  O  O25  1  0.99283361  0.95376188  0.40147420  1
  O  O26  1  0.48876358  -0.00000000  0.25000000  1
  O  O27  1  -0.00000000  0.25000000  0.29794309  1
