# generated using pymatgen
data_Sb4Pb4S11
_symmetry_space_group_name_H-M   'P 1'
_cell_length_a   3.95029671
_cell_length_b   15.65856366
_cell_length_c   15.86992236
_cell_angle_alpha   90.00000000
_cell_angle_beta   90.00000000
_cell_angle_gamma   90.00000000
_symmetry_Int_Tables_number   1
_chemical_formula_structural   Sb4Pb4S11
_chemical_formula_sum   'Sb8 Pb8 S22'
_cell_volume   981.64948123
_cell_formula_units_Z   2
loop_
 _symmetry_equiv_pos_site_id
 _symmetry_equiv_pos_as_xyz
  1  'x, y, z'
loop_
 _atom_site_type_symbol
 _atom_site_label
 _atom_site_symmetry_multiplicity
 _atom_site_fract_x
 _atom_site_fract_y
 _atom_site_fract_z
 _atom_site_occupancy
  Sb  Sb0  1  0.50000000  0.86732793  0.48649144  1
  Sb  Sb1  1  0.50000000  0.00380514  0.27303767  1
  Sb  Sb2  1  0.50000000  0.99619486  0.72696233  1
  Sb  Sb3  1  0.50000000  0.63267207  0.98649144  1
  Sb  Sb4  1  0.50000000  0.49619486  0.77303767  1
  Sb  Sb5  1  0.50000000  0.50380514  0.22696233  1
  Sb  Sb6  1  0.50000000  0.13267207  0.51350856  1
  Sb  Sb7  1  0.50000000  0.36732793  0.01350856  1
  Pb  Pb8  1  0.00000000  0.26218567  0.81648036  1
  Pb  Pb9  1  0.00000000  0.73781433  0.18351964  1
  Pb  Pb10  1  0.00000000  0.23781433  0.31648036  1
  Pb  Pb11  1  0.00000000  0.88524164  0.93523969  1
  Pb  Pb12  1  0.00000000  0.61475836  0.43523969  1
  Pb  Pb13  1  0.00000000  0.38524164  0.56476031  1
  Pb  Pb14  1  0.00000000  0.11475836  0.06476031  1
  Pb  Pb15  1  0.00000000  0.76218567  0.68351964  1
  S  S16  1  0.00000000  0.45460759  0.32376903  1
  S  S17  1  0.00000000  0.42590571  0.89560452  1
  S  S18  1  0.00000000  0.07409429  0.39560452  1
  S  S19  1  0.50000000  0.35322397  0.70752606  1
  S  S20  1  0.50000000  0.14677603  0.20752606  1
  S  S21  1  0.00000000  0.57409429  0.10439548  1
  S  S22  1  0.50000000  0.85322397  0.79247394  1
  S  S23  1  0.50000000  0.27466086  0.44813678  1
  S  S24  1  0.00000000  0.33037365  0.11499187  1
  S  S25  1  0.00000000  0.66962635  0.88500813  1
  S  S26  1  0.50000000  0.77466086  0.05186322  1
  S  S27  1  0.00000000  0.54539241  0.67623097  1
  S  S28  1  0.50000000  0.50000000  0.50000000  1
  S  S29  1  0.50000000  0.72533914  0.55186322  1
  S  S30  1  0.50000000  0.22533914  0.94813678  1
  S  S31  1  0.50000000  0.64677603  0.29247394  1
  S  S32  1  0.00000000  0.83037365  0.38500813  1
  S  S33  1  0.00000000  0.04539241  0.82376903  1
  S  S34  1  0.00000000  0.16962635  0.61499187  1
  S  S35  1  0.50000000  0.00000000  0.00000000  1
  S  S36  1  0.00000000  0.95460759  0.17623097  1
  S  S37  1  0.00000000  0.92590571  0.60439548  1
