# generated using pymatgen
data_NaHO
_symmetry_space_group_name_H-M   'P 1'
_cell_length_a   5.98756279
_cell_length_b   3.38566943
_cell_length_c   5.98756279
_cell_angle_alpha   99.76779767
_cell_angle_beta   34.86405674
_cell_angle_gamma   99.76779767
_symmetry_Int_Tables_number   1
_chemical_formula_structural   NaHO
_chemical_formula_sum   'Na2 H2 O2'
_cell_volume   68.27840995
_cell_formula_units_Z   2
loop_
 _symmetry_equiv_pos_site_id
 _symmetry_equiv_pos_as_xyz
  1  'x, y, z'
loop_
 _atom_site_type_symbol
 _atom_site_label
 _atom_site_symmetry_multiplicity
 _atom_site_fract_x
 _atom_site_fract_y
 _atom_site_fract_z
 _atom_site_occupancy
  Na  Na0  1  0.36014868  0.25416162  0.36014868  1
  Na  Na1  1  0.65086514  0.80853255  0.65086514  1
  H  H2  1  0.18454968  0.47310363  0.18454968  1
  H  H3  1  0.94369456  0.87844935  0.94369456  1
  O  O4  1  0.13276713  0.21325147  0.13276713  1
  O  O5  1  0.85946981  0.75005437  0.85946981  1
