# generated using pymatgen
data_PH9C(NO)4
_symmetry_space_group_name_H-M   'P 1'
_cell_length_a   6.90477302
_cell_length_b   7.56027134
_cell_length_c   14.33597177
_cell_angle_alpha   87.00279172
_cell_angle_beta   80.67463433
_cell_angle_gamma   81.03864205
_symmetry_Int_Tables_number   1
_chemical_formula_structural   PH9C(NO)4
_chemical_formula_sum   'P4 H36 C4 N16 O16'
_cell_volume   729.18046481
_cell_formula_units_Z   4
loop_
 _symmetry_equiv_pos_site_id
 _symmetry_equiv_pos_as_xyz
  1  'x, y, z'
loop_
 _atom_site_type_symbol
 _atom_site_label
 _atom_site_symmetry_multiplicity
 _atom_site_fract_x
 _atom_site_fract_y
 _atom_site_fract_z
 _atom_site_occupancy
  P  P0  1  0.68832928  0.01630448  0.86909759  1
  P  P1  1  0.28005586  0.00011154  0.62139285  1
  P  P2  1  0.31167072  0.98369552  0.13090241  1
  P  P3  1  0.71994414  0.99988846  0.37860715  1
  H  H4  1  0.56031433  0.15590923  0.50196600  1
  H  H5  1  0.93334995  0.27467065  0.63717436  1
  H  H6  1  0.43968567  0.84409077  0.49803400  1
  H  H7  1  0.06312892  0.73110842  0.85945385  1
  H  H8  1  0.29749417  0.28218586  0.85485047  1
  H  H9  1  0.46852695  0.98988281  0.73711158  1
  H  H10  1  0.08594043  0.17925755  0.37723462  1
  H  H11  1  0.02683990  0.99788025  0.23782451  1
  H  H12  1  0.60943305  0.37891883  0.22336073  1
  H  H13  1  0.30554284  0.27711080  0.35640266  1
  H  H14  1  0.39620935  0.64239255  0.28690580  1
  H  H15  1  0.77251862  0.38237488  0.90650629  1
  H  H16  1  0.06665005  0.72532935  0.36282564  1
  H  H17  1  0.59977428  0.36429757  0.59850892  1
  H  H18  1  0.40249577  0.65484992  0.88802158  1
  H  H19  1  0.22989397  0.38214816  0.10091750  1
  H  H20  1  0.91405957  0.82074245  0.62276538  1
  H  H21  1  0.60379065  0.35760745  0.71309420  1
  H  H22  1  0.78205429  0.37152149  0.40364011  1
  H  H23  1  0.22380997  0.39367736  0.60369693  1
  H  H24  1  0.92413596  0.81108993  0.12024006  1
  H  H25  1  0.55866811  0.15608776  0.00206575  1
  H  H26  1  0.77619003  0.60632264  0.39630307  1
  H  H27  1  0.22748138  0.61762512  0.09349371  1
  H  H28  1  0.53147305  0.01011719  0.26288842  1
  H  H29  1  0.21794571  0.62847851  0.59635989  1
  H  H30  1  0.07586404  0.18891007  0.87975994  1
  H  H31  1  0.39056695  0.62108117  0.77663927  1
  H  H32  1  0.77010603  0.61785184  0.89908250  1
  H  H33  1  0.93687108  0.26889158  0.14054615  1
  H  H34  1  0.59750423  0.34515008  0.11197842  1
  H  H35  1  0.44133189  0.84391224  0.99793425  1
  H  H36  1  0.97316010  0.00211975  0.76217549  1
  H  H37  1  0.70250583  0.71781414  0.14514953  1
  H  H38  1  0.40022572  0.63570243  0.40149108  1
  H  H39  1  0.69445716  0.72288920  0.64359734  1
  C  C40  1  0.04349798  0.46266403  0.87537061  1
  C  C41  1  0.94925513  0.54556137  0.62731767  1
  C  C42  1  0.95650202  0.53733597  0.12462939  1
  C  C43  1  0.05074487  0.45443863  0.37268233  1
  N  N44  1  0.85904327  0.39478906  0.13403570  1
  N  N45  1  0.65162812  0.42236435  0.15527174  1
  N  N46  1  0.14717077  0.29761358  0.87263129  1
  N  N47  1  0.15500991  0.28984503  0.36960089  1
  N  N48  1  0.84499009  0.71015497  0.63039911  1
  N  N49  1  0.85174059  0.47941472  0.38150785  1
  N  N50  1  0.14825941  0.52058528  0.61849215  1
  N  N51  1  0.14502274  0.59807341  0.36645356  1
  N  N52  1  0.64685720  0.42523479  0.65102149  1
  N  N53  1  0.85282923  0.70238642  0.12736871  1
  N  N54  1  0.35314280  0.57476521  0.34897851  1
  N  N55  1  0.85497726  0.40192659  0.63354644  1
  N  N56  1  0.15486441  0.51026176  0.11278876  1
  N  N57  1  0.34837188  0.57763565  0.84472826  1
  N  N58  1  0.84513559  0.48973824  0.88721124  1
  N  N59  1  0.14095673  0.60521094  0.86596430  1
  O  O60  1  0.37876557  0.15521074  0.08482813  1
  O  O61  1  0.59767271  0.09303393  0.29952988  1
  O  O62  1  0.63531318  0.83479177  0.42239241  1
  O  O63  1  0.92284110  0.97973773  0.83371263  1
  O  O64  1  0.62123443  0.84478926  0.91517187  1
  O  O65  1  0.57741094  0.10194382  0.79075394  1
  O  O66  1  0.36468682  0.16520823  0.57760759  1
  O  O67  1  0.67829092  0.15924973  0.94947131  1
  O  O68  1  0.94217868  0.96847268  0.33999140  1
  O  O69  1  0.40232729  0.90696607  0.70047012  1
  O  O70  1  0.32170908  0.84075027  0.05052869  1
  O  O71  1  0.69033913  0.15256908  0.45530807  1
  O  O72  1  0.07715890  0.02026227  0.16628737  1
  O  O73  1  0.05782132  0.03152732  0.66000860  1
  O  O74  1  0.42258906  0.89805618  0.20924606  1
  O  O75  1  0.30966087  0.84743092  0.54469193  1
