# generated using pymatgen
data_InH36C12S6(IO2)3
_symmetry_space_group_name_H-M   'P 1'
_cell_length_a   10.00923771
_cell_length_b   10.00923770
_cell_length_c   10.00923770
_cell_angle_alpha   69.95421159
_cell_angle_beta   69.95421158
_cell_angle_gamma   69.95421159
_symmetry_Int_Tables_number   1
_chemical_formula_structural   InH36C12S6(IO2)3
_chemical_formula_sum   'In1 H36 C12 S6 I3 O6'
_cell_volume   855.63692510
_cell_formula_units_Z   1
loop_
 _symmetry_equiv_pos_site_id
 _symmetry_equiv_pos_as_xyz
  1  'x, y, z'
loop_
 _atom_site_type_symbol
 _atom_site_label
 _atom_site_symmetry_multiplicity
 _atom_site_fract_x
 _atom_site_fract_y
 _atom_site_fract_z
 _atom_site_occupancy
  H  H0  1  0.52712259  0.23607653  0.75451318  1
  H  H1  1  0.23607653  0.75451318  0.52712259  1
  H  H2  1  0.75451318  0.52712259  0.23607653  1
  H  H3  1  0.47287741  0.76392347  0.24548682  1
  H  H4  1  0.76392347  0.24548682  0.47287741  1
  H  H5  1  0.24548682  0.47287741  0.76392347  1
  H  H6  1  0.48369319  0.15357999  0.95159689  1
  H  H7  1  0.15357999  0.95159689  0.48369319  1
  H  H8  1  0.95159689  0.48369319  0.15357999  1
  H  H9  1  0.51630681  0.84642001  0.04840311  1
  H  H10  1  0.84642001  0.04840311  0.51630681  1
  H  H11  1  0.04840311  0.51630681  0.84642001  1
  H  H12  1  0.60613567  0.04220112  0.82360481  1
  H  H13  1  0.04220112  0.82360481  0.60613567  1
  H  H14  1  0.82360481  0.60613567  0.04220112  1
  H  H15  1  0.65690257  0.99235831  0.45513572  1
  H  H16  1  0.39386433  0.95779888  0.17639519  1
  H  H17  1  0.17639519  0.39386433  0.95779888  1
  H  H18  1  0.54486428  0.34309743  0.00764169  1
  H  H19  1  0.34309743  0.00764169  0.54486428  1
  H  H20  1  0.00764169  0.54486428  0.34309743  1
  H  H21  1  0.45513572  0.65690257  0.99235831  1
  H  H22  1  0.07716216  0.28344667  0.60024363  1
  H  H23  1  0.60024363  0.07716216  0.28344667  1
  H  H24  1  0.28344667  0.60024363  0.07716216  1
  H  H25  1  0.92283784  0.71655333  0.39975637  1
  H  H26  1  0.39975637  0.92283784  0.71655333  1
  H  H27  1  0.71655333  0.39975637  0.92283784  1
  H  H28  1  0.18487845  0.41075652  0.55646605  1
  H  H29  1  0.55646605  0.18487845  0.41075652  1
  H  H30  1  0.41075652  0.55646605  0.18487845  1
  H  H31  1  0.81512155  0.58924348  0.44353395  1
  H  H32  1  0.44353395  0.81512155  0.58924348  1
  H  H33  1  0.58924348  0.44353395  0.81512155  1
  H  H34  1  0.99235831  0.45513572  0.65690257  1
  H  H35  1  0.95779888  0.17639519  0.39386433  1
  C  C36  1  0.63311614  0.36295801  0.90680648  1
  C  C37  1  0.36295801  0.90680648  0.63311614  1
  C  C38  1  0.90680648  0.63311614  0.36295801  1
  C  C39  1  0.36688386  0.63704199  0.09319352  1
  C  C40  1  0.15345770  0.43249392  0.84887392  1
  C  C41  1  0.84887392  0.15345770  0.43249392  1
  C  C42  1  0.43249392  0.84887392  0.15345770  1
  C  C43  1  0.84654230  0.56750608  0.15112608  1
  C  C44  1  0.09319352  0.36688386  0.63704199  1
  C  C45  1  0.56750608  0.15112608  0.84654230  1
  C  C46  1  0.63704199  0.09319352  0.36688386  1
  C  C47  1  0.15112608  0.84654230  0.56750608  1
  O  O48  1  0.76954696  0.08116145  0.99050109  1
  O  O49  1  0.08116145  0.99050109  0.76954696  1
  O  O50  1  0.00949891  0.23045304  0.91883855  1
  O  O51  1  0.23045304  0.91883855  0.00949891  1
  O  O52  1  0.91883855  0.00949891  0.23045304  1
  O  O53  1  0.99050109  0.76954696  0.08116145  1
  S  S54  1  0.72391922  0.19508688  0.85153242  1
  S  S55  1  0.19508688  0.85153242  0.72391922  1
  S  S56  1  0.85153242  0.72391922  0.19508688  1
  S  S57  1  0.27608078  0.80491312  0.14846758  1
  S  S58  1  0.80491312  0.14846758  0.27608078  1
  S  S59  1  0.14846758  0.27608078  0.80491312  1
  In  In60  1  0.00000000  0.00000000  0.00000000  1
  I  I61  1  0.50000000  0.50000000  0.50000000  1
  I  I62  1  0.24685844  0.24685844  0.24685844  1
  I  I63  1  0.75314156  0.75314156  0.75314156  1
