# generated using pymatgen
data_Ti3H2O7
_symmetry_space_group_name_H-M   'P 1'
_cell_length_a   8.46296814
_cell_length_b   8.46296814
_cell_length_c   9.28372403
_cell_angle_alpha   77.45117090
_cell_angle_beta   102.54882910
_cell_angle_gamma   154.12511929
_symmetry_Int_Tables_number   1
_chemical_formula_structural   Ti3H2O7
_chemical_formula_sum   'Ti6 H4 O14'
_cell_volume   282.87236010
_cell_formula_units_Z   2
loop_
 _symmetry_equiv_pos_site_id
 _symmetry_equiv_pos_as_xyz
  1  'x, y, z'
loop_
 _atom_site_type_symbol
 _atom_site_label
 _atom_site_symmetry_multiplicity
 _atom_site_fract_x
 _atom_site_fract_y
 _atom_site_fract_z
 _atom_site_occupancy
  Ti  Ti0  1  0.77845989  0.22154011  0.77810146  1
  Ti  Ti1  1  0.23068412  0.76931588  0.21059555  1
  Ti  Ti2  1  0.82902303  0.17097697  0.47017318  1
  Ti  Ti3  1  0.17365099  0.82634901  0.52741483  1
  Ti  Ti4  1  0.88225792  0.11774208  0.17526746  1
  Ti  Ti5  1  0.10449379  0.89550621  0.81755008  1
  H  H6  1  0.93415061  0.06584939  0.75827969  1
  H  H7  1  0.07409850  0.92590150  0.25023289  1
  H  H8  1  0.99651060  0.00348940  0.03657010  1
  H  H9  1  0.67762062  0.32237938  0.94626180  1
  O  O10  1  0.82763081  0.17236919  0.96544506  1
  O  O11  1  0.17055456  0.82944544  0.02874858  1
  O  O12  1  0.87048627  0.12951373  0.68387240  1
  O  O13  1  0.13414142  0.86585858  0.31380369  1
  O  O14  1  0.91608509  0.08391491  0.39050856  1
  O  O15  1  0.08463401  0.91536599  0.61010749  1
  O  O16  1  0.98835882  0.01164118  0.14110052  1
  O  O17  1  0.00621912  0.99378088  0.85321944  1
  O  O18  1  0.65183722  0.34816278  0.83924058  1
  O  O19  1  0.34751028  0.65248972  0.17788131  1
  O  O20  1  0.70630417  0.29369583  0.54845297  1
  O  O21  1  0.29279632  0.70720368  0.45242178  1
  O  O22  1  0.75678341  0.24321659  0.24991434  1
  O  O23  1  0.24609743  0.75390257  0.74280127  1
