# generated using pymatgen
data_K3Co(CN)6
_symmetry_space_group_name_H-M   'P 1'
_cell_length_a   7.14759422
_cell_length_b   8.43398467
_cell_length_c   10.48832283
_cell_angle_alpha   90.00000000
_cell_angle_beta   90.00000000
_cell_angle_gamma   107.39479187
_symmetry_Int_Tables_number   1
_chemical_formula_structural   K3Co(CN)6
_chemical_formula_sum   'K6 Co2 C12 N12'
_cell_volume   603.34939151
_cell_formula_units_Z   2
loop_
 _symmetry_equiv_pos_site_id
 _symmetry_equiv_pos_as_xyz
  1  'x, y, z'
loop_
 _atom_site_type_symbol
 _atom_site_label
 _atom_site_symmetry_multiplicity
 _atom_site_fract_x
 _atom_site_fract_y
 _atom_site_fract_z
 _atom_site_occupancy
  C  C0  1  0.88072077  0.97410622  0.66091649  1
  C  C1  1  0.88072077  0.47410622  0.83908351  1
  C  C2  1  0.11927923  0.02589378  0.33908351  1
  C  C3  1  0.11927923  0.52589378  0.16091649  1
  C  C4  1  0.17620173  0.38799012  0.94353032  1
  C  C5  1  0.82379827  0.11200988  0.44353032  1
  C  C6  1  0.82379827  0.61200988  0.05646968  1
  C  C7  1  0.17620173  0.88799012  0.55646968  1
  C  C8  1  0.82062028  0.79716322  0.45038194  1
  C  C9  1  0.17937972  0.70283678  0.95038194  1
  C  C10  1  0.17937972  0.20283678  0.54961806  1
  C  C11  1  0.82062028  0.29716322  0.04961806  1
  N  N12  1  0.28422876  0.81582352  0.59155253  1
  N  N13  1  0.71577124  0.68417648  0.09155253  1
  N  N14  1  0.71577124  0.18417648  0.40844747  1
  N  N15  1  0.28422876  0.31582352  0.90844747  1
  N  N16  1  0.80088905  0.45478202  0.73964820  1
  N  N17  1  0.80088905  0.95478202  0.76035180  1
  N  N18  1  0.19911095  0.54521798  0.26035180  1
  N  N19  1  0.19911095  0.04521798  0.23964820  1
  N  N20  1  0.70947466  0.66857129  0.42150254  1
  N  N21  1  0.29052534  0.83142871  0.92150254  1
  N  N22  1  0.29052534  0.33142871  0.57849746  1
  N  N23  1  0.70947466  0.16857129  0.07849746  1
  K  K24  1  0.49820578  0.87545811  0.22020740  1
  K  K25  1  0.50179422  0.62454189  0.72020740  1
  K  K26  1  0.00000000  0.50000000  0.50000000  1
  K  K27  1  0.00000000  0.00000000  0.00000000  1
  K  K28  1  0.49820578  0.37545811  0.27979260  1
  K  K29  1  0.50179422  0.12454189  0.77979260  1
  Co  Co30  1  0.00000000  0.00000000  0.50000000  1
  Co  Co31  1  0.00000000  0.50000000  0.00000000  1
