# generated using pymatgen
data_V3(HO4)2
_symmetry_space_group_name_H-M   'P 1'
_cell_length_a   17.02714974
_cell_length_b   9.34771016
_cell_length_c   3.72412464
_cell_angle_alpha   90.00000000
_cell_angle_beta   91.49346211
_cell_angle_gamma   90.00000000
_symmetry_Int_Tables_number   1
_chemical_formula_structural   V3(HO4)2
_chemical_formula_sum   'V12 H8 O32'
_cell_volume   592.54842566
_cell_formula_units_Z   4
loop_
 _symmetry_equiv_pos_site_id
 _symmetry_equiv_pos_as_xyz
  1  'x, y, z'
loop_
 _atom_site_type_symbol
 _atom_site_label
 _atom_site_symmetry_multiplicity
 _atom_site_fract_x
 _atom_site_fract_y
 _atom_site_fract_z
 _atom_site_occupancy
  V  V0  1  0.54748927  0.37677373  0.25147306  1
  V  V1  1  0.04748927  0.12322627  0.25147306  1
  V  V2  1  0.45251073  0.62322627  0.74852694  1
  V  V3  1  0.95251073  0.87677373  0.74852694  1
  V  V4  1  0.34501611  0.44136240  0.22791528  1
  V  V5  1  0.84501611  0.05863760  0.22791528  1
  V  V6  1  0.65498389  0.55863760  0.77208472  1
  V  V7  1  0.15498389  0.94136240  0.77208472  1
  V  V8  1  0.95003030  0.40693581  0.24979089  1
  V  V9  1  0.45003030  0.09306419  0.24979089  1
  V  V10  1  0.04996970  0.59306419  0.75020911  1
  V  V11  1  0.54996970  0.90693581  0.75020911  1
  H  H12  1  0.25274891  0.22151450  0.01560342  1
  H  H13  1  0.75274891  0.27848550  0.01560342  1
  H  H14  1  0.74725109  0.77848550  0.98439658  1
  H  H15  1  0.24725109  0.72151450  0.98439658  1
  H  H16  1  0.25295056  0.61977605  0.44521038  1
  H  H17  1  0.75295056  0.88022395  0.44521038  1
  H  H18  1  0.74704944  0.38022395  0.55478962  1
  H  H19  1  0.24704944  0.11977605  0.55478962  1
  O  O20  1  0.45635957  0.57060466  0.24393362  1
  O  O21  1  0.95635957  0.92939534  0.24393362  1
  O  O22  1  0.54364043  0.42939534  0.75606638  1
  O  O23  1  0.04364043  0.07060466  0.75606638  1
  O  O24  1  0.59486867  0.22630708  0.25703571  1
  O  O25  1  0.09486867  0.27369292  0.25703571  1
  O  O26  1  0.40513133  0.77369292  0.74296429  1
  O  O27  1  0.90513133  0.72630708  0.74296429  1
  O  O28  1  0.62789190  0.52041337  0.26973974  1
  O  O29  1  0.12789190  0.97958663  0.26973974  1
  O  O30  1  0.37210810  0.47958663  0.73026026  1
  O  O31  1  0.87210810  0.02041337  0.73026026  1
  O  O32  1  0.44376405  0.29055426  0.24770881  1
  O  O33  1  0.94376405  0.20944574  0.24770881  1
  O  O34  1  0.55623595  0.70944574  0.75229119  1
  O  O35  1  0.05623595  0.79055426  0.75229119  1
  O  O36  1  0.27973290  0.30092860  0.18174166  1
  O  O37  1  0.77973290  0.19907140  0.18174166  1
  O  O38  1  0.72026710  0.69907140  0.81825834  1
  O  O39  1  0.22026710  0.80092860  0.81825834  1
  O  O40  1  0.27921770  0.60654685  0.21724219  1
  O  O41  1  0.77921770  0.89345315  0.21724219  1
  O  O42  1  0.72078230  0.39345315  0.78275781  1
  O  O43  1  0.22078230  0.10654685  0.78275781  1
  O  O44  1  0.02055917  0.57503342  0.25020147  1
  O  O45  1  0.52055917  0.92496658  0.25020147  1
  O  O46  1  0.97944083  0.42496658  0.74979853  1
  O  O47  1  0.47944083  0.07503342  0.74979853  1
  O  O48  1  0.86092745  0.46082065  0.24841466  1
  O  O49  1  0.36092745  0.03917935  0.24841466  1
  O  O50  1  0.13907255  0.53917935  0.75158534  1
  O  O51  1  0.63907255  0.96082065  0.75158534  1
