# generated using pymatgen
data_Ba3FeS5
_symmetry_space_group_name_H-M   'P 1'
_cell_length_a   8.54632439
_cell_length_b   9.61038722
_cell_length_c   12.06378583
_cell_angle_alpha   89.99984598
_cell_angle_beta   90.00284087
_cell_angle_gamma   89.99996321
_symmetry_Int_Tables_number   1
_chemical_formula_structural   Ba3FeS5
_chemical_formula_sum   'Ba12 Fe4 S20'
_cell_volume   990.84079236
_cell_formula_units_Z   4
loop_
 _symmetry_equiv_pos_site_id
 _symmetry_equiv_pos_as_xyz
  1  'x, y, z'
loop_
 _atom_site_type_symbol
 _atom_site_label
 _atom_site_symmetry_multiplicity
 _atom_site_fract_x
 _atom_site_fract_y
 _atom_site_fract_z
 _atom_site_occupancy
  Ba  Ba0  1  0.41149565  0.48100459  0.67786758  1
  Ba  Ba1  1  0.58848158  0.98103442  0.32215771  1
  Ba  Ba2  1  0.08856244  0.01903361  0.17788607  1
  Ba  Ba3  1  0.09513228  0.75000140  0.48350495  1
  Ba  Ba4  1  0.90489479  0.24999999  0.51646012  1
  Ba  Ba5  1  0.91147682  0.51896409  0.82211458  1
  Ba  Ba6  1  0.58848283  0.51897262  0.32216167  1
  Ba  Ba7  1  0.40477898  0.74999833  0.98348252  1
  Ba  Ba8  1  0.41149608  0.01898800  0.67786675  1
  Ba  Ba9  1  0.91147839  0.98103727  0.82211494  1
  Ba  Ba10  1  0.08856447  0.48096922  0.17788860  1
  Ba  Ba11  1  0.59515434  0.25000067  0.01648719  1
  Fe  Fe12  1  0.81242830  0.74999824  0.10003136  1
  Fe  Fe13  1  0.68749578  0.75000186  0.60005449  1
  Fe  Fe14  1  0.18758845  0.24999799  0.89996348  1
  Fe  Fe15  1  0.31249166  0.25000013  0.39998298  1
  S  S16  1  0.69403322  0.94485166  0.06088518  1
  S  S17  1  0.17071705  0.75000104  0.73735435  1
  S  S18  1  0.82928829  0.25000116  0.26267028  1
  S  S19  1  0.97360463  0.25000157  0.99660149  1
  S  S20  1  0.13360803  0.24999797  0.72170463  1
  S  S21  1  0.69403235  0.55514965  0.06088586  1
  S  S22  1  0.30591383  0.44480675  0.93910471  1
  S  S23  1  0.19414942  0.44482794  0.43909883  1
  S  S24  1  0.80588570  0.55521072  0.56089213  1
  S  S25  1  0.52650345  0.25000042  0.49664014  1
  S  S26  1  0.86635457  0.75000110  0.27826425  1
  S  S27  1  0.47360038  0.75000025  0.50340482  1
  S  S28  1  0.67071268  0.24999497  0.76267482  1
  S  S29  1  0.80588055  0.94478714  0.56089156  1
  S  S30  1  0.30591439  0.05519167  0.93910681  1
  S  S31  1  0.02638364  0.74999874  0.00336517  1
  S  S32  1  0.32926176  0.75000141  0.23732779  1
  S  S33  1  0.19414905  0.05517391  0.43909830  1
  S  S34  1  0.63359998  0.74999819  0.77827722  1
  S  S35  1  0.36640418  0.25000133  0.22172667  1
