# generated using pymatgen
data_Rb2NaCo(CN)6
_symmetry_space_group_name_H-M   'P 1'
_cell_length_a   7.34243384
_cell_length_b   7.72976647
_cell_length_c   10.62148529
_cell_angle_alpha   90.00000000
_cell_angle_beta   90.46338363
_cell_angle_gamma   90.00000000
_symmetry_Int_Tables_number   1
_chemical_formula_structural   Rb2NaCo(CN)6
_chemical_formula_sum   'Rb4 Na2 Co2 C12 N12'
_cell_volume   602.80585716
_cell_formula_units_Z   2
loop_
 _symmetry_equiv_pos_site_id
 _symmetry_equiv_pos_as_xyz
  1  'x, y, z'
loop_
 _atom_site_type_symbol
 _atom_site_label
 _atom_site_symmetry_multiplicity
 _atom_site_fract_x
 _atom_site_fract_y
 _atom_site_fract_z
 _atom_site_occupancy
  C  C0  1  0.79222793  0.13420654  0.03119558  1
  C  C1  1  0.29222793  0.36579346  0.53119558  1
  C  C2  1  0.20777207  0.86579346  0.96880442  1
  C  C3  1  0.70777207  0.63420654  0.46880442  1
  C  C4  1  0.63174413  0.29876131  0.46164163  1
  C  C5  1  0.86825587  0.79876131  0.03835837  1
  C  C6  1  0.36825587  0.70123869  0.53835837  1
  C  C7  1  0.13174413  0.20123869  0.96164163  1
  C  C8  1  0.06887883  0.01947374  0.16974227  1
  C  C9  1  0.43112117  0.51947374  0.33025773  1
  C  C10  1  0.93112117  0.98052626  0.83025773  1
  C  C11  1  0.56887883  0.48052626  0.66974227  1
  N  N12  1  0.11076700  0.03402358  0.27628451  1
  N  N13  1  0.38923300  0.53402358  0.22371549  1
  N  N14  1  0.88923300  0.96597642  0.72371549  1
  N  N15  1  0.61076700  0.46597642  0.77628451  1
  N  N16  1  0.71557080  0.17383051  0.43697117  1
  N  N17  1  0.21557080  0.32616949  0.93697117  1
  N  N18  1  0.28442920  0.82616949  0.56302883  1
  N  N19  1  0.78442920  0.67383051  0.06302883  1
  N  N20  1  0.66236770  0.21805021  0.05230569  1
  N  N21  1  0.83763230  0.71805021  0.44769431  1
  N  N22  1  0.33763230  0.78194979  0.94769431  1
  N  N23  1  0.16236770  0.28194979  0.55230569  1
  Na  Na24  1  0.00000000  0.00000000  0.50000000  1
  Na  Na25  1  0.50000000  0.50000000  0.00000000  1
  Co  Co26  1  0.00000000  0.00000000  0.00000000  1
  Co  Co27  1  0.50000000  0.50000000  0.50000000  1
  Rb  Rb28  1  0.02025206  0.56570764  0.74927538  1
  Rb  Rb29  1  0.47974794  0.06570764  0.75072462  1
  Rb  Rb30  1  0.97974794  0.43429236  0.25072462  1
  Rb  Rb31  1  0.52025206  0.93429236  0.24927538  1
