# generated using pymatgen
data_Li10Ge(PO6)2
_symmetry_space_group_name_H-M   'P 1'
_cell_length_a   6.83682402
_cell_length_b   7.14601822
_cell_length_c   10.52699067
_cell_angle_alpha   90.10690947
_cell_angle_beta   90.15009849
_cell_angle_gamma   89.75412134
_symmetry_Int_Tables_number   1
_chemical_formula_structural   Li10Ge(PO6)2
_chemical_formula_sum   'Li20 Ge2 P4 O24'
_cell_volume   514.29999767
_cell_formula_units_Z   2
loop_
 _symmetry_equiv_pos_site_id
 _symmetry_equiv_pos_as_xyz
  1  'x, y, z'
loop_
 _atom_site_type_symbol
 _atom_site_label
 _atom_site_symmetry_multiplicity
 _atom_site_fract_x
 _atom_site_fract_y
 _atom_site_fract_z
 _atom_site_occupancy
  Li  Li0  1  0.98387100  0.54563820  0.93623722  1
  Li  Li1  1  0.78986758  0.64253875  0.43017305  1
  Li  Li2  1  0.49105700  0.92461814  0.56142168  1
  Li  Li3  1  0.47826768  0.03346839  0.06363367  1
  Li  Li4  1  0.27802100  0.25886847  0.17891700  1
  Li  Li5  1  0.51732739  0.56289607  0.24763792  1
  Li  Li6  1  0.13785257  0.89225250  0.76372651  1
  Li  Li7  1  0.04732962  0.91929254  0.24200799  1
  Li  Li8  1  0.77831792  0.23596086  0.33231959  1
  Li  Li9  1  0.44646998  0.52115445  0.74022191  1
  Li  Li10  1  0.25000665  0.29132542  0.42611721  1
  Li  Li11  1  0.76989335  0.25050329  0.82646645  1
  Li  Li12  1  0.25624494  0.76513229  0.01313037  1
  Li  Li13  1  0.77952080  0.19790424  0.07476076  1
  Li  Li14  1  0.77587078  0.73675566  0.68672553  1
  Li  Li15  1  0.18004963  0.24684138  0.92863421  1
  Li  Li16  1  0.76306070  0.81658392  0.06470082  1
  Li  Li17  1  0.25683502  0.64961977  0.43517795  1
  Li  Li18  1  0.70375596  0.22212044  0.57517965  1
  Li  Li19  1  0.26973930  0.21157572  0.66788382  1
  Ge  Ge20  1  0.01571956  0.50620880  0.19754601  1
  Ge  Ge21  1  0.52063967  0.98546492  0.82089691  1
  P  P22  1  0.01385625  0.97278898  0.50152238  1
  P  P23  1  0.51639804  0.49237222  0.99447293  1
  P  P24  1  0.02551711  0.47648022  0.67216493  1
  P  P25  1  0.51818247  0.97962853  0.31302509  1
  O  O26  1  0.00826495  0.14943110  0.41690688  1
  O  O27  1  0.02456314  0.79770913  0.41343858  1
  O  O28  1  0.32616433  0.49631050  0.91277580  1
  O  O29  1  0.70102171  0.48384685  0.91115833  1
  O  O30  1  0.51632174  0.67605822  0.07602732  1
  O  O31  1  0.51175978  0.31762789  0.08370755  1
  O  O32  1  0.19991245  0.97944118  0.58807870  1
  O  O33  1  0.82812590  0.96218282  0.58543803  1
  O  O34  1  0.03184931  0.31147759  0.08691647  1
  O  O35  1  0.01762697  0.71433141  0.10242603  1
  O  O36  1  0.21809071  0.46498810  0.59052765  1
  O  O37  1  0.83435694  0.48260644  0.59114629  1
  O  O38  1  0.51775257  0.78956492  0.38686064  1
  O  O39  1  0.52375724  0.14393366  0.41322098  1
  O  O40  1  0.29586901  0.99292633  0.91007683  1
  O  O41  1  0.71546122  0.01363087  0.93284369  1
  O  O42  1  0.02270912  0.65352917  0.75832542  1
  O  O43  1  0.02891012  0.29877616  0.75895392  1
  O  O44  1  0.79510177  0.48673366  0.28232073  1
  O  O45  1  0.23660969  0.47607260  0.28974775  1
  O  O46  1  0.53165472  0.19183582  0.72268478  1
  O  O47  1  0.51433458  0.78571218  0.72291271  1
  O  O48  1  0.70081454  0.00055211  0.22407485  1
  O  O49  1  0.33269047  -0.00017287  0.22792951  1
