# generated using pymatgen
data_Cu3(Mo3S4)4
_symmetry_space_group_name_H-M   'P 1'
_cell_length_a   6.52035475
_cell_length_b   12.98058150
_cell_length_c   8.84288620
_cell_angle_alpha   47.28983606
_cell_angle_beta   96.16945292
_cell_angle_gamma   93.19924139
_symmetry_Int_Tables_number   1
_chemical_formula_structural   Cu3(Mo3S4)4
_chemical_formula_sum   'Cu3 Mo12 S16'
_cell_volume   546.61780920
_cell_formula_units_Z   1
loop_
 _symmetry_equiv_pos_site_id
 _symmetry_equiv_pos_as_xyz
  1  'x, y, z'
loop_
 _atom_site_type_symbol
 _atom_site_label
 _atom_site_symmetry_multiplicity
 _atom_site_fract_x
 _atom_site_fract_y
 _atom_site_fract_z
 _atom_site_occupancy
  Cu  Cu0  1  0.07318936  0.42447823  0.03875636  1
  Cu  Cu1  1  0.93196995  0.07652678  0.96250423  1
  Cu  Cu2  1  0.98522208  0.80849058  0.05786853  1
  Mo  Mo3  1  0.21294326  0.93247968  0.54048638  1
  Mo  Mo4  1  0.21839672  0.43035435  0.54468418  1
  Mo  Mo5  1  0.40191003  0.66324791  0.21561964  1
  Mo  Mo6  1  0.45814875  0.59403074  0.59470121  1
  Mo  Mo7  1  0.54420173  0.90705951  0.40490075  1
  Mo  Mo8  1  0.59497230  0.83579252  0.78220636  1
  Mo  Mo9  1  0.40357106  0.16362499  0.21856645  1
  Mo  Mo10  1  0.44912771  0.09465313  0.59397471  1
  Mo  Mo11  1  0.54711959  0.40279634  0.40956284  1
  Mo  Mo12  1  0.59704379  0.33638562  0.78173093  1
  Mo  Mo13  1  0.78228646  0.56795251  0.45839955  1
  Mo  Mo14  1  0.78399177  0.07084849  0.45291739  1
  S  S15  1  0.12999564  0.66908396  0.39076809  1
  S  S16  1  0.27216683  0.87952050  0.86083723  1
  S  S17  1  0.12836857  0.17821709  0.37334459  1
  S  S18  1  0.27463966  0.38192983  0.86384136  1
  S  S19  1  0.21064991  0.49601243  0.20793450  1
  S  S20  1  0.38077907  0.70752032  0.72193163  1
  S  S21  1  0.20295801  0.00566496  0.20212817  1
  S  S22  1  0.38209951  0.20599329  0.72356778  1
  S  S23  1  0.61429633  0.79360479  0.27618084  1
  S  S24  1  0.79707425  0.00882680  0.78704268  1
  S  S25  1  0.61606720  0.29282573  0.27883323  1
  S  S26  1  0.79620125  0.49393098  0.79938225  1
  S  S27  1  0.71942635  0.61946735  0.13517841  1
  S  S28  1  0.86512096  0.82893251  0.61998822  1
  S  S29  1  0.72647295  0.11894019  0.13518959  1
  S  S30  1  0.87258896  0.32230791  0.62497193  1
