# generated using pymatgen
data_Cr3AuO8
_symmetry_space_group_name_H-M   'P 1'
_cell_length_a   5.15132315
_cell_length_b   5.15132311
_cell_length_c   7.88123152
_cell_angle_alpha   82.13861661
_cell_angle_beta   82.13861663
_cell_angle_gamma   65.53399998
_symmetry_Int_Tables_number   1
_chemical_formula_structural   Cr3AuO8
_chemical_formula_sum   'Cr3 Au1 O8'
_cell_volume   187.82320685
_cell_formula_units_Z   1
loop_
 _symmetry_equiv_pos_site_id
 _symmetry_equiv_pos_as_xyz
  1  'x, y, z'
loop_
 _atom_site_type_symbol
 _atom_site_label
 _atom_site_symmetry_multiplicity
 _atom_site_fract_x
 _atom_site_fract_y
 _atom_site_fract_z
 _atom_site_occupancy
  Cr  Cr0  1  0.66879656  0.66879656  0.29572640  1
  Cr  Cr1  1  0.33120344  0.33120344  0.70427360  1
  Cr  Cr2  1  0.00000000  0.00000000  0.50000000  1
  Au  Au3  1  0.00000000  0.00000000  0.00000000  1
  O  O4  1  0.30866460  0.80262233  0.32086693  1
  O  O5  1  0.69133540  0.19737767  0.67913307  1
  O  O6  1  0.78535202  0.78535202  0.44198645  1
  O  O7  1  0.19737767  0.69133540  0.67913307  1
  O  O8  1  0.21464798  0.21464798  0.55801355  1
  O  O9  1  0.23090257  0.23090257  0.90440901  1
  O  O10  1  0.80262233  0.30866460  0.32086693  1
  O  O11  1  0.76909743  0.76909743  0.09559099  1
