# generated using pymatgen
data_LiH2BrO5
_symmetry_space_group_name_H-M   'P 1'
_cell_length_a   8.84303691
_cell_length_b   8.84303691
_cell_length_c   11.03745195
_cell_angle_alpha   76.19956577
_cell_angle_beta   103.80043423
_cell_angle_gamma   143.21217072
_symmetry_Int_Tables_number   1
_chemical_formula_structural   LiH2BrO5
_chemical_formula_sum   'Li4 H8 Br4 O20'
_cell_volume   500.28458694
_cell_formula_units_Z   4
loop_
 _symmetry_equiv_pos_site_id
 _symmetry_equiv_pos_as_xyz
  1  'x, y, z'
loop_
 _atom_site_type_symbol
 _atom_site_label
 _atom_site_symmetry_multiplicity
 _atom_site_fract_x
 _atom_site_fract_y
 _atom_site_fract_z
 _atom_site_occupancy
  Li  Li0  1  0.00000000  0.50000000  0.00000000  1
  Li  Li1  1  0.50000000  0.00000000  0.50000000  1
  Li  Li2  1  0.53886266  0.53886266  0.75000000  1
  Li  Li3  1  0.46113734  0.46113734  0.25000000  1
  H  H4  1  0.36519876  0.60960067  0.34899227  1
  H  H5  1  0.60960067  0.36519876  0.15100773  1
  H  H6  1  0.63480124  0.39039933  0.65100773  1
  H  H7  1  0.39039933  0.63480124  0.84899227  1
  H  H8  1  0.96464692  0.33748192  0.53899771  1
  H  H9  1  0.33748192  0.96464692  0.96100229  1
  H  H10  1  0.03535308  0.66251808  0.46100229  1
  H  H11  1  0.66251808  0.03535308  0.03899771  1
  Br  Br12  1  0.17527624  0.90046093  0.73502350  1
  Br  Br13  1  0.90046093  0.17527624  0.76497650  1
  Br  Br14  1  0.82472376  0.09953907  0.26497650  1
  Br  Br15  1  0.09953907  0.82472376  0.23502350  1
  O  O16  1  0.26287089  0.83258039  0.91413709  1
  O  O17  1  0.83258039  0.26287089  0.58586291  1
  O  O18  1  0.73712911  0.16741961  0.08586291  1
  O  O19  1  0.16741961  0.73712911  0.41413709  1
  O  O20  1  0.32473472  0.94257252  0.63757187  1
  O  O21  1  0.94257252  0.32473472  0.86242813  1
  O  O22  1  0.67526528  0.05742748  0.36242813  1
  O  O23  1  0.05742748  0.67526528  0.13757187  1
  O  O24  1  0.81062606  0.72688203  0.62911912  1
  O  O25  1  0.72688203  0.81062606  0.87088088  1
  O  O26  1  0.18937394  0.27311797  0.37088088  1
  O  O27  1  0.27311797  0.18937394  0.12911912  1
  O  O28  1  0.37183737  0.19818176  0.75774551  1
  O  O29  1  0.19818176  0.37183737  0.74225449  1
  O  O30  1  0.62816263  0.80181824  0.24225449  1
  O  O31  1  0.80181824  0.62816263  0.25774551  1
  O  O32  1  0.54342575  0.76613578  0.90377188  1
  O  O33  1  0.76613578  0.54342575  0.59622812  1
  O  O34  1  0.45657425  0.23386422  0.09622812  1
  O  O35  1  0.23386422  0.45657425  0.40377188  1
