# generated using pymatgen
data_PH9C3Br3N
_symmetry_space_group_name_H-M   'P 1'
_cell_length_a   6.41332535
_cell_length_b   11.44464359
_cell_length_c   14.66600521
_cell_angle_alpha   90.00000000
_cell_angle_beta   99.25623821
_cell_angle_gamma   90.00000000
_symmetry_Int_Tables_number   1
_chemical_formula_structural   PH9C3Br3N
_chemical_formula_sum   'P4 H36 C12 Br12 N4'
_cell_volume   1062.44199789
_cell_formula_units_Z   4
loop_
 _symmetry_equiv_pos_site_id
 _symmetry_equiv_pos_as_xyz
  1  'x, y, z'
loop_
 _atom_site_type_symbol
 _atom_site_label
 _atom_site_symmetry_multiplicity
 _atom_site_fract_x
 _atom_site_fract_y
 _atom_site_fract_z
 _atom_site_occupancy
  H  H0  1  0.43405289  0.08233444  0.82809270  1
  H  H1  1  0.06594711  0.58233444  0.67190730  1
  H  H2  1  0.56594711  0.91766556  0.17190730  1
  H  H3  1  0.93405289  0.41766556  0.32809270  1
  H  H4  1  0.35763886  0.05369236  0.93836253  1
  H  H5  1  0.14236114  0.55369236  0.56163747  1
  H  H6  1  0.64236114  0.94630764  0.06163747  1
  H  H7  1  0.85763886  0.44630764  0.43836253  1
  H  H8  1  0.57914884  0.14579396  0.93067007  1
  H  H9  1  0.92085116  0.64579396  0.56932993  1
  H  H10  1  0.42085116  0.85420604  0.06932993  1
  H  H11  1  0.07914884  0.35420604  0.43067007  1
  H  H12  1  0.36059734  0.27935238  0.75783406  1
  H  H13  1  0.49557162  0.62563071  0.60686290  1
  H  H14  1  0.99557162  0.87436929  0.10686290  1
  H  H15  1  0.50442838  0.37436929  0.39313710  1
  H  H16  1  0.05260574  0.15262121  0.77812299  1
  H  H17  1  0.00442838  0.12563071  0.89313710  1
  H  H18  1  0.94739426  0.84737879  0.22187701  1
  H  H19  1  0.55260574  0.34737879  0.27812299  1
  H  H20  1  0.96195937  0.26836053  0.84349219  1
  H  H21  1  0.53804063  0.76836053  0.65650781  1
  H  H22  1  0.03804063  0.73163947  0.15650781  1
  H  H23  1  0.46195937  0.23163947  0.34349219  1
  H  H24  1  0.75677960  0.11011243  0.32467653  1
  H  H25  1  0.74322040  0.61011243  0.17532347  1
  H  H26  1  0.24322040  0.88988757  0.67532347  1
  H  H27  1  0.25677960  0.38988757  0.82467653  1
  H  H28  1  0.02087281  0.16137266  0.35849282  1
  H  H29  1  0.47912719  0.66137266  0.14150718  1
  H  H30  1  0.97912719  0.83862734  0.64150718  1
  H  H31  1  0.52087281  0.33862734  0.85849282  1
  H  H32  1  0.86059734  0.22064762  0.25783406  1
  H  H33  1  0.63940266  0.72064762  0.24216594  1
  H  H34  1  0.13940266  0.77935238  0.74216594  1
  H  H35  1  0.44739426  0.65262121  0.72187701  1
  C  C36  1  0.56266621  0.30984628  0.34794230  1
  C  C37  1  0.93733379  0.80984628  0.15205770  1
  C  C38  1  0.43733379  0.69015372  0.65205770  1
  C  C39  1  0.06266621  0.19015372  0.84794230  1
  C  C40  1  0.35979856  0.31273354  0.82836014  1
  C  C41  1  0.14020144  0.81273354  0.67163986  1
  C  C42  1  0.64020144  0.68726646  0.17163986  1
  C  C43  1  0.85979856  0.18726646  0.32836014  1
  C  C44  1  0.42100523  0.11999876  0.89628923  1
  C  C45  1  0.07899477  0.61999876  0.60371077  1
  C  C46  1  0.57899477  0.88000124  0.10371077  1
  C  C47  1  0.92100523  0.38000124  0.39628923  1
  N  N48  1  0.28153359  0.22263458  0.88623370  1
  N  N49  1  0.21846641  0.72263458  0.61376630  1
  N  N50  1  0.71846641  0.77736542  0.11376630  1
  N  N51  1  0.78153359  0.27736542  0.38623370  1
  P  P52  1  0.73641689  0.17285060  0.52366784  1
  P  P53  1  0.76358311  0.67285060  0.97633216  1
  P  P54  1  0.26358311  0.82714940  0.47633216  1
  P  P55  1  0.23641689  0.32714940  0.02366784  1
  Br  Br56  1  0.85214504  0.54731936  0.85119658  1
  Br  Br57  1  0.35214504  0.95268064  0.35119658  1
  Br  Br58  1  0.14785496  0.45268064  0.14880342  1
  Br  Br59  1  0.64785496  0.04731936  0.64880342  1
  Br  Br60  1  0.17647336  0.15632813  0.09452449  1
  Br  Br61  1  0.32352664  0.65632813  0.40547551  1
  Br  Br62  1  0.82352664  0.84367187  0.90547551  1
  Br  Br63  1  0.67647336  0.34367187  0.59452449  1
  Br  Br64  1  0.59053010  0.34450214  0.06370057  1
  Br  Br65  1  0.90946990  0.84450214  0.43629943  1
  Br  Br66  1  0.40946990  0.65549786  0.93629943  1
  Br  Br67  1  0.09053010  0.15549786  0.56370057  1
