# generated using pymatgen
data_LiNd(PO3)4
_symmetry_space_group_name_H-M   'P 1'
_cell_length_a   7.17597993
_cell_length_b   9.20632984
_cell_length_c   9.21748931
_cell_angle_alpha   67.32582674
_cell_angle_beta   67.09160468
_cell_angle_gamma   67.06225221
_symmetry_Int_Tables_number   1
_chemical_formula_structural   LiNd(PO3)4
_chemical_formula_sum   'Li2 Nd2 P8 O24'
_cell_volume   496.56257167
_cell_formula_units_Z   2
loop_
 _symmetry_equiv_pos_site_id
 _symmetry_equiv_pos_as_xyz
  1  'x, y, z'
loop_
 _atom_site_type_symbol
 _atom_site_label
 _atom_site_symmetry_multiplicity
 _atom_site_fract_x
 _atom_site_fract_y
 _atom_site_fract_z
 _atom_site_occupancy
  Li  Li0  1  0.00000000  0.00000000  0.00000000  1
  Li  Li1  1  0.00000000  0.50000000  0.50000000  1
  O  O2  1  0.00049879  0.79797674  0.96503839  1
  O  O3  1  0.76351392  0.70202326  0.53496161  1
  O  O4  1  0.99950121  0.20202326  0.03496161  1
  O  O5  1  0.23648608  0.29797674  0.46503839  1
  O  O6  1  0.00201287  0.07527132  0.76510793  1
  O  O7  1  0.84239212  0.42472868  0.73489207  1
  O  O8  1  0.99798713  0.92472868  0.23489207  1
  O  O9  1  0.15760788  0.57527132  0.26510793  1
  O  O10  1  0.77812620  0.91565798  0.76443365  1
  O  O11  1  0.45821783  0.58434202  0.73556635  1
  O  O12  1  0.43827182  0.70535411  0.43616363  1
  O  O13  1  0.57978956  0.79464589  0.06383637  1
  O  O14  1  0.56172818  0.29464589  0.56383637  1
  O  O15  1  0.42021044  0.20535411  0.93616363  1
  O  O16  1  0.34897906  0.33184821  0.15192473  1
  O  O17  1  0.83275200  0.16815179  0.34807527  1
  O  O18  1  0.65102094  0.66815179  0.84807527  1
  O  O19  1  0.16724800  0.83184821  0.65192473  1
  O  O20  1  0.60869549  0.04534975  0.16532458  1
  O  O21  1  0.81936982  0.45465025  0.33467542  1
  O  O22  1  0.39130451  0.95465025  0.83467542  1
  O  O23  1  0.18063018  0.54534975  0.66532458  1
  O  O24  1  0.54178217  0.41565798  0.26443365  1
  O  O25  1  0.22187380  0.08434202  0.23556635  1
  P  P26  1  0.98924332  0.90662264  0.79403014  1
  P  P27  1  0.68989610  0.59337736  0.70596986  1
  P  P28  1  0.01075668  0.09337736  0.20596986  1
  P  P29  1  0.31010390  0.40662264  0.29403014  1
  P  P30  1  0.31276775  0.65995497  0.61115648  1
  P  P31  1  0.58387920  0.84004503  0.88884352  1
  P  P32  1  0.68723225  0.34004503  0.38884352  1
  P  P33  1  0.41612080  0.15995497  0.11115648  1
  Nd  Nd34  1  0.22803302  0.25000000  0.75000000  1
  Nd  Nd35  1  0.77196698  0.75000000  0.25000000  1
