# generated using pymatgen
data_CaP(H2O3)2
_symmetry_space_group_name_H-M   'P 1'
_cell_length_a   9.20295358
_cell_length_b   8.19589416
_cell_length_c   9.20295358
_cell_angle_alpha   141.45111420
_cell_angle_beta   70.36856915
_cell_angle_gamma   135.89346129
_symmetry_Int_Tables_number   1
_chemical_formula_structural   CaP(H2O3)2
_chemical_formula_sum   'Ca2 P2 H8 O12'
_cell_volume   257.14140815
_cell_formula_units_Z   2
loop_
 _symmetry_equiv_pos_site_id
 _symmetry_equiv_pos_as_xyz
  1  'x, y, z'
loop_
 _atom_site_type_symbol
 _atom_site_label
 _atom_site_symmetry_multiplicity
 _atom_site_fract_x
 _atom_site_fract_y
 _atom_site_fract_z
 _atom_site_occupancy
  Ca  Ca0  1  0.16754430  0.75000000  0.91754430  1
  Ca  Ca1  1  0.83245570  0.25000000  0.08245570  1
  P  P2  1  0.67121151  0.75000000  0.42121151  1
  P  P3  1  0.32878849  0.25000000  0.57878849  1
  H  H4  1  0.26514735  0.93942294  0.68325138  1
  H  H5  1  0.74382844  0.56057706  0.82572441  1
  H  H6  1  0.73485265  0.06057706  0.31674862  1
  H  H7  1  0.25617156  0.43942294  0.17427559  1
  H  H8  1  0.35013989  0.77079462  0.59260165  1
  H  H9  1  0.82180703  0.72920538  0.07934527  1
  H  H10  1  0.64986011  0.22920538  0.40739835  1
  H  H11  1  0.17819297  0.27079462  0.92065473  1
  O  O12  1  0.81651015  0.98346920  0.39255972  1
  O  O13  1  0.40909052  0.51653080  0.33304094  1
  O  O14  1  0.18348985  0.01653080  0.60744028  1
  O  O15  1  0.59090948  0.48346920  0.66695906  1
  O  O16  1  0.81737499  0.07732896  0.72343002  1
  O  O17  1  0.64610106  0.42267104  0.24004603  1
  O  O18  1  0.18262501  0.92267104  0.27656998  1
  O  O19  1  0.35389894  0.57732896  0.75995397  1
  O  O20  1  0.29339308  0.86988346  0.71360575  1
  O  O21  1  0.84372228  0.63011654  0.92350962  1
  O  O22  1  0.70660692  0.13011654  0.28639425  1
  O  O23  1  0.15627772  0.36988346  0.07649038  1
