# generated using pymatgen
data_TlNO2
_symmetry_space_group_name_H-M   'P 1'
_cell_length_a   4.65451537
_cell_length_b   3.84065717
_cell_length_c   4.29245514
_cell_angle_alpha   87.67627539
_cell_angle_beta   80.49863705
_cell_angle_gamma   85.24054700
_symmetry_Int_Tables_number   1
_chemical_formula_structural   TlNO2
_chemical_formula_sum   'Tl1 N1 O2'
_cell_volume   75.39187295
_cell_formula_units_Z   1
loop_
 _symmetry_equiv_pos_site_id
 _symmetry_equiv_pos_as_xyz
  1  'x, y, z'
loop_
 _atom_site_type_symbol
 _atom_site_label
 _atom_site_symmetry_multiplicity
 _atom_site_fract_x
 _atom_site_fract_y
 _atom_site_fract_z
 _atom_site_occupancy
  Tl  Tl0  1  0.02811894  0.98448256  0.97821716  1
  N  N1  1  0.56863834  0.47794154  0.43238419  1
  O  O2  1  0.31327864  0.39270616  0.41431257  1
  O  O3  1  0.58996309  0.64487073  0.67508508  1
