# generated using pymatgen
data_Sr10Cu5Bi10O29
_symmetry_space_group_name_H-M   'P 1'
_cell_length_a   5.40342578
_cell_length_b   13.88356912
_cell_length_c   25.14482179
_cell_angle_alpha   81.97796197
_cell_angle_beta   83.82001847
_cell_angle_gamma   78.79080160
_symmetry_Int_Tables_number   1
_chemical_formula_structural   Sr10Cu5Bi10O29
_chemical_formula_sum   'Sr20 Cu10 Bi20 O58'
_cell_volume   1825.93777699
_cell_formula_units_Z   2
loop_
 _symmetry_equiv_pos_site_id
 _symmetry_equiv_pos_as_xyz
  1  'x, y, z'
loop_
 _atom_site_type_symbol
 _atom_site_label
 _atom_site_symmetry_multiplicity
 _atom_site_fract_x
 _atom_site_fract_y
 _atom_site_fract_z
 _atom_site_occupancy
  Sr  Sr0  1  0.16434761  0.16112499  0.48893445  1
  Sr  Sr1  1  0.15294735  0.57970137  0.07214193  1
  Sr  Sr2  1  0.79214683  0.25145647  0.12804170  1
  Sr  Sr3  1  0.80448941  0.42099169  0.92802952  1
  Sr  Sr4  1  0.64380982  0.49372644  0.17229965  1
  Sr  Sr5  1  0.17284964  0.94142019  0.67825128  1
  Sr  Sr6  1  0.65770378  0.66299758  0.97158085  1
  Sr  Sr7  1  0.67109465  0.84099473  0.77380606  1
  Sr  Sr8  1  0.81489685  0.83902161  0.51136335  1
  Sr  Sr9  1  0.66638301  0.04897880  0.58344663  1
  Sr  Sr10  1  0.31039794  0.50634572  0.82798105  1
  Sr  Sr11  1  0.17093580  0.74881362  0.87198394  1
  Sr  Sr12  1  0.15415203  0.38615353  0.28235534  1
  Sr  Sr13  1  0.29812920  0.95141901  0.41675443  1
  Sr  Sr14  1  0.82352053  0.61344109  0.71754208  1
  Sr  Sr15  1  0.28667747  0.15872700  0.22600495  1
  Sr  Sr16  1  0.29235979  0.33741959  0.02856765  1
  Sr  Sr17  1  0.65494447  0.27444931  0.39057008  1
  Sr  Sr18  1  0.32019661  0.72602996  0.60945590  1
  Sr  Sr19  1  0.79250002  0.05924019  0.32183981  1
  Cu  Cu20  1  0.75119747  0.82464415  0.64438208  1
  Cu  Cu21  1  0.72976094  0.05915032  0.45216283  1
  Cu  Cu22  1  0.21927974  0.17568004  0.35568342  1
  Cu  Cu23  1  0.74426081  0.62566007  0.84523232  1
  Cu  Cu24  1  0.72262292  0.45841684  0.05137852  1
  Cu  Cu25  1  0.23214408  0.54241955  0.94874397  1
  Cu  Cu26  1  0.24105024  0.94138820  0.54796671  1
  Cu  Cu27  1  0.21517163  0.37470602  0.15470273  1
  Cu  Cu28  1  0.25050743  0.72070363  0.74429447  1
  Cu  Cu29  1  0.71484148  0.27891008  0.25584882  1
  Bi  Bi30  1  0.03629941  0.02528127  0.82092287  1
  Bi  Bi31  1  0.93661797  0.53848213  0.57027738  1
  Bi  Bi32  1  0.60518846  0.58960741  0.31770565  1
  Bi  Bi33  1  0.95400612  0.67497469  0.22308628  1
  Bi  Bi34  1  0.51803259  0.40561273  0.68493376  1
  Bi  Bi35  1  0.46961583  0.65502948  0.46663040  1
  Bi  Bi36  1  0.54933117  0.76955547  0.10885787  1
  Bi  Bi37  1  0.01992343  0.85222023  0.01218830  1
  Bi  Bi38  1  0.59225902  0.34573920  0.53334092  1
  Bi  Bi39  1  0.88377056  0.97489714  0.17922156  1
  Bi  Bi40  1  0.42659662  0.23102007  0.89136665  1
  Bi  Bi41  1  0.89310863  0.77471790  0.36697060  1
  Bi  Bi42  1  0.85806009  0.32321240  0.77923956  1
  Bi  Bi43  1  0.57561311  0.11998304  0.72910541  1
  Bi  Bi44  1  0.57318565  0.93489883  0.91470330  1
  Bi  Bi45  1  0.04838464  0.46154964  0.42958754  1
  Bi  Bi46  1  0.42388814  0.06507430  0.08545868  1
  Bi  Bi47  1  0.42551273  0.88009163  0.27164638  1
  Bi  Bi48  1  0.88430657  0.14823637  0.98794229  1
  Bi  Bi49  1  0.03580941  0.22654391  0.63306620  1
  O  O50  1  0.59305699  0.69291245  0.18990618  1
  O  O51  1  0.15647605  0.89222495  0.78752799  1
  O  O52  1  0.10822127  0.53976115  0.19424912  1
  O  O53  1  0.84235624  0.45994018  0.80707263  1
  O  O54  1  0.18143818  0.33658041  0.39104195  1
  O  O55  1  0.96396674  0.33118941  0.20777445  1
  O  O56  1  0.97686253  0.50312619  0.00080817  1
  O  O57  1  0.30937297  0.36788157  0.91968979  1
  O  O58  1  0.47678388  0.11624376  0.40313783  1
  O  O59  1  0.99464733  0.77481417  0.69692041  1
  O  O60  1  0.90922426  0.66359585  0.60855990  1
  O  O61  1  0.62126064  0.99023726  0.69295182  1
  O  O62  1  0.47576624  0.30685356  0.80985342  1
  O  O63  1  0.49897309  0.76594997  0.69223122  1
  O  O64  1  0.62032360  0.80127139  0.88214533  1
  O  O65  1  0.50321657  0.66824649  0.79226258  1
  O  O66  1  0.99572448  0.88415662  0.59715729  1
  O  O67  1  0.97665984  0.11369916  0.73123316  1
  O  O68  1  0.48330184  -0.00005567  0.49938935  1
  O  O69  1  0.30465017  0.01117017  0.30687484  1
  O  O70  1  0.32413225  0.78717782  0.49840709  1
  O  O71  1  0.97449900  0.93512880  0.90842222  1
  O  O72  1  0.98157558  0.00053434  0.50072603  1
  O  O73  1  0.30487197  0.19897593  0.11787662  1
  O  O74  1  0.63582313  0.21618356  0.64171604  1
  O  O75  1  0.50259787  0.88076711  0.59444556  1
  O  O76  1  0.96689400  0.41711027  0.10336653  1
  O  O77  1  0.95486920  0.23404686  0.30800718  1
  O  O78  1  0.96422967  0.54299112  0.35308584  1
  O  O79  1  0.46899065  0.33352538  0.20604545  1
  O  O80  1  0.85566354  0.45709188  0.64663167  1
  O  O81  1  0.55044272  0.57869682  0.54851135  1
  O  O82  1  0.98548029  0.58543142  0.89812411  1
  O  O83  1  0.46795614  0.41533811  0.10221126  1
  O  O84  1  0.81988888  0.06563675  0.09102775  1
  O  O85  1  0.47971367  0.97815311  0.18197713  1
  O  O86  1  0.84868688  0.28218492  0.01825984  1
  O  O87  1  0.14698126  0.71830616  0.98171340  1
  O  O88  1  0.59507982  0.63279895  0.08043375  1
  O  O89  1  0.62817235  0.85522237  0.00021841  1
  O  O90  1  0.48001172  0.49750537  0.99928823  1
  O  O91  1  0.97627071  0.11981115  0.40596321  1
  O  O92  1  0.84497018  0.90639660  0.40101172  1
  O  O93  1  0.00850778  0.66623008  0.79383378  1
  O  O94  1  0.48649399  0.58356789  0.89694001  1
  O  O95  1  0.83726725  0.10833467  0.21243976  1
  O  O96  1  0.95033256  0.77522530  0.09568877  1
  O  O97  1  0.48417436  0.14539192  0.99980681  1
  O  O98  1  0.46545810  0.22529580  0.30292523  1
  O  O99  1  0.82030106  0.22540923  0.90406551  1
  O  O100  1  0.49032841  0.78893429  0.35878282  1
  O  O101  1  0.63805564  0.02244114  0.81764194  1
  O  O102  1  0.98667791  0.31247962  0.54958366  1
  O  O103  1  0.14672303  0.09420379  0.59931550  1
  O  O104  1  0.60894817  0.21310727  0.50232252  1
  O  O105  1  0.82199705  0.88704864  0.26864811  1
  O  O106  1  0.67895318  0.42187555  0.45136722  1
  O  O107  1  0.84688346  0.68792633  0.45009942  1
