# generated using pymatgen
data_Ni2(PO3)5
_symmetry_space_group_name_H-M   'P 1'
_cell_length_a   12.79504134
_cell_length_b   8.63650641
_cell_length_c   5.34095595
_cell_angle_alpha   90.00000000
_cell_angle_beta   93.91097332
_cell_angle_gamma   90.00000000
_symmetry_Int_Tables_number   1
_chemical_formula_structural   Ni2(PO3)5
_chemical_formula_sum   'Ni4 P10 O30'
_cell_volume   588.82499872
_cell_formula_units_Z   2
loop_
 _symmetry_equiv_pos_site_id
 _symmetry_equiv_pos_as_xyz
  1  'x, y, z'
loop_
 _atom_site_type_symbol
 _atom_site_label
 _atom_site_symmetry_multiplicity
 _atom_site_fract_x
 _atom_site_fract_y
 _atom_site_fract_z
 _atom_site_occupancy
  Ni  Ni0  1  0.45526329  0.71929851  0.34555426  1
  Ni  Ni1  1  0.54668553  0.28012168  0.65350185  1
  Ni  Ni2  1  0.04668553  0.71987832  0.15350185  1
  Ni  Ni3  1  0.95526329  0.28070149  0.84555426  1
  P  P4  1  0.59128251  0.82201833  0.88832223  1
  P  P5  1  0.36115325  0.48756928  0.90004131  1
  P  P6  1  0.86115325  0.51243072  0.40004131  1
  P  P7  1  0.25109526  0.94364939  0.25010246  1
  P  P8  1  0.09128251  0.17798167  0.38832223  1
  P  P9  1  0.91106669  0.82513443  0.60647552  1
  P  P10  1  0.64070665  0.51029275  0.10195342  1
  P  P11  1  0.14070665  0.48970725  0.60195342  1
  P  P12  1  0.75109526  0.05635061  0.75010246  1
  P  P13  1  0.41106669  0.17486557  0.10647552  1
  O  O14  1  0.65038753  0.65767706  0.92215037  1
  O  O15  1  0.17313810  0.85499729  0.08122946  1
  O  O16  1  0.53935158  0.82509168  0.62983539  1
  O  O17  1  0.13642013  0.63185556  0.44212207  1
  O  O18  1  0.75147576  0.51107363  0.24852448  1
  O  O19  1  0.85057215  0.66170638  0.57508789  1
  O  O20  1  0.36426596  0.62766210  0.06437394  1
  O  O21  1  0.02698161  0.14588344  0.60678017  1
  O  O22  1  0.32906864  0.85619962  0.42060756  1
  O  O23  1  0.86426596  0.37233790  0.56437394  1
  O  O24  1  0.03935158  0.17490832  0.12983539  1
  O  O25  1  0.81279050  0.94125053  0.57478267  1
  O  O26  1  0.35057215  0.33829362  0.07508789  1
  O  O27  1  0.63642013  0.36814444  0.94212207  1
  O  O28  1  0.82906864  0.14380038  0.92060756  1
  O  O29  1  0.69002049  0.93755269  0.92137093  1
  O  O30  1  0.52698161  0.85411656  0.10678017  1
  O  O31  1  0.96497057  0.82732545  0.86303776  1
  O  O32  1  0.25147576  0.48892637  0.74852448  1
  O  O33  1  0.05898060  0.46654589  0.78974862  1
  O  O34  1  0.46497057  0.17267455  0.36303776  1
  O  O35  1  0.44390862  0.46588703  0.71440168  1
  O  O36  1  0.47366657  0.14293302  0.88480996  1
  O  O37  1  0.94390862  0.53411297  0.21440168  1
  O  O38  1  0.55898060  0.53345411  0.28974862  1
  O  O39  1  0.97366657  0.85706698  0.38480996  1
  O  O40  1  0.31279050  0.05874947  0.07478267  1
  O  O41  1  0.15038753  0.34232294  0.42215037  1
  O  O42  1  0.67313810  0.14500271  0.58122946  1
  O  O43  1  0.19002049  0.06244731  0.42137093  1
