# generated using pymatgen
data_AlH36C12S6(ClO2)3
_symmetry_space_group_name_H-M   'P 1'
_cell_length_a   9.66530861
_cell_length_b   9.66530860
_cell_length_c   9.66530860
_cell_angle_alpha   66.38609749
_cell_angle_beta   66.38609746
_cell_angle_gamma   66.38609748
_symmetry_Int_Tables_number   1
_chemical_formula_structural   AlH36C12S6(ClO2)3
_chemical_formula_sum   'Al1 H36 C12 S6 Cl3 O6'
_cell_volume   726.37137680
_cell_formula_units_Z   1
loop_
 _symmetry_equiv_pos_site_id
 _symmetry_equiv_pos_as_xyz
  1  'x, y, z'
loop_
 _atom_site_type_symbol
 _atom_site_label
 _atom_site_symmetry_multiplicity
 _atom_site_fract_x
 _atom_site_fract_y
 _atom_site_fract_z
 _atom_site_occupancy
  H  H0  1  0.93494396  0.38812318  0.19875223  1
  H  H1  1  0.99920085  0.36053063  0.55950706  1
  H  H2  1  0.36053063  0.55950706  0.99920085  1
  H  H3  1  0.55950706  0.99920085  0.36053063  1
  H  H4  1  0.00079915  0.63946937  0.44049294  1
  H  H5  1  0.63946937  0.44049294  0.00079915  1
  H  H6  1  0.44049294  0.00079915  0.63946937  1
  H  H7  1  0.95383896  0.27078025  0.77102845  1
  H  H8  1  0.27078025  0.77102845  0.95383896  1
  H  H9  1  0.28100131  0.07177358  0.95959297  1
  H  H10  1  0.95959297  0.28100131  0.07177358  1
  H  H11  1  0.07177358  0.95959297  0.28100131  1
  H  H12  1  0.71899869  0.92822642  0.04040703  1
  H  H13  1  0.04040703  0.71899869  0.92822642  1
  H  H14  1  0.92822642  0.04040703  0.71899869  1
  H  H15  1  0.38812318  0.19875223  0.93494396  1
  H  H16  1  0.96954110  0.14612260  0.51056635  1
  H  H17  1  0.19875223  0.93494396  0.38812318  1
  H  H18  1  0.61187682  0.80124777  0.06505604  1
  H  H19  1  0.06505604  0.61187682  0.80124777  1
  H  H20  1  0.80124777  0.06505604  0.61187682  1
  H  H21  1  0.48943365  0.03045890  0.85387740  1
  H  H22  1  0.85387740  0.48943365  0.03045890  1
  H  H23  1  0.03045890  0.85387740  0.48943365  1
  H  H24  1  0.51056635  0.96954110  0.14612260  1
  H  H25  1  0.14612260  0.51056635  0.96954110  1
  H  H26  1  0.14652975  0.52402106  0.30652513  1
  H  H27  1  0.04616104  0.72921975  0.22897155  1
  H  H28  1  0.72921975  0.22897155  0.04616104  1
  H  H29  1  0.22897155  0.04616104  0.72921975  1
  H  H30  1  0.85347025  0.47597894  0.69347487  1
  H  H31  1  0.47597894  0.69347487  0.85347025  1
  H  H32  1  0.69347487  0.85347025  0.47597894  1
  H  H33  1  0.30652513  0.14652975  0.52402106  1
  H  H34  1  0.52402106  0.30652513  0.14652975  1
  H  H35  1  0.77102845  0.95383896  0.27078025  1
  C  C36  1  0.90740630  0.35888743  0.67285936  1
  C  C37  1  0.35888743  0.67285936  0.90740630  1
  C  C38  1  0.67285936  0.90740630  0.35888743  1
  C  C39  1  0.09259370  0.64111257  0.32714064  1
  C  C40  1  0.64111257  0.32714064  0.09259370  1
  C  C41  1  0.32714064  0.09259370  0.64111257  1
  C  C42  1  0.37884538  0.12288703  0.88160541  1
  C  C43  1  0.87711297  0.11839459  0.62115462  1
  C  C44  1  0.88160541  0.37884538  0.12288703  1
  C  C45  1  0.62115462  0.87711297  0.11839459  1
  C  C46  1  0.12288703  0.88160541  0.37884538  1
  C  C47  1  0.11839459  0.62115462  0.87711297  1
  O  O48  1  0.47841531  0.29091269  0.58719787  1
  O  O49  1  0.52158469  0.70908731  0.41280213  1
  O  O50  1  0.41280213  0.52158469  0.70908731  1
  O  O51  1  0.29091269  0.58719787  0.47841531  1
  O  O52  1  0.58719787  0.47841531  0.29091269  1
  O  O53  1  0.70908731  0.41280213  0.52158469  1
  Al  Al54  1  0.50000000  0.50000000  0.50000000  1
  S  S55  1  0.67291063  0.75650700  0.29691032  1
  S  S56  1  0.75650700  0.29691032  0.67291063  1
  S  S57  1  0.29691032  0.67291063  0.75650700  1
  S  S58  1  0.24349300  0.70308968  0.32708937  1
  S  S59  1  0.32708937  0.24349300  0.70308968  1
  S  S60  1  0.70308968  0.32708937  0.24349300  1
  Cl  Cl61  1  0.74639869  0.74639869  0.74639869  1
  Cl  Cl62  1  0.25360131  0.25360131  0.25360131  1
  Cl  Cl63  1  0.00000000  0.00000000  0.00000000  1
