# generated using pymatgen
data_Fe8O9
_symmetry_space_group_name_H-M   'P 1'
_cell_length_a   6.19122704
_cell_length_b   27.52185838
_cell_length_c   8.06025931
_cell_angle_alpha   19.27779571
_cell_angle_beta   55.46892693
_cell_angle_gamma   60.01669133
_symmetry_Int_Tables_number   1
_chemical_formula_structural   Fe8O9
_chemical_formula_sum   'Fe16 O18'
_cell_volume   370.38316875
_cell_formula_units_Z   2
loop_
 _symmetry_equiv_pos_site_id
 _symmetry_equiv_pos_as_xyz
  1  'x, y, z'
loop_
 _atom_site_type_symbol
 _atom_site_label
 _atom_site_symmetry_multiplicity
 _atom_site_fract_x
 _atom_site_fract_y
 _atom_site_fract_z
 _atom_site_occupancy
  Fe  Fe0  1  0.50995188  0.00207463  -0.01269611  1
  Fe  Fe1  1  0.50565197  0.10967389  0.99877807  1
  Fe  Fe2  1  0.49682135  0.22239527  0.00214705  1
  Fe  Fe3  1  0.48620184  0.33635475  -0.00138105  1
  Fe  Fe4  1  0.99957781  0.11202142  0.99263596  1
  Fe  Fe5  1  0.00253344  0.55294026  -0.00279352  1
  Fe  Fe6  1  0.99943690  0.22534165  0.98638147  1
  Fe  Fe7  1  0.50282861  0.44261731  0.00967328  1
  Fe  Fe8  1  0.00029490  0.32871056  0.01395183  1
  Fe  Fe9  1  0.51457645  0.55450168  0.99378941  1
  Fe  Fe10  1  0.49381986  0.66059510  0.02250503  1
  Fe  Fe11  1  0.50850682  0.78183769  0.98439828  1
  Fe  Fe12  1  0.00348668  0.66458181  0.01018609  1
  Fe  Fe13  1  0.47804529  0.89173176  0.00563778  1
  Fe  Fe14  1  0.99598340  0.78210110  0.98517107  1
  Fe  Fe15  1  0.99856917  0.89059327  0.00422430  1
  O  O16  1  0.25313328  0.06153162  0.45566493  1
  O  O17  1  0.26814031  0.18114029  0.45788274  1
  O  O18  1  0.75510339  0.05682100  0.48733883  1
  O  O19  1  0.27739275  0.26742374  0.51777585  1
  O  O20  1  0.72384068  0.17625961  0.48241081  1
  O  O21  1  0.25117615  0.39131371  0.49210310  1
  O  O22  1  0.72497253  0.26255364  0.54680077  1
  O  O23  1  0.27587979  0.50592214  0.46107158  1
  O  O24  1  0.73739736  0.38324832  0.54591028  1
  O  O25  1  0.27347907  0.62917484  0.43785148  1
  O  O26  1  0.73084427  0.50026178  0.50075012  1
  O  O27  1  0.25464459  0.71917462  0.49939802  1
  O  O28  1  0.73167496  0.62793435  0.45169425  1
  O  O29  1  0.27843457  0.82116045  0.53584124  1
  O  O30  1  0.74746179  0.72307324  0.51097530  1
  O  O31  1  0.27230496  0.94284812  0.50011147  1
  O  O32  1  0.72812416  0.81096172  0.57900882  1
  O  O33  1  0.71970902  0.93668064  0.54480146  1
