# generated using pymatgen
data_KP2H8SN7O2
_symmetry_space_group_name_H-M   'P 1'
_cell_length_a   9.92259240
_cell_length_b   13.37657011
_cell_length_c   13.89345378
_cell_angle_alpha   90.00000000
_cell_angle_beta   90.00000000
_cell_angle_gamma   90.00000000
_symmetry_Int_Tables_number   1
_chemical_formula_structural   KP2H8SN7O2
_chemical_formula_sum   'K8 P16 H64 S8 N56 O16'
_cell_volume   1844.08163403
_cell_formula_units_Z   8
loop_
 _symmetry_equiv_pos_site_id
 _symmetry_equiv_pos_as_xyz
  1  'x, y, z'
loop_
 _atom_site_type_symbol
 _atom_site_label
 _atom_site_symmetry_multiplicity
 _atom_site_fract_x
 _atom_site_fract_y
 _atom_site_fract_z
 _atom_site_occupancy
  K  K0  1  0.59062343  0.12727032  0.39348257  1
  K  K1  1  0.09062343  0.37272968  0.60651743  1
  K  K2  1  0.40937657  0.62727032  0.10651743  1
  K  K3  1  0.90937657  0.87272968  0.89348257  1
  K  K4  1  0.40937657  0.87272968  0.60651743  1
  K  K5  1  0.90937657  0.62727032  0.39348257  1
  K  K6  1  0.59062343  0.37272968  0.89348257  1
  K  K7  1  0.09062343  0.12727032  0.10651743  1
  P  P8  1  0.21956116  0.26621111  0.34552218  1
  P  P9  1  0.71956116  0.23378889  0.65447782  1
  P  P10  1  0.78043884  0.76621111  0.15447782  1
  P  P11  1  0.28043884  0.73378889  0.84552218  1
  P  P12  1  0.78043884  0.73378889  0.65447782  1
  P  P13  1  0.28043884  0.76621111  0.34552218  1
  P  P14  1  0.21956116  0.23378889  0.84552218  1
  P  P15  1  0.71956116  0.26621111  0.15447782  1
  P  P16  1  0.05343156  0.09432672  0.36532674  1
  P  P17  1  0.55343156  0.40567328  0.63467326  1
  P  P18  1  0.94656844  0.59432672  0.13467326  1
  P  P19  1  0.44656844  0.90567328  0.86532674  1
  P  P20  1  0.94656844  0.90567328  0.63467326  1
  P  P21  1  0.44656844  0.59432672  0.36532674  1
  P  P22  1  0.05343156  0.40567328  0.86532674  1
  P  P23  1  0.55343156  0.09432672  0.13467326  1
  H  H24  1  0.04668381  0.37371831  0.39610443  1
  H  H25  1  0.54668381  0.12628169  0.60389557  1
  H  H26  1  0.95331619  0.87371831  0.10389557  1
  H  H27  1  0.45331619  0.62628169  0.89610443  1
  H  H28  1  0.95331619  0.62628169  0.60389557  1
  H  H29  1  0.45331619  0.87371831  0.39610443  1
  H  H30  1  0.04668381  0.12628169  0.89610443  1
  H  H31  1  0.54668381  0.37371831  0.10389557  1
  H  H32  1  0.20135346  0.43456482  0.39482901  1
  H  H33  1  0.70135346  0.06543518  0.60517099  1
  H  H34  1  0.79864654  0.93456482  0.10517099  1
  H  H35  1  0.29864654  0.56543518  0.89482901  1
  H  H36  1  0.79864654  0.56543518  0.60517099  1
  H  H37  1  0.29864654  0.93456482  0.39482901  1
  H  H38  1  0.20135346  0.06543518  0.89482901  1
  H  H39  1  0.70135346  0.43456482  0.10517099  1
  H  H40  1  0.40662308  0.25837733  0.24655096  1
  H  H41  1  0.90662308  0.24162267  0.75344904  1
  H  H42  1  0.59337692  0.75837733  0.25344904  1
  H  H43  1  0.09337692  0.74162267  0.74655096  1
  H  H44  1  0.59337692  0.74162267  0.75344904  1
  H  H45  1  0.09337692  0.75837733  0.24655096  1
  H  H46  1  0.40662308  0.24162267  0.74655096  1
  H  H47  1  0.90662308  0.25837733  0.25344904  1
  H  H48  1  0.27910358  0.32315809  0.19685716  1
  H  H49  1  0.77910358  0.17684191  0.80314284  1
  H  H50  1  0.72089642  0.82315809  0.30314284  1
  H  H51  1  0.22089642  0.67684191  0.69685716  1
  H  H52  1  0.72089642  0.67684191  0.80314284  1
  H  H53  1  0.22089642  0.82315809  0.19685716  1
  H  H54  1  0.27910358  0.17684191  0.69685716  1
  H  H55  1  0.77910358  0.32315809  0.30314284  1
  H  H56  1  0.87930571  0.05743584  0.46396489  1
  H  H57  1  0.37930571  0.44256416  0.53603511  1
  H  H58  1  0.12069429  0.55743584  0.03603511  1
  H  H59  1  0.62069429  0.94256416  0.96396489  1
  H  H60  1  0.12069429  0.94256416  0.53603511  1
  H  H61  1  0.62069429  0.55743584  0.46396489  1
  H  H62  1  0.87930571  0.44256416  0.96396489  1
  H  H63  1  0.37930571  0.05743584  0.03603511  1
  H  H64  1  0.89972958  0.18078379  0.45603751  1
  H  H65  1  0.39972958  0.31921621  0.54396249  1
  H  H66  1  0.10027042  0.68078379  0.04396249  1
  H  H67  1  0.60027042  0.81921621  0.95603751  1
  H  H68  1  0.10027042  0.81921621  0.54396249  1
  H  H69  1  0.60027042  0.68078379  0.45603751  1
  H  H70  1  0.89972958  0.31921621  0.95603751  1
  H  H71  1  0.39972958  0.18078379  0.04396249  1
  H  H72  1  0.08018943  0.94249391  0.28468205  1
  H  H73  1  0.58018943  0.55750609  0.71531795  1
  H  H74  1  0.91981057  0.44249391  0.21531795  1
  H  H75  1  0.41981057  0.05750609  0.78468205  1
  H  H76  1  0.91981057  0.05750609  0.71531795  1
  H  H77  1  0.41981057  0.44249391  0.28468205  1
  H  H78  1  0.08018943  0.55750609  0.78468205  1
  H  H79  1  0.58018943  0.94249391  0.21531795  1
  H  H80  1  0.91943281  0.98318413  0.28540420  1
  H  H81  1  0.41943281  0.51681587  0.71459580  1
  H  H82  1  0.08056719  0.48318413  0.21459580  1
  H  H83  1  0.58056719  0.01681587  0.78540420  1
  H  H84  1  0.08056719  0.01681587  0.71459580  1
  H  H85  1  0.58056719  0.48318413  0.28540420  1
  H  H86  1  0.91943281  0.51681587  0.78540420  1
  H  H87  1  0.41943281  0.98318413  0.21459580  1
  S  S88  1  0.26187390  0.12916765  0.49371327  1
  S  S89  1  0.76187390  0.37083235  0.50628673  1
  S  S90  1  0.73812610  0.62916765  0.00628673  1
  S  S91  1  0.23812610  0.87083235  0.99371327  1
  S  S92  1  0.73812610  0.87083235  0.50628673  1
  S  S93  1  0.23812610  0.62916765  0.49371327  1
  S  S94  1  0.26187390  0.37083235  0.99371327  1
  S  S95  1  0.76187390  0.12916765  0.00628673  1
  N  N96  1  0.32093329  0.21230910  0.42273175  1
  N  N97  1  0.82093329  0.28769090  0.57726825  1
  N  N98  1  0.67906671  0.71230910  0.07726825  1
  N  N99  1  0.17906671  0.78769090  0.92273175  1
  N  N100  1  0.67906671  0.78769090  0.57726825  1
  N  N101  1  0.17906671  0.71230910  0.42273175  1
  N  N102  1  0.32093329  0.28769090  0.92273175  1
  N  N103  1  0.82093329  0.21230910  0.07726825  1
  N  N104  1  0.17180245  0.04981606  0.43547419  1
  N  N105  1  0.67180245  0.45018394  0.56452581  1
  N  N106  1  0.82819755  0.54981606  0.06452581  1
  N  N107  1  0.32819755  0.95018394  0.93547419  1
  N  N108  1  0.82819755  0.95018394  0.56452581  1
  N  N109  1  0.32819755  0.54981606  0.43547419  1
  N  N110  1  0.17180245  0.45018394  0.93547419  1
  N  N111  1  0.67180245  0.04981606  0.06452581  1
  N  N112  1  0.09695082  0.19524893  0.31035863  1
  N  N113  1  0.59695082  0.30475107  0.68964137  1
  N  N114  1  0.90304918  0.69524893  0.18964137  1
  N  N115  1  0.40304918  0.80475107  0.81035863  1
  N  N116  1  0.90304918  0.80475107  0.68964137  1
  N  N117  1  0.40304918  0.69524893  0.31035863  1
  N  N118  1  0.09695082  0.30475107  0.81035863  1
  N  N119  1  0.59695082  0.19524893  0.18964137  1
  N  N120  1  0.14645448  0.37183578  0.37828084  1
  N  N121  1  0.64645448  0.12816422  0.62171916  1
  N  N122  1  0.85354552  0.87183578  0.12171916  1
  N  N123  1  0.35354552  0.62816422  0.87828084  1
  N  N124  1  0.85354552  0.62816422  0.62171916  1
  N  N125  1  0.35354552  0.87183578  0.37828084  1
  N  N126  1  0.14645448  0.12816422  0.87828084  1
  N  N127  1  0.64645448  0.37183578  0.12171916  1
  N  N128  1  0.32570070  0.30391967  0.26056064  1
  N  N129  1  0.82570070  0.19608033  0.73943936  1
  N  N130  1  0.67429930  0.80391967  0.23943936  1
  N  N131  1  0.17429930  0.69608033  0.76056064  1
  N  N132  1  0.67429930  0.69608033  0.73943936  1
  N  N133  1  0.17429930  0.80391967  0.26056064  1
  N  N134  1  0.32570070  0.19608033  0.76056064  1
  N  N135  1  0.82570070  0.30391967  0.23943936  1
  N  N136  1  0.90440757  0.11517205  0.41772641  1
  N  N137  1  0.40440757  0.38482795  0.58227359  1
  N  N138  1  0.09559243  0.61517205  0.08227359  1
  N  N139  1  0.59559243  0.88482795  0.91772641  1
  N  N140  1  0.09559243  0.88482795  0.58227359  1
  N  N141  1  0.59559243  0.61517205  0.41772641  1
  N  N142  1  0.90440757  0.38482795  0.91772641  1
  N  N143  1  0.40440757  0.11517205  0.08227359  1
  N  N144  1  0.01817132  0.00414446  0.28782310  1
  N  N145  1  0.51817132  0.49585554  0.71217690  1
  N  N146  1  0.98182868  0.50414446  0.21217690  1
  N  N147  1  0.48182868  0.99585554  0.78782310  1
  N  N148  1  0.98182868  0.99585554  0.71217690  1
  N  N149  1  0.48182868  0.50414446  0.28782310  1
  N  N150  1  0.01817132  0.49585554  0.78782310  1
  N  N151  1  0.51817132  0.00414446  0.21217690  1
  O  O152  1  0.37709126  0.07203558  0.53208208  1
  O  O153  1  0.87709126  0.42796442  0.46791792  1
  O  O154  1  0.62290874  0.57203558  0.96791792  1
  O  O155  1  0.12290874  0.92796442  0.03208208  1
  O  O156  1  0.62290874  0.92796442  0.46791792  1
  O  O157  1  0.12290874  0.57203558  0.53208208  1
  O  O158  1  0.37709126  0.42796442  0.03208208  1
  O  O159  1  0.87709126  0.07203558  0.96791792  1
  O  O160  1  0.18155321  0.17694557  0.57087835  1
  O  O161  1  0.68155321  0.32305443  0.42912165  1
  O  O162  1  0.81844679  0.67694557  0.92912165  1
  O  O163  1  0.31844679  0.82305443  0.07087835  1
  O  O164  1  0.81844679  0.82305443  0.42912165  1
  O  O165  1  0.31844679  0.67694557  0.57087835  1
  O  O166  1  0.18155321  0.32305443  0.07087835  1
  O  O167  1  0.68155321  0.17694557  0.92912165  1
