# generated using pymatgen
data_Li2Cr(PO4)2
_symmetry_space_group_name_H-M   'P 1'
_cell_length_a   4.88428662
_cell_length_b   17.43711511
_cell_length_c   6.59633682
_cell_angle_alpha   90.00287900
_cell_angle_beta   94.51523924
_cell_angle_gamma   90.00132451
_symmetry_Int_Tables_number   1
_chemical_formula_structural   Li2Cr(PO4)2
_chemical_formula_sum   'Li8 Cr4 P8 O32'
_cell_volume   560.05237023
_cell_formula_units_Z   4
loop_
 _symmetry_equiv_pos_site_id
 _symmetry_equiv_pos_as_xyz
  1  'x, y, z'
loop_
 _atom_site_type_symbol
 _atom_site_label
 _atom_site_symmetry_multiplicity
 _atom_site_fract_x
 _atom_site_fract_y
 _atom_site_fract_z
 _atom_site_occupancy
  Li  Li0  1  0.78352865  0.12014900  0.50774764  1
  Li  Li1  1  0.28473116  0.38234926  0.98526876  1
  Li  Li2  1  0.26227638  0.05429382  0.29294761  1
  Li  Li3  1  0.23769932  0.55431446  0.20710012  1
  Li  Li4  1  0.80470317  0.30362237  0.18567744  1
  Li  Li5  1  0.71663109  0.62022378  0.99224329  1
  Li  Li6  1  0.21547231  0.88234799  0.51469329  1
  Li  Li7  1  0.69529393  0.80364843  0.31443757  1
  Cr  Cr8  1  0.71137778  0.62947412  0.51826115  1
  Cr  Cr9  1  0.19883137  0.87158553  0.00840176  1
  Cr  Cr10  1  0.78850247  0.12946224  0.98188812  1
  Cr  Cr11  1  0.30130640  0.37162756  0.49173342  1
  P  P12  1  0.32410190  0.21343201  0.21892323  1
  P  P13  1  0.82435311  0.28523536  0.71730830  1
  P  P14  1  0.73010595  0.96395514  0.22221752  1
  P  P15  1  0.17587979  0.71339006  0.28108882  1
  P  P16  1  0.27234217  0.03491936  0.77918435  1
  P  P17  1  0.22772247  0.53497397  0.72084021  1
  P  P18  1  0.67569726  0.78522294  0.78263383  1
  P  P19  1  0.76975667  0.46397295  0.27767883  1
  O  O20  1  0.13308351  0.05907000  0.57200634  1
  O  O21  1  0.41818896  0.93873984  0.21031173  1
  O  O22  1  0.12696554  0.80215282  0.24734267  1
  O  O23  1  0.96764912  0.30837786  0.52259384  1
  O  O24  1  0.94395876  0.32419171  0.91203895  1
  O  O25  1  0.63075648  0.43282531  0.46416362  1
  O  O26  1  0.85187694  0.19659715  0.74038171  1
  O  O27  1  0.62994823  0.43356043  0.08030017  1
  O  O28  1  0.08176635  0.43876325  0.28970107  1
  O  O29  1  0.77381917  0.55399843  0.28308412  1
  O  O30  1  0.72622320  0.05395267  0.21703826  1
  O  O31  1  0.57618497  0.06376776  0.78877816  1
  O  O32  1  0.36885426  0.56843566  0.53725875  1
  O  O33  1  0.86911907  0.93278853  0.03577841  1
  O  O34  1  0.13119037  0.06840860  0.96262358  1
  O  O35  1  0.02563921  0.69556323  0.47425523  1
  O  O36  1  0.47431316  0.19557853  0.02577921  1
  O  O37  1  0.98736569  0.80741130  0.81461790  1
  O  O38  1  0.55586911  0.82416054  0.58783606  1
  O  O39  1  0.51254689  0.30751232  0.68540906  1
  O  O40  1  0.43171151  0.16548421  0.39999544  1
  O  O41  1  0.37306545  0.30216231  0.25266963  1
  O  O42  1  0.00747786  0.19829145  0.17749747  1
  O  O43  1  0.87010516  0.93346363  0.41965874  1
  O  O44  1  0.28198485  0.94579113  0.78886162  1
  O  O45  1  0.53226241  0.80832763  0.97727515  1
  O  O46  1  0.49252378  0.69826252  0.32256206  1
  O  O47  1  0.64809467  0.69660294  0.75966287  1
  O  O48  1  0.21794538  0.44582722  0.71107688  1
  O  O49  1  0.06841290  0.66549595  0.10005463  1
  O  O50  1  0.36688390  0.55910532  0.92786714  1
  O  O51  1  0.92390277  0.56380040  0.71124424  1
