# generated using pymatgen
data_BaLaMnInO6
_symmetry_space_group_name_H-M   'P 1'
_cell_length_a   5.85453899
_cell_length_b   23.11856889
_cell_length_c   10.05914322
_cell_angle_alpha   29.51556173
_cell_angle_beta   54.40681078
_cell_angle_gamma   59.56955153
_symmetry_Int_Tables_number   1
_chemical_formula_structural   BaLaMnInO6
_chemical_formula_sum   'Ba4 La4 Mn4 In4 O24'
_cell_volume   545.43525624
_cell_formula_units_Z   4
loop_
 _symmetry_equiv_pos_site_id
 _symmetry_equiv_pos_as_xyz
  1  'x, y, z'
loop_
 _atom_site_type_symbol
 _atom_site_label
 _atom_site_symmetry_multiplicity
 _atom_site_fract_x
 _atom_site_fract_y
 _atom_site_fract_z
 _atom_site_occupancy
  Ba  Ba0  1  0.25185955  0.00747001  0.73507458  1
  Ba  Ba1  1  0.74814045  0.00747001  0.23504537  1
  Ba  Ba2  1  0.25185955  0.24252999  0.76495463  1
  Ba  Ba3  1  0.74814045  0.24252999  0.26492542  1
  La  La4  1  0.23865501  0.48492695  0.78014925  1
  La  La5  1  0.76134499  0.48492695  0.28014295  1
  La  La6  1  0.23865501  0.76507305  0.71985705  1
  La  La7  1  0.76134499  0.76507305  0.21985075  1
  Mn  Mn8  1  0.50000000  0.00275133  0.99449735  1
  Mn  Mn9  1  0.50000000  0.24724867  0.00550265  1
  Mn  Mn10  1  1.00000000  0.00274449  0.49451102  1
  Mn  Mn11  1  0.00000000  0.24725551  0.50548898  1
  In  In12  1  1.00000000  0.50003212  0.49993575  1
  In  In13  1  0.50000000  0.50002604  -0.00005208  1
  In  In14  1  0.50000000  0.74997396  0.00005208  1
  In  In15  1  0.00000000  0.74996788  0.50006425  1
  O  O16  1  0.28126295  0.99500733  0.25998271  1
  O  O17  1  0.24207309  0.12499743  0.25794281  1
  O  O18  1  0.28126295  0.25499267  0.24001203  1
  O  O19  1  0.24207309  0.12500257  0.75793253  1
  O  O20  1  0.19060269  0.37157861  0.28579310  1
  O  O21  1  0.75792691  0.12499743  0.24206747  1
  O  O22  1  0.71873705  0.99500733  0.75998797  1
  O  O23  1  0.35864431  0.49566112  0.25867951  1
  O  O24  1  0.25149500  0.37157862  0.78579737  1
  O  O25  1  0.17683352  0.62501117  0.32313347  1
  O  O26  1  0.75792691  0.12500257  0.74205719  1
  O  O27  1  0.80939731  0.37157861  0.22789246  1
  O  O28  1  0.71873705  0.25499267  0.74001729  1
  O  O29  1  0.35864431  0.75433888  0.24132400  1
  O  O30  1  0.17683352  0.62498883  0.82317817  1
  O  O31  1  0.25149500  0.87842138  0.27211185  1
  O  O32  1  0.74850500  0.37157862  0.72788815  1
  O  O33  1  0.82316648  0.62501117  0.17682183  1
  O  O34  1  0.64135569  0.49566112  0.75867600  1
  O  O35  1  0.19060269  0.87842139  0.77210754  1
  O  O36  1  0.82316648  0.62498883  0.67686653  1
  O  O37  1  0.74850500  0.87842138  0.21420263  1
  O  O38  1  0.64135569  0.75433888  0.74132049  1
  O  O39  1  0.80939731  0.87842139  0.71420690  1
