# generated using pymatgen
data_Ti3Fe7O15
_symmetry_space_group_name_H-M   'P 1'
_cell_length_a   5.50106030
_cell_length_b   27.53475389
_cell_length_c   14.84176611
_cell_angle_alpha   17.91388975
_cell_angle_beta   51.32015573
_cell_angle_gamma   55.92799365
_symmetry_Int_Tables_number   1
_chemical_formula_structural   Ti3Fe7O15
_chemical_formula_sum   'Ti6 Fe14 O30'
_cell_volume   534.22677676
_cell_formula_units_Z   2
loop_
 _symmetry_equiv_pos_site_id
 _symmetry_equiv_pos_as_xyz
  1  'x, y, z'
loop_
 _atom_site_type_symbol
 _atom_site_label
 _atom_site_symmetry_multiplicity
 _atom_site_fract_x
 _atom_site_fract_y
 _atom_site_fract_z
 _atom_site_occupancy
  Ti  Ti0  1  0.84968006  0.02793983  0.85644709  1
  Ti  Ti1  1  0.85751730  0.23410297  0.84558400  1
  Ti  Ti2  1  0.85108810  0.42675816  0.85592995  1
  Ti  Ti3  1  0.35891655  0.92940020  0.35232691  1
  Ti  Ti4  1  0.86535438  0.62785608  0.85322783  1
  Ti  Ti5  1  0.83869176  0.82644042  0.86555700  1
  Fe  Fe6  1  0.13907432  0.17015524  0.14670874  1
  Fe  Fe7  1  0.34999048  0.13295927  0.34616276  1
  Fe  Fe8  1  0.14180601  0.37203689  0.14104622  1
  Fe  Fe9  1  0.35390683  0.32592640  0.35706043  1
  Fe  Fe10  1  0.64494969  0.07095504  0.64753236  1
  Fe  Fe11  1  0.14451514  0.56956790  0.14447951  1
  Fe  Fe12  1  0.35216310  0.52988261  0.35288379  1
  Fe  Fe13  1  0.64763426  0.27184623  0.64373491  1
  Fe  Fe14  1  0.14333464  0.77218379  0.13968251  1
  Fe  Fe15  1  0.35041267  0.72755266  0.35704559  1
  Fe  Fe16  1  0.64241864  0.46920067  0.65211227  1
  Fe  Fe17  1  0.14860674  0.96993832  0.14823801  1
  Fe  Fe18  1  0.65595107  0.67202521  0.64090324  1
  Fe  Fe19  1  0.64199406  0.87004359  0.64817053  1
  O  O20  1  0.72293787  0.06244693  0.06782972  1
  O  O21  1  0.58104240  0.09452149  0.23117271  1
  O  O22  1  0.05075272  0.15732184  0.47215932  1
  O  O23  1  0.72582666  0.26412703  0.07336633  1
  O  O24  1  0.57726022  0.29421248  0.23759968  1
  O  O25  1  0.05529326  0.35517855  0.47292269  1
  O  O26  1  0.94116145  0.01350895  0.58229051  1
  O  O27  1  0.45825453  0.11690611  0.73621090  1
  O  O28  1  0.72223114  0.47705568  0.04819937  1
  O  O29  1  0.23875709  0.13501373  0.94378839  1
  O  O30  1  0.58384136  0.49568500  0.22956334  1
  O  O31  1  0.07160724  0.55929712  0.46537490  1
  O  O32  1  0.93608436  0.21654565  0.57678013  1
  O  O33  1  0.47320901  0.31698087  0.73074858  1
  O  O34  1  0.73231525  0.67347037  0.04973680  1
  O  O35  1  0.21858156  0.33257976  0.95808497  1
  O  O36  1  0.57837741  0.70408042  0.21901909  1
  O  O37  1  0.05155417  0.76357091  0.46055268  1
  O  O38  1  0.95811732  0.41083763  0.58157518  1
  O  O39  1  0.46408706  0.52381541  0.72773882  1
  O  O40  1  0.72654303  0.87315924  0.05311855  1
  O  O41  1  0.23365188  0.54222185  0.93757322  1
  O  O42  1  0.56596506  0.89269191  0.23971924  1
  O  O43  1  0.07261881  0.96030683  0.45425214  1
  O  O44  1  0.94217150  0.61544930  0.57957944  1
  O  O45  1  0.45860318  0.72981672  0.71091030  1
  O  O46  1  0.23266087  0.73875294  0.94044526  1
  O  O47  1  0.94051066  0.81999258  0.56835177  1
  O  O48  1  0.47922580  0.92310435  0.71713437  1
  O  O49  1  0.22875132  0.94057685  0.93936796  1
