# generated using pymatgen
data_Co7Re17O48
_symmetry_space_group_name_H-M   'P 1'
_cell_length_a   5.76899387
_cell_length_b   7.32180761
_cell_length_c   22.26412342
_cell_angle_alpha   81.40673335
_cell_angle_beta   67.11457318
_cell_angle_gamma   66.94666668
_symmetry_Int_Tables_number   1
_chemical_formula_structural   Co7Re17O48
_chemical_formula_sum   'Co7 Re17 O48'
_cell_volume   797.20399532
_cell_formula_units_Z   1
loop_
 _symmetry_equiv_pos_site_id
 _symmetry_equiv_pos_as_xyz
  1  'x, y, z'
loop_
 _atom_site_type_symbol
 _atom_site_label
 _atom_site_symmetry_multiplicity
 _atom_site_fract_x
 _atom_site_fract_y
 _atom_site_fract_z
 _atom_site_occupancy
  Co  Co0  1  0.51137810  0.99878353  0.00269802  1
  Co  Co1  1  0.01077164  0.98530718  0.15973558  1
  Co  Co2  1  0.00117734  0.49464886  0.66687967  1
  Co  Co3  1  0.01481619  0.99233649  0.49257203  1
  Co  Co4  1  0.47724653  0.50993103  0.33958501  1
  Co  Co5  1  0.00801209  0.49490385  0.99970612  1
  Co  Co6  1  0.49264862  0.51091247  0.66662088  1
  Re  Re7  1  0.99682959  0.00045841  0.00036098  1
  Re  Re8  1  0.01053082  0.49235740  0.32848547  1
  Re  Re9  1  0.50100677  0.00302627  0.16656991  1
  Re  Re10  1  0.50113882  0.50300300  0.99946340  1
  Re  Re11  1  0.52755743  0.99897070  0.33133259  1
  Re  Re12  1  0.53196238  0.49722217  0.16620776  1
  Re  Re13  1  0.48466314  0.00974637  0.50370371  1
  Re  Re14  1  0.52237490  0.00176610  0.66800421  1
  Re  Re15  1  0.51839606  0.50033685  0.50029363  1
  Re  Re16  1  0.97201029  0.49352694  0.16667967  1
  Re  Re17  1  0.97451456  0.00750090  0.83480485  1
  Re  Re18  1  0.97178878  0.00252677  0.33165188  1
  Re  Re19  1  0.52293734  0.99473387  0.83918037  1
  Re  Re20  1  0.47152300  0.51054872  0.83375234  1
  Re  Re21  1  0.96863772  0.50276415  0.50074133  1
  Re  Re22  1  0.97175540  0.00199276  0.66635110  1
  Re  Re23  1  0.03700226  0.49141362  0.83382974  1
  O  O24  1  0.15630063  0.20366509  0.16591625  1
  O  O25  1  0.16408476  0.71066172  0.99891830  1
  O  O26  1  0.38401800  0.30098520  0.99842055  1
  O  O27  1  0.15421750  0.49910822  0.23000538  1
  O  O28  1  0.14586174  0.00270724  0.06244977  1
  O  O29  1  0.34878634  0.99685046  0.26654103  1
  O  O30  1  0.34529049  0.50192238  0.10135052  1
  O  O31  1  0.66852433  0.99935531  0.07129588  1
  O  O32  1  0.38494889  0.78780181  0.49924826  1
  O  O33  1  0.34532254  0.28524635  0.33017346  1
  O  O34  1  0.10891353  0.71461547  0.33256566  1
  O  O35  1  0.38318594  0.78591987  0.16459846  1
  O  O36  1  0.63414547  0.69510544  0.00091596  1
  O  O37  1  0.82685066  0.78017770  0.16729575  1
  O  O38  1  0.83967130  0.28963488  0.99907994  1
  O  O39  1  0.14957302  0.50722702  0.56217234  1
  O  O40  1  0.16266112  0.99317906  0.39185096  1
  O  O41  1  0.34421143  0.00202170  0.60265417  1
  O  O42  1  0.33176076  0.50683456  0.43949216  1
  O  O43  1  0.62800162  0.01305830  0.40746712  1
  O  O44  1  0.63545182  0.49717237  0.24113580  1
  O  O45  1  0.86727878  0.48881478  0.09281792  1
  O  O46  1  0.16829920  0.19480821  0.83455481  1
  O  O47  1  0.36292807  0.27757748  0.66800012  1
  O  O48  1  0.12486541  0.72478739  0.66880543  1
  O  O49  1  0.14399354  0.21397539  0.50255634  1
  O  O50  1  0.85684839  0.29365522  0.33068769  1
  O  O51  1  0.82333143  0.79112541  0.49950707  1
  O  O52  1  0.62567453  0.21270544  0.16712142  1
  O  O53  1  0.66848689  0.70908740  0.33262012  1
  O  O54  1  0.14421011  0.50153158  0.90693163  1
  O  O55  1  0.13994475  0.00686430  0.73366053  1
  O  O56  1  0.35324978  0.99841043  0.93294555  1
  O  O57  1  0.36310522  0.50289951  0.76013129  1
  O  O58  1  0.64349294  0.00054121  0.74207322  1
  O  O59  1  0.63217525  0.50483243  0.57318947  1
  O  O60  1  0.86594641  0.48853673  0.42487859  1
  O  O61  1  0.86142495  0.99740839  0.25776784  1
  O  O62  1  0.34068296  0.80775978  0.83327225  1
  O  O63  1  0.85448802  0.27911346  0.66677015  1
  O  O64  1  0.87371311  0.77780805  0.83556570  1
  O  O65  1  0.63853941  0.20873796  0.50156467  1
  O  O66  1  0.63821081  0.72590101  0.66959115  1
  O  O67  1  0.65435779  0.50449222  0.89888910  1
  O  O68  1  0.84342101  0.49691821  0.77545647  1
  O  O69  1  0.85906226  0.99506951  0.59391408  1
  O  O70  1  0.62694228  0.22447572  0.83640356  1
  O  O71  1  0.88286503  0.00019423  0.92756587  1
