# generated using pymatgen
data_KPH3NO3
_symmetry_space_group_name_H-M   'P 1'
_cell_length_a   6.88488288
_cell_length_b   10.51352153
_cell_length_c   14.40847948
_cell_angle_alpha   90.00000000
_cell_angle_beta   57.57711110
_cell_angle_gamma   90.00000000
_symmetry_Int_Tables_number   1
_chemical_formula_structural   KPH3NO3
_chemical_formula_sum   'K8 P8 H24 N8 O24'
_cell_volume   880.36733339
_cell_formula_units_Z   8
loop_
 _symmetry_equiv_pos_site_id
 _symmetry_equiv_pos_as_xyz
  1  'x, y, z'
loop_
 _atom_site_type_symbol
 _atom_site_label
 _atom_site_symmetry_multiplicity
 _atom_site_fract_x
 _atom_site_fract_y
 _atom_site_fract_z
 _atom_site_occupancy
  K  K0  1  0.76253588  0.67741587  0.21202971  1
  K  K1  1  0.23746412  0.17741587  0.28797029  1
  K  K2  1  0.23746412  0.32258413  0.78797029  1
  K  K3  1  0.76253588  0.82258413  0.71202971  1
  K  K4  1  0.82149039  0.66364041  0.93076953  1
  K  K5  1  0.17850961  0.16364041  0.56923047  1
  K  K6  1  0.17850961  0.33635959  0.06923047  1
  K  K7  1  0.82149039  0.83635959  0.43076953  1
  P  P8  1  0.88371257  0.47289371  0.68321337  1
  P  P9  1  0.11628743  0.97289371  0.81678663  1
  P  P10  1  0.11628743  0.52710629  0.31678663  1
  P  P11  1  0.88371257  0.02710629  0.18321337  1
  P  P12  1  0.75286477  0.37629051  0.52109358  1
  P  P13  1  0.24713523  0.87629051  0.97890642  1
  P  P14  1  0.24713523  0.62370949  0.47890642  1
  P  P15  1  0.75286477  0.12370949  0.02109358  1
  H  H16  1  0.72090193  0.53952298  0.42486257  1
  H  H17  1  0.27909807  0.03952298  0.07513743  1
  H  H18  1  0.27909807  0.46047702  0.57513743  1
  H  H19  1  0.72090193  0.96047702  0.92486257  1
  H  H20  1  0.62293628  0.54269333  0.64373789  1
  H  H21  1  0.37706372  0.04269333  0.85626211  1
  H  H22  1  0.37706372  0.45730667  0.35626211  1
  H  H23  1  0.62293628  0.95730667  0.14373789  1
  H  H24  1  0.76640380  0.38997931  0.05034731  1
  H  H25  1  0.23359620  0.88997931  0.44965269  1
  H  H26  1  0.23359620  0.61002069  0.94965269  1
  H  H27  1  0.76640380  0.11002069  0.55034731  1
  H  H28  1  0.53946856  0.45872211  0.13849617  1
  H  H29  1  0.46053144  0.95872211  0.36150383  1
  H  H30  1  0.46053144  0.54127789  0.86150383  1
  H  H31  1  0.53946856  0.04127789  0.63849617  1
  H  H32  1  0.53510590  0.31517640  0.41672418  1
  H  H33  1  0.46489410  0.81517640  0.08327582  1
  H  H34  1  0.46489410  0.68482360  0.58327582  1
  H  H35  1  0.53510590  0.18482360  0.91672418  1
  H  H36  1  0.66631112  0.24242020  0.30469914  1
  H  H37  1  0.33368888  0.74242020  0.19530086  1
  H  H38  1  0.33368888  0.75757980  0.69530086  1
  H  H39  1  0.66631112  0.25757980  0.80469914  1
  N  N40  1  0.85027175  0.47989852  0.41611435  1
  N  N41  1  0.14972825  0.97989852  0.08388565  1
  N  N42  1  0.14972825  0.52010148  0.58388565  1
  N  N43  1  0.85027175  0.02010148  0.91611435  1
  N  N44  1  0.71829517  0.46093036  0.62930863  1
  N  N45  1  0.28170483  0.96093036  0.87069137  1
  N  N46  1  0.28170483  0.53906964  0.37069137  1
  N  N47  1  0.71829517  0.03906964  0.12930863  1
  O  O48  1  0.91984942  0.34468876  0.72018706  1
  O  O49  1  0.08015058  0.84468876  0.77981294  1
  O  O50  1  0.08015058  0.65531124  0.27981294  1
  O  O51  1  0.91984942  0.15531124  0.22018706  1
  O  O52  1  0.76228015  0.57487058  0.77100697  1
  O  O53  1  0.23771985  0.07487058  0.72899303  1
  O  O54  1  0.23771985  0.42512942  0.22899303  1
  O  O55  1  0.76228015  0.92512942  0.27100697  1
  O  O56  1  0.92221941  0.26986550  0.49507189  1
  O  O57  1  0.07778059  0.76986550  0.00492811  1
  O  O58  1  0.07778059  0.73013450  0.50492811  1
  O  O59  1  0.92221941  0.23013450  0.99507189  1
  O  O60  1  0.51183122  0.34066354  0.54959008  1
  O  O61  1  0.48816878  0.84066354  0.95040992  1
  O  O62  1  0.48816878  0.65933646  0.45040992  1
  O  O63  1  0.51183122  0.15933646  0.04959008  1
  O  O64  1  0.70539760  0.47428553  0.08278923  1
  O  O65  1  0.29460240  0.97428553  0.41721077  1
  O  O66  1  0.29460240  0.52571447  0.91721077  1
  O  O67  1  0.70539760  0.02571447  0.58278923  1
  O  O68  1  0.51807717  0.28643017  0.35609801  1
  O  O69  1  0.48192283  0.78643017  0.14390199  1
  O  O70  1  0.48192283  0.71356983  0.64390199  1
  O  O71  1  0.51807717  0.21356983  0.85609801  1
