# generated using pymatgen
data_Mo(PO3)5
_symmetry_space_group_name_H-M   'P 1'
_cell_length_a   10.65215293
_cell_length_b   14.02648307
_cell_length_c   9.40007884
_cell_angle_alpha   90.00000000
_cell_angle_beta   69.28445029
_cell_angle_gamma   90.00000000
_symmetry_Int_Tables_number   1
_chemical_formula_structural   Mo(PO3)5
_chemical_formula_sum   'Mo4 P20 O60'
_cell_volume   1313.68406871
_cell_formula_units_Z   4
loop_
 _symmetry_equiv_pos_site_id
 _symmetry_equiv_pos_as_xyz
  1  'x, y, z'
loop_
 _atom_site_type_symbol
 _atom_site_label
 _atom_site_symmetry_multiplicity
 _atom_site_fract_x
 _atom_site_fract_y
 _atom_site_fract_z
 _atom_site_occupancy
  Mo  Mo0  1  0.49929240  0.99983595  0.50076712  1
  Mo  Mo1  1  0.00070760  0.00016405  0.49923288  1
  Mo  Mo2  1  0.99929240  0.50016405  0.50076712  1
  Mo  Mo3  1  0.50070760  0.49983595  0.49923288  1
  P  P4  1  0.26856416  0.25207050  0.00493744  1
  P  P5  1  0.24178779  0.14390949  0.52586679  1
  P  P6  1  0.25881704  0.64222871  0.47664860  1
  P  P7  1  0.26474191  0.08321107  0.82071073  1
  P  P8  1  0.23143584  0.74792950  0.99506256  1
  P  P9  1  0.23525809  0.91678893  0.17928927  1
  P  P10  1  0.24118296  0.35777129  0.52335140  1
  P  P11  1  0.75929695  0.07676537  0.81747637  1
  P  P12  1  0.73525809  0.58321107  0.17928927  1
  P  P13  1  0.25821221  0.85609051  0.47413321  1
  P  P14  1  0.76856416  0.24792950  0.00493744  1
  P  P15  1  0.73143584  0.75207050  0.99506256  1
  P  P16  1  0.75821221  0.64390949  0.47413321  1
  P  P17  1  0.76474191  0.41678893  0.82071073  1
  P  P18  1  0.24070305  0.57676537  0.18252363  1
  P  P19  1  0.74178779  0.35609051  0.52586679  1
  P  P20  1  0.74118296  0.14222871  0.52335140  1
  P  P21  1  0.74070305  0.92323463  0.18252363  1
  P  P22  1  0.25929695  0.42323463  0.81747637  1
  P  P23  1  0.75881704  0.85777129  0.47664860  1
  O  O24  1  0.38205956  0.75446572  0.92183904  1
  O  O25  1  0.78666002  0.64744133  0.29751198  1
  O  O26  1  0.88871453  0.47235926  0.71687588  1
  O  O27  1  0.61220918  0.37851587  0.49875943  1
  O  O28  1  0.34860926  0.96743795  0.07041617  1
  O  O29  1  0.88205956  0.74553428  0.92183904  1
  O  O30  1  0.79032534  0.85681005  0.29938182  1
  O  O31  1  0.20967466  0.35681005  0.70061818  1
  O  O32  1  0.21638431  0.74931167  0.52836971  1
  O  O33  1  0.68040221  0.84105092  0.10765894  1
  O  O34  1  0.15139074  0.03256205  0.92958383  1
  O  O35  1  0.61218018  0.12106611  0.49429516  1
  O  O36  1  0.16745121  0.83332039  0.11411275  1
  O  O37  1  0.61128547  0.52764074  0.28312412  1
  O  O38  1  0.88781982  0.87893389  0.50570484  1
  O  O39  1  0.29032534  0.64318995  0.29938182  1
  O  O40  1  0.85984790  0.41851945  0.44072787  1
  O  O41  1  0.71333998  0.35255867  0.70248802  1
  O  O42  1  0.11218018  0.37893389  0.49429516  1
  O  O43  1  0.21333998  0.14744133  0.70248802  1
  O  O44  1  0.38871453  0.02764074  0.71687588  1
  O  O45  1  0.36009782  0.41961267  0.43854302  1
  O  O46  1  0.11154656  0.52610877  0.28523218  1
  O  O47  1  0.38845344  0.47389123  0.71476782  1
  O  O48  1  0.14015210  0.91851945  0.55927213  1
  O  O49  1  0.28361569  0.25068833  0.47163029  1
  O  O50  1  0.16884444  0.74540859  0.87392868  1
  O  O51  1  0.81959779  0.15894908  0.89234106  1
  O  O52  1  0.31959779  0.34105092  0.89234106  1
  O  O53  1  0.70967466  0.14318995  0.70061818  1
  O  O54  1  0.78361569  0.24931167  0.47163029  1
  O  O55  1  0.63990218  0.91961267  0.56145698  1
  O  O56  1  0.33115556  0.25459141  0.12607132  1
  O  O57  1  0.84860926  0.53256205  0.07041617  1
  O  O58  1  0.83254879  0.33332039  0.88588725  1
  O  O59  1  0.11220918  0.12148413  0.49875943  1
  O  O60  1  0.14735489  0.47933673  0.91889445  1
  O  O61  1  0.85264511  0.97933673  0.08110555  1
  O  O62  1  0.86009782  0.08038733  0.43854302  1
  O  O63  1  0.83115556  0.24540859  0.12607132  1
  O  O64  1  0.61794044  0.25446572  0.07816096  1
  O  O65  1  0.71638431  0.75068833  0.52836971  1
  O  O66  1  0.88779082  0.62148413  0.50124057  1
  O  O67  1  0.66745121  0.66667961  0.11411275  1
  O  O68  1  0.11794044  0.24553428  0.07816096  1
  O  O69  1  0.18040221  0.65894908  0.10765894  1
  O  O70  1  0.35264511  0.52066327  0.08110555  1
  O  O71  1  0.33254879  0.16667961  0.88588725  1
  O  O72  1  0.61154656  0.97389123  0.28523218  1
  O  O73  1  0.13990218  0.58038733  0.56145698  1
  O  O74  1  0.64015210  0.58148055  0.55927213  1
  O  O75  1  0.64735489  0.02066327  0.91889445  1
  O  O76  1  0.88845344  0.02610877  0.71476782  1
  O  O77  1  0.11128547  0.97235926  0.28312412  1
  O  O78  1  0.38779082  0.87851587  0.50124057  1
  O  O79  1  0.65139074  0.46743795  0.92958383  1
  O  O80  1  0.35984790  0.08148055  0.44072787  1
  O  O81  1  0.38781982  0.62106611  0.50570484  1
  O  O82  1  0.28666002  0.85255867  0.29751198  1
  O  O83  1  0.66884444  0.75459141  0.87392868  1
