# generated using pymatgen
data_Sm2TiO5
_symmetry_space_group_name_H-M   'P 1'
_cell_length_a   7.63032142
_cell_length_b   3.69659938
_cell_length_c   15.89703858
_cell_angle_alpha   90.00000000
_cell_angle_beta   90.00000000
_cell_angle_gamma   90.00000000
_symmetry_Int_Tables_number   1
_chemical_formula_structural   Sm2TiO5
_chemical_formula_sum   'Sm8 Ti4 O20'
_cell_volume   448.39570822
_cell_formula_units_Z   4
loop_
 _symmetry_equiv_pos_site_id
 _symmetry_equiv_pos_as_xyz
  1  'x, y, z'
loop_
 _atom_site_type_symbol
 _atom_site_label
 _atom_site_symmetry_multiplicity
 _atom_site_fract_x
 _atom_site_fract_y
 _atom_site_fract_z
 _atom_site_occupancy
  Sm  Sm0  1  0.12247513  0.25000000  0.07913410  1
  Sm  Sm1  1  0.14097589  0.25000000  0.73870262  1
  Sm  Sm2  1  0.35902411  0.75000000  0.23870262  1
  Sm  Sm3  1  0.37752487  0.75000000  0.57913410  1
  Sm  Sm4  1  0.62247513  0.25000000  0.42086590  1
  Sm  Sm5  1  0.64097589  0.25000000  0.76129738  1
  Sm  Sm6  1  0.85902411  0.75000000  0.26129738  1
  Sm  Sm7  1  0.87752487  0.75000000  0.92086590  1
  Ti  Ti8  1  0.12404955  0.25000000  0.42211314  1
  Ti  Ti9  1  0.37595045  0.75000000  0.92211314  1
  Ti  Ti10  1  0.62404955  0.25000000  0.07788686  1
  Ti  Ti11  1  0.87595045  0.75000000  0.57788686  1
  O  O12  1  0.09013369  0.75000000  0.17148456  1
  O  O13  1  0.08807765  0.75000000  0.45351093  1
  O  O14  1  0.10164211  0.75000000  0.64813916  1
  O  O15  1  0.15639572  0.75000000  0.99065177  1
  O  O16  1  0.25503249  0.25000000  0.32409081  1
  O  O17  1  0.24496751  0.75000000  0.82409081  1
  O  O18  1  0.34360428  0.25000000  0.49065177  1
  O  O19  1  0.39835789  0.25000000  0.14813916  1
  O  O20  1  0.41192235  0.25000000  0.95351093  1
  O  O21  1  0.40986631  0.25000000  0.67148456  1
  O  O22  1  0.59013369  0.75000000  0.32851544  1
  O  O23  1  0.58807765  0.75000000  0.04648907  1
  O  O24  1  0.60164211  0.75000000  0.85186084  1
  O  O25  1  0.65639572  0.75000000  0.50934823  1
  O  O26  1  0.75503249  0.25000000  0.17590919  1
  O  O27  1  0.74496751  0.75000000  0.67590919  1
  O  O28  1  0.84360428  0.25000000  0.00934823  1
  O  O29  1  0.89835789  0.25000000  0.35186084  1
  O  O30  1  0.91192235  0.25000000  0.54648907  1
  O  O31  1  0.90986631  0.25000000  0.82851544  1
