# generated using pymatgen
data_FeP3(H2O3)3
_symmetry_space_group_name_H-M   'P 1'
_cell_length_a   7.61364970
_cell_length_b   7.61364970
_cell_length_c   9.88071475
_cell_angle_alpha   75.68117686
_cell_angle_beta   104.31882314
_cell_angle_gamma   129.69273189
_symmetry_Int_Tables_number   1
_chemical_formula_structural   FeP3(H2O3)3
_chemical_formula_sum   'Fe2 P6 H12 O18'
_cell_volume   423.95923874
_cell_formula_units_Z   2
loop_
 _symmetry_equiv_pos_site_id
 _symmetry_equiv_pos_as_xyz
  1  'x, y, z'
loop_
 _atom_site_type_symbol
 _atom_site_label
 _atom_site_symmetry_multiplicity
 _atom_site_fract_x
 _atom_site_fract_y
 _atom_site_fract_z
 _atom_site_occupancy
  Fe  Fe0  1  0.09692220  0.70377580  0.64305870  1
  Fe  Fe1  1  0.29622420  0.90307780  0.14305870  1
  P  P2  1  0.78775587  0.38888533  0.06472905  1
  P  P3  1  0.61111467  0.21224413  0.56472905  1
  P  P4  1  0.95244112  0.86379206  0.31996860  1
  P  P5  1  0.13620794  0.04755888  0.81996860  1
  P  P6  1  0.32896672  0.61139451  0.44605747  1
  P  P7  1  0.38860549  0.67103328  0.94605747  1
  H  H8  1  0.84880727  0.27705671  0.01763885  1
  H  H9  1  0.72294329  0.15119273  0.51763885  1
  H  H10  1  0.79318804  0.65622192  0.26151834  1
  H  H11  1  0.34377808  0.20681196  0.76151834  1
  H  H12  1  0.21950313  0.39604249  0.40469477  1
  H  H13  1  0.60395751  0.78049687  0.90469477  1
  H  H14  1  0.80146280  0.59524511  0.86231100  1
  H  H15  1  0.40475489  0.19853720  0.36231100  1
  H  H16  1  0.04523378  0.27780019  0.77810708  1
  H  H17  1  0.72219981  0.95476622  0.27810708  1
  H  H18  1  0.29484737  0.32860399  0.04252776  1
  H  H19  1  0.67139601  0.70515263  0.54252776  1
  O  O20  1  0.00324104  0.58851877  0.14060171  1
  O  O21  1  0.41148123  0.99675896  0.64060171  1
  O  O22  1  0.78281923  0.40349026  0.65859364  1
  O  O23  1  0.59650974  0.21718077  0.15859364  1
  O  O24  1  0.68678494  0.47685032  0.93113871  1
  O  O25  1  0.52314968  0.31321506  0.43113871  1
  O  O26  1  0.94964606  0.82091117  0.48010554  1
  O  O27  1  0.17908883  0.05035394  0.98010554  1
  O  O28  1  0.01359134  0.81197663  0.77376689  1
  O  O29  1  0.18802337  0.98640866  0.27376689  1
  O  O30  1  0.98084129  0.12591894  0.75273491  1
  O  O31  1  0.87408106  0.01915871  0.25273491  1
  O  O32  1  0.20280849  0.56480197  0.81960775  1
  O  O33  1  0.43519803  0.79719151  0.31960775  1
  O  O34  1  0.34087805  0.47164082  0.06892359  1
  O  O35  1  0.52835918  0.65912195  0.56892359  1
  O  O36  1  0.15089809  0.58930982  0.50801565  1
  O  O37  1  0.41069018  0.84910191  0.00801565  1
