# generated using pymatgen
data_TiOF
_symmetry_space_group_name_H-M   'P 1'
_cell_length_a   4.03532328
_cell_length_b   6.50602354
_cell_length_c   3.05483188
_cell_angle_alpha   90.00001596
_cell_angle_beta   89.99993659
_cell_angle_gamma   90.00004173
_symmetry_Int_Tables_number   1
_chemical_formula_structural   TiOF
_chemical_formula_sum   'Ti2 O2 F2'
_cell_volume   80.20127590
_cell_formula_units_Z   2
loop_
 _symmetry_equiv_pos_site_id
 _symmetry_equiv_pos_as_xyz
  1  'x, y, z'
loop_
 _atom_site_type_symbol
 _atom_site_label
 _atom_site_symmetry_multiplicity
 _atom_site_fract_x
 _atom_site_fract_y
 _atom_site_fract_z
 _atom_site_occupancy
  Ti  Ti0  1  0.24999410  0.11201574  0.75000109  1
  Ti  Ti1  1  0.75000422  0.88797976  0.24999679  1
  O  O2  1  0.25000204  0.89810374  0.25000212  1
  O  O3  1  0.75000042  0.10190825  0.75000131  1
  F  F4  1  0.25000094  0.31331024  0.24999918  1
  F  F5  1  0.74999828  0.68668227  0.74999951  1
