# generated using pymatgen
data_LiAgF2
_symmetry_space_group_name_H-M   'P 1'
_cell_length_a   6.14029710
_cell_length_b   11.48738248
_cell_length_c   3.18723701
_cell_angle_alpha   90.00000000
_cell_angle_beta   90.00000000
_cell_angle_gamma   90.00000000
_symmetry_Int_Tables_number   1
_chemical_formula_structural   LiAgF2
_chemical_formula_sum   'Li4 Ag4 F8'
_cell_volume   224.81476274
_cell_formula_units_Z   4
loop_
 _symmetry_equiv_pos_site_id
 _symmetry_equiv_pos_as_xyz
  1  'x, y, z'
loop_
 _atom_site_type_symbol
 _atom_site_label
 _atom_site_symmetry_multiplicity
 _atom_site_fract_x
 _atom_site_fract_y
 _atom_site_fract_z
 _atom_site_occupancy
  Li  Li0  1  0.11431841  0.57153298  0.25000000  1
  Li  Li1  1  0.38568159  0.07153298  0.25000000  1
  Li  Li2  1  0.61431841  0.92846702  0.75000000  1
  Li  Li3  1  0.88568159  0.42846702  0.75000000  1
  Ag  Ag4  1  0.05970473  0.86669662  0.25000000  1
  Ag  Ag5  1  0.44029527  0.36669662  0.25000000  1
  Ag  Ag6  1  0.55970473  0.63330338  0.75000000  1
  Ag  Ag7  1  0.94029527  0.13330338  0.75000000  1
  F  F8  1  0.18378890  0.48160701  0.75000000  1
  F  F9  1  0.21018696  0.20026872  0.25000000  1
  F  F10  1  0.28981304  0.70026872  0.25000000  1
  F  F11  1  0.31621110  0.98160701  0.75000000  1
  F  F12  1  0.68378890  0.01839299  0.25000000  1
  F  F13  1  0.71018696  0.29973128  0.75000000  1
  F  F14  1  0.78981304  0.79973128  0.75000000  1
  F  F15  1  0.81621110  0.51839299  0.25000000  1
