# generated using pymatgen
data_Y2HfO5
_symmetry_space_group_name_H-M   'P 1'
_cell_length_a   9.68786947
_cell_length_b   7.23389716
_cell_length_c   6.51167014
_cell_angle_alpha   90.00000000
_cell_angle_beta   104.73381654
_cell_angle_gamma   90.00000000
_symmetry_Int_Tables_number   1
_chemical_formula_structural   Y2HfO5
_chemical_formula_sum   'Y8 Hf4 O20'
_cell_volume   441.33907901
_cell_formula_units_Z   4
loop_
 _symmetry_equiv_pos_site_id
 _symmetry_equiv_pos_as_xyz
  1  'x, y, z'
loop_
 _atom_site_type_symbol
 _atom_site_label
 _atom_site_symmetry_multiplicity
 _atom_site_fract_x
 _atom_site_fract_y
 _atom_site_fract_z
 _atom_site_occupancy
  Y  Y0  1  0.14680550  0.36253721  0.97068795  1
  Y  Y1  1  0.14680550  0.13746279  0.47068795  1
  Y  Y2  1  0.46920102  0.37621295  0.76089591  1
  Y  Y3  1  0.53079898  0.87621295  0.73910409  1
  Y  Y4  1  0.46920102  0.12378705  0.26089591  1
  Y  Y5  1  0.53079898  0.62378705  0.23910409  1
  Y  Y6  1  0.85319450  0.86253721  0.52931205  1
  Y  Y7  1  0.85319450  0.63746279  0.02931205  1
  Hf  Hf8  1  0.18882191  0.88906001  0.93852731  1
  Hf  Hf9  1  0.18882191  0.61093999  0.43852731  1
  Hf  Hf10  1  0.81117809  0.38906001  0.56147269  1
  Hf  Hf11  1  0.81117809  0.11093999  0.06147269  1
  O  O12  1  0.15163745  0.67744505  0.11053468  1
  O  O13  1  0.06522146  0.10636854  0.77063068  1
  O  O14  1  0.15163745  0.82255495  0.61053468  1
  O  O15  1  0.22357562  0.40963158  0.66445438  1
  O  O16  1  0.06522146  0.39363146  0.27063068  1
  O  O17  1  0.22357562  0.09036842  0.16445438  1
  O  O18  1  0.39005388  0.11183010  0.57457102  1
  O  O19  1  0.39845598  0.63734207  0.50472813  1
  O  O20  1  0.39005388  0.38816990  0.07457102  1
  O  O21  1  0.39845598  0.86265793  0.00472813  1
  O  O22  1  0.60154402  0.13734207  0.99527187  1
  O  O23  1  0.60994612  0.61183010  0.92542898  1
  O  O24  1  0.60154402  0.36265793  0.49527187  1
  O  O25  1  0.60994612  0.88816990  0.42542898  1
  O  O26  1  0.77642438  0.90963158  0.83554562  1
  O  O27  1  0.93477854  0.60636854  0.72936932  1
  O  O28  1  0.77642438  0.59036842  0.33554562  1
  O  O29  1  0.84836255  0.17744505  0.38946532  1
  O  O30  1  0.93477854  0.89363146  0.22936932  1
  O  O31  1  0.84836255  0.32255495  0.88946532  1
