# generated using pymatgen
data_LiV5H18N2O19
_symmetry_space_group_name_H-M   'P 1'
_cell_length_a   8.58116375
_cell_length_b   10.31353058
_cell_length_c   11.30350214
_cell_angle_alpha   68.28586128
_cell_angle_beta   86.54934285
_cell_angle_gamma   67.07598831
_symmetry_Int_Tables_number   1
_chemical_formula_structural   LiV5H18N2O19
_chemical_formula_sum   'Li2 V10 H36 N4 O38'
_cell_volume   851.86914459
_cell_formula_units_Z   2
loop_
 _symmetry_equiv_pos_site_id
 _symmetry_equiv_pos_as_xyz
  1  'x, y, z'
loop_
 _atom_site_type_symbol
 _atom_site_label
 _atom_site_symmetry_multiplicity
 _atom_site_fract_x
 _atom_site_fract_y
 _atom_site_fract_z
 _atom_site_occupancy
  Li  Li0  1  0.56507541  0.33961416  0.13558516  1
  Li  Li1  1  0.43492459  0.66038584  0.86441484  1
  V  V2  1  0.03404802  0.79868866  0.23348065  1
  V  V3  1  0.96595198  0.20131134  0.76651935  1
  V  V4  1  0.18875463  0.50303424  0.48066529  1
  V  V5  1  0.81124537  0.49696576  0.51933471  1
  V  V6  1  0.02373180  0.49625961  0.74373311  1
  V  V7  1  0.97626820  0.50374039  0.25626689  1
  V  V8  1  0.87372288  0.79070727  0.49672868  1
  V  V9  1  0.12627712  0.20929273  0.50327132  1
  V  V10  1  0.67016385  0.79000357  0.27401595  1
  V  V11  1  0.32983615  0.20999643  0.72598405  1
  H  H12  1  0.23800160  0.56535827  0.06385299  1
  H  H13  1  0.76199840  0.43464173  0.93614701  1
  H  H14  1  0.24818808  0.49615524  0.96190771  1
  H  H15  1  0.75181192  0.50384476  0.03809229  1
  H  H16  1  0.57220143  0.46230159  0.72425154  1
  H  H17  1  0.42779857  0.53769841  0.27574846  1
  H  H18  1  0.39494702  0.46358548  0.76867859  1
  H  H19  1  0.60505298  0.53641452  0.23132141  1
  H  H20  1  0.87977668  0.08926891  0.27459727  1
  H  H21  1  0.12022332  0.91073109  0.72540273  1
  H  H22  1  0.89548843  0.24601461  0.23551646  1
  H  H23  1  0.10451157  0.75398539  0.76448354  1
  H  H24  1  0.50460992  0.09472827  0.32345636  1
  H  H25  1  0.49539008  0.90527173  0.67654364  1
  H  H26  1  0.36111152  0.25147921  0.32073616  1
  H  H27  1  0.63888848  0.74852079  0.67926384  1
  H  H28  1  0.66743752  0.10322738  0.06336880  1
  H  H29  1  0.33256248  0.89677262  0.93663120  1
  H  H30  1  0.58845781  0.25341172  0.94263797  1
  H  H31  1  0.41154219  0.74658828  0.05736203  1
  H  H32  1  0.74464395  0.08917643  0.54376611  1
  H  H33  1  0.25535605  0.91082357  0.45623389  1
  H  H34  1  0.59253415  0.25956861  0.53727411  1
  H  H35  1  0.40746585  0.74043139  0.46272589  1
  H  H36  1  0.61570406  0.21126925  0.40789335  1
  H  H37  1  0.38429594  0.78873075  0.59210665  1
  H  H38  1  0.76557291  0.25455909  0.45641688  1
  H  H39  1  0.23442709  0.74544091  0.54358312  1
  H  H40  1  0.77023974  0.92891278  0.87913148  1
  H  H41  1  0.22976026  0.07108722  0.12086852  1
  H  H42  1  0.85038768  0.74822210  0.87989833  1
  H  H43  1  0.14961232  0.25177790  0.12010167  1
  H  H44  1  0.83297134  0.77893000  0.01782625  1
  H  H45  1  0.16702866  0.22107000  0.98217375  1
  H  H46  1  0.65493241  0.82134664  0.93037511  1
  H  H47  1  0.34506759  0.17865336  0.06962489  1
  N  N48  1  0.67977738  0.20351878  0.48722672  1
  N  N49  1  0.32022262  0.79648122  0.51277328  1
  N  N50  1  0.77698760  0.81966446  0.92595774  1
  N  N51  1  0.22301240  0.18033554  0.07404226  1
  O  O52  1  0.84155183  0.88948343  0.58843169  1
  O  O53  1  0.15844817  0.11051657  0.41156831  1
  O  O54  1  0.99339015  0.60452681  0.82838434  1
  O  O55  1  0.00660985  0.39547319  0.17161566  1
  O  O56  1  0.11736514  0.90760687  0.13323139  1
  O  O57  1  0.88263486  0.09239313  0.86676861  1
  O  O58  1  0.47774956  0.89099555  0.20324804  1
  O  O59  1  0.52225044  0.10900445  0.79675196  1
  O  O60  1  0.98169203  0.87700752  0.36283115  1
  O  O61  1  0.01830797  0.12299248  0.63716885  1
  O  O62  1  0.23904937  0.63398730  0.35252893  1
  O  O63  1  0.76095063  0.36601270  0.64747107  1
  O  O64  1  0.24742900  0.36714788  0.79317095  1
  O  O65  1  0.75257100  0.63285212  0.20682905  1
  O  O66  1  0.67233123  0.87282517  0.39814782  1
  O  O67  1  0.32766877  0.12717483  0.60185218  1
  O  O68  1  0.37578285  0.37289888  0.57491030  1
  O  O69  1  0.62421715  0.62710112  0.42508970  1
  O  O70  1  0.06274173  0.64239308  0.16673807  1
  O  O71  1  0.93725827  0.35760692  0.83326193  1
  O  O72  1  0.80290385  0.88490939  0.17398706  1
  O  O73  1  0.19709615  0.11509061  0.82601294  1
  O  O74  1  0.10414733  0.62567849  0.58075373  1
  O  O75  1  0.89585267  0.37432151  0.41924627  1
  O  O76  1  0.18421098  0.37985935  0.38314646  1
  O  O77  1  0.81578902  0.62014065  0.61685354  1
  O  O78  1  0.93550966  0.62095223  0.39579003  1
  O  O79  1  0.06449034  0.37904777  0.60420997  1
  O  O80  1  0.31868324  0.51380754  0.01382542  1
  O  O81  1  0.68131676  0.48619246  0.98617458  1
  O  O82  1  0.48318169  0.49974686  0.77636167  1
  O  O83  1  0.51681831  0.50025314  0.22363833  1
  O  O84  1  0.81653832  0.19979100  0.23229319  1
  O  O85  1  0.18346168  0.80020900  0.76770681  1
  O  O86  1  0.47078624  0.20521709  0.28973588  1
  O  O87  1  0.52921376  0.79478291  0.71026412  1
  O  O88  1  0.57398230  0.20442639  0.03236140  1
  O  O89  1  0.42601770  0.79557361  0.96763860  1
