# generated using pymatgen
data_KHoH8RuC6(N3O2)2
_symmetry_space_group_name_H-M   'P 1'
_cell_length_a   7.45880051
_cell_length_b   7.45880051
_cell_length_c   14.19037703
_cell_angle_alpha   90.00000000
_cell_angle_beta   90.00000000
_cell_angle_gamma   120.01520055
_symmetry_Int_Tables_number   1
_chemical_formula_structural   KHoH8RuC6(N3O2)2
_chemical_formula_sum   'K2 Ho2 H16 Ru2 C12 N12 O8'
_cell_volume   683.59048354
_cell_formula_units_Z   2
loop_
 _symmetry_equiv_pos_site_id
 _symmetry_equiv_pos_as_xyz
  1  'x, y, z'
loop_
 _atom_site_type_symbol
 _atom_site_label
 _atom_site_symmetry_multiplicity
 _atom_site_fract_x
 _atom_site_fract_y
 _atom_site_fract_z
 _atom_site_occupancy
  H  H0  1  0.79028790  0.20971210  0.54704880  1
  H  H1  1  0.20971210  0.79028790  0.45295120  1
  H  H2  1  0.79028790  0.20971210  0.95295120  1
  H  H3  1  0.89972885  0.10027115  0.59394251  1
  H  H4  1  0.10027115  0.89972885  0.09394251  1
  H  H5  1  0.10027115  0.89972885  0.40605749  1
  H  H6  1  0.89972885  0.10027115  0.90605749  1
  H  H7  1  0.20971210  0.79028790  0.04704880  1
  H  H8  1  0.03256237  0.62169085  0.19363390  1
  H  H9  1  0.96743763  0.37830915  0.69363390  1
  H  H10  1  0.62169085  0.03256237  0.69363390  1
  H  H11  1  0.37830915  0.96743763  0.19363390  1
  H  H12  1  0.03256237  0.62169085  0.30636610  1
  H  H13  1  0.96743763  0.37830915  0.80636610  1
  H  H14  1  0.37830915  0.96743763  0.30636610  1
  H  H15  1  0.62169085  0.03256237  0.80636610  1
  C  C16  1  0.25709206  0.35537802  0.08943092  1
  C  C17  1  0.35537802  0.25709206  0.58943092  1
  C  C18  1  0.74290794  0.64462198  0.58943092  1
  C  C19  1  0.64462198  0.74290794  0.08943092  1
  C  C20  1  0.35840354  0.64159646  0.56174895  1
  C  C21  1  0.64159646  0.35840354  0.06174895  1
  C  C22  1  0.64159646  0.35840354  0.43825105  1
  C  C23  1  0.35840354  0.64159646  0.93825105  1
  C  C24  1  0.25709206  0.35537802  0.41056908  1
  C  C25  1  0.74290794  0.64462198  0.91056908  1
  C  C26  1  0.64462198  0.74290794  0.41056908  1
  C  C27  1  0.35537802  0.25709206  0.91056908  1
  N  N28  1  0.27509755  0.12190737  0.85504866  1
  N  N29  1  0.87809263  0.72490245  0.64495134  1
  N  N30  1  0.12190737  0.27509755  0.14495134  1
  N  N31  1  0.27509755  0.12190737  0.64495134  1
  N  N32  1  0.72490245  0.87809263  0.14495134  1
  N  N33  1  0.27919977  0.72080023  0.89670751  1
  N  N34  1  0.72080023  0.27919977  0.39670751  1
  N  N35  1  0.72080023  0.27919977  0.10329249  1
  N  N36  1  0.27919977  0.72080023  0.60329249  1
  N  N37  1  0.87809263  0.72490245  0.85504866  1
  N  N38  1  0.72490245  0.87809263  0.35504866  1
  N  N39  1  0.12190737  0.27509755  0.35504866  1
  O  O40  1  0.82576416  0.17423584  0.89166370  1
  O  O41  1  0.53603004  0.96317448  0.75000000  1
  O  O42  1  0.17423584  0.82576416  0.10833630  1
  O  O43  1  0.82576416  0.17423584  0.60833630  1
  O  O44  1  0.96317448  0.53603004  0.25000000  1
  O  O45  1  0.46396996  0.03682552  0.25000000  1
  O  O46  1  0.03682552  0.46396996  0.75000000  1
  O  O47  1  0.17423584  0.82576416  0.39166370  1
  K  K48  1  0.53851033  0.46148967  0.25000000  1
  K  K49  1  0.46148967  0.53851033  0.75000000  1
  Ru  Ru50  1  0.50000000  0.50000000  0.50000000  1
  Ru  Ru51  1  0.50000000  0.50000000  0.00000000  1
  Ho  Ho52  1  0.83089195  0.16910805  0.25000000  1
  Ho  Ho53  1  0.16910805  0.83089195  0.75000000  1
