# generated using pymatgen
data_CoH17S2N5ClO4
_symmetry_space_group_name_H-M   'P 1'
_cell_length_a   13.52081046
_cell_length_b   8.36685030
_cell_length_c   10.37744257
_cell_angle_alpha   90.00000000
_cell_angle_beta   90.00000000
_cell_angle_gamma   90.00000000
_symmetry_Int_Tables_number   1
_chemical_formula_structural   CoH17S2N5ClO4
_chemical_formula_sum   'Co4 H68 S8 N20 Cl4 O16'
_cell_volume   1173.96476406
_cell_formula_units_Z   4
loop_
 _symmetry_equiv_pos_site_id
 _symmetry_equiv_pos_as_xyz
  1  'x, y, z'
loop_
 _atom_site_type_symbol
 _atom_site_label
 _atom_site_symmetry_multiplicity
 _atom_site_fract_x
 _atom_site_fract_y
 _atom_site_fract_z
 _atom_site_occupancy
  Co  Co0  1  0.66469558  0.25000000  0.24555319  1
  Co  Co1  1  0.16469558  0.25000000  0.25444681  1
  Co  Co2  1  0.33530442  0.75000000  0.75444681  1
  Co  Co3  1  0.83530442  0.75000000  0.74555319  1
  H  H4  1  0.59380265  0.15094440  0.46480213  1
  H  H5  1  0.09380265  0.34905560  0.03519787  1
  H  H6  1  0.40619735  0.65094440  0.53519787  1
  H  H7  1  0.90619735  0.84905560  0.96480213  1
  H  H8  1  0.40619735  0.84905560  0.53519787  1
  H  H9  1  0.90619735  0.65094440  0.96480213  1
  H  H10  1  0.59380265  0.34905560  0.46480213  1
  H  H11  1  0.09380265  0.15094440  0.03519787  1
  H  H12  1  0.69700653  0.25000000  0.48763245  1
  H  H13  1  0.19700653  0.25000000  0.01236755  1
  H  H14  1  0.30299347  0.75000000  0.51236755  1
  H  H15  1  0.80299347  0.75000000  0.98763245  1
  H  H16  1  0.58347930  0.97192933  0.16707880  1
  H  H17  1  0.08347930  0.52807067  0.33292120  1
  H  H18  1  0.41652070  0.47192933  0.83292120  1
  H  H19  1  0.91652070  0.02807067  0.66707880  1
  H  H20  1  0.41652070  0.02807067  0.83292120  1
  H  H21  1  0.91652070  0.47192933  0.66707880  1
  H  H22  1  0.58347930  0.52807067  0.16707880  1
  H  H23  1  0.08347930  0.97192933  0.33292120  1
  H  H24  1  0.51192790  0.04658988  0.28220315  1
  H  H25  1  0.01192790  0.45341012  0.21779685  1
  H  H26  1  0.48807210  0.54658988  0.71779685  1
  H  H27  1  0.98807210  0.95341012  0.78220315  1
  H  H28  1  0.48807210  0.95341012  0.71779685  1
  H  H29  1  0.98807210  0.54658988  0.78220315  1
  H  H30  1  0.51192790  0.45341012  0.28220315  1
  H  H31  1  0.01192790  0.04658988  0.21779685  1
  H  H32  1  0.50689884  0.11770101  0.13465628  1
  H  H33  1  0.00689884  0.38229899  0.36534372  1
  H  H34  1  0.49310116  0.61770101  0.86534372  1
  H  H35  1  0.99310116  0.88229899  0.63465628  1
  H  H36  1  0.49310116  0.88229899  0.86534372  1
  H  H37  1  0.99310116  0.61770101  0.63465628  1
  H  H38  1  0.50689884  0.38229899  0.13465628  1
  H  H39  1  0.00689884  0.11770101  0.36534372  1
  H  H40  1  0.73063802  0.96249486  0.31034777  1
  H  H41  1  0.23063802  0.53750514  0.18965223  1
  H  H42  1  0.26936198  0.46249486  0.68965223  1
  H  H43  1  0.76936198  0.03750514  0.81034777  1
  H  H44  1  0.26936198  0.03750514  0.68965223  1
  H  H45  1  0.76936198  0.46249486  0.81034777  1
  H  H46  1  0.73063802  0.53750514  0.31034777  1
  H  H47  1  0.23063802  0.96249486  0.18965223  1
  H  H48  1  0.81109933  0.04128229  0.20833765  1
  H  H49  1  0.31109933  0.45871771  0.29166235  1
  H  H50  1  0.18890067  0.54128229  0.79166235  1
  H  H51  1  0.68890067  0.95871771  0.70833765  1
  H  H52  1  0.18890067  0.95871771  0.79166235  1
  H  H53  1  0.68890067  0.54128229  0.70833765  1
  H  H54  1  0.81109933  0.45871771  0.20833765  1
  H  H55  1  0.31109933  0.04128229  0.29166235  1
  H  H56  1  0.81025935  0.09951882  0.36101844  1
  H  H57  1  0.31025935  0.40048118  0.13898156  1
  H  H58  1  0.18974065  0.59951882  0.63898156  1
  H  H59  1  0.68974065  0.90048118  0.86101844  1
  H  H60  1  0.18974065  0.90048118  0.63898156  1
  H  H61  1  0.68974065  0.59951882  0.86101844  1
  H  H62  1  0.81025935  0.40048118  0.36101844  1
  H  H63  1  0.31025935  0.09951882  0.13898156  1
  H  H64  1  0.58878706  0.25000000  0.82520171  1
  H  H65  1  0.08878706  0.25000000  0.67479829  1
  H  H66  1  0.41121294  0.75000000  0.17479829  1
  H  H67  1  0.91121294  0.75000000  0.32520171  1
  H  H68  1  0.51173460  0.25000000  0.71547516  1
  H  H69  1  0.01173460  0.25000000  0.78452484  1
  H  H70  1  0.48826540  0.75000000  0.28452484  1
  H  H71  1  0.98826540  0.75000000  0.21547516  1
  S  S72  1  0.70273336  0.25000000  0.03064377  1
  S  S73  1  0.20273336  0.25000000  0.46935623  1
  S  S74  1  0.29726664  0.75000000  0.96935623  1
  S  S75  1  0.79726664  0.75000000  0.53064377  1
  S  S76  1  0.85595884  0.25000000  0.00146957  1
  S  S77  1  0.35595884  0.25000000  0.49853043  1
  S  S78  1  0.14404116  0.75000000  0.99853043  1
  S  S79  1  0.64404116  0.75000000  0.50146957  1
  N  N80  1  0.63237281  0.25000000  0.43529583  1
  N  N81  1  0.13237281  0.25000000  0.06470417  1
  N  N82  1  0.36762719  0.75000000  0.56470417  1
  N  N83  1  0.86762719  0.75000000  0.93529583  1
  N  N84  1  0.55478319  0.07635106  0.20425766  1
  N  N85  1  0.05478319  0.42364894  0.29574234  1
  N  N86  1  0.44521681  0.57635106  0.79574234  1
  N  N87  1  0.94521681  0.92364894  0.70425766  1
  N  N88  1  0.44521681  0.92364894  0.79574234  1
  N  N89  1  0.94521681  0.57635106  0.70425766  1
  N  N90  1  0.55478319  0.42364894  0.20425766  1
  N  N91  1  0.05478319  0.07635106  0.29574234  1
  N  N92  1  0.76551727  0.06673254  0.28471180  1
  N  N93  1  0.26551727  0.43326746  0.21528820  1
  N  N94  1  0.23448273  0.56673254  0.71528820  1
  N  N95  1  0.73448273  0.93326746  0.78471180  1
  N  N96  1  0.23448273  0.93326746  0.71528820  1
  N  N97  1  0.73448273  0.56673254  0.78471180  1
  N  N98  1  0.76551727  0.43326746  0.28471180  1
  N  N99  1  0.26551727  0.06673254  0.21528820  1
  Cl  Cl100  1  0.89724732  0.25000000  0.51291901  1
  Cl  Cl101  1  0.39724732  0.25000000  0.98708099  1
  Cl  Cl102  1  0.10275268  0.75000000  0.48708099  1
  Cl  Cl103  1  0.60275268  0.75000000  0.01291901  1
  O  O104  1  0.86183832  0.25000000  0.85871300  1
  O  O105  1  0.36183832  0.25000000  0.64128700  1
  O  O106  1  0.13816168  0.75000000  0.14128700  1
  O  O107  1  0.63816168  0.75000000  0.35871300  1
  O  O108  1  0.89806375  0.10322134  0.05848028  1
  O  O109  1  0.39806375  0.39677866  0.44151972  1
  O  O110  1  0.10193625  0.60322134  0.94151972  1
  O  O111  1  0.60193625  0.89677866  0.55848028  1
  O  O112  1  0.10193625  0.89677866  0.94151972  1
  O  O113  1  0.60193625  0.60322134  0.55848028  1
  O  O114  1  0.89806375  0.39677866  0.05848028  1
  O  O115  1  0.39806375  0.10322134  0.44151972  1
  O  O116  1  0.58312300  0.25000000  0.73150294  1
  O  O117  1  0.08312300  0.25000000  0.76849706  1
  O  O118  1  0.41687700  0.75000000  0.26849706  1
  O  O119  1  0.91687700  0.75000000  0.23150294  1
