# generated using pymatgen
data_NaTi6O12
_symmetry_space_group_name_H-M   'P 1'
_cell_length_a   5.96498635
_cell_length_b   5.96788767
_cell_length_c   7.16528217
_cell_angle_alpha   82.74851399
_cell_angle_beta   94.71726167
_cell_angle_gamma   59.90298641
_symmetry_Int_Tables_number   1
_chemical_formula_structural   NaTi6O12
_chemical_formula_sum   'Na1 Ti6 O12'
_cell_volume   215.74738875
_cell_formula_units_Z   1
loop_
 _symmetry_equiv_pos_site_id
 _symmetry_equiv_pos_as_xyz
  1  'x, y, z'
loop_
 _atom_site_type_symbol
 _atom_site_label
 _atom_site_symmetry_multiplicity
 _atom_site_fract_x
 _atom_site_fract_y
 _atom_site_fract_z
 _atom_site_occupancy
  Na  Na0  1  0.59070326  0.36351772  0.44268434  1
  Ti  Ti1  1  0.99365033  0.00117678  0.00605599  1
  Ti  Ti2  1  0.06694180  0.41448394  0.30109685  1
  Ti  Ti3  1  0.41206411  0.07125958  0.69827636  1
  Ti  Ti4  1  0.50543041  0.49711626  0.98464636  1
  Ti  Ti5  1  0.55976279  0.91344900  0.30001183  1
  Ti  Ti6  1  0.94401524  0.60250749  0.68939348  1
  O  O7  1  0.26762395  0.04383913  0.45041206  1
  O  O8  1  0.10378069  0.20674030  0.81241985  1
  O  O9  1  0.39152150  0.29609238  0.19072853  1
  O  O10  1  0.23452143  0.44866505  0.55334926  1
  O  O11  1  0.12867106  0.69700069  0.86555020  1
  O  O12  1  0.62383650  0.19126586  0.86405579  1
  O  O13  1  0.86695717  0.30521613  0.14326833  1
  O  O14  1  0.37774178  0.79913206  0.13974665  1
  O  O15  1  0.78414028  0.55879607  0.44930405  1
  O  O16  1  0.61182049  0.69523934  0.80861511  1
  O  O17  1  0.89141906  0.79793963  0.18713808  1
  O  O18  1  0.72509915  0.95586259  0.55404890  1
