# generated using pymatgen
data_CoH4SeO5
_symmetry_space_group_name_H-M   'P 1'
_cell_length_a   5.94085864
_cell_length_b   11.40509276
_cell_length_c   8.28547453
_cell_angle_alpha   90.00000000
_cell_angle_beta   92.28658943
_cell_angle_gamma   90.00000000
_symmetry_Int_Tables_number   1
_chemical_formula_structural   CoH4SeO5
_chemical_formula_sum   'Co4 H16 Se4 O20'
_cell_volume   560.94397447
_cell_formula_units_Z   4
loop_
 _symmetry_equiv_pos_site_id
 _symmetry_equiv_pos_as_xyz
  1  'x, y, z'
loop_
 _atom_site_type_symbol
 _atom_site_label
 _atom_site_symmetry_multiplicity
 _atom_site_fract_x
 _atom_site_fract_y
 _atom_site_fract_z
 _atom_site_occupancy
  Co  Co0  1  0.17706527  0.07468205  0.90581278  1
  Co  Co1  1  0.67706527  0.42531795  0.40581278  1
  Co  Co2  1  0.82293473  0.92531795  0.09418722  1
  Co  Co3  1  0.32293473  0.57468205  0.59418722  1
  H  H4  1  0.91129995  0.92703817  0.66085903  1
  H  H5  1  0.41129995  0.57296183  0.16085903  1
  H  H6  1  0.08870005  0.07296183  0.33914097  1
  H  H7  1  0.58870005  0.42703817  0.83914097  1
  H  H8  1  0.01261586  0.20266710  0.63691925  1
  H  H9  1  0.51261586  0.29733290  0.13691925  1
  H  H10  1  0.98738414  0.79733290  0.36308075  1
  H  H11  1  0.48738414  0.70266710  0.86308075  1
  H  H12  1  0.18326483  0.10845993  0.57998590  1
  H  H13  1  0.68326483  0.39154007  0.07998590  1
  H  H14  1  0.81673517  0.89154007  0.42001410  1
  H  H15  1  0.31673517  0.60845993  0.92001410  1
  H  H16  1  0.85001973  0.43988004  0.82300135  1
  H  H17  1  0.35001973  0.06011996  0.32300135  1
  H  H18  1  0.14998027  0.56011996  0.17699865  1
  H  H19  1  0.64998027  0.93988004  0.67699865  1
  Se  Se20  1  0.87300470  0.64579639  0.64704199  1
  Se  Se21  1  0.37300470  0.85420361  0.14704199  1
  Se  Se22  1  0.12699530  0.35420361  0.35295801  1
  Se  Se23  1  0.62699530  0.14579639  0.85295801  1
  O  O24  1  0.76793205  0.89644464  0.61715565  1
  O  O25  1  0.26793205  0.60355536  0.11715565  1
  O  O26  1  0.23206795  0.10355536  0.38284435  1
  O  O27  1  0.73206795  0.39644464  0.88284435  1
  O  O28  1  0.84832562  0.08375926  0.97916885  1
  O  O29  1  0.34832562  0.41624074  0.47916885  1
  O  O30  1  0.15167438  0.91624074  0.02083115  1
  O  O31  1  0.65167438  0.58375926  0.52083115  1
  O  O32  1  0.07887819  0.69005114  0.51635377  1
  O  O33  1  0.57887819  0.80994886  0.01635377  1
  O  O34  1  0.92112181  0.30994886  0.48364623  1
  O  O35  1  0.42112181  0.19005114  0.98364623  1
  O  O36  1  0.09216614  0.13023101  0.67549484  1
  O  O37  1  0.59216614  0.36976899  0.17549484  1
  O  O38  1  0.90783386  0.86976899  0.32450516  1
  O  O39  1  0.40783386  0.63023101  0.82450516  1
  O  O40  1  0.98590715  0.47768742  0.28689543  1
  O  O41  1  0.48590715  0.02231258  0.78689543  1
  O  O42  1  0.01409285  0.52231258  0.71310457  1
  O  O43  1  0.51409285  0.97768742  0.21310457  1
