# generated using pymatgen
data_BaSrI4
_symmetry_space_group_name_H-M   'P 1'
_cell_length_a   10.57362693
_cell_length_b   12.42391017
_cell_length_c   10.37657122
_cell_angle_alpha   90.00000000
_cell_angle_beta   117.45188782
_cell_angle_gamma   90.00000000
_symmetry_Int_Tables_number   1
_chemical_formula_structural   BaSrI4
_chemical_formula_sum   'Ba4 Sr4 I16'
_cell_volume   1209.63607098
_cell_formula_units_Z   4
loop_
 _symmetry_equiv_pos_site_id
 _symmetry_equiv_pos_as_xyz
  1  'x, y, z'
loop_
 _atom_site_type_symbol
 _atom_site_label
 _atom_site_symmetry_multiplicity
 _atom_site_fract_x
 _atom_site_fract_y
 _atom_site_fract_z
 _atom_site_occupancy
  Ba  Ba0  1  0.23581025  0.55730706  0.75513113  1
  Ba  Ba1  1  0.26418975  0.05730706  0.74486887  1
  Ba  Ba2  1  0.73581025  0.94269294  0.25513113  1
  Ba  Ba3  1  0.76418975  0.44269294  0.24486887  1
  Sr  Sr4  1  0.15643999  0.18231594  0.11547949  1
  Sr  Sr5  1  0.34356001  0.68231594  0.38452051  1
  Sr  Sr6  1  0.65643999  0.31768406  0.61547949  1
  Sr  Sr7  1  0.84356001  0.81768406  0.88452051  1
  I  I8  1  0.88390372  0.49809164  0.61955529  1
  I  I9  1  0.96335468  0.04718404  0.79795103  1
  I  I10  1  0.19008086  0.80378189  0.58367474  1
  I  I11  1  0.15819735  0.68981737  0.01453394  1
  I  I12  1  0.34180265  0.18981737  0.48546606  1
  I  I13  1  0.30991914  0.30378189  0.91632526  1
  I  I14  1  0.53664532  0.54718404  0.70204897  1
  I  I15  1  0.61609628  0.99809164  0.88044471  1
  I  I16  1  0.38390372  0.00190836  0.11955529  1
  I  I17  1  0.46335468  0.45281596  0.29795103  1
  I  I18  1  0.69008086  0.69621811  0.08367474  1
  I  I19  1  0.65819735  0.81018263  0.51453394  1
  I  I20  1  0.84180265  0.31018263  0.98546606  1
  I  I21  1  0.80991914  0.19621811  0.41632526  1
  I  I22  1  0.03664532  0.95281596  0.20204897  1
  I  I23  1  0.11609628  0.50190836  0.38044471  1
