# generated using pymatgen
data_Er2TeO2
_symmetry_space_group_name_H-M   'P 1'
_cell_length_a   3.88613879
_cell_length_b   3.88619153
_cell_length_c   14.35264859
_cell_angle_alpha   90.00045122
_cell_angle_beta   90.00065599
_cell_angle_gamma   60.00117842
_symmetry_Int_Tables_number   1
_chemical_formula_structural   Er2TeO2
_chemical_formula_sum   'Er4 Te2 O4'
_cell_volume   187.71991474
_cell_formula_units_Z   2
loop_
 _symmetry_equiv_pos_site_id
 _symmetry_equiv_pos_as_xyz
  1  'x, y, z'
loop_
 _atom_site_type_symbol
 _atom_site_label
 _atom_site_symmetry_multiplicity
 _atom_site_fract_x
 _atom_site_fract_y
 _atom_site_fract_z
 _atom_site_occupancy
  Er  Er0  1  0.33334687  0.33335261  0.90285217  1
  Er  Er1  1  0.33332394  0.33332962  0.59714846  1
  Er  Er2  1  0.66665530  0.66665526  0.40284971  1
  Er  Er3  1  0.66663800  0.66670984  0.09714791  1
  Te  Te4  1  0.00003657  0.00008747  0.25000083  1
  Te  Te5  1  0.00006972  0.00002915  0.74999955  1
  O  O6  1  0.33331272  0.33335967  0.06000015  1
  O  O7  1  0.33331285  0.33332109  0.44000092  1
  O  O8  1  0.66665359  0.66669885  0.93999954  1
  O  O9  1  0.66665043  0.66665743  0.55999976  1
