# generated using pymatgen
data_Li14Fe2S9
_symmetry_space_group_name_H-M   'P 1'
_cell_length_a   7.05214581
_cell_length_b   7.08153319
_cell_length_c   9.85976443
_cell_angle_alpha   90.66956426
_cell_angle_beta   89.82933357
_cell_angle_gamma   120.34739457
_symmetry_Int_Tables_number   1
_chemical_formula_structural   Li14Fe2S9
_chemical_formula_sum   'Li14 Fe2 S9'
_cell_volume   424.89600416
_cell_formula_units_Z   1
loop_
 _symmetry_equiv_pos_site_id
 _symmetry_equiv_pos_as_xyz
  1  'x, y, z'
loop_
 _atom_site_type_symbol
 _atom_site_label
 _atom_site_symmetry_multiplicity
 _atom_site_fract_x
 _atom_site_fract_y
 _atom_site_fract_z
 _atom_site_occupancy
  Li  Li0  1  0.01751950  0.67183746  0.90923961  1
  Li  Li1  1  0.32554236  0.96408598  0.59093576  1
  Li  Li2  1  0.03708352  0.36304417  0.59196624  1
  Li  Li3  1  0.99931993  0.99910291  0.25079706  1
  Li  Li4  1  0.00073956  0.00097091  0.74898569  1
  Li  Li5  1  0.32798871  0.34603997  0.90975872  1
  Li  Li6  1  0.65410143  0.97908231  0.91094699  1
  Li  Li7  1  0.36371425  0.32181703  0.41021992  1
  Li  Li8  1  0.63656183  0.67752351  0.59050138  1
  Li  Li9  1  0.34607535  0.02201552  0.08837446  1
  Li  Li10  1  0.67312740  0.65362343  0.08946374  1
  Li  Li11  1  0.96170655  0.63682183  0.40889210  1
  Li  Li12  1  0.67545359  0.03714999  0.40989314  1
  Li  Li13  1  0.98097316  0.32694460  0.08997964  1
  Fe  Fe14  1  0.33282434  0.66538450  0.25562160  1
  Fe  Fe15  1  0.66723422  0.33451020  0.74445915  1
  S  S16  1  0.31074581  0.96750813  0.33666859  1
  S  S17  1  0.03301815  0.34148868  0.33851528  1
  S  S18  1  0.33270812  0.66669669  0.01810869  1
  S  S19  1  0.99996744  0.99999018  -0.00001398  1
  S  S20  1  0.34395929  0.31188566  0.66233814  1
  S  S21  1  0.65681880  0.68825946  0.33776783  1
  S  S22  1  0.66724341  0.33323531  0.98142727  1
  S  S23  1  0.96617175  0.65774007  0.66164581  1
  S  S24  1  0.68920152  0.03324248  0.66350718  1
