# generated using pymatgen
data_NaLiO
_symmetry_space_group_name_H-M   'P 1'
_cell_length_a   3.37094493
_cell_length_b   5.85955449
_cell_length_c   6.73476260
_cell_angle_alpha   90.00000000
_cell_angle_beta   90.00000000
_cell_angle_gamma   29.64271963
_symmetry_Int_Tables_number   1
_chemical_formula_structural   NaLiO
_chemical_formula_sum   'Na2 Li2 O2'
_cell_volume   65.79363750
_cell_formula_units_Z   2
loop_
 _symmetry_equiv_pos_site_id
 _symmetry_equiv_pos_as_xyz
  1  'x, y, z'
loop_
 _atom_site_type_symbol
 _atom_site_label
 _atom_site_symmetry_multiplicity
 _atom_site_fract_x
 _atom_site_fract_y
 _atom_site_fract_z
 _atom_site_occupancy
  Na  Na0  1  0.50270952  0.49864524  0.00000000  1
  Na  Na1  1  0.50270952  0.49864524  0.50000000  1
  Li  Li2  1  0.50193868  0.82546277  0.75000000  1
  Li  Li3  1  0.50193868  0.17259855  0.25000000  1
  O  O4  1  0.50186380  0.84057039  0.25000000  1
  O  O5  1  0.50186380  0.15756581  0.75000000  1
