# generated using pymatgen
data_Cs2O
_symmetry_space_group_name_H-M   'P 1'
_cell_length_a   6.97733236
_cell_length_b   7.33987506
_cell_length_c   4.29176358
_cell_angle_alpha   90.00000000
_cell_angle_beta   90.00000000
_cell_angle_gamma   90.00000000
_symmetry_Int_Tables_number   1
_chemical_formula_structural   Cs2O
_chemical_formula_sum   'Cs4 O2'
_cell_volume   219.79300573
_cell_formula_units_Z   2
loop_
 _symmetry_equiv_pos_site_id
 _symmetry_equiv_pos_as_xyz
  1  'x, y, z'
loop_
 _atom_site_type_symbol
 _atom_site_label
 _atom_site_symmetry_multiplicity
 _atom_site_fract_x
 _atom_site_fract_y
 _atom_site_fract_z
 _atom_site_occupancy
  Cs  Cs0  1  0.22162988  0.85767938  0.50000000  1
  Cs  Cs1  1  0.27837012  0.35767938  0.00000000  1
  Cs  Cs2  1  0.72162988  0.64232062  0.00000000  1
  Cs  Cs3  1  0.77837012  0.14232062  0.50000000  1
  O  O4  1  0.00000000  0.00000000  0.00000000  1
  O  O5  1  0.50000000  0.50000000  0.50000000  1
