# generated using pymatgen
data_CrH36C12S6(ClO2)3
_symmetry_space_group_name_H-M   'P 1'
_cell_length_a   9.58978528
_cell_length_b   9.58978529
_cell_length_c   9.58978529
_cell_angle_alpha   68.37154611
_cell_angle_beta   68.37154616
_cell_angle_gamma   68.37154615
_symmetry_Int_Tables_number   1
_chemical_formula_structural   CrH36C12S6(ClO2)3
_chemical_formula_sum   'Cr1 H36 C12 S6 Cl3 O6'
_cell_volume   733.94270781
_cell_formula_units_Z   1
loop_
 _symmetry_equiv_pos_site_id
 _symmetry_equiv_pos_as_xyz
  1  'x, y, z'
loop_
 _atom_site_type_symbol
 _atom_site_label
 _atom_site_symmetry_multiplicity
 _atom_site_fract_x
 _atom_site_fract_y
 _atom_site_fract_z
 _atom_site_occupancy
  H  H0  1  0.80145494  0.07344920  0.59835593  1
  H  H1  1  0.07344876  0.59835584  0.80145454  1
  H  H2  1  0.59835622  0.80145438  0.07344874  1
  H  H3  1  0.19854501  0.92655076  0.40164393  1
  H  H4  1  0.92655119  0.40164412  0.19854532  1
  H  H5  1  0.40164373  0.19854559  0.92655112  1
  H  H6  1  0.92773010  0.04423994  0.71135015  1
  H  H7  1  0.04423949  0.71134998  0.92773071  1
  H  H8  1  0.71135033  0.92773001  0.04423996  1
  H  H9  1  0.07226985  0.95576002  0.28864971  1
  H  H10  1  0.95576046  0.28864999  0.07226915  1
  H  H11  1  0.28864962  0.07226996  0.95575990  1
  H  H12  1  0.97301883  0.14899547  0.50593113  1
  H  H13  1  0.14899573  0.50593052  0.97301908  1
  H  H14  1  0.50593060  0.97301827  0.14899647  1
  H  H15  1  0.64095765  0.43201850  0.98947010  1
  H  H16  1  0.85100422  0.49406944  0.02698183  1
  H  H17  1  0.49406935  0.02698169  0.85100444  1
  H  H18  1  0.01052910  0.35904228  0.56798138  1
  H  H19  1  0.35904230  0.56798147  0.01052976  1
  H  H20  1  0.56798125  0.01052981  0.35904253  1
  H  H21  1  0.98947085  0.64095768  0.43201848  1
  H  H22  1  0.30126202  0.13424667  0.52509693  1
  H  H23  1  0.52509780  0.30126218  0.13424602  1
  H  H24  1  0.13424663  0.52509692  0.30126204  1
  H  H25  1  0.69873793  0.86575330  0.47490293  1
  H  H26  1  0.47490297  0.69873895  0.86575312  1
  H  H27  1  0.86575332  0.47490304  0.69873887  1
  H  H28  1  0.22344535  0.04099179  0.72872127  1
  H  H29  1  0.72872168  0.22344589  0.04099208  1
  H  H30  1  0.04099150  0.72872197  0.22344498  1
  H  H31  1  0.77655460  0.95900817  0.27127859  1
  H  H32  1  0.27127826  0.77655407  0.95900883  1
  H  H33  1  0.95900845  0.27127800  0.77655488  1
  H  H34  1  0.43201870  0.98947016  0.64095733  1
  H  H35  1  0.02698112  0.85100449  0.49406873  1
  C  C36  1  0.91730264  0.35861555  0.67718462  1
  C  C37  1  0.35861550  0.67718483  0.91730276  1
  C  C38  1  0.67718429  0.91730303  0.35861571  1
  C  C39  1  0.08269731  0.64138441  0.32281524  1
  C  C40  1  0.38715222  0.12002736  0.87688289  1
  C  C41  1  0.87688344  0.38715213  0.12002671  1
  C  C42  1  0.12002722  0.87688268  0.38715315  1
  C  C43  1  0.61284773  0.87997260  0.12311697  1
  C  C44  1  0.12311651  0.61284783  0.87997315  1
  C  C45  1  0.87997272  0.12311728  0.61284775  1
  C  C46  1  0.64138445  0.32281513  0.08269711  1
  C  C47  1  0.32281566  0.08269694  0.64138415  1
  O  O48  1  0.72236033  0.41646809  0.51557138  1
  O  O49  1  0.41646817  0.51557088  0.72235968  1
  O  O50  1  0.51557148  0.72236041  0.41646826  1
  O  O51  1  0.27763962  0.58353187  0.48442848  1
  O  O52  1  0.58353178  0.48442909  0.27764018  1
  O  O53  1  0.48442846  0.27763955  0.58353265  1
  S  S54  1  0.76597647  0.29997673  0.66648441  1
  S  S55  1  0.29997716  0.66648430  0.76597632  1
  S  S56  1  0.66648455  0.76597594  0.29997658  1
  S  S57  1  0.23402348  0.70002324  0.33351545  1
  S  S58  1  0.70002391  0.33351565  0.23402418  1
  S  S59  1  0.33351540  0.23402403  0.70002328  1
  Cl  Cl60  1  0.74673400  0.74673438  0.74673340  1
  Cl  Cl61  1  0.25326595  0.25326558  0.25326646  1
  Cl  Cl62  1  0.00000000  0.00000000  0.00000000  1
  Cr  Cr63  1  0.50000053  0.49999998  0.50000025  1
