# generated using pymatgen
data_CaLaI5
_symmetry_space_group_name_H-M   'P 1'
_cell_length_a   4.48141036
_cell_length_b   8.03820296
_cell_length_c   19.19137181
_cell_angle_alpha   90.00000000
_cell_angle_beta   90.00000000
_cell_angle_gamma   106.18603138
_symmetry_Int_Tables_number   1
_chemical_formula_structural   CaLaI5
_chemical_formula_sum   'Ca2 La2 I10'
_cell_volume   663.91811944
_cell_formula_units_Z   2
loop_
 _symmetry_equiv_pos_site_id
 _symmetry_equiv_pos_as_xyz
  1  'x, y, z'
loop_
 _atom_site_type_symbol
 _atom_site_label
 _atom_site_symmetry_multiplicity
 _atom_site_fract_x
 _atom_site_fract_y
 _atom_site_fract_z
 _atom_site_occupancy
  Ca  Ca0  1  0.48999569  0.97999238  0.25000000  1
  Ca  Ca1  1  0.51000431  0.02000762  0.75000000  1
  La  La2  1  0.00000000  0.00000000  0.00000000  1
  La  La3  1  0.00000000  0.00000000  0.50000000  1
  I  I4  1  0.09486114  0.18972228  0.14808004  1
  I  I5  1  0.14723559  0.29447019  0.75000000  1
  I  I6  1  0.09486114  0.18972228  0.35191996  1
  I  I7  1  0.37265233  0.74530566  0.05695616  1
  I  I8  1  0.37265233  0.74530566  0.44304384  1
  I  I9  1  0.62734767  0.25469434  0.55695616  1
  I  I10  1  0.62734767  0.25469434  0.94304384  1
  I  I11  1  0.85276441  0.70552981  0.25000000  1
  I  I12  1  0.90513886  0.81027772  0.64808004  1
  I  I13  1  0.90513886  0.81027772  0.85191996  1
