# generated using pymatgen
data_Mg2SnO4
_symmetry_space_group_name_H-M   'P 1'
_cell_length_a   5.23957767
_cell_length_b   9.61886213
_cell_length_c   3.09698001
_cell_angle_alpha   90.00000000
_cell_angle_beta   90.00000000
_cell_angle_gamma   90.00000000
_symmetry_Int_Tables_number   1
_chemical_formula_structural   Mg2SnO4
_chemical_formula_sum   'Mg4 Sn2 O8'
_cell_volume   156.08399941
_cell_formula_units_Z   2
loop_
 _symmetry_equiv_pos_site_id
 _symmetry_equiv_pos_as_xyz
  1  'x, y, z'
loop_
 _atom_site_type_symbol
 _atom_site_label
 _atom_site_symmetry_multiplicity
 _atom_site_fract_x
 _atom_site_fract_y
 _atom_site_fract_z
 _atom_site_occupancy
  Mg  Mg0  1  0.05226673  0.31545424  0.50000000  1
  Mg  Mg1  1  0.44773327  0.81545424  0.50000000  1
  Mg  Mg2  1  0.55226673  0.18454576  0.50000000  1
  Mg  Mg3  1  0.94773327  0.68454576  0.50000000  1
  Sn  Sn4  1  0.00000000  0.00000000  0.00000000  1
  Sn  Sn5  1  0.50000000  0.50000000  0.00000000  1
  O  O6  1  0.16814124  0.80360888  0.00000000  1
  O  O7  1  0.25086478  0.05080339  0.50000000  1
  O  O8  1  0.24913522  0.55080339  0.50000000  1
  O  O9  1  0.33185876  0.30360888  0.00000000  1
  O  O10  1  0.66814124  0.69639112  0.00000000  1
  O  O11  1  0.75086478  0.44919661  0.50000000  1
  O  O12  1  0.74913522  0.94919661  0.50000000  1
  O  O13  1  0.83185876  0.19639112  0.00000000  1
