# generated using pymatgen
data_Er2TiO5
_symmetry_space_group_name_H-M   'P 1'
_cell_length_a   4.07192949
_cell_length_b   5.84201515
_cell_length_c   10.45128602
_cell_angle_alpha   90.00000000
_cell_angle_beta   90.00000000
_cell_angle_gamma   69.60416914
_symmetry_Int_Tables_number   1
_chemical_formula_structural   Er2TiO5
_chemical_formula_sum   'Er4 Ti2 O10'
_cell_volume   233.03152856
_cell_formula_units_Z   2
loop_
 _symmetry_equiv_pos_site_id
 _symmetry_equiv_pos_as_xyz
  1  'x, y, z'
loop_
 _atom_site_type_symbol
 _atom_site_label
 _atom_site_symmetry_multiplicity
 _atom_site_fract_x
 _atom_site_fract_y
 _atom_site_fract_z
 _atom_site_occupancy
  Er  Er0  1  0.14264269  0.71471462  0.93062048  1
  Er  Er1  1  0.14264269  0.71471462  0.56937952  1
  Er  Er2  1  0.85735731  0.28528538  0.06937952  1
  Er  Er3  1  0.85735731  0.28528538  0.43062048  1
  Ti  Ti4  1  0.17314784  0.65370432  0.25000000  1
  Ti  Ti5  1  0.82685216  0.34629568  0.75000000  1
  O  O6  1  0.05163409  0.89673282  0.37654744  1
  O  O7  1  0.05163409  0.89673282  0.12345256  1
  O  O8  1  0.70846457  0.58307185  0.90975141  1
  O  O9  1  0.70846457  0.58307185  0.59024859  1
  O  O10  1  0.27158562  0.45682775  0.75000000  1
  O  O11  1  0.72841438  0.54317225  0.25000000  1
  O  O12  1  0.29153543  0.41692815  0.09024859  1
  O  O13  1  0.29153543  0.41692815  0.40975141  1
  O  O14  1  0.94836591  0.10326718  0.62345256  1
  O  O15  1  0.94836591  0.10326718  0.87654744  1
