# generated using pymatgen
data_LiTi(SiO3)2
_symmetry_space_group_name_H-M   'P 1'
_cell_length_a   7.38217377
_cell_length_b   7.46008735
_cell_length_c   7.05185650
_cell_angle_alpha   117.70732522
_cell_angle_beta   76.96920975
_cell_angle_gamma   98.59117714
_symmetry_Int_Tables_number   1
_chemical_formula_structural   LiTi(SiO3)2
_chemical_formula_sum   'Li3 Ti3 Si6 O18'
_cell_volume   334.52522101
_cell_formula_units_Z   3
loop_
 _symmetry_equiv_pos_site_id
 _symmetry_equiv_pos_as_xyz
  1  'x, y, z'
loop_
 _atom_site_type_symbol
 _atom_site_label
 _atom_site_symmetry_multiplicity
 _atom_site_fract_x
 _atom_site_fract_y
 _atom_site_fract_z
 _atom_site_occupancy
  Li  Li0  1  0.20686768  0.74402421  0.42170856  1
  Li  Li1  1  0.50000000  0.50000000  0.50000000  1
  Li  Li2  1  0.79313232  0.25597579  0.57829144  1
  Ti  Ti3  1  0.22754816  0.74031929  0.94805411  1
  Ti  Ti4  1  0.50000000  0.50000000  0.00000000  1
  Ti  Ti5  1  0.77245184  0.25968071  0.05194589  1
  Si  Si6  1  0.16147442  0.28343035  0.24347850  1
  Si  Si7  1  0.16868945  0.24465976  0.67686869  1
  Si  Si8  1  0.60495305  0.97602880  0.20536150  1
  Si  Si9  1  0.39504695  0.02397120  0.79463850  1
  Si  Si10  1  0.83131055  0.75534024  0.32313131  1
  Si  Si11  1  0.83852558  0.71656965  0.75652150  1
  O  O12  1  0.04433733  0.75962823  0.20132255  1
  O  O13  1  0.05062546  0.68415112  0.75103051  1
  O  O14  1  0.16076233  0.23099079  0.44380064  1
  O  O15  1  0.23807761  0.07030098  0.02328688  1
  O  O16  1  0.30797451  0.47227268  0.25073876  1
  O  O17  1  0.43261899  0.80659317  0.14898650  1
  O  O18  1  0.29800596  0.44561350  0.81197068  1
  O  O19  1  0.42686018  0.78770516  0.71205929  1
  O  O20  1  0.28201420  0.04499928  0.62687374  1
  O  O21  1  0.71798580  0.95500072  0.37312626  1
  O  O22  1  0.57313982  0.21229484  0.28794071  1
  O  O23  1  0.70199404  0.55438650  0.18802932  1
  O  O24  1  0.56738101  0.19340683  0.85101350  1
  O  O25  1  0.69202549  0.52772732  0.74926124  1
  O  O26  1  0.76192239  0.92969902  0.97671312  1
  O  O27  1  0.83923767  0.76900921  0.55619936  1
  O  O28  1  0.94937454  0.31584888  0.24896949  1
  O  O29  1  0.95566267  0.24037177  0.79867745  1
