# generated using pymatgen
data_K3GePCO7
_symmetry_space_group_name_H-M   'P 1'
_cell_length_a   10.00529601
_cell_length_b   7.34457176
_cell_length_c   5.59845093
_cell_angle_alpha   90.00000000
_cell_angle_beta   91.37319052
_cell_angle_gamma   90.00000000
_symmetry_Int_Tables_number   1
_chemical_formula_structural   K3GePCO7
_chemical_formula_sum   'K6 Ge2 P2 C2 O14'
_cell_volume   411.28185972
_cell_formula_units_Z   2
loop_
 _symmetry_equiv_pos_site_id
 _symmetry_equiv_pos_as_xyz
  1  'x, y, z'
loop_
 _atom_site_type_symbol
 _atom_site_label
 _atom_site_symmetry_multiplicity
 _atom_site_fract_x
 _atom_site_fract_y
 _atom_site_fract_z
 _atom_site_occupancy
  K  K0  1  0.08297845  0.25000000  0.76287478  1
  K  K1  1  0.26033693  0.00187232  0.25575764  1
  K  K2  1  0.26033693  0.49812768  0.25575764  1
  K  K3  1  0.73966307  0.50187232  0.74424236  1
  K  K4  1  0.73966307  0.99812768  0.74424236  1
  K  K5  1  0.91702155  0.75000000  0.23712522  1
  Ge  Ge6  1  0.37159630  0.75000000  0.77803497  1
  Ge  Ge7  1  0.62840370  0.25000000  0.22196503  1
  P  P8  1  0.41754992  0.25000000  0.70944407  1
  P  P9  1  0.58245008  0.75000000  0.29055593  1
  C  C10  1  0.07317495  0.75000000  0.73795139  1
  C  C11  1  0.92682505  0.25000000  0.26204861  1
  O  O12  1  0.05767473  0.25000000  0.26821984  1
  O  O13  1  0.13752848  0.75000000  0.94339597  1
  O  O14  1  0.13880677  0.75000000  0.54025972  1
  O  O15  1  0.33399208  0.07767457  0.76997119  1
  O  O16  1  0.33399208  0.42232543  0.76997119  1
  O  O17  1  0.44575472  0.25000000  0.43426811  1
  O  O18  1  0.44504069  0.75000000  0.14831159  1
  O  O19  1  0.55495931  0.25000000  0.85168841  1
  O  O20  1  0.55424528  0.75000000  0.56573189  1
  O  O21  1  0.66600792  0.57767457  0.23002881  1
  O  O22  1  0.66600792  0.92232543  0.23002881  1
  O  O23  1  0.86119323  0.25000000  0.45974028  1
  O  O24  1  0.86247152  0.25000000  0.05660403  1
  O  O25  1  0.94232527  0.75000000  0.73178016  1
