# generated using pymatgen
data_CeHfO4
_symmetry_space_group_name_H-M   'P 1'
_cell_length_a   5.31249764
_cell_length_b   6.60674320
_cell_length_c   5.31249764
_cell_angle_alpha   66.29353032
_cell_angle_beta   90.00000000
_cell_angle_gamma   113.70646968
_symmetry_Int_Tables_number   1
_chemical_formula_structural   CeHfO4
_chemical_formula_sum   'Ce2 Hf2 O8'
_cell_volume   153.38614494
_cell_formula_units_Z   2
loop_
 _symmetry_equiv_pos_site_id
 _symmetry_equiv_pos_as_xyz
  1  'x, y, z'
loop_
 _atom_site_type_symbol
 _atom_site_label
 _atom_site_symmetry_multiplicity
 _atom_site_fract_x
 _atom_site_fract_y
 _atom_site_fract_z
 _atom_site_occupancy
  Ce  Ce0  1  0.87500000  0.25000000  0.37500000  1
  Ce  Ce1  1  0.12500000  0.75000000  0.62500000  1
  Hf  Hf2  1  0.62500000  0.75000000  0.12500000  1
  Hf  Hf3  1  0.37500000  0.25000000  0.87500000  1
  O  O4  1  0.06357257  0.04777902  0.22073949  1
  O  O5  1  0.27926051  0.54777902  0.01579355  1
  O  O6  1  0.76851851  0.54777902  0.43642743  1
  O  O7  1  0.51579355  0.95222098  0.26851851  1
  O  O8  1  0.48420645  0.04777902  0.73148149  1
  O  O9  1  0.23148149  0.45222098  0.56357257  1
  O  O10  1  0.72073949  0.45222098  0.98420645  1
  O  O11  1  0.93642743  0.95222098  0.77926051  1
