# generated using pymatgen
data_Li8BiS6
_symmetry_space_group_name_H-M   'P 1'
_cell_length_a   6.93305762
_cell_length_b   7.57147317
_cell_length_c   6.93305790
_cell_angle_alpha   117.24786139
_cell_angle_beta   60.00000610
_cell_angle_gamma   117.24785713
_symmetry_Int_Tables_number   1
_chemical_formula_structural   Li8BiS6
_chemical_formula_sum   'Li8 Bi1 S6'
_cell_volume   267.53489830
_cell_formula_units_Z   1
loop_
 _symmetry_equiv_pos_site_id
 _symmetry_equiv_pos_as_xyz
  1  'x, y, z'
loop_
 _atom_site_type_symbol
 _atom_site_label
 _atom_site_symmetry_multiplicity
 _atom_site_fract_x
 _atom_site_fract_y
 _atom_site_fract_z
 _atom_site_occupancy
  Li  Li0  1  0.10349343  0.36440770  0.47658892  1
  Li  Li1  1  0.52341108  0.63559230  0.21567465  1
  Li  Li2  1  0.21567465  0.63559230  0.89650657  1
  Li  Li3  1  0.34572801  0.03718404  0.34572801  1
  Li  Li4  1  0.65427199  0.96281596  0.65427199  1
  Li  Li5  1  0.78432535  0.36440770  0.10349343  1
  Li  Li6  1  0.47658892  0.36440770  0.78432535  1
  Li  Li7  1  0.89650657  0.63559230  0.52341108  1
  Bi  Bi8  1  0.00000000  0.00000000  0.00000000  1
  S  S9  1  0.24852882  0.75137211  0.60075635  1
  S  S10  1  0.39924365  0.24862789  0.09791206  1
  S  S11  1  0.09791206  0.24862789  0.75147118  1
  S  S12  1  0.90208794  0.75137211  0.24852882  1
  S  S13  1  0.60075635  0.75137211  0.90208794  1
  S  S14  1  0.75147118  0.24862789  0.39924365  1
