# generated using pymatgen
data_Mg4Cu11O15
_symmetry_space_group_name_H-M   'P 1'
_cell_length_a   4.03951429
_cell_length_b   9.44412860
_cell_length_c   16.24108951
_cell_angle_alpha   90.00000000
_cell_angle_beta   90.00000000
_cell_angle_gamma   90.00000000
_symmetry_Int_Tables_number   1
_chemical_formula_structural   Mg4Cu11O15
_chemical_formula_sum   'Mg8 Cu22 O30'
_cell_volume   619.59256964
_cell_formula_units_Z   2
loop_
 _symmetry_equiv_pos_site_id
 _symmetry_equiv_pos_as_xyz
  1  'x, y, z'
loop_
 _atom_site_type_symbol
 _atom_site_label
 _atom_site_symmetry_multiplicity
 _atom_site_fract_x
 _atom_site_fract_y
 _atom_site_fract_z
 _atom_site_occupancy
  Mg  Mg0  1  0.25000000  0.25000000  0.07408194  1
  Mg  Mg1  1  0.25000000  0.25000000  0.27341142  1
  Mg  Mg2  1  0.25000000  0.25000000  0.47356380  1
  Mg  Mg3  1  0.25000000  0.25000000  0.67354700  1
  Mg  Mg4  1  0.25000000  0.25000000  0.87366348  1
  Mg  Mg5  1  0.75000000  0.75000000  0.12571844  1
  Mg  Mg6  1  0.75000000  0.75000000  0.32685822  1
  Mg  Mg7  1  0.75000000  0.75000000  0.72706341  1
  Cu  Cu8  1  0.25000000  0.58412170  0.03605933  1
  Cu  Cu9  1  0.25000000  0.58553217  0.23457315  1
  Cu  Cu10  1  0.25000000  0.58528437  0.43510725  1
  Cu  Cu11  1  0.25000000  0.58425017  0.63608945  1
  Cu  Cu12  1  0.25000000  0.58514982  0.83540714  1
  Cu  Cu13  1  0.25000000  0.91587830  0.03605933  1
  Cu  Cu14  1  0.25000000  0.91446783  0.23457315  1
  Cu  Cu15  1  0.25000000  0.91471563  0.43510725  1
  Cu  Cu16  1  0.25000000  0.91574983  0.63608945  1
  Cu  Cu17  1  0.25000000  0.91485018  0.83540714  1
  Cu  Cu18  1  0.75000000  0.08495444  0.16466985  1
  Cu  Cu19  1  0.75000000  0.08549922  0.36282981  1
  Cu  Cu20  1  0.75000000  0.08583065  0.56491107  1
  Cu  Cu21  1  0.75000000  0.41504556  0.16466985  1
  Cu  Cu22  1  0.75000000  0.08506068  0.76256104  1
  Cu  Cu23  1  0.75000000  0.08605088  0.96515185  1
  Cu  Cu24  1  0.75000000  0.41450078  0.36282981  1
  Cu  Cu25  1  0.75000000  0.41416935  0.56491107  1
  Cu  Cu26  1  0.75000000  0.75000000  0.52887979  1
  Cu  Cu27  1  0.75000000  0.41394912  0.96515185  1
  Cu  Cu28  1  0.75000000  0.41493932  0.76256104  1
  Cu  Cu29  1  0.75000000  0.75000000  0.92873789  1
  O  O30  1  0.25000000  0.09516859  0.37692589  1
  O  O31  1  0.25000000  0.09538770  0.57689792  1
  O  O32  1  0.25000000  0.09567400  0.17672830  1
  O  O33  1  0.25000000  0.40483141  0.37692589  1
  O  O34  1  0.25000000  0.40432600  0.17672830  1
  O  O35  1  0.25000000  0.40461230  0.57689792  1
  O  O36  1  0.25000000  0.75000000  0.10414841  1
  O  O37  1  0.25000000  0.09518744  0.77721173  1
  O  O38  1  0.25000000  0.75000000  0.30374416  1
  O  O39  1  0.25000000  0.75000000  0.50306543  1
  O  O40  1  0.25000000  0.09577004  0.97723877  1
  O  O41  1  0.25000000  0.40481256  0.77721173  1
  O  O42  1  0.25000000  0.75000000  0.70423941  1
  O  O43  1  0.25000000  0.40422996  0.97723877  1
  O  O44  1  0.25000000  0.75000000  0.90323622  1
  O  O45  1  0.75000000  0.25000000  0.09562527  1
  O  O46  1  0.75000000  0.25000000  0.29373592  1
  O  O47  1  0.75000000  0.25000000  0.49533132  1
  O  O48  1  0.75000000  0.59168538  0.02572810  1
  O  O49  1  0.75000000  0.59590801  0.22307252  1
  O  O50  1  0.75000000  0.90831462  0.02572810  1
  O  O51  1  0.75000000  0.90409199  0.22307252  1
  O  O52  1  0.75000000  0.25000000  0.69409915  1
  O  O53  1  0.75000000  0.25000000  0.89555997  1
  O  O54  1  0.75000000  0.59211577  0.42163716  1
  O  O55  1  0.75000000  0.59148444  0.62586282  1
  O  O56  1  0.75000000  0.90788423  0.42163716  1
  O  O57  1  0.75000000  0.90851556  0.62586282  1
  O  O58  1  0.75000000  0.59213965  0.82218355  1
  O  O59  1  0.75000000  0.90786035  0.82218355  1
