# generated using pymatgen
data_BPH9C2
_symmetry_space_group_name_H-M   'P 1'
_cell_length_a   6.61556795
_cell_length_b   7.78153477
_cell_length_c   10.57328726
_cell_angle_alpha   90.00000000
_cell_angle_beta   87.08098932
_cell_angle_gamma   90.00000000
_symmetry_Int_Tables_number   1
_chemical_formula_structural   BPH9C2
_chemical_formula_sum   'B4 P4 H36 C8'
_cell_volume   543.59890334
_cell_formula_units_Z   4
loop_
 _symmetry_equiv_pos_site_id
 _symmetry_equiv_pos_as_xyz
  1  'x, y, z'
loop_
 _atom_site_type_symbol
 _atom_site_label
 _atom_site_symmetry_multiplicity
 _atom_site_fract_x
 _atom_site_fract_y
 _atom_site_fract_z
 _atom_site_occupancy
  B  B0  1  0.21947439  0.75115684  0.40576578  1
  B  B1  1  0.28052561  0.25115684  0.09423422  1
  B  B2  1  0.71947439  0.74884316  0.90576578  1
  B  B3  1  0.78052561  0.24884316  0.59423422  1
  P  P4  1  0.02147023  0.11543623  0.56000466  1
  P  P5  1  0.52147023  0.38456377  0.06000466  1
  P  P6  1  0.47852977  0.61543623  0.93999534  1
  P  P7  1  0.97852977  0.88456377  0.43999534  1
  H  H8  1  0.02222756  0.94238340  0.75126535  1
  H  H9  1  0.14030270  0.65462889  0.03989060  1
  H  H10  1  0.15541814  0.34323432  0.14856117  1
  H  H11  1  0.16265601  0.63562712  0.33821180  1
  H  H12  1  0.17254065  0.27849254  0.38369867  1
  H  H13  1  0.16509005  0.13447261  0.76366177  1
  H  H14  1  0.22821820  0.19759494  0.99285390  1
  H  H15  1  0.26094930  0.34720952  0.53092378  1
  H  H16  1  0.27178180  0.69759494  0.50714610  1
  H  H17  1  0.27188240  0.95625166  0.67664053  1
  H  H18  1  0.22811760  0.45625166  0.82335947  1
  H  H19  1  0.23905070  0.84720952  0.96907622  1
  H  H20  1  0.32745935  0.77849254  0.11630133  1
  H  H21  1  0.33734399  0.13562712  0.16178820  1
  H  H22  1  0.34458186  0.84323432  0.35143883  1
  H  H23  1  0.35969730  0.15462889  0.46010940  1
  H  H24  1  0.33490995  0.63447261  0.73633823  1
  H  H25  1  0.47777244  0.44238340  0.74873465  1
  H  H26  1  0.52222756  0.55761660  0.25126535  1
  H  H27  1  0.66509005  0.36552739  0.26366177  1
  H  H28  1  0.64030270  0.84537111  0.53989060  1
  H  H29  1  0.65541814  0.15676568  0.64856117  1
  H  H30  1  0.66265601  0.86437288  0.83821180  1
  H  H31  1  0.67254065  0.22150746  0.88369867  1
  H  H32  1  0.76094930  0.15279048  0.03092378  1
  H  H33  1  0.77188240  0.54374834  0.17664053  1
  H  H34  1  0.72811760  0.04374834  0.32335947  1
  H  H35  1  0.72821820  0.30240506  0.49285390  1
  H  H36  1  0.73905070  0.65279048  0.46907622  1
  H  H37  1  0.77178180  0.80240506  0.00714610  1
  H  H38  1  0.83490995  0.86552739  0.23633823  1
  H  H39  1  0.82745935  0.72150746  0.61630133  1
  H  H40  1  0.83734399  0.36437288  0.66178820  1
  H  H41  1  0.84458186  0.65676568  0.85143883  1
  H  H42  1  0.85969730  0.34537111  0.96010940  1
  H  H43  1  0.97777244  0.05761660  0.24873465  1
  C  C44  1  0.13185394  0.02716764  0.70062021  1
  C  C45  1  0.22324348  0.23387101  0.47511664  1
  C  C46  1  0.27675652  0.73387101  0.02488336  1
  C  C47  1  0.36814606  0.52716764  0.79937979  1
  C  C48  1  0.63185394  0.47283236  0.20062021  1
  C  C49  1  0.72324348  0.26612899  0.97511664  1
  C  C50  1  0.77675652  0.76612899  0.52488336  1
  C  C51  1  0.86814606  0.97283236  0.29937979  1
