# generated using pymatgen
data_LiBi(PO3)4
_symmetry_space_group_name_H-M   'P 1'
_cell_length_a   10.05926553
_cell_length_b   13.48094547
_cell_length_c   7.26790065
_cell_angle_alpha   90.00000000
_cell_angle_beta   89.30866054
_cell_angle_gamma   90.00000000
_symmetry_Int_Tables_number   1
_chemical_formula_structural   LiBi(PO3)4
_chemical_formula_sum   'Li4 Bi4 P16 O48'
_cell_volume   985.51670510
_cell_formula_units_Z   4
loop_
 _symmetry_equiv_pos_site_id
 _symmetry_equiv_pos_as_xyz
  1  'x, y, z'
loop_
 _atom_site_type_symbol
 _atom_site_label
 _atom_site_symmetry_multiplicity
 _atom_site_fract_x
 _atom_site_fract_y
 _atom_site_fract_z
 _atom_site_occupancy
  Li  Li0  1  0.04544070  0.21031938  0.05099191  1
  Li  Li1  1  0.45455930  0.71031938  0.44900809  1
  Li  Li2  1  0.54544070  0.28968062  0.55099191  1
  Li  Li3  1  0.95455930  0.78968062  0.94900809  1
  Bi  Bi4  1  0.07286233  0.77803349  0.48143523  1
  Bi  Bi5  1  0.42713767  0.27803349  0.01856477  1
  Bi  Bi6  1  0.57286233  0.72196651  0.98143523  1
  Bi  Bi7  1  0.92713767  0.22196651  0.51856477  1
  P  P8  1  0.20148305  0.37210587  0.35850249  1
  P  P9  1  0.19657652  0.58987588  0.28037733  1
  P  P10  1  0.23811900  0.12287615  0.61889217  1
  P  P11  1  0.23051479  0.90949032  0.73760441  1
  P  P12  1  0.26948521  0.40949032  0.76239559  1
  P  P13  1  0.26188100  0.62287615  0.88110783  1
  P  P14  1  0.30342348  0.08987588  0.21962267  1
  P  P15  1  0.29851695  0.87210587  0.14149751  1
  P  P16  1  0.70148305  0.12789413  0.85850249  1
  P  P17  1  0.69657652  0.91012412  0.78037733  1
  P  P18  1  0.73811900  0.37712385  0.11889217  1
  P  P19  1  0.73051479  0.59050968  0.23760441  1
  P  P20  1  0.76948521  0.09050968  0.26239559  1
  P  P21  1  0.76188100  0.87712385  0.38110783  1
  P  P22  1  0.80342348  0.41012412  0.71962267  1
  P  P23  1  0.79851695  0.62789413  0.64149751  1
  O  O24  1  0.07068043  0.65136579  0.26387144  1
  O  O25  1  0.08042869  0.89967441  0.75276333  1
  O  O26  1  0.09667742  0.15113096  0.67543540  1
  O  O27  1  0.09938543  0.29374751  0.31202692  1
  O  O28  1  0.14289505  0.47745286  0.29692190  1
  O  O29  1  0.15345625  0.69645725  0.85691421  1
  O  O30  1  0.15833274  0.85778832  0.21062245  1
  O  O31  1  0.19518796  0.38166525  0.57709316  1
  O  O32  1  0.21010947  0.34870409  0.91778528  1
  O  O33  1  0.22112471  0.52266430  0.77693423  1
  O  O34  1  0.22286550  0.08422934  0.41006916  1
  O  O35  1  0.21081683  0.12224775  0.07128670  1
  O  O36  1  0.28918317  0.62224775  0.42871330  1
  O  O37  1  0.27713450  0.58422934  0.08993084  1
  O  O38  1  0.27887529  0.02266430  0.72306577  1
  O  O39  1  0.28989053  0.84870409  0.58221472  1
  O  O40  1  0.30481204  0.88166525  0.92290684  1
  O  O41  1  0.34166726  0.35778832  0.28937755  1
  O  O42  1  0.34654375  0.19645725  0.64308579  1
  O  O43  1  0.35710495  0.97745286  0.20307810  1
  O  O44  1  0.40061457  0.79374751  0.18797308  1
  O  O45  1  0.40332258  0.65113096  0.82456460  1
  O  O46  1  0.41957131  0.39967441  0.74723667  1
  O  O47  1  0.42931957  0.15136579  0.23612856  1
  O  O48  1  0.57068043  0.84863421  0.76387144  1
  O  O49  1  0.58042869  0.60032559  0.25276333  1
  O  O50  1  0.59667742  0.34886904  0.17543540  1
  O  O51  1  0.59938543  0.20625249  0.81202692  1
  O  O52  1  0.64289505  0.02254714  0.79692190  1
  O  O53  1  0.65345625  0.80354275  0.35691421  1
  O  O54  1  0.65833274  0.64221168  0.71062245  1
  O  O55  1  0.69518796  0.11833475  0.07709316  1
  O  O56  1  0.71010947  0.15129591  0.41778528  1
  O  O57  1  0.72112471  0.97733570  0.27693423  1
  O  O58  1  0.72286550  0.41577066  0.91006916  1
  O  O59  1  0.71081683  0.37775225  0.57128670  1
  O  O60  1  0.78918317  0.87775225  0.92871330  1
  O  O61  1  0.77713450  0.91577066  0.58993084  1
  O  O62  1  0.77887529  0.47733570  0.22306577  1
  O  O63  1  0.78989053  0.65129591  0.08221472  1
  O  O64  1  0.80481204  0.61833475  0.42290684  1
  O  O65  1  0.84166726  0.14221168  0.78937755  1
  O  O66  1  0.84654375  0.30354275  0.14308579  1
  O  O67  1  0.85710495  0.52254714  0.70307810  1
  O  O68  1  0.90061457  0.70625249  0.68797308  1
  O  O69  1  0.90332258  0.84886904  0.32456460  1
  O  O70  1  0.91957131  0.10032559  0.24723667  1
  O  O71  1  0.92931957  0.34863421  0.73612856  1
