# generated using pymatgen
data_Li3Sb2(PO4)3
_symmetry_space_group_name_H-M   'P 1'
_cell_length_a   9.49213767
_cell_length_b   8.57838592
_cell_length_c   9.36121244
_cell_angle_alpha   123.30965032
_cell_angle_beta   59.53626068
_cell_angle_gamma   123.59087952
_symmetry_Int_Tables_number   1
_chemical_formula_structural   Li3Sb2(PO4)3
_chemical_formula_sum   'Li6 Sb4 P6 O24'
_cell_volume   507.55191308
_cell_formula_units_Z   2
loop_
 _symmetry_equiv_pos_site_id
 _symmetry_equiv_pos_as_xyz
  1  'x, y, z'
loop_
 _atom_site_type_symbol
 _atom_site_label
 _atom_site_symmetry_multiplicity
 _atom_site_fract_x
 _atom_site_fract_y
 _atom_site_fract_z
 _atom_site_occupancy
  Li  Li0  1  0.00000000  0.00000000  0.00000000  1
  Li  Li1  1  0.28436984  0.76923475  0.62226806  1
  Li  Li2  1  0.36259684  0.26923475  0.12226806  1
  Li  Li3  1  0.50000000  0.50000000  0.50000000  1
  Li  Li4  1  0.63740316  0.73076525  0.87773194  1
  Li  Li5  1  0.71563016  0.23076525  0.37773194  1
  Sb  Sb6  1  0.13863037  0.46162555  0.15958946  1
  Sb  Sb7  1  0.33659428  0.03837445  0.34041054  1
  Sb  Sb8  1  0.66340572  0.96162555  0.65958946  1
  Sb  Sb9  1  0.86136963  0.53837445  0.84041054  1
  P  P10  1  0.09839130  0.28447148  0.42981595  1
  P  P11  1  0.59047145  0.75000000  0.25000000  1
  P  P12  1  0.25626423  0.78447148  0.92981595  1
  P  P13  1  0.74373577  0.21552852  0.07018405  1
  P  P14  1  0.40952855  0.25000000  0.75000000  1
  P  P15  1  0.90160870  0.71552852  0.57018405  1
  O  O16  1  0.33139522  0.00051689  0.05814844  1
  O  O17  1  0.06610084  0.87823219  0.50654280  1
  O  O18  1  0.10590450  0.24303510  0.23935761  1
  O  O19  1  0.11097323  0.50051689  0.55814844  1
  O  O20  1  0.09998373  0.77560774  0.90046828  1
  O  O21  1  0.56975061  0.94343217  0.30878870  1
  O  O22  1  0.43510714  0.55656783  0.19121130  1
  O  O23  1  0.27515573  0.27560774  0.40046828  1
  O  O24  1  0.60326048  0.74777357  0.41144846  1
  O  O25  1  0.76693537  0.75222643  0.08855154  1
  O  O26  1  0.39777398  0.74303510  0.73935761  1
  O  O27  1  0.19441245  0.62176781  0.99345720  1
  O  O28  1  0.80558755  0.37823219  0.00654280  1
  O  O29  1  0.60222602  0.25696490  0.26064239  1
  O  O30  1  0.39673952  0.25222643  0.58855154  1
  O  O31  1  0.23306463  0.24777357  0.91144846  1
  O  O32  1  0.72484427  0.72439226  0.59953172  1
  O  O33  1  0.56489286  0.44343217  0.80878870  1
  O  O34  1  0.43024939  0.05656783  0.69121130  1
  O  O35  1  0.90001627  0.22439226  0.09953172  1
  O  O36  1  0.88902677  0.49948311  0.44185156  1
  O  O37  1  0.89409550  0.75696490  0.76064239  1
  O  O38  1  0.93389916  0.12176781  0.49345720  1
  O  O39  1  0.66860478  0.99948311  0.94185156  1
