# generated using pymatgen
data_Li4Cu(PO3)6
_symmetry_space_group_name_H-M   'P 1'
_cell_length_a   7.21406689
_cell_length_b   7.21406689
_cell_length_c   14.21937316
_cell_angle_alpha   85.29926815
_cell_angle_beta   94.70073185
_cell_angle_gamma   113.32539549
_symmetry_Int_Tables_number   1
_chemical_formula_structural   Li4Cu(PO3)6
_chemical_formula_sum   'Li8 Cu2 P12 O36'
_cell_volume   676.25751611
_cell_formula_units_Z   2
loop_
 _symmetry_equiv_pos_site_id
 _symmetry_equiv_pos_as_xyz
  1  'x, y, z'
loop_
 _atom_site_type_symbol
 _atom_site_label
 _atom_site_symmetry_multiplicity
 _atom_site_fract_x
 _atom_site_fract_y
 _atom_site_fract_z
 _atom_site_occupancy
  Li  Li0  1  0.03798025  0.70150965  0.92819030  1
  Li  Li1  1  0.29849035  0.96201975  0.42819030  1
  Li  Li2  1  0.22504449  0.56113103  0.54682152  1
  Li  Li3  1  0.43886897  0.77495551  0.04682152  1
  Li  Li4  1  0.56113103  0.22504449  0.95317848  1
  Li  Li5  1  0.77495551  0.43886897  0.45317848  1
  Li  Li6  1  0.70150965  0.03798025  0.57180970  1
  Li  Li7  1  0.96201975  0.29849035  0.07180970  1
  Cu  Cu8  1  0.63570312  0.63570312  0.75000000  1
  Cu  Cu9  1  0.36429688  0.36429688  0.25000000  1
  P  P10  1  0.03879142  0.85629481  0.61293740  1
  P  P11  1  0.14370519  0.96120858  0.11293740  1
  P  P12  1  0.37180130  0.90284401  0.75432907  1
  P  P13  1  0.09715599  0.62819870  0.25432907  1
  P  P14  1  0.22940051  0.39702608  0.89021384  1
  P  P15  1  0.60297392  0.77059949  0.39021384  1
  P  P16  1  0.39702608  0.22940051  0.60978616  1
  P  P17  1  0.77059949  0.60297392  0.10978616  1
  P  P18  1  0.90284401  0.37180130  0.74567093  1
  P  P19  1  0.62819870  0.09715599  0.24567093  1
  P  P20  1  0.85629481  0.03879142  0.88706260  1
  P  P21  1  0.96120858  0.14370519  0.38706260  1
  O  O22  1  0.13899764  0.81456500  0.71378678  1
  O  O23  1  0.09429702  0.75809027  0.53672857  1
  O  O24  1  0.18543500  0.86100236  0.21378678  1
  O  O25  1  0.24190973  0.90570298  0.03672857  1
  O  O26  1  0.37183861  0.89931941  0.85858923  1
  O  O27  1  0.10068059  0.62816139  0.35858923  1
  O  O28  1  0.18310522  0.50301053  0.96662763  1
  O  O29  1  0.48374491  0.79924380  0.70656730  1
  O  O30  1  0.13363388  0.44944117  0.78937755  1
  O  O31  1  0.49698947  0.81689478  0.46662763  1
  O  O32  1  0.20075620  0.51625509  0.20656730  1
  O  O33  1  0.55055883  0.86636612  0.28937755  1
  O  O34  1  0.09944826  0.15517685  0.90303709  1
  O  O35  1  0.81670377  0.82282617  0.87129683  1
  O  O36  1  0.44211283  0.42434771  0.87555533  1
  O  O37  1  0.84482315  0.90055174  0.40303709  1
  O  O38  1  0.42434771  0.44211283  0.62444467  1
  O  O39  1  0.17717383  0.18329623  0.37129683  1
  O  O40  1  0.82282617  0.81670377  0.62870317  1
  O  O41  1  0.57565229  0.55788717  0.37555533  1
  O  O42  1  0.15517685  0.09944826  0.59696291  1
  O  O43  1  0.55788717  0.57565229  0.12444467  1
  O  O44  1  0.18329623  0.17717383  0.12870317  1
  O  O45  1  0.90055174  0.84482315  0.09696291  1
  O  O46  1  0.44944117  0.13363388  0.71062245  1
  O  O47  1  0.79924380  0.48374491  0.79343270  1
  O  O48  1  0.50301053  0.18310522  0.53337237  1
  O  O49  1  0.86636612  0.55055883  0.21062245  1
  O  O50  1  0.51625509  0.20075620  0.29343270  1
  O  O51  1  0.81689478  0.49698947  0.03337237  1
  O  O52  1  0.89931941  0.37183861  0.64141077  1
  O  O53  1  0.62816139  0.10068059  0.14141077  1
  O  O54  1  0.75809027  0.09429702  0.96327143  1
  O  O55  1  0.81456500  0.13899764  0.78621322  1
  O  O56  1  0.90570298  0.24190973  0.46327143  1
  O  O57  1  0.86100236  0.18543500  0.28621322  1
