# generated using pymatgen
data_Li2CuSiO4
_symmetry_space_group_name_H-M   'P 1'
_cell_length_a   6.15391558
_cell_length_b   10.84543408
_cell_length_c   5.04816597
_cell_angle_alpha   89.98376980
_cell_angle_beta   89.99318060
_cell_angle_gamma   89.98770109
_symmetry_Int_Tables_number   1
_chemical_formula_structural   Li2CuSiO4
_chemical_formula_sum   'Li8 Cu4 Si4 O16'
_cell_volume   336.92409260
_cell_formula_units_Z   4
loop_
 _symmetry_equiv_pos_site_id
 _symmetry_equiv_pos_as_xyz
  1  'x, y, z'
loop_
 _atom_site_type_symbol
 _atom_site_label
 _atom_site_symmetry_multiplicity
 _atom_site_fract_x
 _atom_site_fract_y
 _atom_site_fract_z
 _atom_site_occupancy
  Li  Li0  1  0.99775115  0.82712279  0.76008141  1
  Li  Li1  1  0.25429853  0.08578412  0.75946455  1
  Li  Li2  1  0.24568646  0.58576525  0.75943894  1
  Li  Li3  1  0.50222347  0.32718792  0.76009647  1
  Li  Li4  1  0.49795021  0.67275713  0.26020481  1
  Li  Li5  1  0.75429857  0.41431740  0.25955123  1
  Li  Li6  1  0.74569761  0.91430067  0.25952848  1
  Li  Li7  1  0.00204527  0.17281396  0.26017170  1
  Cu  Cu8  1  0.25662298  0.41730310  0.25223415  1
  Cu  Cu9  1  0.24341773  0.91727106  0.25214509  1
  Cu  Cu10  1  0.75665852  0.08270805  0.75231773  1
  Cu  Cu11  1  0.74333132  0.58268901  0.75241986  1
  Si  Si12  1  0.99458305  0.66291538  0.26395118  1
  Si  Si13  1  0.50544930  0.16292452  0.26392974  1
  Si  Si14  1  0.49487075  0.83699451  0.76351526  1
  Si  Si15  1  0.00514926  0.33699517  0.76356345  1
  O  O16  1  0.00372022  0.33511636  0.09053192  1
  O  O17  1  0.00369832  0.80713644  0.15798101  1
  O  O18  1  0.28477706  0.09024880  0.16023267  1
  O  O19  1  0.22831916  0.40717066  0.65877336  1
  O  O20  1  0.27160702  0.90720444  0.65872671  1
  O  O21  1  0.21526940  0.59026135  0.16013989  1
  O  O22  1  0.49635822  0.30712956  0.15796920  1
  O  O23  1  0.49622749  0.83512556  0.09062944  1
  O  O24  1  0.50360832  0.16491568  0.59028514  1
  O  O25  1  0.50347531  0.69294520  0.65797893  1
  O  O26  1  0.78479629  0.40960706  0.66018466  1
  O  O27  1  0.72820244  0.09288028  0.15894214  1
  O  O28  1  0.77183289  0.59288254  0.15902533  1
  O  O29  1  0.71516273  0.90964005  0.66018606  1
  O  O30  1  0.99646153  0.19295623  0.65802296  1
  O  O31  1  0.99644940  0.66492975  0.59027652  1
