# generated using pymatgen
data_CrSb2
_symmetry_space_group_name_H-M   'P 1'
_cell_length_a   5.44343150
_cell_length_b   5.44343149
_cell_length_c   5.44343150
_cell_angle_alpha   106.31645206
_cell_angle_beta   106.31645208
_cell_angle_gamma   115.98369819
_symmetry_Int_Tables_number   1
_chemical_formula_structural   CrSb2
_chemical_formula_sum   'Cr2 Sb4'
_cell_volume   122.94775103
_cell_formula_units_Z   2
loop_
 _symmetry_equiv_pos_site_id
 _symmetry_equiv_pos_as_xyz
  1  'x, y, z'
loop_
 _atom_site_type_symbol
 _atom_site_label
 _atom_site_symmetry_multiplicity
 _atom_site_fract_x
 _atom_site_fract_y
 _atom_site_fract_z
 _atom_site_occupancy
  Cr  Cr0  1  0.25000000  0.25000000  0.00000000  1
  Cr  Cr1  1  0.75000000  0.75000000  0.00000000  1
  Sb  Sb2  1  0.65927404  0.15927404  0.81854808  1
  Sb  Sb3  1  0.15927404  0.34072596  0.50000000  1
  Sb  Sb4  1  0.84072596  0.65927404  0.50000000  1
  Sb  Sb5  1  0.34072596  0.84072596  0.18145192  1
