# generated using pymatgen
data_Li2Cu3(CO3)3
_symmetry_space_group_name_H-M   'P 1'
_cell_length_a   8.22492627
_cell_length_b   8.20562681
_cell_length_c   6.24190875
_cell_angle_alpha   90.00000000
_cell_angle_beta   90.00000000
_cell_angle_gamma   120.20080675
_symmetry_Int_Tables_number   1
_chemical_formula_structural   Li2Cu3(CO3)3
_chemical_formula_sum   'Li4 Cu6 C6 O18'
_cell_volume   364.09061370
_cell_formula_units_Z   2
loop_
 _symmetry_equiv_pos_site_id
 _symmetry_equiv_pos_as_xyz
  1  'x, y, z'
loop_
 _atom_site_type_symbol
 _atom_site_label
 _atom_site_symmetry_multiplicity
 _atom_site_fract_x
 _atom_site_fract_y
 _atom_site_fract_z
 _atom_site_occupancy
  Li  Li0  1  0.32486378  0.29771466  0.25000000  1
  Li  Li1  1  0.97205695  0.67525078  0.75000000  1
  Li  Li2  1  0.70236860  0.02727558  0.75000000  1
  Li  Li3  1  0.70404282  0.02781150  0.25000000  1
  Cu  Cu4  1  0.02195089  0.36651350  0.00192370  1
  Cu  Cu5  1  0.02195089  0.36651350  0.49807630  1
  Cu  Cu6  1  0.33595929  0.98064334  0.49744394  1
  Cu  Cu7  1  0.33595929  0.98064334  0.00255606  1
  Cu  Cu8  1  0.63841375  0.65038332  0.99560627  1
  Cu  Cu9  1  0.63841375  0.65038332  0.50439373  1
  C  C10  1  0.33767024  0.66565264  0.25000000  1
  C  C11  1  0.33606580  0.67158558  0.75000000  1
  C  C12  1  0.99831275  0.00139375  -0.00001796  1
  C  C13  1  0.99831275  0.00139375  0.50001796  1
  C  C14  1  0.66614169  0.33113470  0.00000491  1
  C  C15  1  0.66614169  0.33113470  0.49999509  1
  O  O16  1  0.06590497  0.89068526  0.51842417  1
  O  O17  1  0.06590497  0.89068526  0.98157583  1
  O  O18  1  0.15658127  0.56924810  0.25000000  1
  O  O19  1  0.15136104  0.57574070  0.75000000  1
  O  O20  1  0.42646622  0.85042006  0.25000000  1
  O  O21  1  0.42165246  0.85710966  0.75000000  1
  O  O22  1  0.10715742  0.18089727  0.47770640  1
  O  O23  1  0.10715742  0.18089727  0.02229360  1
  O  O24  1  0.43627734  0.58000899  0.25000000  1
  O  O25  1  0.43157543  0.58701837  0.75000000  1
  O  O26  1  0.81453437  0.93027537  0.99646891  1
  O  O27  1  0.81453437  0.93027537  0.50353109  1
  O  O28  1  0.48723367  0.25991651  0.01918857  1
  O  O29  1  0.48723367  0.25991651  0.48081143  1
  O  O30  1  0.77659746  0.51035083  0.98370715  1
  O  O31  1  0.77659746  0.51035083  0.51629285  1
  O  O32  1  0.73765827  0.21947984  0.99736444  1
  O  O33  1  0.73765827  0.21947984  0.50263556  1
