# generated using pymatgen
data_La12Cu6O25
_symmetry_space_group_name_H-M   'P 1'
_cell_length_a   7.67581555
_cell_length_b   8.91079653
_cell_length_c   8.91079653
_cell_angle_alpha   85.84409993
_cell_angle_beta   77.53921634
_cell_angle_gamma   102.46078366
_symmetry_Int_Tables_number   1
_chemical_formula_structural   La12Cu6O25
_chemical_formula_sum   'La12 Cu6 O25'
_cell_volume   576.55574017
_cell_formula_units_Z   1
loop_
 _symmetry_equiv_pos_site_id
 _symmetry_equiv_pos_as_xyz
  1  'x, y, z'
loop_
 _atom_site_type_symbol
 _atom_site_label
 _atom_site_symmetry_multiplicity
 _atom_site_fract_x
 _atom_site_fract_y
 _atom_site_fract_z
 _atom_site_occupancy
  La  La0  1  0.00067121  0.64281779  0.64002778  1
  La  La1  1  0.33506017  0.02622905  0.69754420  1
  La  La2  1  0.33052099  0.31088641  0.97648764  1
  La  La3  1  0.50463982  0.64515686  0.63491244  1
  La  La4  1  0.16599579  0.97336178  0.30948379  1
  La  La5  1  0.16513134  0.68885345  0.02957751  1
  La  La6  1  0.83160683  0.03087720  0.69289605  1
  La  La7  1  0.83614501  0.30982164  0.97755341  1
  La  La8  1  0.50105609  0.35292416  0.35279799  1
  La  La9  1  0.66561091  0.68613199  0.01959116  1
  La  La10  1  0.00153566  0.36291051  0.35551945  1
  La  La11  1  0.66202718  0.96824544  0.31182386  1
  Cu  Cu12  1  0.99931300  0.99933620  0.00023757  1
  Cu  Cu13  1  0.16735400  0.33357157  0.66600220  1
  Cu  Cu14  1  0.33236387  0.66294040  0.33090929  1
  Cu  Cu15  1  0.49946610  0.99898877  0.00290755  1
  Cu  Cu16  1  0.66720090  0.33624055  0.66565577  1
  Cu  Cu17  1  0.83430213  0.66424229  0.32960640  1
  O  O18  1  0.08333300  0.16030866  0.82697566  1
  O  O19  1  0.16894075  0.51437975  0.84005671  1
  O  O20  1  0.15899227  0.15099721  0.49187915  1
  O  O21  1  0.00767373  0.82521215  0.81766321  1
  O  O22  1  0.25152612  0.00672324  0.00552141  1
  O  O23  1  0.58333300  0.17154448  0.83821148  1
  O  O24  1  0.08333300  0.68493480  0.35160180  1
  O  O25  1  0.41657296  0.33413158  0.67257783  1
  O  O26  1  0.25287859  0.49542423  0.49466703  1
  O  O27  1  0.69288223  0.56760623  0.79163947  1
  O  O28  1  0.34402694  0.84743979  0.51986353  1
  O  O29  1  0.27296282  0.48785674  0.15671163  1
  O  O30  1  0.49724372  0.82589480  0.81644973  1
  O  O31  1  0.66942328  0.14978373  0.49256180  1
  O  O32  1  0.47378477  0.12497247  0.23427323  1
  O  O33  1  0.41884997  0.81855227  0.15601606  1
  O  O34  1  0.75009304  0.00591083  0.00079758  1
  O  O35  1  0.58333300  0.40785469  0.07452169  1
  O  O36  1  0.74781703  0.48934906  0.48521827  1
  O  O37  1  0.91514088  0.33885541  0.67339024  1
  O  O38  1  0.58333300  0.65613091  0.32279791  1
  O  O39  1  0.99772625  0.17338971  0.18104675  1
  O  O40  1  0.82264006  0.85319653  0.51410579  1
  O  O41  1  0.89370318  0.49004463  0.15452274  1
  O  O42  1  0.91378841  0.82800103  0.16209123  1
