# generated using pymatgen
data_Li2CuSiO4
_symmetry_space_group_name_H-M   'P 1'
_cell_length_a   10.80651726
_cell_length_b   4.96732743
_cell_length_c   6.33111807
_cell_angle_alpha   90.00122707
_cell_angle_beta   90.00864118
_cell_angle_gamma   89.96556604
_symmetry_Int_Tables_number   1
_chemical_formula_structural   Li2CuSiO4
_chemical_formula_sum   'Li8 Cu4 Si4 O16'
_cell_volume   339.85124745
_cell_formula_units_Z   4
loop_
 _symmetry_equiv_pos_site_id
 _symmetry_equiv_pos_as_xyz
  1  'x, y, z'
loop_
 _atom_site_type_symbol
 _atom_site_label
 _atom_site_symmetry_multiplicity
 _atom_site_fract_x
 _atom_site_fract_y
 _atom_site_fract_z
 _atom_site_occupancy
  Li  Li0  1  0.09028066  0.70598533  0.87014346  1
  Li  Li1  1  0.16542427  0.20408432  0.11803184  1
  Li  Li2  1  0.33472748  0.70382866  0.61823172  1
  Li  Li3  1  0.40966046  0.20610722  0.37015108  1
  Li  Li4  1  0.59026267  0.79404505  0.87014806  1
  Li  Li5  1  0.66531534  0.29600262  0.11807691  1
  Li  Li6  1  0.83459933  0.79608566  0.61822062  1
  Li  Li7  1  0.90960612  0.29380116  0.37015754  1
  Cu  Cu8  1  0.08480878  0.71452606  0.37053047  1
  Cu  Cu9  1  0.41533014  0.21446557  0.87073570  1
  Cu  Cu10  1  0.58467517  0.78553773  0.37077595  1
  Cu  Cu11  1  0.91532772  0.28555210  0.87075349  1
  Si  Si12  1  0.16674564  0.19619609  0.61570571  1
  Si  Si13  1  0.33299766  0.69664680  0.11633235  1
  Si  Si14  1  0.66687904  0.30385091  0.61566638  1
  Si  Si15  1  0.83298244  0.80337587  0.11619649  1
  O  O16  1  0.09450127  0.30260489  0.82996887  1
  O  O17  1  0.09360121  0.29781751  0.40126175  1
  O  O18  1  0.16835010  0.86351884  0.61693668  1
  O  O19  1  0.18879910  0.80837187  0.11913358  1
  O  O20  1  0.31135800  0.30869247  0.61875762  1
  O  O21  1  0.33159097  0.36322142  0.11726186  1
  O  O22  1  0.40642093  0.79767273  0.90108992  1
  O  O23  1  0.40547319  0.80255056  0.32974211  1
  O  O24  1  0.59451799  0.19735928  0.83009932  1
  O  O25  1  0.59362754  0.20233426  0.40134230  1
  O  O26  1  0.66837577  0.63641547  0.61711405  1
  O  O27  1  0.68885501  0.69156670  0.11894120  1
  O  O28  1  0.81131193  0.19142467  0.61892039  1
  O  O29  1  0.83159464  0.13667877  0.11713602  1
  O  O30  1  0.90642524  0.70223587  0.90111130  1
  O  O31  1  0.90557417  0.69744354  0.32972923  1
