# generated using pymatgen
data_Li3Bi2(PO4)3
_symmetry_space_group_name_H-M   'P 1'
_cell_length_a   5.15774928
_cell_length_b   5.15774928
_cell_length_c   20.74217313
_cell_angle_alpha   90.43928726
_cell_angle_beta   90.43928726
_cell_angle_gamma   66.26004894
_symmetry_Int_Tables_number   1
_chemical_formula_structural   Li3Bi2(PO4)3
_chemical_formula_sum   'Li6 Bi4 P6 O24'
_cell_volume   505.07854826
_cell_formula_units_Z   2
loop_
 _symmetry_equiv_pos_site_id
 _symmetry_equiv_pos_as_xyz
  1  'x, y, z'
loop_
 _atom_site_type_symbol
 _atom_site_label
 _atom_site_symmetry_multiplicity
 _atom_site_fract_x
 _atom_site_fract_y
 _atom_site_fract_z
 _atom_site_occupancy
  Li  Li0  1  0.00049639  0.00049639  0.82611934  1
  Li  Li1  1  0.34377773  0.34377773  0.56925417  1
  Li  Li2  1  0.33849953  0.33849953  0.89587816  1
  Li  Li3  1  0.99950361  0.99950361  0.50721466  1
  Li  Li4  1  0.66150047  0.66150047  0.43745484  1
  Li  Li5  1  0.65622227  0.65622227  0.76407983  1
  Bi  Bi6  1  0.00000000  0.00000000  0.16666700  1
  Bi  Bi7  1  0.99839913  0.99839913  0.98725267  1
  Bi  Bi8  1  0.00160087  0.00160087  0.34608033  1
  Bi  Bi9  1  0.00000000  0.00000000  0.66666700  1
  P  P10  1  0.35449534  0.35449534  0.42833349  1
  P  P11  1  0.35934320  0.35934320  0.07256585  1
  P  P12  1  0.35481212  0.35481212  0.75061302  1
  P  P13  1  0.64065680  0.64065680  0.26076715  1
  P  P14  1  0.64518788  0.64518788  0.58271998  1
  P  P15  1  0.64550466  0.64550466  0.90499951  1
  O  O16  1  0.23849620  0.69324464  0.07737580  1
  O  O17  1  0.24712105  0.68947790  0.42974847  1
  O  O18  1  0.24606108  0.68907464  0.75296126  1
  O  O19  1  0.30675536  0.76150380  0.25595720  1
  O  O20  1  0.31052210  0.75287895  0.90358553  1
  O  O21  1  0.31092536  0.75393892  0.58037274  1
  O  O22  1  0.74833977  0.74833977  0.20253436  1
  O  O23  1  0.75115148  0.75115148  0.84678464  1
  O  O24  1  0.75408809  0.75408809  0.52544238  1
  O  O25  1  0.27943675  0.27943675  0.00553372  1
  O  O26  1  0.26325958  0.26325958  0.36407989  1
  O  O27  1  0.25166023  0.25166023  0.13079964  1
  O  O28  1  0.24884852  0.24884852  0.48654836  1
  O  O29  1  0.73059491  0.73059491  0.64909651  1
  O  O30  1  0.72056325  0.72056325  0.32779928  1
  O  O31  1  0.26940509  0.26940509  0.68423649  1
  O  O32  1  0.24591191  0.24591191  0.80789162  1
  O  O33  1  0.73674042  0.73674042  0.96925411  1
  O  O34  1  0.76150380  0.30675536  0.25595720  1
  O  O35  1  0.75287895  0.31052210  0.90358553  1
  O  O36  1  0.75393892  0.31092536  0.58037274  1
  O  O37  1  0.69324464  0.23849620  0.07737580  1
  O  O38  1  0.68907464  0.24606108  0.75296126  1
  O  O39  1  0.68947790  0.24712105  0.42974847  1
