# generated using pymatgen
data_LiCu4(PO4)3
_symmetry_space_group_name_H-M   'P 1'
_cell_length_a   9.94626536
_cell_length_b   8.31112505
_cell_length_c   6.22210258
_cell_angle_alpha   68.01747890
_cell_angle_beta   90.00000000
_cell_angle_gamma   90.00000000
_symmetry_Int_Tables_number   1
_chemical_formula_structural   LiCu4(PO4)3
_chemical_formula_sum   'Li2 Cu8 P6 O24'
_cell_volume   476.95388524
_cell_formula_units_Z   2
loop_
 _symmetry_equiv_pos_site_id
 _symmetry_equiv_pos_as_xyz
  1  'x, y, z'
loop_
 _atom_site_type_symbol
 _atom_site_label
 _atom_site_symmetry_multiplicity
 _atom_site_fract_x
 _atom_site_fract_y
 _atom_site_fract_z
 _atom_site_occupancy
  Li  Li0  1  0.24434979  0.97347231  0.01326385  1
  Li  Li1  1  0.74434979  0.02652769  0.98673615  1
  Cu  Cu2  1  0.06380825  0.76130524  0.61934788  1
  Cu  Cu3  1  0.24853470  0.39565089  0.05550415  1
  Cu  Cu4  1  0.24853470  0.39565089  0.54884396  1
  Cu  Cu5  1  0.44723253  0.73888030  0.63055985  1
  Cu  Cu6  1  0.56380825  0.23869476  0.38065212  1
  Cu  Cu7  1  0.74853470  0.60434911  0.45115604  1
  Cu  Cu8  1  0.74853470  0.60434911  0.94449585  1
  Cu  Cu9  1  0.94723253  0.26111970  0.36944015  1
  P  P10  1  0.03346806  0.63361613  0.18319193  1
  P  P11  1  0.29417845  0.04032124  0.47983988  1
  P  P12  1  0.46622246  0.63031813  0.18484094  1
  P  P13  1  0.53346806  0.36638387  0.81680807  1
  P  P14  1  0.79417845  0.95967876  0.52016012  1
  P  P15  1  0.96622246  0.36968187  0.81515906  1
  O  O16  1  0.07590177  0.73683365  0.32698342  1
  O  O17  1  0.07590177  0.73683365  0.93618294  1
  O  O18  1  0.10794975  0.44650121  0.27674939  1
  O  O19  1  0.11915578  0.42662715  0.78668693  1
  O  O20  1  0.24179561  0.12471653  0.22801292  1
  O  O21  1  0.25622735  0.84293991  0.57853005  1
  O  O22  1  0.24179561  0.12471653  0.64726955  1
  O  O23  1  0.37967466  0.41674114  0.79162943  1
  O  O24  1  0.38281855  0.45248901  0.27375549  1
  O  O25  1  0.43072177  0.73819172  0.32658780  1
  O  O26  1  0.43072177  0.73819172  0.93522048  1
  O  O27  1  0.45123365  0.02807981  0.48596010  1
  O  O28  1  0.57590177  0.26316635  0.06381706  1
  O  O29  1  0.57590177  0.26316635  0.67301658  1
  O  O30  1  0.60794975  0.55349879  0.72325061  1
  O  O31  1  0.61915578  0.57337285  0.21331307  1
  O  O32  1  0.75622735  0.15706009  0.42146995  1
  O  O33  1  0.74179561  0.87528347  0.35273045  1
  O  O34  1  0.74179561  0.87528347  0.77198708  1
  O  O35  1  0.87967466  0.58325886  0.20837057  1
  O  O36  1  0.88281855  0.54751099  0.72624451  1
  O  O37  1  0.93072177  0.26180828  0.67341220  1
  O  O38  1  0.93072177  0.26180828  0.06477952  1
  O  O39  1  0.95123365  0.97192019  0.51403990  1
