# generated using pymatgen
data_Bi4O5F2
_symmetry_space_group_name_H-M   'P 1'
_cell_length_a   9.21765645
_cell_length_b   8.50262315
_cell_length_c   9.09274909
_cell_angle_alpha   90.00000000
_cell_angle_beta   90.00000000
_cell_angle_gamma   90.00000000
_symmetry_Int_Tables_number   1
_chemical_formula_structural   Bi4O5F2
_chemical_formula_sum   'Bi16 O20 F8'
_cell_volume   712.63747330
_cell_formula_units_Z   4
loop_
 _symmetry_equiv_pos_site_id
 _symmetry_equiv_pos_as_xyz
  1  'x, y, z'
loop_
 _atom_site_type_symbol
 _atom_site_label
 _atom_site_symmetry_multiplicity
 _atom_site_fract_x
 _atom_site_fract_y
 _atom_site_fract_z
 _atom_site_occupancy
  Bi  Bi0  1  0.01702541  0.75000000  0.43460717  1
  Bi  Bi1  1  0.04488941  0.25000000  0.99944388  1
  Bi  Bi2  1  0.23951215  0.96677679  0.79038590  1
  Bi  Bi3  1  0.23951215  0.53322321  0.79038590  1
  Bi  Bi4  1  0.26048785  0.03322321  0.29038590  1
  Bi  Bi5  1  0.26048785  0.46677679  0.29038590  1
  Bi  Bi6  1  0.45511059  0.75000000  0.49944388  1
  Bi  Bi7  1  0.48297459  0.25000000  0.93460717  1
  Bi  Bi8  1  0.51702541  0.75000000  0.06539283  1
  Bi  Bi9  1  0.54488941  0.25000000  0.50055612  1
  Bi  Bi10  1  0.73951215  0.53322321  0.70961410  1
  Bi  Bi11  1  0.73951215  0.96677679  0.70961410  1
  Bi  Bi12  1  0.76048785  0.03322321  0.20961410  1
  Bi  Bi13  1  0.76048785  0.46677679  0.20961410  1
  Bi  Bi14  1  0.95511059  0.75000000  0.00055612  1
  Bi  Bi15  1  0.98297459  0.25000000  0.56539283  1
  O  O16  1  0.02511186  0.06409225  0.83617699  1
  O  O17  1  0.02511186  0.43590775  0.83617699  1
  O  O18  1  0.16604839  0.56102722  0.49252082  1
  O  O19  1  0.16604839  0.93897278  0.49252082  1
  O  O20  1  0.17949912  0.75000000  0.92464075  1
  O  O21  1  0.32050088  0.25000000  0.42464075  1
  O  O22  1  0.33395161  0.06102722  0.99252082  1
  O  O23  1  0.33395161  0.43897278  0.99252082  1
  O  O24  1  0.47488814  0.56409225  0.33617699  1
  O  O25  1  0.47488814  0.93590775  0.33617699  1
  O  O26  1  0.52511186  0.06409225  0.66382301  1
  O  O27  1  0.52511186  0.43590775  0.66382301  1
  O  O28  1  0.66604839  0.56102722  0.00747918  1
  O  O29  1  0.66604839  0.93897278  0.00747918  1
  O  O30  1  0.67949912  0.75000000  0.57535925  1
  O  O31  1  0.82050088  0.25000000  0.07535925  1
  O  O32  1  0.83395161  0.06102722  0.50747918  1
  O  O33  1  0.83395161  0.43897278  0.50747918  1
  O  O34  1  0.97488814  0.56409225  0.16382301  1
  O  O35  1  0.97488814  0.93590775  0.16382301  1
  F  F36  1  0.02985126  0.25000000  0.32135892  1
  F  F37  1  0.21929289  0.75000000  0.25336657  1
  F  F38  1  0.28070711  0.25000000  0.75336657  1
  F  F39  1  0.47014874  0.75000000  0.82135892  1
  F  F40  1  0.52985126  0.25000000  0.17864108  1
  F  F41  1  0.71929289  0.75000000  0.24663343  1
  F  F42  1  0.78070711  0.25000000  0.74663343  1
  F  F43  1  0.97014874  0.75000000  0.67864108  1
