# generated using pymatgen
data_LiBi(PO3)4
_symmetry_space_group_name_H-M   'P 1'
_cell_length_a   7.19026102
_cell_length_b   12.43623685
_cell_length_c   7.19026102
_cell_angle_alpha   71.70006996
_cell_angle_beta   68.41026284
_cell_angle_gamma   108.29993004
_symmetry_Int_Tables_number   1
_chemical_formula_structural   LiBi(PO3)4
_chemical_formula_sum   'Li2 Bi2 P8 O24'
_cell_volume   495.89516410
_cell_formula_units_Z   2
loop_
 _symmetry_equiv_pos_site_id
 _symmetry_equiv_pos_as_xyz
  1  'x, y, z'
loop_
 _atom_site_type_symbol
 _atom_site_label
 _atom_site_symmetry_multiplicity
 _atom_site_fract_x
 _atom_site_fract_y
 _atom_site_fract_z
 _atom_site_occupancy
  Li  Li0  1  0.92103236  0.75000000  0.92103236  1
  Li  Li1  1  0.07896764  0.25000000  0.07896764  1
  Bi  Bi2  1  0.63097919  0.75000000  0.63097919  1
  Bi  Bi3  1  0.36902081  0.25000000  0.36902081  1
  P  P4  1  0.29233845  0.00598204  0.83602103  1
  P  P5  1  0.16397897  0.50598204  0.70766155  1
  P  P6  1  0.23096655  0.94380530  0.31931417  1
  P  P7  1  0.31931417  0.55619470  0.23096655  1
  P  P8  1  0.68068583  0.44380530  0.76903345  1
  P  P9  1  0.76903345  0.05619470  0.68068583  1
  P  P10  1  0.83602103  0.49401796  0.29233845  1
  P  P11  1  0.70766155  0.99401796  0.16397897  1
  O  O12  1  0.20200010  0.89581918  0.79666689  1
  O  O13  1  0.21856082  0.61140032  0.77279529  1
  O  O14  1  0.01064375  0.82340227  0.51860658  1
  O  O15  1  0.20333311  0.39581918  0.79799990  1
  O  O16  1  0.72728832  0.92718465  0.69456658  1
  O  O17  1  0.22720471  0.11140032  0.78143918  1
  O  O18  1  0.09018241  0.55412016  0.24978959  1
  O  O19  1  0.42860919  0.91248965  0.32244386  1
  O  O20  1  0.32244386  0.58751035  0.42860919  1
  O  O21  1  0.24978959  0.94587984  0.09018241  1
  O  O22  1  0.48139342  0.32340227  0.98935625  1
  O  O23  1  0.69456658  0.57281535  0.72728832  1
  O  O24  1  0.30543342  0.42718465  0.27271168  1
  O  O25  1  0.51860658  0.67659773  0.01064375  1
  O  O26  1  0.75021041  0.05412016  0.90981759  1
  O  O27  1  0.67755614  0.41248965  0.57139081  1
  O  O28  1  0.57139081  0.08751035  0.67755614  1
  O  O29  1  0.90981759  0.44587984  0.75021041  1
  O  O30  1  0.77279529  0.88859968  0.21856082  1
  O  O31  1  0.27271168  0.07281535  0.30543342  1
  O  O32  1  0.79666689  0.60418082  0.20200010  1
  O  O33  1  0.98935625  0.17659773  0.48139342  1
  O  O34  1  0.78143918  0.38859968  0.22720471  1
  O  O35  1  0.79799990  0.10418082  0.20333311  1
