# generated using pymatgen
data_Li2BiP3O10
_symmetry_space_group_name_H-M   'P 1'
_cell_length_a   5.10936958
_cell_length_b   9.00353541
_cell_length_c   10.26527260
_cell_angle_alpha   90.00000000
_cell_angle_beta   81.58729748
_cell_angle_gamma   90.00000000
_symmetry_Int_Tables_number   1
_chemical_formula_structural   Li2BiP3O10
_chemical_formula_sum   'Li4 Bi2 P6 O20'
_cell_volume   467.14587218
_cell_formula_units_Z   2
loop_
 _symmetry_equiv_pos_site_id
 _symmetry_equiv_pos_as_xyz
  1  'x, y, z'
loop_
 _atom_site_type_symbol
 _atom_site_label
 _atom_site_symmetry_multiplicity
 _atom_site_fract_x
 _atom_site_fract_y
 _atom_site_fract_z
 _atom_site_occupancy
  Li  Li0  1  0.17569974  0.07676300  0.42258029  1
  Li  Li1  1  0.17569974  0.42323700  0.42258029  1
  Li  Li2  1  0.82430026  0.57676300  0.57741971  1
  Li  Li3  1  0.82430026  0.92323700  0.57741971  1
  Bi  Bi4  1  0.00000000  0.00000000  0.00000000  1
  Bi  Bi5  1  0.00000000  0.50000000  0.00000000  1
  P  P6  1  0.32120903  0.25000000  0.78654255  1
  P  P7  1  0.36104370  0.75000000  0.49931763  1
  P  P8  1  0.51683582  0.75000000  0.94385864  1
  P  P9  1  0.48316418  0.25000000  0.05614136  1
  P  P10  1  0.63895630  0.25000000  0.50068237  1
  P  P11  1  0.67879097  0.75000000  0.21345745  1
  O  O12  1  0.15695038  0.10846604  0.80066557  1
  O  O13  1  0.15695038  0.39153396  0.80066557  1
  O  O14  1  0.21912510  0.75000000  0.92527054  1
  O  O15  1  0.20112072  0.60765321  0.51855901  1
  O  O16  1  0.20112072  0.89234679  0.51855901  1
  O  O17  1  0.38762898  0.25000000  0.43660126  1
  O  O18  1  0.34195861  0.10649017  0.10465463  1
  O  O19  1  0.34195861  0.39350983  0.10465463  1
  O  O20  1  0.51737641  0.25000000  0.89594689  1
  O  O21  1  0.46659254  0.75000000  0.33683229  1
  O  O22  1  0.53340746  0.25000000  0.66316771  1
  O  O23  1  0.48262359  0.75000000  0.10405311  1
  O  O24  1  0.65804139  0.89350983  0.89534537  1
  O  O25  1  0.65804139  0.60649017  0.89534537  1
  O  O26  1  0.61237102  0.75000000  0.56339874  1
  O  O27  1  0.79887928  0.10765321  0.48144099  1
  O  O28  1  0.79887928  0.39234679  0.48144099  1
  O  O29  1  0.78087490  0.25000000  0.07472946  1
  O  O30  1  0.84304962  0.60846604  0.19933443  1
  O  O31  1  0.84304962  0.89153396  0.19933443  1
