# generated using pymatgen
data_Hf3N2O3
_symmetry_space_group_name_H-M   'P 1'
_cell_length_a   3.95873460
_cell_length_b   5.67983666
_cell_length_c   10.73597704
_cell_angle_alpha   90.00000000
_cell_angle_beta   90.00000000
_cell_angle_gamma   69.60500444
_symmetry_Int_Tables_number   1
_chemical_formula_structural   Hf3N2O3
_chemical_formula_sum   'Hf6 N4 O6'
_cell_volume   226.26541919
_cell_formula_units_Z   2
loop_
 _symmetry_equiv_pos_site_id
 _symmetry_equiv_pos_as_xyz
  1  'x, y, z'
loop_
 _atom_site_type_symbol
 _atom_site_label
 _atom_site_symmetry_multiplicity
 _atom_site_fract_x
 _atom_site_fract_y
 _atom_site_fract_z
 _atom_site_occupancy
  Hf  Hf0  1  0.13739437  0.72521225  0.93984740  1
  Hf  Hf1  1  0.13488958  0.73022083  0.55327031  1
  Hf  Hf2  1  0.18585750  0.62828400  0.24910882  1
  Hf  Hf3  1  0.81414250  0.37171600  0.74910882  1
  Hf  Hf4  1  0.86511042  0.26977917  0.05327031  1
  Hf  Hf5  1  0.86260563  0.27478775  0.43984740  1
  N  N6  1  0.04674224  0.90651452  0.38494911  1
  N  N7  1  0.70460721  0.59078457  0.57559062  1
  N  N8  1  0.29539279  0.40921543  0.07559062  1
  N  N9  1  0.95325776  0.09348548  0.88494911  1
  O  O10  1  0.04497904  0.91004191  0.11695295  1
  O  O11  1  0.69158413  0.61683175  0.91924469  1
  O  O12  1  0.75507618  0.48984764  0.26103510  1
  O  O13  1  0.24492382  0.51015236  0.76103510  1
  O  O14  1  0.30841587  0.38316825  0.41924469  1
  O  O15  1  0.95502096  0.08995809  0.61695295  1
