# generated using pymatgen
data_LiBi(PO3)4
_symmetry_space_group_name_H-M   'P 1'
_cell_length_a   7.23936099
_cell_length_b   8.95984744
_cell_length_c   15.55498815
_cell_angle_alpha   90.00000000
_cell_angle_beta   90.33722118
_cell_angle_gamma   90.00000000
_symmetry_Int_Tables_number   1
_chemical_formula_structural   LiBi(PO3)4
_chemical_formula_sum   'Li4 Bi4 P16 O48'
_cell_volume   1008.93458703
_cell_formula_units_Z   4
loop_
 _symmetry_equiv_pos_site_id
 _symmetry_equiv_pos_as_xyz
  1  'x, y, z'
loop_
 _atom_site_type_symbol
 _atom_site_label
 _atom_site_symmetry_multiplicity
 _atom_site_fract_x
 _atom_site_fract_y
 _atom_site_fract_z
 _atom_site_occupancy
  Li  Li0  1  0.01156460  0.57955951  0.35456008  1
  Li  Li1  1  0.51156460  0.92044049  0.85456008  1
  Li  Li2  1  0.48843540  0.07955951  0.14543992  1
  Li  Li3  1  0.98843540  0.42044049  0.64543992  1
  Bi  Bi4  1  0.08030609  0.67787535  0.90123107  1
  Bi  Bi5  1  0.41969391  0.17787535  0.59876893  1
  Bi  Bi6  1  0.58030609  0.82212465  0.40123107  1
  Bi  Bi7  1  0.91969391  0.32212465  0.09876893  1
  P  P8  1  0.08968973  0.24894756  0.42529799  1
  P  P9  1  0.12829746  0.03307653  0.79238033  1
  P  P10  1  0.16191182  0.25285820  0.94069795  1
  P  P11  1  0.24862367  0.02262354  0.29481068  1
  P  P12  1  0.33808818  0.75285820  0.55930205  1
  P  P13  1  0.37170254  0.53307653  0.70761967  1
  P  P14  1  0.25137633  0.52262354  0.20518932  1
  P  P15  1  0.58968973  0.25105244  0.92529799  1
  P  P16  1  0.41031027  0.74894756  0.07470201  1
  P  P17  1  0.74862367  0.47737646  0.79481068  1
  P  P18  1  0.62829746  0.46692347  0.29238033  1
  P  P19  1  0.66191182  0.24714180  0.44069795  1
  P  P20  1  0.75137633  0.97737646  0.70518932  1
  P  P21  1  0.83808818  0.74714180  0.05930205  1
  P  P22  1  0.87170254  0.96692347  0.20761967  1
  P  P23  1  0.91031027  0.75105244  0.57470201  1
  O  O24  1  0.06322823  0.40218025  0.94658769  1
  O  O25  1  0.09441911  0.17194355  0.85528184  1
  O  O26  1  0.07722685  0.01773282  0.22724068  1
  O  O27  1  0.15355375  0.23212308  0.51807024  1
  O  O28  1  0.22837495  0.08523150  0.71393367  1
  O  O29  1  0.12860137  0.78655138  0.57561439  1
  O  O30  1  0.12389476  0.39115744  0.38008881  1
  O  O31  1  0.28338930  0.40706204  0.65588937  1
  O  O32  1  0.15509023  0.10307309  0.37609032  1
  O  O33  1  0.10418774  0.61500841  0.24397279  1
  O  O34  1  0.21661070  0.90706204  0.84411063  1
  O  O35  1  0.29485020  0.86723542  0.32700274  1
  O  O36  1  0.37300740  0.65892033  0.48007343  1
  O  O37  1  0.37139863  0.28655138  0.92438561  1
  O  O38  1  0.27162505  0.58523150  0.78606633  1
  O  O39  1  0.34644625  0.73212308  0.98192976  1
  O  O40  1  0.12699260  0.15892033  0.01992657  1
  O  O41  1  0.20514980  0.36723542  0.17299726  1
  O  O42  1  0.40558089  0.67194355  0.64471816  1
  O  O43  1  0.39581226  0.11500841  0.25602721  1
  O  O44  1  0.43677177  0.90218025  0.55341231  1
  O  O45  1  0.34490977  0.60307309  0.12390968  1
  O  O46  1  0.57722685  0.48226718  0.72724068  1
  O  O47  1  0.37610524  0.89115744  0.11991119  1
  O  O48  1  0.62389476  0.10884256  0.88008881  1
  O  O49  1  0.42277315  0.51773282  0.27275932  1
  O  O50  1  0.65509023  0.39692691  0.87609032  1
  O  O51  1  0.56322823  0.09781975  0.44658769  1
  O  O52  1  0.60418774  0.88499159  0.74397279  1
  O  O53  1  0.59441911  0.32805645  0.35528184  1
  O  O54  1  0.79485020  0.63276458  0.82700274  1
  O  O55  1  0.87300740  0.84107967  0.98007343  1
  O  O56  1  0.65355375  0.26787692  0.01807024  1
  O  O57  1  0.72837495  0.41476850  0.21393367  1
  O  O58  1  0.62860137  0.71344862  0.07561439  1
  O  O59  1  0.62699260  0.34107967  0.51992657  1
  O  O60  1  0.70514980  0.13276458  0.67299726  1
  O  O61  1  0.78338930  0.09293796  0.15588937  1
  O  O62  1  0.89581226  0.38499159  0.75602721  1
  O  O63  1  0.84490977  0.89692691  0.62390968  1
  O  O64  1  0.71661070  0.59293796  0.34411063  1
  O  O65  1  0.87610524  0.60884256  0.61991119  1
  O  O66  1  0.87139863  0.21344862  0.42438561  1
  O  O67  1  0.77162505  0.91476850  0.28606633  1
  O  O68  1  0.84644625  0.76787692  0.48192976  1
  O  O69  1  0.92277315  0.98226718  0.77275932  1
  O  O70  1  0.90558089  0.82805645  0.14471816  1
  O  O71  1  0.93677177  0.59781975  0.05341231  1
