# generated using pymatgen
data_NaTi6O12
_symmetry_space_group_name_H-M   'P 1'
_cell_length_a   5.32369692
_cell_length_b   9.46598922
_cell_length_c   8.96102890
_cell_angle_alpha   90.00000000
_cell_angle_beta   90.00000000
_cell_angle_gamma   90.00000000
_symmetry_Int_Tables_number   1
_chemical_formula_structural   NaTi6O12
_chemical_formula_sum   'Na2 Ti12 O24'
_cell_volume   451.58260704
_cell_formula_units_Z   2
loop_
 _symmetry_equiv_pos_site_id
 _symmetry_equiv_pos_as_xyz
  1  'x, y, z'
loop_
 _atom_site_type_symbol
 _atom_site_label
 _atom_site_symmetry_multiplicity
 _atom_site_fract_x
 _atom_site_fract_y
 _atom_site_fract_z
 _atom_site_occupancy
  Na  Na0  1  0.45454893  0.03620517  0.25000000  1
  Na  Na1  1  0.95454893  0.46379483  0.75000000  1
  Ti  Ti2  1  0.03244443  0.86018648  0.58094815  1
  Ti  Ti3  1  0.02324399  0.84547407  0.25000000  1
  Ti  Ti4  1  0.03244443  0.86018648  0.91905185  1
  Ti  Ti5  1  0.46899451  0.35442827  0.91957507  1
  Ti  Ti6  1  0.46013980  0.36714763  0.25000000  1
  Ti  Ti7  1  0.46899451  0.35442827  0.58042493  1
  Ti  Ti8  1  0.53244443  0.63981352  0.08094815  1
  Ti  Ti9  1  0.52324399  0.65452593  0.75000000  1
  Ti  Ti10  1  0.53244443  0.63981352  0.41905185  1
  Ti  Ti11  1  0.96013980  0.13285237  0.75000000  1
  Ti  Ti12  1  0.96899451  0.14557173  0.08042493  1
  Ti  Ti13  1  0.96899451  0.14557173  0.41957507  1
  O  O14  1  0.16592185  0.23352144  0.91356005  1
  O  O15  1  0.18108067  0.22653571  0.25000000  1
  O  O16  1  0.16592185  0.23352144  0.58643995  1
  O  O17  1  0.18286180  0.96246189  0.08104490  1
  O  O18  1  0.18286180  0.96246189  0.41895510  1
  O  O19  1  0.17784443  0.96168827  0.75000000  1
  O  O20  1  0.31442074  0.46350824  0.08095127  1
  O  O21  1  0.31442074  0.46350824  0.41904873  1
  O  O22  1  0.34004201  0.46540759  0.75000000  1
  O  O23  1  0.32245477  0.72797530  0.91643815  1
  O  O24  1  0.32245477  0.72797530  0.58356185  1
  O  O25  1  0.32790198  0.73265265  0.25000000  1
  O  O26  1  0.66592185  0.26647856  0.08643995  1
  O  O27  1  0.68108067  0.27346429  0.75000000  1
  O  O28  1  0.66592185  0.26647856  0.41356005  1
  O  O29  1  0.68286180  0.53753811  0.58104490  1
  O  O30  1  0.68286180  0.53753811  0.91895510  1
  O  O31  1  0.67784443  0.53831173  0.25000000  1
  O  O32  1  0.81442074  0.03649176  0.58095127  1
  O  O33  1  0.84004201  0.03459241  0.25000000  1
  O  O34  1  0.81442074  0.03649176  0.91904873  1
  O  O35  1  0.82790198  0.76734735  0.75000000  1
  O  O36  1  0.82245477  0.77202470  0.08356185  1
  O  O37  1  0.82245477  0.77202470  0.41643815  1
