# generated using pymatgen
data_Li4Cu5(P3O11)2
_symmetry_space_group_name_H-M   'P 1'
_cell_length_a   12.33552394
_cell_length_b   6.75908898
_cell_length_c   10.65132823
_cell_angle_alpha   90.00000000
_cell_angle_beta   105.46515563
_cell_angle_gamma   90.00000000
_symmetry_Int_Tables_number   1
_chemical_formula_structural   Li4Cu5(P3O11)2
_chemical_formula_sum   'Li8 Cu10 P12 O44'
_cell_volume   855.92006543
_cell_formula_units_Z   2
loop_
 _symmetry_equiv_pos_site_id
 _symmetry_equiv_pos_as_xyz
  1  'x, y, z'
loop_
 _atom_site_type_symbol
 _atom_site_label
 _atom_site_symmetry_multiplicity
 _atom_site_fract_x
 _atom_site_fract_y
 _atom_site_fract_z
 _atom_site_occupancy
  Li  Li0  1  0.18316956  0.11794170  0.55260681  1
  Li  Li1  1  0.18316956  0.38205830  0.05260681  1
  Li  Li2  1  0.33640359  0.52524146  0.87717193  1
  Li  Li3  1  0.33640359  0.97475854  0.37717193  1
  Li  Li4  1  0.66359641  0.02524146  0.62282807  1
  Li  Li5  1  0.66359641  0.47475854  0.12282807  1
  Li  Li6  1  0.81683044  0.61794170  0.94739319  1
  Li  Li7  1  0.81683044  0.88205830  0.44739319  1
  Cu  Cu8  1  0.00000000  0.50000000  0.50000000  1
  Cu  Cu9  1  0.12938729  0.75956037  0.78626902  1
  Cu  Cu10  1  0.00000000  0.00000000  0.00000000  1
  Cu  Cu11  1  0.12938729  0.74043963  0.28626902  1
  Cu  Cu12  1  0.33863920  0.99235352  0.79977494  1
  Cu  Cu13  1  0.33863920  0.50764648  0.29977494  1
  Cu  Cu14  1  0.66136080  0.49235352  0.70022506  1
  Cu  Cu15  1  0.66136080  0.00764648  0.20022506  1
  Cu  Cu16  1  0.87061271  0.25956037  0.71373098  1
  Cu  Cu17  1  0.87061271  0.24043963  0.21373098  1
  P  P18  1  0.09445988  0.26947436  0.77179244  1
  P  P19  1  0.09445988  0.23052564  0.27179244  1
  P  P20  1  0.25708204  0.61180235  0.56963214  1
  P  P21  1  0.25708204  0.88819765  0.06963214  1
  P  P22  1  0.41846292  0.29287287  0.57928238  1
  P  P23  1  0.41846292  0.20712713  0.07928238  1
  P  P24  1  0.58153708  0.79287287  0.92071762  1
  P  P25  1  0.58153708  0.70712713  0.42071762  1
  P  P26  1  0.74291796  0.11180235  0.93036786  1
  P  P27  1  0.74291796  0.38819765  0.43036786  1
  P  P28  1  0.90554012  0.76947436  0.72820756  1
  P  P29  1  0.90554012  0.73052564  0.22820756  1
  O  O30  1  0.00872819  0.22685229  0.85447436  1
  O  O31  1  0.00090616  0.30997885  0.63801812  1
  O  O32  1  0.00872819  0.27314771  0.35447436  1
  O  O33  1  0.00090616  0.19002115  0.13801812  1
  O  O34  1  0.17037876  0.44028259  0.83648738  1
  O  O35  1  0.16558508  0.09348010  0.74517715  1
  O  O36  1  0.16909978  0.44765358  0.54635304  1
  O  O37  1  0.26299896  0.78110284  0.94429698  1
  O  O38  1  0.17037876  0.05971741  0.33648738  1
  O  O39  1  0.16558508  0.40651990  0.24517715  1
  O  O40  1  0.24403717  0.76038657  0.67458241  1
  O  O41  1  0.16909978  0.05234642  0.04635304  1
  O  O42  1  0.26299896  0.71889716  0.44429698  1
  O  O43  1  0.39032717  0.20643629  0.92891155  1
  O  O44  1  0.24403717  0.73961343  0.17458241  1
  O  O45  1  0.35129720  0.12450914  0.61870967  1
  O  O46  1  0.37688095  0.50343848  0.62888693  1
  O  O47  1  0.45645041  0.78325831  0.85223810  1
  O  O48  1  0.39032717  0.29356371  0.42891155  1
  O  O49  1  0.35129720  0.37549086  0.11870967  1
  O  O50  1  0.37688095  0.99656152  0.12888693  1
  O  O51  1  0.45645041  0.71674169  0.35223810  1
  O  O52  1  0.54354959  0.28325831  0.64776190  1
  O  O53  1  0.62311905  0.00343848  0.87111307  1
  O  O54  1  0.64870280  0.62450914  0.88129033  1
  O  O55  1  0.60967283  0.70643629  0.57108845  1
  O  O56  1  0.54354959  0.21674169  0.14776190  1
  O  O57  1  0.62311905  0.49656152  0.37111307  1
  O  O58  1  0.64870280  0.87549086  0.38129033  1
  O  O59  1  0.75596283  0.26038657  0.82541759  1
  O  O60  1  0.60967283  0.79356371  0.07108845  1
  O  O61  1  0.73700104  0.28110284  0.55570302  1
  O  O62  1  0.83090022  0.94765358  0.95364696  1
  O  O63  1  0.75596283  0.23961343  0.32541759  1
  O  O64  1  0.83441492  0.59348010  0.75482285  1
  O  O65  1  0.82962124  0.94028259  0.66351262  1
  O  O66  1  0.73700104  0.21889716  0.05570302  1
  O  O67  1  0.83090022  0.55234642  0.45364696  1
  O  O68  1  0.83441492  0.90651990  0.25482285  1
  O  O69  1  0.82962124  0.55971741  0.16351262  1
  O  O70  1  0.99909384  0.80997885  0.86198188  1
  O  O71  1  0.99127181  0.72685229  0.64552564  1
  O  O72  1  0.99909384  0.69002115  0.36198188  1
  O  O73  1  0.99127181  0.77314771  0.14552564  1
