# generated using pymatgen
data_P5WO15
_symmetry_space_group_name_H-M   'P 1'
_cell_length_a   15.01899551
_cell_length_b   14.04825933
_cell_length_c   9.20846758
_cell_angle_alpha   90.16563469
_cell_angle_beta   97.40382873
_cell_angle_gamma   159.20180434
_symmetry_Int_Tables_number   1
_chemical_formula_structural   P5WO15
_chemical_formula_sum   'P10 W2 O30'
_cell_volume   640.77411754
_cell_formula_units_Z   2
loop_
 _symmetry_equiv_pos_site_id
 _symmetry_equiv_pos_as_xyz
  1  'x, y, z'
loop_
 _atom_site_type_symbol
 _atom_site_label
 _atom_site_symmetry_multiplicity
 _atom_site_fract_x
 _atom_site_fract_y
 _atom_site_fract_z
 _atom_site_occupancy
  P  P0  1  0.48797300  0.74034907  0.03136481  1
  P  P1  1  0.52680390  0.44206842  0.16686604  1
  P  P2  1  0.52027040  0.10319794  0.16763229  1
  P  P3  1  0.50925602  0.86687968  0.52273064  1
  P  P4  1  0.49016996  0.34719066  0.47455058  1
  P  P5  1  0.50902666  0.65307454  0.52477658  1
  P  P6  1  0.48991980  0.13353733  0.47655588  1
  P  P7  1  0.47889603  0.89710541  0.83166365  1
  P  P8  1  0.47253233  0.55847558  0.83250509  1
  P  P9  1  0.51117665  0.25997585  0.96797693  1
  W  W10  1  0.99974661  0.00019530  0.49983760  1
  W  W11  1  0.99966322  0.50036969  0.49973696  1
  O  O12  1  0.77774488  0.02809107  0.05936422  1
  O  O13  1  0.66497680  0.50144085  0.10567517  1
  O  O14  1  0.78145319  0.31170708  0.28955930  1
  O  O15  1  0.78652302  0.75477624  0.28978240  1
  O  O16  1  0.65745472  0.31792853  0.10431214  1
  O  O17  1  0.75555249  0.13959960  0.48551151  1
  O  O18  1  0.75564574  0.87237023  0.48827722  1
  O  O19  1  0.73880253  0.65627001  0.56066359  1
  O  O20  1  0.73854958  0.32159530  0.56215930  1
  O  O21  1  0.42381860  0.28069040  0.29541701  1
  O  O22  1  0.35050534  0.60395958  0.14325853  1
  O  O23  1  0.31007619  0.28781877  0.07281535  1
  O  O24  1  0.30183542  0.82260807  0.07406965  1
  O  O25  1  0.42153170  0.06385707  0.29713235  1
  O  O26  1  0.56506989  0.31555022  0.52956900  1
  O  O27  1  0.43432264  0.68499472  0.46981649  1
  O  O28  1  0.57752361  0.93636054  0.70216583  1
  O  O29  1  0.69723341  0.17763083  0.92525980  1
  O  O30  1  0.68913334  0.71254962  0.92656551  1
  O  O31  1  0.64866176  0.39637152  0.85611217  1
  O  O32  1  0.57526249  0.71955904  0.70389526  1
  O  O33  1  0.26067389  0.67890462  0.43733124  1
  O  O34  1  0.26046908  0.34401446  0.43889312  1
  O  O35  1  0.24359083  0.12776394  0.51123085  1
  O  O36  1  0.24360263  0.86096317  0.51392806  1
  O  O37  1  0.34168767  0.68239594  0.89501518  1
  O  O38  1  0.21288094  0.24567041  0.70977047  1
  O  O39  1  0.21783619  0.68884771  0.70985191  1
  O  O40  1  0.33420679  0.49890382  0.89369057  1
  O  O41  1  0.22140805  0.97222319  0.93997877  1
