# generated using pymatgen
data_LiCu3P3O11
_symmetry_space_group_name_H-M   'P 1'
_cell_length_a   8.48516939
_cell_length_b   9.09082015
_cell_length_c   10.80852207
_cell_angle_alpha   90.00000000
_cell_angle_beta   95.78295262
_cell_angle_gamma   90.00000000
_symmetry_Int_Tables_number   1
_chemical_formula_structural   LiCu3P3O11
_chemical_formula_sum   'Li4 Cu12 P12 O44'
_cell_volume   829.49545708
_cell_formula_units_Z   4
loop_
 _symmetry_equiv_pos_site_id
 _symmetry_equiv_pos_as_xyz
  1  'x, y, z'
loop_
 _atom_site_type_symbol
 _atom_site_label
 _atom_site_symmetry_multiplicity
 _atom_site_fract_x
 _atom_site_fract_y
 _atom_site_fract_z
 _atom_site_occupancy
  Li  Li0  1  0.06324091  0.23642860  0.47894544  1
  Li  Li1  1  0.06324091  0.26357140  0.97894544  1
  Li  Li2  1  0.93675909  0.73642860  0.02105456  1
  Li  Li3  1  0.93675909  0.76357140  0.52105456  1
  Cu  Cu4  1  0.03754148  0.66070555  0.75582738  1
  Cu  Cu5  1  0.03754148  0.83929445  0.25582738  1
  Cu  Cu6  1  0.45139878  0.63386641  0.92876373  1
  Cu  Cu7  1  0.43611932  0.61887564  0.64721243  1
  Cu  Cu8  1  0.45139878  0.86613359  0.42876373  1
  Cu  Cu9  1  0.56388068  0.11887564  0.85278757  1
  Cu  Cu10  1  0.43611932  0.88112436  0.14721243  1
  Cu  Cu11  1  0.54860122  0.13386641  0.57123627  1
  Cu  Cu12  1  0.56388068  0.38112436  0.35278757  1
  Cu  Cu13  1  0.54860122  0.36613359  0.07123627  1
  Cu  Cu14  1  0.96245852  0.16070555  0.74417262  1
  Cu  Cu15  1  0.96245852  0.33929445  0.24417262  1
  P  P16  1  0.19977103  0.93339824  0.89436024  1
  P  P17  1  0.20122654  0.94677412  0.63304499  1
  P  P18  1  0.19977103  0.56660176  0.39436024  1
  P  P19  1  0.34956294  0.33030772  0.80211681  1
  P  P20  1  0.20122654  0.55322588  0.13304499  1
  P  P21  1  0.34956294  0.16969228  0.30211681  1
  P  P22  1  0.65043706  0.83030772  0.69788319  1
  P  P23  1  0.79877346  0.44677412  0.86695501  1
  P  P24  1  0.65043706  0.66969228  0.19788319  1
  P  P25  1  0.80022897  0.43339824  0.60563976  1
  P  P26  1  0.79877346  0.05322588  0.36695501  1
  P  P27  1  0.80022897  0.06660176  0.10563976  1
  O  O28  1  0.05222551  0.03197518  0.88333969  1
  O  O29  1  0.07390288  0.06727888  0.61222076  1
  O  O30  1  0.05222551  0.46802482  0.38333969  1
  O  O31  1  0.17579118  0.29891860  0.79760750  1
  O  O32  1  0.16481526  0.76715823  0.88716839  1
  O  O33  1  0.07390288  0.43272112  0.11222076  1
  O  O34  1  0.17579118  0.20108140  0.29760750  1
  O  O35  1  0.13749900  0.78864831  0.63066836  1
  O  O36  1  0.16481526  0.73284177  0.38716839  1
  O  O37  1  0.37425052  0.50042488  0.78748904  1
  O  O38  1  0.29173042  0.97003862  0.77147485  1
  O  O39  1  0.13749900  0.71135169  0.13066836  1
  O  O40  1  0.31904167  0.52800196  0.50448130  1
  O  O41  1  0.43540055  0.26671464  0.93107044  1
  O  O42  1  0.32647511  0.97358702  0.54295810  1
  O  O43  1  0.37425052  -0.00042488  0.28748904  1
  O  O44  1  0.29173042  0.52996138  0.27147485  1
  O  O45  1  0.44960536  0.24356856  0.71170948  1
  O  O46  1  0.31904167  0.97199804  0.00448130  1
  O  O47  1  0.43540055  0.23328536  0.43107044  1
  O  O48  1  0.32647511  0.52641298  0.04295810  1
  O  O49  1  0.44960536  0.25643144  0.21170948  1
  O  O50  1  0.55039464  0.74356856  0.78829052  1
  O  O51  1  0.67352489  0.47358702  0.95704190  1
  O  O52  1  0.56459945  0.76671464  0.56892956  1
  O  O53  1  0.68095833  0.02800196  0.99551870  1
  O  O54  1  0.55039464  0.75643144  0.28829052  1
  O  O55  1  0.70826958  0.47003862  0.72852515  1
  O  O56  1  0.62574948  0.00042488  0.71251096  1
  O  O57  1  0.67352489  0.02641298  0.45704190  1
  O  O58  1  0.56459945  0.73328536  0.06892956  1
  O  O59  1  0.68095833  0.47199804  0.49551870  1
  O  O60  1  0.86250100  0.28864831  0.86933164  1
  O  O61  1  0.70826958  0.02996138  0.22852515  1
  O  O62  1  0.62574948  0.49957512  0.21251096  1
  O  O63  1  0.83518474  0.26715823  0.61283161  1
  O  O64  1  0.86250100  0.21135169  0.36933164  1
  O  O65  1  0.82420882  0.79891860  0.70239250  1
  O  O66  1  0.92609712  0.56727888  0.88777924  1
  O  O67  1  0.83518474  0.23284177  0.11283161  1
  O  O68  1  0.82420882  0.70108140  0.20239250  1
  O  O69  1  0.94777449  0.53197518  0.61666031  1
  O  O70  1  0.92609712  0.93272112  0.38777924  1
  O  O71  1  0.94777449  0.96802482  0.11666031  1
