# generated using pymatgen
data_Zr3SO9
_symmetry_space_group_name_H-M   'P 1'
_cell_length_a   6.43948967
_cell_length_b   6.43948966
_cell_length_c   9.91205310
_cell_angle_alpha   90.00000000
_cell_angle_beta   90.00000000
_cell_angle_gamma   120.00000001
_symmetry_Int_Tables_number   1
_chemical_formula_structural   Zr3SO9
_chemical_formula_sum   'Zr6 S2 O18'
_cell_volume   355.95668440
_cell_formula_units_Z   2
loop_
 _symmetry_equiv_pos_site_id
 _symmetry_equiv_pos_as_xyz
  1  'x, y, z'
loop_
 _atom_site_type_symbol
 _atom_site_label
 _atom_site_symmetry_multiplicity
 _atom_site_fract_x
 _atom_site_fract_y
 _atom_site_fract_z
 _atom_site_occupancy
  O  O0  1  0.11271142  0.43984438  0.12548188  1
  O  O1  1  0.32713296  0.88728858  0.12548188  1
  O  O2  1  0.56015562  0.67286704  0.12548188  1
  O  O3  1  0.88728858  0.56015562  0.87451812  1
  O  O4  1  0.67286704  0.11271142  0.87451812  1
  O  O5  1  0.43984438  0.32713296  0.87451812  1
  O  O6  1  0.33223156  0.33382350  0.43057723  1
  O  O7  1  0.00159194  0.66776844  0.43057723  1
  O  O8  1  0.00000000  0.00000000  0.71156731  1
  O  O9  1  0.00000000  0.00000000  0.28843269  1
  O  O10  1  0.66666667  0.33333333  0.68529855  1
  O  O11  1  0.33333333  0.66666667  0.31470145  1
  O  O12  1  0.33333333  0.66666667  0.71277849  1
  O  O13  1  0.66666667  0.33333333  0.28722151  1
  O  O14  1  0.33382350  0.00159194  0.56942277  1
  O  O15  1  0.99840806  0.33223156  0.56942277  1
  O  O16  1  0.66776844  0.66617650  0.56942277  1
  O  O17  1  0.66617650  0.99840806  0.43057723  1
  S  S18  1  0.33333333  0.66666667  0.15769598  1
  S  S19  1  0.66666667  0.33333333  0.84230402  1
  Zr  Zr20  1  0.69947196  0.66656786  0.35514532  1
  Zr  Zr21  1  0.96709591  0.30052804  0.35514532  1
  Zr  Zr22  1  0.33343214  0.03290409  0.35514532  1
  Zr  Zr23  1  0.30052804  0.33343214  0.64485468  1
  Zr  Zr24  1  0.03290409  0.69947196  0.64485468  1
  Zr  Zr25  1  0.66656786  0.96709591  0.64485468  1
