# generated using pymatgen
data_NaTi8O16
_symmetry_space_group_name_H-M   'P 1'
_cell_length_a   6.03871693
_cell_length_b   9.97604916
_cell_length_c   6.04873993
_cell_angle_alpha   80.51772961
_cell_angle_beta   59.28972857
_cell_angle_gamma   97.55136139
_symmetry_Int_Tables_number   1
_chemical_formula_structural   NaTi8O16
_chemical_formula_sum   'Na1 Ti8 O16'
_cell_volume   298.86003290
_cell_formula_units_Z   1
loop_
 _symmetry_equiv_pos_site_id
 _symmetry_equiv_pos_as_xyz
  1  'x, y, z'
loop_
 _atom_site_type_symbol
 _atom_site_label
 _atom_site_symmetry_multiplicity
 _atom_site_fract_x
 _atom_site_fract_y
 _atom_site_fract_z
 _atom_site_occupancy
  Na  Na0  1  0.37567260  0.45938317  0.67122163  1
  Ti  Ti1  1  0.81620426  0.35222250  0.72110941  1
  Ti  Ti2  1  0.69643157  0.64575265  0.79483977  1
  Ti  Ti3  1  0.20406315  0.12590740  0.83426692  1
  Ti  Ti4  1  0.71774906  0.14115577  0.33072511  1
  Ti  Ti5  1  0.28461872  0.85775248  0.67197988  1
  Ti  Ti6  1  0.77322182  0.85542668  0.18504011  1
  Ti  Ti7  1  0.32285199  0.35111720  0.21486082  1
  Ti  Ti8  1  0.16769763  0.63897346  0.27371612  1
  O  O9  1  0.91181264  0.23079701  0.92340221  1
  O  O10  1  0.69934985  0.46159336  0.98565457  1
  O  O11  1  0.42482383  0.27130931  0.90094905  1
  O  O12  1  0.92420776  0.26673607  0.40337387  1
  O  O13  1  0.79853274  0.53914394  0.51602365  1
  O  O14  1  0.48630760  0.03345738  0.69987890  1
  O  O15  1  0.98354906  0.03277291  0.20344476  1
  O  O16  1  0.59440824  0.76809233  0.57499767  1
  O  O17  1  0.40703847  0.23074164  0.42774102  1
  O  O18  1  0.01327571  0.96316002  0.80028301  1
  O  O19  1  0.51289462  0.96287625  0.30199189  1
  O  O20  1  0.18536973  0.45975189  0.47368771  1
  O  O21  1  0.57238805  0.72673622  0.10129903  1
  O  O22  1  0.07797730  0.72627494  0.59469552  1
  O  O23  1  0.30674877  0.53943115  0.00903762  1
  O  O24  1  0.09329685  0.77054930  0.07111076  1
