# generated using pymatgen
data_Li3Fe8(BO3)8
_symmetry_space_group_name_H-M   'P 1'
_cell_length_a   5.26025022
_cell_length_b   9.11364699
_cell_length_c   11.39254765
_cell_angle_alpha   66.45746449
_cell_angle_beta   77.04241237
_cell_angle_gamma   89.25429412
_symmetry_Int_Tables_number   1
_chemical_formula_structural   Li3Fe8(BO3)8
_chemical_formula_sum   'Li3 Fe8 B8 O24'
_cell_volume   486.15518273
_cell_formula_units_Z   1
loop_
 _symmetry_equiv_pos_site_id
 _symmetry_equiv_pos_as_xyz
  1  'x, y, z'
loop_
 _atom_site_type_symbol
 _atom_site_label
 _atom_site_symmetry_multiplicity
 _atom_site_fract_x
 _atom_site_fract_y
 _atom_site_fract_z
 _atom_site_occupancy
  Li  Li0  1  0.97274592  0.96681919  0.40897742  1
  Li  Li1  1  0.50406468  0.49092663  0.66572274  1
  Li  Li2  1  0.74097123  0.75339909  0.15411212  1
  Fe  Fe3  1  0.99254749  0.64503315  0.37520209  1
  Fe  Fe4  1  0.72948347  0.06014472  0.88301388  1
  Fe  Fe5  1  0.51741527  0.84926886  0.63376592  1
  Fe  Fe6  1  0.75402967  0.43097483  0.12644110  1
  Fe  Fe7  1  0.22892810  0.56355170  0.88631881  1
  Fe  Fe8  1  0.48226081  0.15685965  0.37243193  1
  Fe  Fe9  1  0.02345677  0.34018366  0.62793268  1
  Fe  Fe10  1  0.25612997  0.95040802  0.12258193  1
  B  B11  1  0.97158466  0.30569993  0.38034889  1
  B  B12  1  0.74404434  0.39842345  0.87030347  1
  B  B13  1  0.52778023  0.19121702  0.62361910  1
  B  B14  1  0.75751013  0.09962648  0.13542479  1
  B  B15  1  0.48610283  0.82004251  0.37642722  1
  B  B16  1  0.22861457  0.89394598  0.87912236  1
  B  B17  1  0.02369356  0.68129482  0.62331914  1
  B  B18  1  0.26963220  0.60844237  0.12801329  1
  O  O19  1  0.96742880  0.90651417  0.88645226  1
  O  O20  1  0.87459964  0.28499417  0.82870240  1
  O  O21  1  0.87183968  0.47748203  0.92322837  1
  O  O22  1  0.89490280  0.81324730  0.60746883  1
  O  O23  1  0.92621685  0.56429361  0.58327440  1
  O  O24  1  0.75517803  0.16810527  0.67276936  1
  O  O25  1  0.74627536  0.32774484  0.33505594  1
  O  O26  1  0.49826505  0.43181018  0.85190827  1
  O  O27  1  0.35693110  0.78395756  0.83598819  1
  O  O28  1  0.56996690  0.93179714  0.41682267  1
  O  O29  1  0.65033053  0.70910532  0.35685933  1
  O  O30  1  0.36706925  0.98802394  0.91824766  1
  O  O31  1  0.65602344  0.00148640  0.08254804  1
  O  O32  1  0.38301037  0.31733145  0.62911924  1
  O  O33  1  0.45707707  0.09105728  0.57159291  1
  O  O34  1  0.58844228  0.19684264  0.17955423  1
  O  O35  1  0.52450870  0.60488316  0.13163164  1
  O  O36  1  0.24927407  0.64945795  0.67045917  1
  O  O37  1  0.23476277  0.82350118  0.35330355  1
  O  O38  1  0.04655609  0.41581422  0.42824789  1
  O  O39  1  0.11690777  0.18044528  0.38337685  1
  O  O40  1  0.14978309  0.52220853  0.07603530  1
  O  O41  1  0.10748871  0.70620958  0.18001438  1
  O  O42  1  0.00660577  0.09661272  0.14566125  1
