# generated using pymatgen
data_Li2CrP3O10
_symmetry_space_group_name_H-M   'P 1'
_cell_length_a   7.98241994
_cell_length_b   7.98241994
_cell_length_c   9.57119111
_cell_angle_alpha   57.59559698
_cell_angle_beta   122.40440302
_cell_angle_gamma   126.43751637
_symmetry_Int_Tables_number   1
_chemical_formula_structural   Li2CrP3O10
_chemical_formula_sum   'Li4 Cr2 P6 O20'
_cell_volume   392.40910256
_cell_formula_units_Z   2
loop_
 _symmetry_equiv_pos_site_id
 _symmetry_equiv_pos_as_xyz
  1  'x, y, z'
loop_
 _atom_site_type_symbol
 _atom_site_label
 _atom_site_symmetry_multiplicity
 _atom_site_fract_x
 _atom_site_fract_y
 _atom_site_fract_z
 _atom_site_occupancy
  Li  Li0  1  0.28345452  0.74237368  0.95908102  1
  Li  Li1  1  0.25762632  0.71654548  0.45908102  1
  Li  Li2  1  0.74237368  0.28345452  0.54091898  1
  Li  Li3  1  0.71654548  0.25762632  0.04091898  1
  Cr  Cr4  1  0.66370269  0.66370269  0.75000000  1
  Cr  Cr5  1  0.33629731  0.33629731  0.25000000  1
  P  P6  1  0.19718264  0.43323976  0.81637028  1
  P  P7  1  0.56676024  0.80281736  0.31637028  1
  P  P8  1  0.04276452  0.04276452  0.75000000  1
  P  P9  1  0.95723548  0.95723548  0.25000000  1
  P  P10  1  0.43323976  0.19718264  0.68362972  1
  P  P11  1  0.80281736  0.56676024  0.18362972  1
  O  O12  1  0.02126384  0.80761498  0.84353857  1
  O  O13  1  0.19238502  0.97873616  0.34353857  1
  O  O14  1  0.44291968  0.98235978  0.80436626  1
  O  O15  1  0.28385954  0.46621198  0.99003444  1
  O  O16  1  0.36730367  0.59477765  0.71664618  1
  O  O17  1  0.01764022  0.55708032  0.30436626  1
  O  O18  1  0.17470285  0.18255435  0.87778017  1
  O  O19  1  0.53378802  0.71614046  0.49003444  1
  O  O20  1  0.40522235  0.63269633  0.21664618  1
  O  O21  1  0.18255435  0.17470285  0.62221983  1
  O  O22  1  0.81744565  0.82529715  0.37778017  1
  O  O23  1  0.59477765  0.36730367  0.78335382  1
  O  O24  1  0.46621198  0.28385954  0.50996556  1
  O  O25  1  0.82529715  0.81744565  0.12221983  1
  O  O26  1  0.98235978  0.44291968  0.69563374  1
  O  O27  1  0.63269633  0.40522235  0.28335382  1
  O  O28  1  0.71614046  0.53378802  0.00996556  1
  O  O29  1  0.55708032  0.01764022  0.19563374  1
  O  O30  1  0.80761498  0.02126384  0.65646143  1
  O  O31  1  0.97873616  0.19238502  0.15646143  1
