# generated using pymatgen
data_B2AsCl2
_symmetry_space_group_name_H-M   'P 1'
_cell_length_a   7.39730469
_cell_length_b   7.66471405
_cell_length_c   11.45798133
_cell_angle_alpha   99.41099514
_cell_angle_beta   100.30175316
_cell_angle_gamma   117.12145869
_symmetry_Int_Tables_number   1
_chemical_formula_structural   B2AsCl2
_chemical_formula_sum   'B8 As4 Cl8'
_cell_volume   546.16568322
_cell_formula_units_Z   4
loop_
 _symmetry_equiv_pos_site_id
 _symmetry_equiv_pos_as_xyz
  1  'x, y, z'
loop_
 _atom_site_type_symbol
 _atom_site_label
 _atom_site_symmetry_multiplicity
 _atom_site_fract_x
 _atom_site_fract_y
 _atom_site_fract_z
 _atom_site_occupancy
  B  B0  1  0.15699772  0.77559591  0.70951422  1
  B  B1  1  0.84300228  0.22440409  0.29048578  1
  B  B2  1  0.10567046  0.73176118  0.84877269  1
  B  B3  1  0.89432954  0.26823882  0.15122731  1
  B  B4  1  0.90197469  0.72966819  0.64084498  1
  B  B5  1  0.09802531  0.27033181  0.35915502  1
  B  B6  1  0.05995296  0.90692629  0.78568322  1
  B  B7  1  0.94004704  0.09307371  0.21431678  1
  Cl  Cl8  1  0.74221475  0.25274482  1.00972623  1
  Cl  Cl9  1  0.25778525  0.74725518  -0.00972623  1
  Cl  Cl10  1  0.61302908  0.14365317  0.34004975  1
  Cl  Cl11  1  0.38697092  0.85634683  0.65995025  1
  Cl  Cl12  1  0.77855626  0.74179014  0.49893054  1
  Cl  Cl13  1  0.22144374  0.25820986  0.50106946  1
  Cl  Cl14  1  0.15642238  0.17008055  0.84372743  1
  Cl  Cl15  1  0.84357762  0.82991945  0.15627257  1
  As  As16  1  0.77560227  0.66116644  0.79577595  1
  As  As17  1  0.22439773  0.33883356  0.20422405  1
  As  As18  1  0.91690372  0.46960575  0.68585258  1
  As  As19  1  0.08309628  0.53039425  0.31414742  1
