# generated using pymatgen
data_LiFeP2HO8
_symmetry_space_group_name_H-M   'P 1'
_cell_length_a   4.94773816
_cell_length_b   8.06809496
_cell_length_c   7.54395570
_cell_angle_alpha   90.00000000
_cell_angle_beta   104.69514572
_cell_angle_gamma   90.00000000
_symmetry_Int_Tables_number   1
_chemical_formula_structural   LiFeP2HO8
_chemical_formula_sum   'Li2 Fe2 P4 H2 O16'
_cell_volume   291.29511347
_cell_formula_units_Z   2
loop_
 _symmetry_equiv_pos_site_id
 _symmetry_equiv_pos_as_xyz
  1  'x, y, z'
loop_
 _atom_site_type_symbol
 _atom_site_label
 _atom_site_symmetry_multiplicity
 _atom_site_fract_x
 _atom_site_fract_y
 _atom_site_fract_z
 _atom_site_occupancy
  Li  Li0  1  0.09962844  0.37022707  0.65205605  1
  Li  Li1  1  0.40037156  0.87022707  0.84794395  1
  Fe  Fe2  1  0.50284521  0.49611866  0.00542312  1
  Fe  Fe3  1  0.99715479  0.99611866  0.49457688  1
  P  P4  1  0.12998095  0.34778525  0.26206445  1
  P  P5  1  0.37001905  0.84778525  0.23793555  1
  P  P6  1  0.62707926  0.15557497  0.75769167  1
  P  P7  1  0.87292074  0.65557497  0.74230833  1
  H  H8  1  0.54861129  0.51832781  0.51930551  1
  H  H9  1  0.95138871  0.01832781  0.98069449  1
  O  O10  1  0.12178131  0.54774969  0.84322215  1
  O  O11  1  0.04001388  0.17610015  0.31627580  1
  O  O12  1  0.16017189  0.83015522  0.35669475  1
  O  O13  1  0.25580960  0.43770214  0.44567505  1
  O  O14  1  0.37821869  0.04774969  0.65677785  1
  O  O15  1  0.52069403  0.32400096  0.80897914  1
  O  O16  1  0.24419040  0.93770214  0.05432495  1
  O  O17  1  0.33982811  0.33015522  0.14330525  1
  O  O18  1  0.65192588  0.67589222  0.85211187  1
  O  O19  1  0.74799800  0.05493733  0.94043182  1
  O  O20  1  0.45998612  0.67610015  0.18372420  1
  O  O21  1  0.62156604  0.95068352  0.34207747  1
  O  O22  1  0.75200200  0.55493733  0.55956818  1
  O  O23  1  0.84807412  0.17589222  0.64788813  1
  O  O24  1  0.97930597  0.82400096  0.69102086  1
  O  O25  1  0.87843396  0.45068352  0.15792253  1
