# generated using pymatgen
data_Li4Cu3Sb(PO4)4
_symmetry_space_group_name_H-M   'P 1'
_cell_length_a   4.78880722
_cell_length_b   10.26536231
_cell_length_c   6.32651806
_cell_angle_alpha   90.00000000
_cell_angle_beta   90.00000000
_cell_angle_gamma   88.25372639
_symmetry_Int_Tables_number   1
_chemical_formula_structural   Li4Cu3Sb(PO4)4
_chemical_formula_sum   'Li4 Cu3 Sb1 P4 O16'
_cell_volume   310.85985782
_cell_formula_units_Z   1
loop_
 _symmetry_equiv_pos_site_id
 _symmetry_equiv_pos_as_xyz
  1  'x, y, z'
loop_
 _atom_site_type_symbol
 _atom_site_label
 _atom_site_symmetry_multiplicity
 _atom_site_fract_x
 _atom_site_fract_y
 _atom_site_fract_z
 _atom_site_occupancy
  Li  Li0  1  0.99688883  0.98153510  0.99348051  1
  Li  Li1  1  0.99688883  0.98153510  0.50651949  1
  Li  Li2  1  0.50267988  0.51621453  0.50561517  1
  Li  Li3  1  0.50267988  0.51621453  0.99438483  1
  Cu  Cu4  1  0.04771751  0.71781927  0.75000000  1
  Cu  Cu5  1  0.45031186  0.21228092  0.75000000  1
  Cu  Cu6  1  0.55985274  0.78552092  0.25000000  1
  Sb  Sb7  1  0.97366397  0.28516417  0.25000000  1
  P  P8  1  0.09203429  0.60462210  0.25000000  1
  P  P9  1  0.41798115  0.07928932  0.25000000  1
  P  P10  1  0.57630272  0.90211933  0.75000000  1
  P  P11  1  0.91171688  0.41592146  0.75000000  1
  O  O12  1  0.22268170  0.45795327  0.25000000  1
  O  O13  1  0.21898650  0.66647855  0.05018980  1
  O  O14  1  0.21898650  0.66647855  0.44981020  1
  O  O15  1  0.23248854  0.39717544  0.75000000  1
  O  O16  1  0.25301209  0.89846238  0.75000000  1
  O  O17  1  0.28639188  0.15828834  0.05618091  1
  O  O18  1  0.28639188  0.15828834  0.44381909  1
  O  O19  1  0.29272414  0.94288158  0.25000000  1
  O  O20  1  0.68549830  0.04554911  0.75000000  1
  O  O21  1  0.71079491  0.83484241  0.55141382  1
  O  O22  1  0.71079491  0.83484241  0.94858618  1
  O  O23  1  0.73749915  0.07546425  0.25000000  1
  O  O24  1  0.76927251  0.60331645  0.25000000  1
  O  O25  1  0.77095691  0.35101052  0.55432723  1
  O  O26  1  0.77095691  0.35101052  0.94567277  1
  O  O27  1  0.80384162  0.55972410  0.75000000  1
