# generated using pymatgen
data_LiV2(PO4)3
_symmetry_space_group_name_H-M   'P 1'
_cell_length_a   6.02113058
_cell_length_b   9.60232728
_cell_length_c   8.05362619
_cell_angle_alpha   74.62007178
_cell_angle_beta   90.00000000
_cell_angle_gamma   71.72823199
_symmetry_Int_Tables_number   1
_chemical_formula_structural   LiV2(PO4)3
_chemical_formula_sum   'Li2 V4 P6 O24'
_cell_volume   424.56186761
_cell_formula_units_Z   2
loop_
 _symmetry_equiv_pos_site_id
 _symmetry_equiv_pos_as_xyz
  1  'x, y, z'
loop_
 _atom_site_type_symbol
 _atom_site_label
 _atom_site_symmetry_multiplicity
 _atom_site_fract_x
 _atom_site_fract_y
 _atom_site_fract_z
 _atom_site_occupancy
  Li  Li0  1  0.58924818  1.00000000  0.75000000  1
  Li  Li1  1  0.41075182  0.00000000  0.25000000  1
  V  V2  1  0.96939845  0.73088127  0.59240070  1
  V  V3  1  0.29972028  0.73088127  0.09240070  1
  V  V4  1  0.70027972  0.26911873  0.90759930  1
  V  V5  1  0.03060155  0.26911873  0.40759930  1
  P  P6  1  0.50387304  0.64244835  0.73123331  1
  P  P7  1  0.85367861  0.64244835  0.23123331  1
  P  P8  1  0.14632139  0.35755165  0.76876669  1
  P  P9  1  0.49612696  0.35755165  0.26876669  1
  P  P10  1  0.06192530  1.00000000  0.75000000  1
  P  P11  1  0.93807470  0.00000000  0.25000000  1
  O  O12  1  0.25168061  0.93305735  0.90497622  1
  O  O13  1  0.81526205  0.93305735  0.40497622  1
  O  O14  1  0.95725077  0.87543562  0.72869422  1
  O  O15  1  0.16731262  0.87543562  0.22869422  1
  O  O16  1  0.66505944  0.74283654  0.68668300  1
  O  O17  1  0.29776594  0.71917837  0.58804943  1
  O  O18  1  0.41609491  0.64995229  0.91355822  1
  O  O19  1  0.59210402  0.74283654  0.18668300  1
  O  O20  1  0.98305569  0.71917837  0.08804943  1
  O  O21  1  0.09883883  0.52531617  0.75754433  1
  O  O22  1  0.93395279  0.64995229  0.41355822  1
  O  O23  1  0.37584500  0.52531617  0.25754433  1
  O  O24  1  0.62415500  0.47468383  0.74245567  1
  O  O25  1  0.06604721  0.35004771  0.58644178  1
  O  O26  1  0.90116117  0.47468383  0.24245567  1
  O  O27  1  0.01694431  0.28082163  0.91195057  1
  O  O28  1  0.40789598  0.25716346  0.81331700  1
  O  O29  1  0.58390509  0.35004771  0.08644178  1
  O  O30  1  0.70223406  0.28082163  0.41195057  1
  O  O31  1  0.33494056  0.25716346  0.31331700  1
  O  O32  1  0.83268738  0.12456438  0.77130578  1
  O  O33  1  0.04274923  0.12456438  0.27130578  1
  O  O34  1  0.18473795  0.06694265  0.59502378  1
  O  O35  1  0.74831939  0.06694265  0.09502378  1
