# generated using pymatgen
data_LiCoPO4
_symmetry_space_group_name_H-M   'P 1'
_cell_length_a   9.25552926
_cell_length_b   5.47568330
_cell_length_c   6.26061071
_cell_angle_alpha   102.61752082
_cell_angle_beta   104.18945892
_cell_angle_gamma   82.81804957
_symmetry_Int_Tables_number   1
_chemical_formula_structural   LiCoPO4
_chemical_formula_sum   'Li4 Co4 P4 O16'
_cell_volume   299.32291899
_cell_formula_units_Z   4
loop_
 _symmetry_equiv_pos_site_id
 _symmetry_equiv_pos_as_xyz
  1  'x, y, z'
loop_
 _atom_site_type_symbol
 _atom_site_label
 _atom_site_symmetry_multiplicity
 _atom_site_fract_x
 _atom_site_fract_y
 _atom_site_fract_z
 _atom_site_occupancy
  Li  Li0  1  0.23951852  0.67783133  0.99670027  1
  Li  Li1  1  0.42169289  0.19510427  0.15253222  1
  Li  Li2  1  0.57830711  0.80489573  0.84746778  1
  Li  Li3  1  0.76048148  0.32216867  0.00329973  1
  Co  Co4  1  0.08772994  0.28261594  0.33795349  1
  Co  Co5  1  0.28366682  0.84641908  0.54180063  1
  Co  Co6  1  0.71633318  0.15358092  0.45819937  1
  Co  Co7  1  0.91227006  0.71738406  0.66204651  1
  P  P8  1  0.04765839  0.19134531  0.80249860  1
  P  P9  1  0.42338992  0.31686657  0.67752167  1
  P  P10  1  0.57661008  0.68313343  0.32247833  1
  P  P11  1  0.95234161  0.80865469  0.19750140  1
  O  O12  1  0.06670507  0.38487347  0.66415945  1
  O  O13  1  0.11191545  0.92038243  0.71236022  1
  O  O14  1  0.12157775  0.83946262  0.22570257  1
  O  O15  1  0.12998922  0.28856069  0.04478710  1
  O  O16  1  0.40560577  0.12282562  0.81807128  1
  O  O17  1  0.36961255  0.59167902  0.77236753  1
  O  O18  1  0.32633464  0.22219568  0.43648390  1
  O  O19  1  0.40976508  0.68013201  0.32073470  1
  O  O20  1  0.59023492  0.31986799  0.67926530  1
  O  O21  1  0.67366536  0.77780432  0.56351610  1
  O  O22  1  0.63038745  0.40832098  0.22763247  1
  O  O23  1  0.59439423  0.87717438  0.18192872  1
  O  O24  1  0.87001078  0.71143931  0.95521290  1
  O  O25  1  0.87842225  0.16053738  0.77429743  1
  O  O26  1  0.88808455  0.07961757  0.28763978  1
  O  O27  1  0.93329493  0.61512653  0.33584055  1
