# generated using pymatgen
data_LiNi4(PO4)3
_symmetry_space_group_name_H-M   'P 1'
_cell_length_a   6.24392016
_cell_length_b   14.17130351
_cell_length_c   9.77029790
_cell_angle_alpha   90.00000000
_cell_angle_beta   90.00000000
_cell_angle_gamma   90.00000000
_symmetry_Int_Tables_number   1
_chemical_formula_structural   LiNi4(PO4)3
_chemical_formula_sum   'Li4 Ni16 P12 O48'
_cell_volume   864.51980416
_cell_formula_units_Z   4
loop_
 _symmetry_equiv_pos_site_id
 _symmetry_equiv_pos_as_xyz
  1  'x, y, z'
loop_
 _atom_site_type_symbol
 _atom_site_label
 _atom_site_symmetry_multiplicity
 _atom_site_fract_x
 _atom_site_fract_y
 _atom_site_fract_z
 _atom_site_occupancy
  Li  Li0  1  0.05723516  0.25000000  0.74638416  1
  Li  Li1  1  0.44276484  0.75000000  0.24638416  1
  Li  Li2  1  0.55723516  0.25000000  0.75361584  1
  Li  Li3  1  0.94276484  0.75000000  0.25361584  1
  Ni  Ni4  1  0.14707083  0.59629806  0.45784897  1
  Ni  Ni5  1  0.14707083  0.90370194  0.45784897  1
  Ni  Ni6  1  0.13647060  0.61636648  0.85195558  1
  Ni  Ni7  1  0.13647060  0.88363352  0.85195558  1
  Ni  Ni8  1  0.36352940  0.11636648  0.35195558  1
  Ni  Ni9  1  0.36352940  0.38363352  0.35195558  1
  Ni  Ni10  1  0.35292917  0.09629806  0.95784897  1
  Ni  Ni11  1  0.35292917  0.40370194  0.95784897  1
  Ni  Ni12  1  0.64707083  0.59629806  0.04215103  1
  Ni  Ni13  1  0.64707083  0.90370194  0.04215103  1
  Ni  Ni14  1  0.63647060  0.61636648  0.64804442  1
  Ni  Ni15  1  0.63647060  0.88363352  0.64804442  1
  Ni  Ni16  1  0.86352940  0.11636648  0.14804442  1
  Ni  Ni17  1  0.86352940  0.38363352  0.14804442  1
  Ni  Ni18  1  0.85292917  0.40370194  0.54215103  1
  Ni  Ni19  1  0.85292917  0.09629806  0.54215103  1
  P  P20  1  0.99189526  0.25000000  0.40285263  1
  P  P21  1  0.13743881  0.57416643  0.13084195  1
  P  P22  1  0.13743881  0.92583357  0.13084195  1
  P  P23  1  0.36256119  0.07416643  0.63084195  1
  P  P24  1  0.36256119  0.42583357  0.63084195  1
  P  P25  1  0.50810474  0.75000000  0.90285263  1
  P  P26  1  0.49189526  0.25000000  0.09714737  1
  P  P27  1  0.63743881  0.57416643  0.36915805  1
  P  P28  1  0.63743881  0.92583357  0.36915805  1
  P  P29  1  0.86256119  0.42583357  0.86915805  1
  P  P30  1  0.86256119  0.07416643  0.86915805  1
  P  P31  1  0.00810474  0.75000000  0.59714737  1
  O  O32  1  0.03512683  0.11810604  0.96679428  1
  O  O33  1  0.03512683  0.38189396  0.96679428  1
  O  O34  1  0.06107645  0.75000000  0.44343986  1
  O  O35  1  0.10583348  0.65791209  0.65460223  1
  O  O36  1  0.10583348  0.84208791  0.65460223  1
  O  O37  1  0.06018372  0.01388316  0.20635491  1
  O  O38  1  0.06018372  0.48611684  0.20635491  1
  O  O39  1  0.17875196  0.05067560  0.52096507  1
  O  O40  1  0.17875196  0.44932440  0.52096507  1
  O  O41  1  0.21279072  0.64490046  0.23820404  1
  O  O42  1  0.21279072  0.85509954  0.23820404  1
  O  O43  1  0.23701092  0.25000000  0.37958984  1
  O  O44  1  0.26298908  0.75000000  0.87958984  1
  O  O45  1  0.28720928  0.35509954  0.73820404  1
  O  O46  1  0.28720928  0.14490046  0.73820404  1
  O  O47  1  0.32124804  0.55067560  0.02096507  1
  O  O48  1  0.32124804  0.94932440  0.02096507  1
  O  O49  1  0.43981628  0.51388316  0.70635491  1
  O  O50  1  0.43981628  0.98611684  0.70635491  1
  O  O51  1  0.39416652  0.15791209  0.15460223  1
  O  O52  1  0.39416652  0.34208791  0.15460223  1
  O  O53  1  0.43892355  0.25000000  0.94343986  1
  O  O54  1  0.46487317  0.61810604  0.46679428  1
  O  O55  1  0.46487317  0.88189396  0.46679428  1
  O  O56  1  0.53512683  0.11810604  0.53320572  1
  O  O57  1  0.53512683  0.38189396  0.53320572  1
  O  O58  1  0.56107645  0.75000000  0.05656014  1
  O  O59  1  0.60583348  0.65791209  0.84539777  1
  O  O60  1  0.60583348  0.84208791  0.84539777  1
  O  O61  1  0.56018372  0.01388316  0.29364509  1
  O  O62  1  0.56018372  0.48611684  0.29364509  1
  O  O63  1  0.67875196  0.44932440  0.97903493  1
  O  O64  1  0.67875196  0.05067560  0.97903493  1
  O  O65  1  0.71279072  0.64490046  0.26179596  1
  O  O66  1  0.71279072  0.85509954  0.26179596  1
  O  O67  1  0.73701092  0.25000000  0.12041016  1
  O  O68  1  0.76298908  0.75000000  0.62041016  1
  O  O69  1  0.78720928  0.14490046  0.76179596  1
  O  O70  1  0.78720928  0.35509954  0.76179596  1
  O  O71  1  0.82124804  0.55067560  0.47903493  1
  O  O72  1  0.82124804  0.94932440  0.47903493  1
  O  O73  1  0.93981628  0.51388316  0.79364509  1
  O  O74  1  0.93981628  0.98611684  0.79364509  1
  O  O75  1  0.89416652  0.15791209  0.34539777  1
  O  O76  1  0.89416652  0.34208791  0.34539777  1
  O  O77  1  0.93892355  0.25000000  0.55656014  1
  O  O78  1  0.96487317  0.61810604  0.03320572  1
  O  O79  1  0.96487317  0.88189396  0.03320572  1
