# generated using pymatgen
data_LiCoPO4
_symmetry_space_group_name_H-M   'P 1'
_cell_length_a   7.64942958
_cell_length_b   13.90751235
_cell_length_c   5.75710267
_cell_angle_alpha   90.00000000
_cell_angle_beta   90.00000000
_cell_angle_gamma   90.00000000
_symmetry_Int_Tables_number   1
_chemical_formula_structural   LiCoPO4
_chemical_formula_sum   'Li8 Co8 P8 O32'
_cell_volume   612.46669829
_cell_formula_units_Z   8
loop_
 _symmetry_equiv_pos_site_id
 _symmetry_equiv_pos_as_xyz
  1  'x, y, z'
loop_
 _atom_site_type_symbol
 _atom_site_label
 _atom_site_symmetry_multiplicity
 _atom_site_fract_x
 _atom_site_fract_y
 _atom_site_fract_z
 _atom_site_occupancy
  Li  Li0  1  0.19630851  0.22166921  0.15067279  1
  Li  Li1  1  0.19630851  0.27833079  0.65067279  1
  Li  Li2  1  0.30369149  0.72166921  0.15067279  1
  Li  Li3  1  0.30369149  0.77833079  0.65067279  1
  Li  Li4  1  0.69630851  0.22166921  0.34932721  1
  Li  Li5  1  0.69630851  0.27833079  0.84932721  1
  Li  Li6  1  0.80369149  0.72166921  0.34932721  1
  Li  Li7  1  0.80369149  0.77833079  0.84932721  1
  Co  Co8  1  0.18343615  0.53991173  0.40496341  1
  Co  Co9  1  0.18343615  0.96008827  0.90496341  1
  Co  Co10  1  0.31656385  0.03991173  0.40496341  1
  Co  Co11  1  0.31656385  0.46008827  0.90496341  1
  Co  Co12  1  0.68343615  0.53991173  0.09503659  1
  Co  Co13  1  0.68343615  0.96008827  0.59503659  1
  Co  Co14  1  0.81656385  0.03991173  0.09503659  1
  Co  Co15  1  0.81656385  0.46008827  0.59503659  1
  P  P16  1  0.04655588  0.62739772  0.89788676  1
  P  P17  1  0.04655588  0.87260228  0.39788676  1
  P  P18  1  0.45344412  0.12739772  0.89788676  1
  P  P19  1  0.45344412  0.37260228  0.39788676  1
  P  P20  1  0.54655588  0.62739772  0.60211324  1
  P  P21  1  0.54655588  0.87260228  0.10211324  1
  P  P22  1  0.95344412  0.12739772  0.60211324  1
  P  P23  1  0.95344412  0.37260228  0.10211324  1
  O  O24  1  0.97888113  0.06096619  0.81979603  1
  O  O25  1  0.97888113  0.43903381  0.31979603  1
  O  O26  1  0.11342299  0.77296771  0.33624016  1
  O  O27  1  0.11342299  0.72703229  0.83624016  1
  O  O28  1  0.12929584  0.13762801  0.47054489  1
  O  O29  1  0.12929584  0.36237199  0.97054489  1
  O  O30  1  0.18814963  0.57736050  0.05898373  1
  O  O31  1  0.18814963  0.92263950  0.55898373  1
  O  O32  1  0.31185037  0.07736050  0.05898373  1
  O  O33  1  0.31185037  0.42263950  0.55898373  1
  O  O34  1  0.37070416  0.63762801  0.47054489  1
  O  O35  1  0.37070416  0.86237199  0.97054489  1
  O  O36  1  0.38657701  0.22703229  0.83624016  1
  O  O37  1  0.38657701  0.27296771  0.33624016  1
  O  O38  1  0.52111887  0.56096619  0.81979603  1
  O  O39  1  0.52111887  0.93903381  0.31979603  1
  O  O40  1  0.47888113  0.43903381  0.18020397  1
  O  O41  1  0.47888113  0.06096619  0.68020397  1
  O  O42  1  0.61342299  0.72703229  0.66375984  1
  O  O43  1  0.61342299  0.77296771  0.16375984  1
  O  O44  1  0.62929584  0.13762801  0.02945511  1
  O  O45  1  0.62929584  0.36237199  0.52945511  1
  O  O46  1  0.68814963  0.57736050  0.44101627  1
  O  O47  1  0.68814963  0.92263950  0.94101627  1
  O  O48  1  0.81185037  0.07736050  0.44101627  1
  O  O49  1  0.81185037  0.42263950  0.94101627  1
  O  O50  1  0.87070416  0.63762801  0.02945511  1
  O  O51  1  0.87070416  0.86237199  0.52945511  1
  O  O52  1  0.88657701  0.22703229  0.66375984  1
  O  O53  1  0.88657701  0.27296771  0.16375984  1
  O  O54  1  0.02111887  0.56096619  0.68020397  1
  O  O55  1  0.02111887  0.93903381  0.18020397  1
