# generated using pymatgen
data_Li2CoNiO4
_symmetry_space_group_name_H-M   'P 1'
_cell_length_a   5.11354391
_cell_length_b   4.00589701
_cell_length_c   4.00589701
_cell_angle_alpha   89.99998950
_cell_angle_beta   66.94000482
_cell_angle_gamma   66.94000482
_symmetry_Int_Tables_number   1
_chemical_formula_structural   Li2CoNiO4
_chemical_formula_sum   'Li2 Co1 Ni1 O4'
_cell_volume   68.31802477
_cell_formula_units_Z   1
loop_
 _symmetry_equiv_pos_site_id
 _symmetry_equiv_pos_as_xyz
  1  'x, y, z'
loop_
 _atom_site_type_symbol
 _atom_site_label
 _atom_site_symmetry_multiplicity
 _atom_site_fract_x
 _atom_site_fract_y
 _atom_site_fract_z
 _atom_site_occupancy
  Li  Li0  1  0.50000000  0.75000000  0.25000000  1
  Li  Li1  1  0.00000000  0.50000000  0.50000000  1
  Co  Co2  1  0.50000000  0.25000000  0.75000000  1
  Ni  Ni3  1  0.00000000  0.00000000  0.00000000  1
  O  O4  1  0.94914844  0.02542578  0.52542578  1
  O  O5  1  0.47360204  0.76319898  0.76319898  1
  O  O6  1  0.52639796  0.23680102  0.23680102  1
  O  O7  1  0.05085156  0.47457422  0.97457422  1
