# generated using pymatgen
data_LiCoSnO4
_symmetry_space_group_name_H-M   'P 1'
_cell_length_a   6.14553421
_cell_length_b   6.14553451
_cell_length_c   6.14553421
_cell_angle_alpha   89.93692761
_cell_angle_beta   118.58437627
_cell_angle_gamma   58.63777816
_symmetry_Int_Tables_number   1
_chemical_formula_structural   LiCoSnO4
_chemical_formula_sum   'Li2 Co2 Sn2 O8'
_cell_volume   164.06659459
_cell_formula_units_Z   2
loop_
 _symmetry_equiv_pos_site_id
 _symmetry_equiv_pos_as_xyz
  1  'x, y, z'
loop_
 _atom_site_type_symbol
 _atom_site_label
 _atom_site_symmetry_multiplicity
 _atom_site_fract_x
 _atom_site_fract_y
 _atom_site_fract_z
 _atom_site_occupancy
  Li  Li0  1  0.75000000  0.12431606  0.62568394  1
  Li  Li1  1  0.25000000  0.87568394  0.37431606  1
  Co  Co2  1  0.50000000  0.00000000  0.00000000  1
  Co  Co3  1  0.00000000  0.50000000  0.00000000  1
  Sn  Sn4  1  0.50000000  0.50000000  0.00000000  1
  Sn  Sn5  1  0.00000000  0.50000000  0.50000000  1
  O  O6  1  0.53255002  0.74009561  0.79245341  1
  O  O7  1  0.96744998  0.74009561  0.22735437  1
  O  O8  1  0.98162110  0.27856667  0.23981223  1
  O  O9  1  0.51837890  0.74180887  0.23981223  1
  O  O10  1  0.48162110  0.25819113  0.76018777  1
  O  O11  1  0.01837890  0.72143333  0.76018777  1
  O  O12  1  0.03255002  0.25990439  0.77264563  1
  O  O13  1  0.46744998  0.25990439  0.20754659  1
