# generated using pymatgen
data_LiVSiO4
_symmetry_space_group_name_H-M   'P 1'
_cell_length_a   5.51519878
_cell_length_b   5.84531951
_cell_length_c   5.84531951
_cell_angle_alpha   60.63636068
_cell_angle_beta   61.85126987
_cell_angle_gamma   61.85126987
_symmetry_Int_Tables_number   1
_chemical_formula_structural   LiVSiO4
_chemical_formula_sum   'Li2 V2 Si2 O8'
_cell_volume   137.53705801
_cell_formula_units_Z   2
loop_
 _symmetry_equiv_pos_site_id
 _symmetry_equiv_pos_as_xyz
  1  'x, y, z'
loop_
 _atom_site_type_symbol
 _atom_site_label
 _atom_site_symmetry_multiplicity
 _atom_site_fract_x
 _atom_site_fract_y
 _atom_site_fract_z
 _atom_site_occupancy
  Li  Li0  1  0.00496190  0.99503810  0.99503810  1
  Li  Li1  1  0.24503810  0.25496190  0.25496190  1
  V  V2  1  0.62500000  0.62500000  0.12500000  1
  V  V3  1  0.62500000  0.12500000  0.62500000  1
  Si  Si4  1  0.62500000  0.62500000  0.62500000  1
  Si  Si5  1  0.12500000  0.62500000  0.62500000  1
  O  O6  1  0.82828786  0.41207841  0.41207841  1
  O  O7  1  0.34755632  0.41207841  0.41207841  1
  O  O8  1  0.37827072  0.82860905  0.41484851  1
  O  O9  1  0.87172928  0.83515149  0.42139095  1
  O  O10  1  0.87172928  0.42139095  0.83515149  1
  O  O11  1  0.37827072  0.41484851  0.82860905  1
  O  O12  1  0.42171214  0.83792159  0.83792159  1
  O  O13  1  0.90244368  0.83792159  0.83792159  1
