# generated using pymatgen
data_Fe3Co2Cu(PO4)6
_symmetry_space_group_name_H-M   'P 1'
_cell_length_a   8.38893795
_cell_length_b   8.63731716
_cell_length_c   8.63731642
_cell_angle_alpha   59.99999694
_cell_angle_beta   59.01565214
_cell_angle_gamma   59.01564628
_symmetry_Int_Tables_number   1
_chemical_formula_structural   Fe3Co2Cu(PO4)6
_chemical_formula_sum   'Fe3 Co2 Cu1 P6 O24'
_cell_volume   435.83810608
_cell_formula_units_Z   1
loop_
 _symmetry_equiv_pos_site_id
 _symmetry_equiv_pos_as_xyz
  1  'x, y, z'
loop_
 _atom_site_type_symbol
 _atom_site_label
 _atom_site_symmetry_multiplicity
 _atom_site_fract_x
 _atom_site_fract_y
 _atom_site_fract_z
 _atom_site_occupancy
  Fe  Fe0  1  0.06399636  0.64533455  0.64533455  1
  Fe  Fe1  1  0.43163453  0.85612216  0.85612216  1
  Fe  Fe2  1  0.93327438  0.35557521  0.35557521  1
  Co  Co3  1  0.99635778  0.00121407  0.00121407  1
  Co  Co4  1  0.49798584  0.50067139  0.50067139  1
  Cu  Cu5  1  0.56439601  0.14520166  0.14520166  1
  P  P6  1  0.25157605  0.24993796  0.54516986  1
  P  P7  1  0.25157605  0.95331614  0.24993796  1
  P  P8  1  0.25157605  0.54516986  0.95331614  1
  P  P9  1  0.74749021  0.45271586  0.04829614  1
  P  P10  1  0.74749021  0.04829614  0.75149778  1
  P  P11  1  0.74749021  0.75149778  0.45271586  1
  O  O12  1  0.06683537  0.10924719  0.32202817  1
  O  O13  1  0.06683537  0.50188927  0.10924719  1
  O  O14  1  0.06683537  0.32202817  0.50188927  1
  O  O15  1  0.21673172  0.09475321  0.74784094  1
  O  O16  1  0.44414572  0.18216126  0.39011560  1
  O  O17  1  0.28104315  0.40495175  0.56440067  1
  O  O18  1  0.21673172  0.94067514  0.09475321  1
  O  O19  1  0.28104315  0.74960442  0.40495175  1
  O  O20  1  0.56227277  0.60839040  0.00601105  1
  O  O21  1  0.28104315  0.56440067  0.74960442  1
  O  O22  1  0.78384493  0.25025925  0.05861762  1
  O  O23  1  0.56227277  0.00601105  0.82332578  1
  O  O24  1  0.44414572  0.98357742  0.18216126  1
  O  O25  1  0.21673172  0.74784094  0.94067514  1
  O  O26  1  0.71569432  0.43706261  0.25064537  1
  O  O27  1  0.44414572  0.39011560  0.98357742  1
  O  O28  1  0.71569432  0.25064537  0.59659770  1
  O  O29  1  0.78384493  0.05861762  0.90727821  1
  O  O30  1  0.71569432  0.59659770  0.43706261  1
  O  O31  1  0.56227277  0.82332578  0.60839040  1
  O  O32  1  0.78384493  0.90727821  0.25025925  1
  O  O33  1  0.93448380  0.67919974  0.49382965  1
  O  O34  1  0.93448380  0.49382965  0.89248681  1
  O  O35  1  0.93448380  0.89248681  0.67919974  1
