# generated using pymatgen
data_LiCo2P4H3O16
_symmetry_space_group_name_H-M   'P 1'
_cell_length_a   4.96284085
_cell_length_b   8.17118045
_cell_length_c   7.61218872
_cell_angle_alpha   89.32671166
_cell_angle_beta   102.66923818
_cell_angle_gamma   87.89483934
_symmetry_Int_Tables_number   1
_chemical_formula_structural   LiCo2P4H3O16
_chemical_formula_sum   'Li1 Co2 P4 H3 O16'
_cell_volume   300.91025122
_cell_formula_units_Z   1
loop_
 _symmetry_equiv_pos_site_id
 _symmetry_equiv_pos_as_xyz
  1  'x, y, z'
loop_
 _atom_site_type_symbol
 _atom_site_label
 _atom_site_symmetry_multiplicity
 _atom_site_fract_x
 _atom_site_fract_y
 _atom_site_fract_z
 _atom_site_occupancy
  Li  Li0  1  0.39949161  0.87984594  0.85538006  1
  Co  Co1  1  0.99779503  0.00596121  0.49566560  1
  Co  Co2  1  0.49694153  0.49279498  0.99757544  1
  P  P3  1  0.10108783  0.33180684  0.24286731  1
  P  P4  1  0.38861592  0.83894559  0.24806798  1
  P  P5  1  0.60644810  0.16282688  0.74784014  1
  P  P6  1  0.89476715  0.66766129  0.75826924  1
  H  H7  1  0.34316038  0.52329111  0.37778718  1
  H  H8  1  0.66798199  0.47251543  0.62574378  1
  H  H9  1  0.93585680  0.03339855  0.97403794  1
  O  O10  1  0.15417518  0.56635066  0.85939621  1
  O  O11  1  0.02438205  0.16537667  0.30236379  1
  O  O12  1  0.21389761  0.84674090  0.39468233  1
  O  O13  1  0.25282588  0.42562060  0.41477445  1
  O  O14  1  0.33770034  0.07422949  0.67664455  1
  O  O15  1  0.56748376  0.34242603  0.79552645  1
  O  O16  1  0.25601667  0.93239581  0.07203838  1
  O  O17  1  0.28980243  0.31789913  0.10596983  1
  O  O18  1  0.68433580  0.68718539  0.88038749  1
  O  O19  1  0.73433054  0.05574024  0.92358923  1
  O  O20  1  0.43197700  0.65679312  0.20371741  1
  O  O21  1  0.66697499  0.91470768  0.33114611  1
  O  O22  1  0.75544047  0.57036480  0.58560904  1
  O  O23  1  0.78946604  0.15589276  0.60736363  1
  O  O24  1  0.99173452  0.83054909  0.69849447  1
  O  O25  1  0.83756038  0.43392181  0.14981197  1
