# generated using pymatgen
data_LiTiFe2O5
_symmetry_space_group_name_H-M   'P 1'
_cell_length_a   5.45195723
_cell_length_b   7.72906695
_cell_length_c   5.41486914
_cell_angle_alpha   68.37305288
_cell_angle_beta   114.62089073
_cell_angle_gamma   97.60693507
_symmetry_Int_Tables_number   1
_chemical_formula_structural   LiTiFe2O5
_chemical_formula_sum   'Li2 Ti2 Fe4 O10'
_cell_volume   192.76710543
_cell_formula_units_Z   2
loop_
 _symmetry_equiv_pos_site_id
 _symmetry_equiv_pos_as_xyz
  1  'x, y, z'
loop_
 _atom_site_type_symbol
 _atom_site_label
 _atom_site_symmetry_multiplicity
 _atom_site_fract_x
 _atom_site_fract_y
 _atom_site_fract_z
 _atom_site_occupancy
  Li  Li0  1  0.99287652  0.00703425  0.99763497  1
  Li  Li1  1  0.50518866  0.39386104  0.29148797  1
  Ti  Ti2  1  0.96130927  0.58988222  0.16409738  1
  Ti  Ti3  1  0.48722419  0.21328579  0.87459962  1
  Fe  Fe4  1  0.47623895  0.79153135  0.15732445  1
  Fe  Fe5  1  0.50841895  0.99774159  0.50958003  1
  Fe  Fe6  1  0.00593701  0.39528233  0.80179077  1
  Fe  Fe7  1  0.02753078  0.81415923  0.58447515  1
  O  O8  1  0.71641238  0.99554716  0.24374418  1
  O  O9  1  0.76648111  0.40289906  0.02895534  1
  O  O10  1  0.77907574  0.59924122  0.40922717  1
  O  O11  1  0.72405841  0.21501736  0.68936917  1
  O  O12  1  0.78404014  0.79987142  0.85180513  1
  O  O13  1  0.28819784  0.20625176  0.11422011  1
  O  O14  1  0.29949428  0.99402190  0.77614574  1
  O  O15  1  0.23297889  0.79672628  0.33606162  1
  O  O16  1  0.22466433  0.39513015  0.57334608  1
  O  O17  1  0.22459953  0.59224389  0.99819811  1
