# generated using pymatgen
data_Li4Ti2Nb3Fe3O16
_symmetry_space_group_name_H-M   'P 1'
_cell_length_a   6.14062137
_cell_length_b   6.07433335
_cell_length_c   9.82833229
_cell_angle_alpha   90.27797957
_cell_angle_beta   88.59256249
_cell_angle_gamma   119.60704390
_symmetry_Int_Tables_number   1
_chemical_formula_structural   Li4Ti2Nb3Fe3O16
_chemical_formula_sum   'Li4 Ti2 Nb3 Fe3 O16'
_cell_volume   318.62599281
_cell_formula_units_Z   1
loop_
 _symmetry_equiv_pos_site_id
 _symmetry_equiv_pos_as_xyz
  1  'x, y, z'
loop_
 _atom_site_type_symbol
 _atom_site_label
 _atom_site_symmetry_multiplicity
 _atom_site_fract_x
 _atom_site_fract_y
 _atom_site_fract_z
 _atom_site_occupancy
  Li  Li0  1  0.33226884  0.66398066  0.90311125  1
  Li  Li1  1  0.00651166  0.00302150  0.99629188  1
  Li  Li2  1  0.02063229  0.00954544  0.48451509  1
  Li  Li3  1  0.67327472  0.33765767  0.39332676  1
  Ti  Ti4  1  0.28838618  0.64015244  0.48419103  1
  Ti  Ti5  1  0.66170065  0.32875376  0.00871435  1
  Nb  Nb6  1  0.63886116  0.82136073  0.22814340  1
  Nb  Nb7  1  0.81860167  0.65139557  0.71899048  1
  Nb  Nb8  1  0.81355485  0.16903426  0.71663858  1
  Fe  Fe9  1  0.17225018  0.83150317  0.20853195  1
  Fe  Fe10  1  0.17324708  0.34098246  0.20849660  1
  Fe  Fe11  1  0.33899367  0.16339318  0.70773708  1
  O  O12  1  0.16145396  0.82308966  0.59381084  1
  O  O13  1  0.05173735  0.52640575  0.35165215  1
  O  O14  1  0.36271643  0.68043472  0.09858828  1
  O  O15  1  0.98004460  0.99045832  0.29896771  1
  O  O16  1  0.99262738  0.99883589  0.80896063  1
  O  O17  1  0.15678975  0.33873764  0.59219598  1
  O  O18  1  0.49403824  0.96636430  0.35304970  1
  O  O19  1  0.49395769  0.53099648  0.35425628  1
  O  O20  1  0.34347122  0.17166376  0.08882475  1
  O  O21  1  0.67773438  0.84011019  0.60302503  1
  O  O22  1  0.52946272  0.48388970  0.83933614  1
  O  O23  1  0.53637459  0.04306640  0.84594357  1
  O  O24  1  0.68418082  0.34540371  0.59020757  1
  O  O25  1  0.81083413  0.64869322  0.09288160  1
  O  O26  1  0.97462118  0.48922093  0.84290733  1
  O  O27  1  0.81167161  0.16214951  0.09454299  1
