# generated using pymatgen
data_LiFeSiO4
_symmetry_space_group_name_H-M   'P 1'
_cell_length_a   6.50212103
_cell_length_b   9.47359590
_cell_length_c   5.89427461
_cell_angle_alpha   92.71982075
_cell_angle_beta   100.88722417
_cell_angle_gamma   76.34276961
_symmetry_Int_Tables_number   1
_chemical_formula_structural   LiFeSiO4
_chemical_formula_sum   'Li4 Fe4 Si4 O16'
_cell_volume   346.46060052
_cell_formula_units_Z   4
loop_
 _symmetry_equiv_pos_site_id
 _symmetry_equiv_pos_as_xyz
  1  'x, y, z'
loop_
 _atom_site_type_symbol
 _atom_site_label
 _atom_site_symmetry_multiplicity
 _atom_site_fract_x
 _atom_site_fract_y
 _atom_site_fract_z
 _atom_site_occupancy
  Li  Li0  1  0.15502859  0.25956581  0.57241263  1
  Li  Li1  1  0.34704580  0.67144284  0.43396627  1
  Li  Li2  1  0.65295420  0.32855716  0.56603373  1
  Li  Li3  1  0.84497141  0.74043419  0.42758737  1
  Fe  Fe4  1  0.06590990  0.71215624  0.00641636  1
  Fe  Fe5  1  0.36147842  0.92468162  0.80416964  1
  Fe  Fe6  1  0.63852158  0.07531838  0.19583036  1
  Fe  Fe7  1  0.93409010  0.28784376  0.99358364  1
  Si  Si8  1  0.28734150  0.38215664  0.13912042  1
  Si  Si9  1  0.17276559  0.00004717  0.27949211  1
  Si  Si10  1  0.82723441  -0.00004717  0.72050789  1
  Si  Si11  1  0.71265850  0.61784336  0.86087958  1
  O  O12  1  0.26739285  0.04864186  0.54192511  1
  O  O13  1  0.10142022  0.35609226  0.28002198  1
  O  O14  1  0.18910269  0.32578961  0.88108198  1
  O  O15  1  0.06450984  0.88737736  0.81135462  1
  O  O16  1  0.34355742  0.01998335  0.11115315  1
  O  O17  1  0.30003167  0.55377576  0.15270976  1
  O  O18  1  0.15226800  0.83147365  0.27912591  1
  O  O19  1  0.47454302  0.71967623  0.74419490  1
  O  O20  1  0.52545698  0.28032377  0.25580510  1
  O  O21  1  0.84773200  0.16852635  0.72087409  1
  O  O22  1  0.69996833  0.44622424  0.84729024  1
  O  O23  1  0.65644258  0.98001665  0.88884685  1
  O  O24  1  0.93549016  0.11262264  0.18864538  1
  O  O25  1  0.81089731  0.67421039  0.11891802  1
  O  O26  1  0.89857978  0.64390774  0.71997802  1
  O  O27  1  0.73260715  0.95135814  0.45807489  1
