# generated using pymatgen
data_Li2V5O10
_symmetry_space_group_name_H-M   'P 1'
_cell_length_a   5.15134472
_cell_length_b   5.10662324
_cell_length_c   8.18400145
_cell_angle_alpha   113.29822584
_cell_angle_beta   96.16230935
_cell_angle_gamma   101.37035260
_symmetry_Int_Tables_number   1
_chemical_formula_structural   Li2V5O10
_chemical_formula_sum   'Li2 V5 O10'
_cell_volume   189.70225166
_cell_formula_units_Z   1
loop_
 _symmetry_equiv_pos_site_id
 _symmetry_equiv_pos_as_xyz
  1  'x, y, z'
loop_
 _atom_site_type_symbol
 _atom_site_label
 _atom_site_symmetry_multiplicity
 _atom_site_fract_x
 _atom_site_fract_y
 _atom_site_fract_z
 _atom_site_occupancy
  Li  Li0  1  0.22550649  0.93023853  0.40618794  1
  Li  Li1  1  0.77449351  0.06976147  0.59381206  1
  V  V2  1  0.12328459  0.69902176  0.68501801  1
  V  V3  1  0.00000000  0.50000000  0.00000000  1
  V  V4  1  0.68746927  0.86646007  0.89886939  1
  V  V5  1  0.31253073  0.13353993  0.10113061  1
  V  V6  1  0.87671541  0.30097824  0.31498199  1
  O  O7  1  0.04979762  0.08094481  0.86652040  1
  O  O8  1  0.08188844  0.29231043  0.51364678  1
  O  O9  1  0.32155752  0.71855637  0.94157631  1
  O  O10  1  0.19487806  0.48042839  0.22200078  1
  O  O11  1  0.46708151  0.86958135  0.68701885  1
  O  O12  1  0.53291849  0.13041865  0.31298115  1
  O  O13  1  0.80512194  0.51957161  0.77799922  1
  O  O14  1  0.67844248  0.28144363  0.05842369  1
  O  O15  1  0.91811156  0.70768957  0.48635322  1
  O  O16  1  0.95020238  0.91905519  0.13347960  1
