# generated using pymatgen
data_FePSe3
_symmetry_space_group_name_H-M   'P 1'
_cell_length_a   6.16619116
_cell_length_b   6.16619115
_cell_length_c   7.27644225
_cell_angle_alpha   64.93101627
_cell_angle_beta   64.93101627
_cell_angle_gamma   60.00000499
_symmetry_Int_Tables_number   1
_chemical_formula_structural   FePSe3
_chemical_formula_sum   'Fe2 P2 Se6'
_cell_volume   208.96314330
_cell_formula_units_Z   2
loop_
 _symmetry_equiv_pos_site_id
 _symmetry_equiv_pos_as_xyz
  1  'x, y, z'
loop_
 _atom_site_type_symbol
 _atom_site_label
 _atom_site_symmetry_multiplicity
 _atom_site_fract_x
 _atom_site_fract_y
 _atom_site_fract_z
 _atom_site_occupancy
  Fe  Fe0  1  0.16450813  0.16450813  0.50647562  1
  Fe  Fe1  1  0.83549187  0.83549187  0.49352438  1
  P  P2  1  0.44297555  0.44297555  0.67107335  1
  P  P3  1  0.55702445  0.55702445  0.32892665  1
  Se  Se4  1  0.79860011  0.04576292  0.72476673  1
  Se  Se5  1  0.04576292  0.43087023  0.72476673  1
  Se  Se6  1  0.43087023  0.79860011  0.72476673  1
  Se  Se7  1  0.20139989  0.95423708  0.27523327  1
  Se  Se8  1  0.95423708  0.56912977  0.27523327  1
  Se  Se9  1  0.56912977  0.20139989  0.27523327  1
