# generated using pymatgen
data_Li15Cr2O12
_symmetry_space_group_name_H-M   'P 1'
_cell_length_a   5.45328579
_cell_length_b   7.96766645
_cell_length_c   5.78262860
_cell_angle_alpha   94.57760755
_cell_angle_beta   89.86181070
_cell_angle_gamma   89.84315221
_symmetry_Int_Tables_number   1
_chemical_formula_structural   Li15Cr2O12
_chemical_formula_sum   'Li15 Cr2 O12'
_cell_volume   250.45171706
_cell_formula_units_Z   1
loop_
 _symmetry_equiv_pos_site_id
 _symmetry_equiv_pos_as_xyz
  1  'x, y, z'
loop_
 _atom_site_type_symbol
 _atom_site_label
 _atom_site_symmetry_multiplicity
 _atom_site_fract_x
 _atom_site_fract_y
 _atom_site_fract_z
 _atom_site_occupancy
  Li  Li0  1  0.00485879  0.64417719  0.67386260  1
  Li  Li1  1  0.87248924  0.62726874  0.26290449  1
  Li  Li2  1  0.79790642  0.91785157  0.59658613  1
  Li  Li3  1  0.81223280  0.30378780  0.94740547  1
  Li  Li4  1  0.69721842  0.20881410  0.56025518  1
  Li  Li5  1  0.66363493  0.58379023  0.90429300  1
  Li  Li6  1  0.62510164  0.87508624  0.19769866  1
  Li  Li7  1  0.49780236  0.16649837  0.19372374  1
  Li  Li8  1  0.37307796  0.10619009  0.78705417  1
  Li  Li9  1  0.33445829  0.43233728  0.07524704  1
  Li  Li10  1  0.30928890  0.79382133  0.47239984  1
  Li  Li11  1  0.21815191  0.71300969  0.04071963  1
  Li  Li12  1  0.15013642  0.07264015  0.43008655  1
  Li  Li13  1  0.14358472  0.36304348  0.72447738  1
  Li  Li14  1  0.00478263  0.34862986  0.32222187  1
  Cr  Cr15  1  0.50277559  0.50085623  0.49496519  1
  Cr  Cr16  1  0.99828337  0.99848561  0.00036738  1
  O  O17  1  0.87591840  0.77190869  -0.00003623  1
  O  O18  1  0.82914909  0.06531627  0.30562351  1
  O  O19  1  0.81088257  0.42616168  0.66293506  1
  O  O20  1  0.71448359  0.07845744  0.85902028  1
  O  O21  1  0.66035422  0.42985514  0.19613162  1
  O  O22  1  0.64254119  0.71998719  0.48161931  1
  O  O23  1  0.36115164  0.26509891  0.49949272  1
  O  O24  1  0.33813604  0.55979330  0.79074527  1
  O  O25  1  0.27903056  0.93975220  0.16650054  1
  O  O26  1  0.19923754  0.57661003  0.33120606  1
  O  O27  1  0.13531947  0.93526513  0.70304098  1
  O  O28  1  0.14586830  0.22866005  0.00122957  1
