# generated using pymatgen
data_Li5Mn5O12
_symmetry_space_group_name_H-M   'P 1'
_cell_length_a   5.13842724
_cell_length_b   5.05125432
_cell_length_c   19.75772807
_cell_angle_alpha   92.41319309
_cell_angle_beta   84.24177870
_cell_angle_gamma   120.85142267
_symmetry_Int_Tables_number   1
_chemical_formula_structural   Li5Mn5O12
_chemical_formula_sum   'Li10 Mn10 O24'
_cell_volume   438.00978487
_cell_formula_units_Z   2
loop_
 _symmetry_equiv_pos_site_id
 _symmetry_equiv_pos_as_xyz
  1  'x, y, z'
loop_
 _atom_site_type_symbol
 _atom_site_label
 _atom_site_symmetry_multiplicity
 _atom_site_fract_x
 _atom_site_fract_y
 _atom_site_fract_z
 _atom_site_occupancy
  Li  Li0  1  0.07759046  0.17707680  0.73466442  1
  Li  Li1  1  0.12849600  0.50656193  0.62494204  1
  Li  Li2  1  0.27547106  0.49645937  0.23573156  1
  Li  Li3  1  0.58230386  0.18737267  0.23414553  1
  Li  Li4  1  0.47219808  0.49699570  0.51412178  1
  Li  Li5  1  0.62146486  0.49564211  0.12463789  1
  Li  Li6  1  0.85383174  0.18808221  0.51587549  1
  Li  Li7  1  0.96894505  0.49360976  0.01448940  1
  Li  Li8  1  0.77286362  0.49069706  0.73569305  1
  Li  Li9  1  0.66683305  0.80850104  0.01497962  1
  Mn  Mn10  1  0.21164069  0.17338721  0.37512733  1
  Mn  Mn11  1  0.45057244  0.15087373  0.62514360  1
  Mn  Mn12  1  0.95905491  0.15823143  0.12512956  1
  Mn  Mn13  1  0.37780559  0.50548562  0.87474381  1
  Mn  Mn14  1  0.71073549  0.17394460  0.87560758  1
  Mn  Mn15  1  0.28632904  0.83322174  0.12471367  1
  Mn  Mn16  1  0.04492341  0.83658484  0.87470822  1
  Mn  Mn17  1  0.87945791  0.50906964  0.37479794  1
  Mn  Mn18  1  0.54261733  0.83527822  0.37496201  1
  Mn  Mn19  1  0.78755147  0.82577208  0.62509570  1
  O  O20  1  0.25829603  0.15137400  0.17759336  1
  O  O21  1  0.14222404  0.14435277  0.57217976  1
  O  O22  1  0.52380732  0.17121273  0.42488122  1
  O  O23  1  0.02680990  0.50025970  0.81948969  1
  O  O24  1  0.65465500  0.13717591  0.07067516  1
  O  O25  1  0.28093368  0.50589078  0.06969609  1
  O  O26  1  0.22227777  0.49487591  0.43119778  1
  O  O27  1  0.40132254  0.17931011  0.82543495  1
  O  O28  1  0.75021688  0.13996416  0.67797006  1
  O  O29  1  0.52512704  0.50111676  0.31887997  1
  O  O30  1  0.90068472  0.17585893  0.32499891  1
  O  O31  1  0.46103577  0.47885725  0.68033094  1
  O  O32  1  0.08828407  0.84385985  0.67934646  1
  O  O33  1  0.24224468  0.84521068  0.32469769  1
  O  O34  1  0.00825602  0.16055705  0.92614917  1
  O  O35  1  0.77095095  0.48470202  0.56989829  1
  O  O36  1  0.72772611  0.51019169  0.93085690  1
  O  O37  1  0.96481488  0.48592124  0.18009741  1
  O  O38  1  0.59037240  0.85447955  0.17919137  1
  O  O39  1  0.35465824  0.83080329  0.92450252  1
  O  O40  1  0.50714306  0.84801832  0.57092072  1
  O  O41  1  0.84939716  0.83907139  0.42528332  1
  O  O42  1  0.98697059  0.84025850  0.07226511  1
  O  O43  1  0.74851111  0.85136768  0.82391393  1
