# generated using pymatgen
data_Li3Mn5(NiO6)2
_symmetry_space_group_name_H-M   'P 1'
_cell_length_a   5.13165853
_cell_length_b   5.09276503
_cell_length_c   28.73153878
_cell_angle_alpha   88.43161922
_cell_angle_beta   89.12226885
_cell_angle_gamma   60.13015395
_symmetry_Int_Tables_number   1
_chemical_formula_structural   Li3Mn5(NiO6)2
_chemical_formula_sum   'Li9 Mn15 Ni6 O36'
_cell_volume   650.88677335
_cell_formula_units_Z   3
loop_
 _symmetry_equiv_pos_site_id
 _symmetry_equiv_pos_as_xyz
  1  'x, y, z'
loop_
 _atom_site_type_symbol
 _atom_site_label
 _atom_site_symmetry_multiplicity
 _atom_site_fract_x
 _atom_site_fract_y
 _atom_site_fract_z
 _atom_site_occupancy
  Li  Li0  1  0.16060355  0.17090726  0.49463816  1
  Li  Li1  1  0.15945565  0.83783402  0.16139045  1
  Li  Li2  1  0.16151222  0.83487118  0.67206643  1
  Li  Li3  1  0.83345898  0.16085632  0.33675002  1
  Li  Li4  1  0.84819453  0.16768545  0.08264781  1
  Li  Li5  1  0.83314070  0.17041702  0.82964309  1
  Li  Li6  1  0.84745427  0.50134250  0.41595339  1
  Li  Li7  1  0.83323871  0.82950196  0.00385086  1
  Li  Li8  1  0.84798126  0.81763153  0.75072770  1
  Mn  Mn9  1  0.14688457  0.18548501  0.24982634  1
  Mn  Mn10  1  0.15647934  0.17688504  0.74976815  1
  Mn  Mn11  1  0.14336692  0.51168291  0.58335953  1
  Mn  Mn12  1  0.15664562  0.49961241  0.08358572  1
  Mn  Mn13  1  0.15011962  0.84174685  0.91668556  1
  Mn  Mn14  1  0.15641942  0.83297409  0.41690669  1
  Mn  Mn15  1  0.51833233  0.15972614  0.67107288  1
  Mn  Mn16  1  0.51694044  0.15548854  0.16220857  1
  Mn  Mn17  1  0.51870880  0.48627506  0.00439354  1
  Mn  Mn18  1  0.51753562  0.48901785  0.49570133  1
  Mn  Mn19  1  0.51835431  0.81980510  0.33755427  1
  Mn  Mn20  1  0.82719852  0.16991097  0.58335232  1
  Mn  Mn21  1  0.51779885  0.82924314  0.82906775  1
  Mn  Mn22  1  0.83070924  0.50165881  0.91666249  1
  Mn  Mn23  1  0.82987236  0.83463224  0.25027183  1
  Ni  Ni24  1  0.48263463  0.17517116  0.91673243  1
  Ni  Ni25  1  0.51183652  0.16074146  0.41684499  1
  Ni  Ni26  1  0.49026002  0.50265952  0.25005255  1
  Ni  Ni27  1  0.51186182  0.49381912  0.74977715  1
  Ni  Ni28  1  0.49736847  0.83437063  0.58332927  1
  Ni  Ni29  1  0.51181213  0.82726121  0.08353114  1
  O  O30  1  0.14989761  0.17856003  0.61799769  1
  O  O31  1  0.14282740  0.16643745  0.88107246  1
  O  O32  1  0.19667042  0.11607846  0.37593561  1
  O  O33  1  0.20838467  0.15995359  0.12377031  1
  O  O34  1  0.14193022  0.52447390  0.95218058  1
  O  O35  1  0.15087184  0.51045659  0.21472621  1
  O  O36  1  0.20851620  0.46531040  0.70959182  1
  O  O37  1  0.20859593  0.49308820  0.45704488  1
  O  O38  1  0.14260768  0.86151294  0.28516897  1
  O  O39  1  0.49428228  0.14542466  0.78985582  1
  O  O40  1  0.49580013  0.19275274  0.04333447  1
  O  O41  1  0.52766833  0.12276923  0.29121607  1
  O  O42  1  0.15099833  0.83737767  0.54858605  1
  O  O43  1  0.19683824  0.78258158  0.04265889  1
  O  O44  1  0.49895529  0.20064382  0.54392261  1
  O  O45  1  0.19720007  0.85377767  0.79066694  1
  O  O46  1  0.46868611  0.49029573  0.12406984  1
  O  O47  1  0.49483474  0.52748421  0.37661017  1
  O  O48  1  0.49971998  0.46701770  0.62286567  1
  O  O49  1  0.51741860  0.52535161  0.87681305  1
  O  O50  1  0.46807146  0.82334597  0.45742014  1
  O  O51  1  0.81066771  0.14876820  0.20934994  1
  O  O52  1  0.80577351  0.19140843  0.95544050  1
  O  O53  1  0.46916984  0.87452143  0.70906268  1
  O  O54  1  0.51768646  0.79112316  0.95662332  1
  O  O55  1  0.85380104  0.16060365  0.45360304  1
  O  O56  1  0.85446865  0.15181325  0.71299790  1
  O  O57  1  0.48872053  0.87566144  0.21178723  1
  O  O58  1  0.81252891  0.51656611  0.28817687  1
  O  O59  1  0.81702593  0.48410704  0.54313800  1
  O  O60  1  0.84124421  0.50981080  0.04615235  1
  O  O61  1  0.84024634  0.48246037  0.78711786  1
  O  O62  1  0.81754432  0.86442113  0.62328126  1
  O  O63  1  0.80515872  0.83628983  0.87766773  1
  O  O64  1  0.85378666  0.82625020  0.12032102  1
  O  O65  1  0.84086323  0.84269132  0.37961065  1
