# generated using pymatgen
data_Li3Fe3(SnO5)2
_symmetry_space_group_name_H-M   'P 1'
_cell_length_a   5.35059563
_cell_length_b   5.21500350
_cell_length_c   8.14230840
_cell_angle_alpha   74.87446785
_cell_angle_beta   105.57776910
_cell_angle_gamma   102.74395561
_symmetry_Int_Tables_number   1
_chemical_formula_structural   Li3Fe3(SnO5)2
_chemical_formula_sum   'Li3 Fe3 Sn2 O10'
_cell_volume   208.48418157
_cell_formula_units_Z   1
loop_
 _symmetry_equiv_pos_site_id
 _symmetry_equiv_pos_as_xyz
  1  'x, y, z'
loop_
 _atom_site_type_symbol
 _atom_site_label
 _atom_site_symmetry_multiplicity
 _atom_site_fract_x
 _atom_site_fract_y
 _atom_site_fract_z
 _atom_site_occupancy
  Li  Li0  1  0.20463732  0.52961891  0.38672278  1
  Li  Li1  1  0.50000000  0.00000000  0.50000000  1
  Li  Li2  1  0.79536268  0.47038109  0.61327722  1
  Fe  Fe3  1  0.00000000  0.50000000  0.00000000  1
  Fe  Fe4  1  0.31116057  0.02989879  0.10403861  1
  Fe  Fe5  1  0.68883943  0.97010121  0.89596139  1
  Sn  Sn6  1  0.12003661  0.01161790  0.69662252  1
  Sn  Sn7  1  0.87996339  0.98838210  0.30337748  1
  O  O8  1  0.04461006  0.22886771  0.86750919  1
  O  O9  1  0.32148432  0.79036053  0.94024222  1
  O  O10  1  0.10470669  0.77222489  0.52025928  1
  O  O11  1  0.19755268  0.26833910  0.21898824  1
  O  O12  1  0.49467603  0.18403309  0.67862259  1
  O  O13  1  0.50532397  0.81596691  0.32137741  1
  O  O14  1  0.80244732  0.73166090  0.78101176  1
  O  O15  1  0.89529331  0.22777511  0.47974072  1
  O  O16  1  0.67851568  0.20963947  0.05975778  1
  O  O17  1  0.95538994  0.77113229  0.13249081  1
