# generated using pymatgen
data_FeOF
_symmetry_space_group_name_H-M   'P 1'
_cell_length_a   9.47954670
_cell_length_b   14.21318890
_cell_length_c   3.10702455
_cell_angle_alpha   90.00000000
_cell_angle_beta   90.00000000
_cell_angle_gamma   90.28482207
_symmetry_Int_Tables_number   1
_chemical_formula_structural   FeOF
_chemical_formula_sum   'Fe12 O12 F12'
_cell_volume   418.61850012
_cell_formula_units_Z   12
loop_
 _symmetry_equiv_pos_site_id
 _symmetry_equiv_pos_as_xyz
  1  'x, y, z'
loop_
 _atom_site_type_symbol
 _atom_site_label
 _atom_site_symmetry_multiplicity
 _atom_site_fract_x
 _atom_site_fract_y
 _atom_site_fract_z
 _atom_site_occupancy
  Fe  Fe0  1  0.00610080  0.00531896  0.00000000  1
  Fe  Fe1  1  0.01849355  0.33065097  0.00000000  1
  Fe  Fe2  1  0.00983239  0.67351950  0.00000000  1
  Fe  Fe3  1  0.22959793  0.16307706  0.50000000  1
  Fe  Fe4  1  0.25148264  0.48299305  0.50000000  1
  Fe  Fe5  1  0.22891512  0.83828119  0.50000000  1
  Fe  Fe6  1  0.50055936  0.34115056  0.00000000  1
  Fe  Fe7  1  0.51820699  0.00213378  0.00000000  1
  Fe  Fe8  1  0.51758108  0.66543432  0.00000000  1
  Fe  Fe9  1  0.75374787  0.15072317  0.50000000  1
  Fe  Fe10  1  0.72975938  0.49645623  0.50000000  1
  Fe  Fe11  1  0.72482524  0.83540645  0.50000000  1
  O  O12  1  0.09866078  0.27049030  0.50000000  1
  O  O13  1  0.09590425  0.93425816  0.50000000  1
  O  O14  1  0.15793587  0.10188395  0.00000000  1
  O  O15  1  0.14937158  0.76600185  0.00000000  1
  O  O16  1  0.14884891  0.43999047  0.00000000  1
  O  O17  1  0.40665067  0.39649522  0.50000000  1
  O  O18  1  0.59369624  0.93728643  0.50000000  1
  O  O19  1  0.59666402  0.60113537  0.50000000  1
  O  O20  1  0.65032191  0.10535153  0.00000000  1
  O  O21  1  0.65939215  0.43164048  0.00000000  1
  O  O22  1  0.65199428  0.76845711  0.00000000  1
  O  O23  1  0.90429197  0.06353341  0.50000000  1
  F  F24  1  0.09671518  0.60256674  0.50000000  1
  F  F25  1  0.35588815  0.22980500  0.00000000  1
  F  F26  1  0.34306938  0.56957212  0.00000000  1
  F  F27  1  0.34709972  0.90009477  0.00000000  1
  F  F28  1  0.40134840  0.06583501  0.50000000  1
  F  F29  1  0.39914002  0.73325445  0.50000000  1
  F  F30  1  0.60051351  0.26735941  0.50000000  1
  F  F31  1  0.84736514  0.23663885  0.00000000  1
  F  F32  1  0.84617223  0.89304559  0.00000000  1
  F  F33  1  0.85649366  0.56863406  0.00000000  1
  F  F34  1  0.90272238  0.40161623  0.50000000  1
  F  F35  1  0.90063425  0.72990925  0.50000000  1
