# generated using pymatgen
data_MnOF
_symmetry_space_group_name_H-M   'P 1'
_cell_length_a   4.59724395
_cell_length_b   5.72301897
_cell_length_c   10.33559056
_cell_angle_alpha   89.33615253
_cell_angle_beta   90.97423406
_cell_angle_gamma   91.73460342
_symmetry_Int_Tables_number   1
_chemical_formula_structural   MnOF
_chemical_formula_sum   'Mn8 O8 F8'
_cell_volume   271.74999186
_cell_formula_units_Z   8
loop_
 _symmetry_equiv_pos_site_id
 _symmetry_equiv_pos_as_xyz
  1  'x, y, z'
loop_
 _atom_site_type_symbol
 _atom_site_label
 _atom_site_symmetry_multiplicity
 _atom_site_fract_x
 _atom_site_fract_y
 _atom_site_fract_z
 _atom_site_occupancy
  Mn  Mn0  1  0.99747843  0.15430543  0.61219220  1
  Mn  Mn1  1  0.00192116  0.85486388  0.36909428  1
  Mn  Mn2  1  0.03065253  0.17607326  0.11013341  1
  Mn  Mn3  1  0.01090326  0.84613621  0.86530835  1
  Mn  Mn4  1  0.51028375  0.34529509  0.88244031  1
  Mn  Mn5  1  0.50473038  0.35252375  0.38273890  1
  Mn  Mn6  1  0.53229856  0.62295821  0.13796618  1
  Mn  Mn7  1  0.50017625  0.65437458  0.63747581  1
  O  O8  1  0.21028037  0.11764820  0.45207462  1
  O  O9  1  0.22819571  0.11096677  0.95140213  1
  O  O10  1  0.21146615  0.88510767  0.70118943  1
  O  O11  1  0.29594058  0.39229374  0.21882478  1
  O  O12  1  0.73678077  0.37315853  0.03859870  1
  O  O13  1  0.74510165  0.61347208  0.29848534  1
  O  O14  1  0.71055360  0.38683458  0.54829204  1
  O  O15  1  0.71551108  0.61932376  0.79893267  1
  F  F16  1  0.24580354  0.89113977  0.20507727  1
  F  F17  1  0.25131392  0.62438240  0.47506391  1
  F  F18  1  0.24720068  0.38411646  0.72971201  1
  F  F19  1  0.26609270  0.61638749  0.98084202  1
  F  F20  1  0.78026282  0.11341548  0.27156180  1
  F  F21  1  0.77379185  0.86277865  0.03891243  1
  F  F22  1  0.75638469  0.11440228  0.77203099  1
  F  F23  1  0.73687558  0.88804373  0.52165144  1
