# generated using pymatgen
data_Li2Ti2Mn3O10
_symmetry_space_group_name_H-M   'P 1'
_cell_length_a   5.16560043
_cell_length_b   5.04717524
_cell_length_c   8.11906654
_cell_angle_alpha   112.87094107
_cell_angle_beta   98.27331534
_cell_angle_gamma   98.75397006
_symmetry_Int_Tables_number   1
_chemical_formula_structural   Li2Ti2Mn3O10
_chemical_formula_sum   'Li2 Ti2 Mn3 O10'
_cell_volume   187.91156343
_cell_formula_units_Z   1
loop_
 _symmetry_equiv_pos_site_id
 _symmetry_equiv_pos_as_xyz
  1  'x, y, z'
loop_
 _atom_site_type_symbol
 _atom_site_label
 _atom_site_symmetry_multiplicity
 _atom_site_fract_x
 _atom_site_fract_y
 _atom_site_fract_z
 _atom_site_occupancy
  Li  Li0  1  0.23982036  0.91900744  0.40713563  1
  Li  Li1  1  0.76017964  0.08099256  0.59286437  1
  Ti  Ti2  1  0.12973632  0.69535291  0.68144160  1
  Ti  Ti3  1  0.87026368  0.30464809  0.31855840  1
  Mn  Mn4  1  0.00000000  0.50000000  0.00000000  1
  Mn  Mn5  1  0.69016216  0.87975543  0.89268295  1
  Mn  Mn6  1  0.30983784  0.12024457  0.10731705  1
  O  O7  1  0.02285439  0.08071995  0.86059656  1
  O  O8  1  0.34654989  0.73161065  0.93747915  1
  O  O9  1  0.08591052  0.29195259  0.52189677  1
  O  O10  1  0.18668489  0.47649103  0.21534939  1
  O  O11  1  0.45693670  0.87217643  0.66917453  1
  O  O12  1  0.54306330  0.12782357  0.33082547  1
  O  O13  1  0.81331511  0.52350897  0.78465061  1
  O  O14  1  0.91408948  0.70804741  0.47810323  1
  O  O15  1  0.65345011  0.26838935  0.06252085  1
  O  O16  1  0.97714561  0.91928005  0.13940344  1
