# generated using pymatgen
data_Li3Cr2(CoO4)2
_symmetry_space_group_name_H-M   'P 1'
_cell_length_a   5.76103335
_cell_length_b   5.81999829
_cell_length_c   5.79294020
_cell_angle_alpha   59.48668455
_cell_angle_beta   60.51001082
_cell_angle_gamma   90.28081579
_symmetry_Int_Tables_number   1
_chemical_formula_structural   Li3Cr2(CoO4)2
_chemical_formula_sum   'Li3 Cr2 Co2 O8'
_cell_volume   136.98516853
_cell_formula_units_Z   1
loop_
 _symmetry_equiv_pos_site_id
 _symmetry_equiv_pos_as_xyz
  1  'x, y, z'
loop_
 _atom_site_type_symbol
 _atom_site_label
 _atom_site_symmetry_multiplicity
 _atom_site_fract_x
 _atom_site_fract_y
 _atom_site_fract_z
 _atom_site_occupancy
  Li  Li0  1  0.00000000  0.50000000  0.00000000  1
  Li  Li1  1  0.50000000  0.50000000  0.50000000  1
  Li  Li2  1  0.50000000  0.00000000  0.50000000  1
  Cr  Cr3  1  0.00000000  0.00000000  0.00000000  1
  Cr  Cr4  1  0.00000000  0.00000000  0.50000000  1
  Co  Co5  1  0.00000000  0.50000000  0.50000000  1
  Co  Co6  1  0.50000000  0.00000000  0.00000000  1
  O  O7  1  0.24098431  0.21803492  0.00813182  1
  O  O8  1  0.24441617  0.75567985  0.47764971  1
  O  O9  1  0.21785043  0.24089141  0.53312515  1
  O  O10  1  0.76129371  0.23887307  0.97690440  1
  O  O11  1  0.23870629  0.76112693  0.02309560  1
  O  O12  1  0.78214957  0.75910859  0.46687485  1
  O  O13  1  0.75558383  0.24432015  0.52235029  1
  O  O14  1  0.75901569  0.78196508  0.99186818  1
