# generated using pymatgen
data_LiCrPO4F
_symmetry_space_group_name_H-M   'P 1'
_cell_length_a   6.33834074
_cell_length_b   7.26442978
_cell_length_c   9.15330247
_cell_angle_alpha   109.84276755
_cell_angle_beta   110.25704405
_cell_angle_gamma   64.13459329
_symmetry_Int_Tables_number   1
_chemical_formula_structural   LiCrPO4F
_chemical_formula_sum   'Li4 Cr4 P4 O16 F4'
_cell_volume   346.80811760
_cell_formula_units_Z   4
loop_
 _symmetry_equiv_pos_site_id
 _symmetry_equiv_pos_as_xyz
  1  'x, y, z'
loop_
 _atom_site_type_symbol
 _atom_site_label
 _atom_site_symmetry_multiplicity
 _atom_site_fract_x
 _atom_site_fract_y
 _atom_site_fract_z
 _atom_site_occupancy
  Li  Li0  1  0.88295452  0.71943756  0.70358975  1
  Li  Li1  1  0.66155355  0.54466560  0.38458976  1
  Li  Li2  1  0.10119767  0.21943756  0.20358975  1
  Li  Li3  1  0.17837061  0.04466560  0.88458976  1
  Cr  Cr4  1  0.11219575  0.80750509  0.35847415  1
  Cr  Cr5  1  0.83778792  0.59986826  0.01079969  1
  Cr  Cr6  1  0.43877231  0.30750509  0.85847415  1
  Cr  Cr7  1  0.57314352  0.09986826  0.51079969  1
  P  P8  1  0.29920240  0.70403172  0.06480783  1
  P  P9  1  0.41255120  0.63279278  0.68202374  1
  P  P10  1  0.63667977  0.13279278  0.18202374  1
  P  P11  1  0.06157371  0.20403172  0.56480783  1
  O  O12  1  0.20434372  0.93048767  0.06204667  1
  O  O13  1  0.81797332  0.89359899  0.16283088  1
  O  O14  1  0.34774492  0.66630589  0.23111290  1
  O  O15  1  0.18558376  0.76980678  0.74112753  1
  O  O16  1  0.39165115  0.66041683  0.51655569  1
  O  O17  1  0.64502510  0.67249872  0.79805587  1
  O  O18  1  0.13747993  0.57257404  0.94406083  1
  O  O19  1  0.54260102  0.56151652  0.01095448  1
  O  O20  1  0.92721528  0.43048767  0.56204667  1
  O  O21  1  0.45125857  0.39359899  0.66283088  1
  O  O22  1  0.78573599  0.26980678  0.24112753  1
  O  O23  1  0.46448771  0.16041683  0.01655569  1
  O  O24  1  0.48053105  0.17249872  0.29805587  1
  O  O25  1  0.23400686  0.07257404  0.44406083  1
  O  O26  1  0.21706209  0.16630589  0.73111290  1
  O  O27  1  0.90683694  0.06151652  0.51095448  1
  F  F28  1  0.71176205  0.80361674  0.45494373  1
  F  F29  1  0.00878408  0.55699481  0.24150749  1
  F  F30  1  0.93956494  0.30361674  0.95494373  1
  F  F31  1  0.67572860  0.05699481  0.74150749  1
