# generated using pymatgen
data_Li2MnF4
_symmetry_space_group_name_H-M   'P 1'
_cell_length_a   9.18006640
_cell_length_b   10.36827825
_cell_length_c   3.00681554
_cell_angle_alpha   90.00000000
_cell_angle_beta   90.00000000
_cell_angle_gamma   90.00000000
_symmetry_Int_Tables_number   1
_chemical_formula_structural   Li2MnF4
_chemical_formula_sum   'Li8 Mn4 F16'
_cell_volume   286.19316157
_cell_formula_units_Z   4
loop_
 _symmetry_equiv_pos_site_id
 _symmetry_equiv_pos_as_xyz
  1  'x, y, z'
loop_
 _atom_site_type_symbol
 _atom_site_label
 _atom_site_symmetry_multiplicity
 _atom_site_fract_x
 _atom_site_fract_y
 _atom_site_fract_z
 _atom_site_occupancy
  Li  Li0  1  0.07344564  0.61343166  0.75000000  1
  Li  Li1  1  0.06594060  0.11599429  0.75000000  1
  Li  Li2  1  0.43405940  0.61599429  0.25000000  1
  Li  Li3  1  0.42655436  0.11343166  0.25000000  1
  Li  Li4  1  0.57344564  0.88656834  0.75000000  1
  Li  Li5  1  0.56594060  0.38400571  0.75000000  1
  Li  Li6  1  0.93405940  0.88400571  0.25000000  1
  Li  Li7  1  0.92655436  0.38656834  0.25000000  1
  Mn  Mn8  1  0.25025617  0.34587434  0.75000000  1
  Mn  Mn9  1  0.24974383  0.84587434  0.25000000  1
  Mn  Mn10  1  0.75025617  0.15412566  0.75000000  1
  Mn  Mn11  1  0.74974383  0.65412566  0.25000000  1
  F  F12  1  0.03012112  0.72166144  0.25000000  1
  F  F13  1  0.09642844  0.93027258  0.75000000  1
  F  F14  1  0.12812013  0.46072866  0.25000000  1
  F  F15  1  0.21415506  0.19124988  0.25000000  1
  F  F16  1  0.28584494  0.69124988  0.75000000  1
  F  F17  1  0.37187987  0.96072866  0.75000000  1
  F  F18  1  0.40357156  0.43027258  0.25000000  1
  F  F19  1  0.46987888  0.22166144  0.75000000  1
  F  F20  1  0.53012112  0.77833856  0.25000000  1
  F  F21  1  0.59642844  0.56972742  0.75000000  1
  F  F22  1  0.62812013  0.03927134  0.25000000  1
  F  F23  1  0.71415506  0.30874912  0.25000000  1
  F  F24  1  0.78584494  0.80875012  0.75000000  1
  F  F25  1  0.87187987  0.53927134  0.75000000  1
  F  F26  1  0.90357156  0.06972742  0.25000000  1
  F  F27  1  0.96987888  0.27833856  0.75000000  1
