# generated using pymatgen
data_Mn12O5F19
_symmetry_space_group_name_H-M   'P 1'
_cell_length_a   4.85546921
_cell_length_b   5.83439372
_cell_length_c   15.96927790
_cell_angle_alpha   90.60632845
_cell_angle_beta   90.19502277
_cell_angle_gamma   89.00694881
_symmetry_Int_Tables_number   1
_chemical_formula_structural   Mn12O5F19
_chemical_formula_sum   'Mn12 O5 F19'
_cell_volume   452.29356769
_cell_formula_units_Z   1
loop_
 _symmetry_equiv_pos_site_id
 _symmetry_equiv_pos_as_xyz
  1  'x, y, z'
loop_
 _atom_site_type_symbol
 _atom_site_label
 _atom_site_symmetry_multiplicity
 _atom_site_fract_x
 _atom_site_fract_y
 _atom_site_fract_z
 _atom_site_occupancy
  Mn  Mn0  1  0.98422465  0.17215770  0.41133637  1
  Mn  Mn1  1  0.02423518  0.83543175  0.23771982  1
  Mn  Mn2  1  0.98733812  0.16446304  0.08009466  1
  Mn  Mn3  1  0.04533474  0.17159317  0.75111872  1
  Mn  Mn4  1  0.00555384  0.85424003  0.58767943  1
  Mn  Mn5  1  0.99321305  0.84019953  0.91730756  1
  Mn  Mn6  1  0.47846519  0.31627786  0.58687961  1
  Mn  Mn7  1  0.50467507  0.34308889  0.91833769  1
  Mn  Mn8  1  0.51447407  0.33701861  0.25561133  1
  Mn  Mn9  1  0.48420166  0.65133609  0.08265153  1
  Mn  Mn10  1  0.51879619  0.64983241  0.41630875  1
  Mn  Mn11  1  0.49731813  0.64012455  0.75176983  1
  O  O12  1  0.21556215  0.10778819  0.64556983  1
  O  O13  1  0.22282440  0.87895564  0.12921244  1
  O  O14  1  0.30550207  0.37689751  0.80765514  1
  O  O15  1  0.69988966  0.39147402  0.02837365  1
  O  O16  1  0.71751730  0.40264561  0.36694574  1
  F  F17  1  0.22397826  0.11126357  0.30433021  1
  F  F18  1  0.22403166  0.12348861  0.97037436  1
  F  F19  1  0.24404194  0.88741310  0.46865647  1
  F  F20  1  0.24502278  0.87766956  0.81058538  1
  F  F21  1  0.25524758  0.38904344  0.14607293  1
  F  F22  1  0.27159188  0.62188421  0.30966505  1
  F  F23  1  0.26368655  0.39511524  0.47389002  1
  F  F24  1  0.26744606  0.60947419  0.63964307  1
  F  F25  1  0.26151707  0.61094543  0.97454208  1
  F  F26  1  0.71748689  0.61735220  0.18983981  1
  F  F27  1  0.72949951  0.62023209  0.53093723  1
  F  F28  1  0.73156914  0.60748260  0.86310197  1
  F  F29  1  0.74338696  0.38818536  0.69155071  1
  F  F30  1  0.77465597  0.11218511  0.19178581  1
  F  F31  1  0.76393594  0.10291827  0.52366863  1
  F  F32  1  0.77427715  0.88419500  0.35281123  1
  F  F33  1  0.74069179  0.89403785  0.02402780  1
  F  F34  1  0.79985348  0.13076351  0.85604278  1
  F  F35  1  0.76895092  0.88282707  0.70390432  1
