# generated using pymatgen
data_Li2Fe3Co7O20
_symmetry_space_group_name_H-M   'P 1'
_cell_length_a   20.51243681
_cell_length_b   2.88056330
_cell_length_c   5.86505914
_cell_angle_alpha   90.00000000
_cell_angle_beta   82.59064312
_cell_angle_gamma   90.00000000
_symmetry_Int_Tables_number   1
_chemical_formula_structural   Li2Fe3Co7O20
_chemical_formula_sum   'Li2 Fe3 Co7 O20'
_cell_volume   343.65727470
_cell_formula_units_Z   1
loop_
 _symmetry_equiv_pos_site_id
 _symmetry_equiv_pos_as_xyz
  1  'x, y, z'
loop_
 _atom_site_type_symbol
 _atom_site_label
 _atom_site_symmetry_multiplicity
 _atom_site_fract_x
 _atom_site_fract_y
 _atom_site_fract_z
 _atom_site_occupancy
  Li  Li0  1  0.10000000  0.50000000  0.20000000  1
  Li  Li1  1  0.60000000  0.00000000  0.20000000  1
  Fe  Fe2  1  0.39787501  0.00000000  0.29878810  1
  Fe  Fe3  1  0.60000000  0.00000000  0.70000000  1
  Fe  Fe4  1  0.80212499  0.00000000  0.10121190  1
  Co  Co5  1  0.99883652  0.00000000  0.51811648  1
  Co  Co6  1  0.10000000  0.50000000  0.70000000  1
  Co  Co7  1  0.20116348  0.00000000  0.88188352  1
  Co  Co8  1  0.29686064  0.50000000  0.09648043  1
  Co  Co9  1  0.49752429  0.50000000  0.50750234  1
  Co  Co10  1  0.70247571  0.50000000  0.89249766  1
  Co  Co11  1  0.90313936  0.50000000  0.30351957  1
  O  O12  1  0.00784209  0.50000000  0.71885267  1
  O  O13  1  0.09256950  0.00000000  0.48514467  1
  O  O14  1  0.10743050  0.00000000  0.91485533  1
  O  O15  1  0.20376166  0.50000000  0.09509209  1
  O  O16  1  0.19215791  0.50000000  0.68114733  1
  O  O17  1  0.29924966  0.00000000  0.30266537  1
  O  O18  1  0.29196808  0.00000000  0.88705962  1
  O  O19  1  0.38744460  0.50000000  0.07941785  1
  O  O20  1  0.40770127  0.50000000  0.51712570  1
  O  O21  1  0.49768781  0.00000000  0.29419200  1
  O  O22  1  0.50241397  0.00000000  0.71158932  1
  O  O23  1  0.59089824  0.50000000  0.46922102  1
  O  O24  1  0.60910176  0.50000000  0.93077898  1
  O  O25  1  0.70231219  0.00000000  0.10580800  1
  O  O26  1  0.69758603  0.00000000  0.68841068  1
  O  O27  1  0.81255540  0.50000000  0.32058215  1
  O  O28  1  0.79229873  0.50000000  0.88287430  1
  O  O29  1  0.90075034  0.00000000  0.09733463  1
  O  O30  1  0.90803192  0.00000000  0.51294038  1
  O  O31  1  0.99623834  0.50000000  0.30490791  1
