# generated using pymatgen
data_LiCo2CuO6
_symmetry_space_group_name_H-M   'P 1'
_cell_length_a   2.84452281
_cell_length_b   6.49731937
_cell_length_c   5.87478458
_cell_angle_alpha   103.84717520
_cell_angle_beta   89.99999255
_cell_angle_gamma   102.64441576
_symmetry_Int_Tables_number   1
_chemical_formula_structural   LiCo2CuO6
_chemical_formula_sum   'Li1 Co2 Cu1 O6'
_cell_volume   102.70680414
_cell_formula_units_Z   1
loop_
 _symmetry_equiv_pos_site_id
 _symmetry_equiv_pos_as_xyz
  1  'x, y, z'
loop_
 _atom_site_type_symbol
 _atom_site_label
 _atom_site_symmetry_multiplicity
 _atom_site_fract_x
 _atom_site_fract_y
 _atom_site_fract_z
 _atom_site_occupancy
  Li  Li0  1  0.33333300  0.66666700  0.16666700  1
  Co  Co1  1  0.00622605  0.01245310  0.99427590  1
  Co  Co2  1  0.66043995  0.32087990  0.33905810  1
  Cu  Cu3  1  0.33333300  0.66666700  0.66666700  1
  O  O4  1  0.49787008  0.99574016  0.78643046  1
  O  O5  1  0.81263693  0.62527386  0.42200320  1
  O  O6  1  0.15868025  0.31736051  0.12020176  1
  O  O7  1  0.85402907  0.70805914  0.91132980  1
  O  O8  1  0.16879692  0.33759284  0.54690254  1
  O  O9  1  0.50798675  0.01597249  0.21313124  1
