# generated using pymatgen
data_LiMnF4
_symmetry_space_group_name_H-M   'P 1'
_cell_length_a   6.91073804
_cell_length_b   8.42097802
_cell_length_c   9.72133723
_cell_angle_alpha   96.95617809
_cell_angle_beta   106.85968688
_cell_angle_gamma   100.80421310
_symmetry_Int_Tables_number   1
_chemical_formula_structural   LiMnF4
_chemical_formula_sum   'Li6 Mn6 F24'
_cell_volume   522.47324252
_cell_formula_units_Z   6
loop_
 _symmetry_equiv_pos_site_id
 _symmetry_equiv_pos_as_xyz
  1  'x, y, z'
loop_
 _atom_site_type_symbol
 _atom_site_label
 _atom_site_symmetry_multiplicity
 _atom_site_fract_x
 _atom_site_fract_y
 _atom_site_fract_z
 _atom_site_occupancy
  Li  Li0  1  0.00359183  0.01264322  0.26649131  1
  Li  Li1  1  0.18981442  0.59941210  0.34913743  1
  Li  Li2  1  0.47705130  0.68212962  0.86506630  1
  Li  Li3  1  0.52294870  0.31787038  0.13493370  1
  Li  Li4  1  0.81018558  0.40058790  0.65086257  1
  Li  Li5  1  0.99640817  0.98735678  0.73350869  1
  Mn  Mn6  1  0.03640893  0.69578416  0.99079835  1
  Mn  Mn7  1  0.23671434  0.30989594  0.57469957  1
  Mn  Mn8  1  0.46985281  0.90123128  0.23084776  1
  Mn  Mn9  1  0.53014719  0.09876872  0.76915224  1
  Mn  Mn10  1  0.76328566  0.69010406  0.42530043  1
  Mn  Mn11  1  0.96359107  0.30421584  0.00920165  1
  F  F12  1  0.04487989  0.83486846  0.86018100  1
  F  F13  1  0.04535775  0.72336428  0.42875674  1
  F  F14  1  0.04647213  0.55309162  0.13535825  1
  F  F15  1  0.18398745  0.89549803  0.19261195  1
  F  F16  1  0.26216773  0.12620187  0.74487853  1
  F  F17  1  0.32642019  0.49081228  0.72482626  1
  F  F18  1  0.46900070  0.88719334  0.79670186  1
  F  F19  1  0.18184306  0.11112337  0.45063693  1
  F  F20  1  0.27262234  0.42781996  0.42467503  1
  F  F21  1  0.45118592  0.73531297  0.34611425  1
  F  F22  1  0.33488788  0.72133406  0.02710126  1
  F  F23  1  0.23671509  0.30371062  0.02851815  1
  F  F24  1  0.76328491  0.69628938  0.97148185  1
  F  F25  1  0.66511212  0.27866594  0.97289874  1
  F  F26  1  0.54881408  0.26468703  0.65388575  1
  F  F27  1  0.72737766  0.57218004  0.57532497  1
  F  F28  1  0.81815694  0.88887663  0.54936307  1
  F  F29  1  0.53099930  0.11280666  0.20329814  1
  F  F30  1  0.67357981  0.50918772  0.27517374  1
  F  F31  1  0.73783227  0.87379813  0.25512147  1
  F  F32  1  0.81601255  0.10450197  0.80738805  1
  F  F33  1  0.95352787  0.44690838  0.86464175  1
  F  F34  1  0.95464225  0.27663572  0.57124326  1
  F  F35  1  0.95512011  0.16513154  0.13981900  1
