# generated using pymatgen
data_LiMn2OF3
_symmetry_space_group_name_H-M   'P 1'
_cell_length_a   8.43380424
_cell_length_b   8.43380424
_cell_length_c   6.19112464
_cell_angle_alpha   68.47490136
_cell_angle_beta   111.52509864
_cell_angle_gamma   115.87349603
_symmetry_Int_Tables_number   1
_chemical_formula_structural   LiMn2OF3
_chemical_formula_sum   'Li4 Mn8 O4 F12'
_cell_volume   357.16539499
_cell_formula_units_Z   4
loop_
 _symmetry_equiv_pos_site_id
 _symmetry_equiv_pos_as_xyz
  1  'x, y, z'
loop_
 _atom_site_type_symbol
 _atom_site_label
 _atom_site_symmetry_multiplicity
 _atom_site_fract_x
 _atom_site_fract_y
 _atom_site_fract_z
 _atom_site_occupancy
  Li  Li0  1  0.75662986  0.53335531  0.11162364  1
  Li  Li1  1  0.03335531  0.25662986  0.38837636  1
  Li  Li2  1  0.98551965  0.74434996  0.62059352  1
  Li  Li3  1  0.24434996  0.48551965  0.87940648  1
  Mn  Mn4  1  0.98449548  0.98580171  0.99933608  1
  Mn  Mn5  1  0.38073843  0.11699964  0.38976671  1
  Mn  Mn6  1  0.61699964  0.88073843  0.11023329  1
  Mn  Mn7  1  0.21986031  0.71986031  0.25000000  1
  Mn  Mn8  1  0.48580171  0.48449548  0.50066392  1
  Mn  Mn9  1  0.78305110  0.28305110  0.75000000  1
  Mn  Mn10  1  0.38075132  0.11700033  0.87401275  1
  Mn  Mn11  1  0.61700033  0.88075132  0.62598725  1
  O  O12  1  0.74018160  0.78111811  0.97948556  1
  O  O13  1  0.28111811  0.24018160  0.52051444  1
  O  O14  1  0.54288037  0.04288037  0.75000000  1
  O  O15  1  0.46156113  0.96156113  0.25000000  1
  F  F16  1  0.88705065  0.13447720  0.12089493  1
  F  F17  1  0.99256931  0.49256931  0.25000000  1
  F  F18  1  0.63447720  0.38705065  0.37910507  1
  F  F19  1  0.36891003  0.61753073  0.13310208  1
  F  F20  1  0.88713139  0.13445499  0.63176952  1
  F  F21  1  0.72331947  0.74129840  0.49098395  1
  F  F22  1  0.11753073  0.86891003  0.36689792  1
  F  F23  1  0.36885967  0.61758877  0.61824839  1
  F  F24  1  0.63445499  0.38713139  0.86823048  1
  F  F25  1  0.01251509  0.51251509  0.75000000  1
  F  F26  1  0.24129840  0.22331947  0.00901605  1
  F  F27  1  0.11758877  0.86885967  0.88175161  1
