# generated using pymatgen
data_Li2MnF4
_symmetry_space_group_name_H-M   'P 1'
_cell_length_a   9.46915626
_cell_length_b   5.97137054
_cell_length_c   5.28365244
_cell_angle_alpha   90.00000000
_cell_angle_beta   90.00000000
_cell_angle_gamma   90.00000000
_symmetry_Int_Tables_number   1
_chemical_formula_structural   Li2MnF4
_chemical_formula_sum   'Li8 Mn4 F16'
_cell_volume   298.75800204
_cell_formula_units_Z   4
loop_
 _symmetry_equiv_pos_site_id
 _symmetry_equiv_pos_as_xyz
  1  'x, y, z'
loop_
 _atom_site_type_symbol
 _atom_site_label
 _atom_site_symmetry_multiplicity
 _atom_site_fract_x
 _atom_site_fract_y
 _atom_site_fract_z
 _atom_site_occupancy
  Li  Li0  1  0.00000000  0.00000000  0.00000000  1
  Li  Li1  1  0.00000000  0.50000000  0.00000000  1
  Li  Li2  1  0.21795060  0.75000000  0.46446193  1
  Li  Li3  1  0.28204940  0.25000000  0.96446193  1
  Li  Li4  1  0.50000000  0.00000000  0.50000000  1
  Li  Li5  1  0.50000000  0.50000000  0.50000000  1
  Li  Li6  1  0.71795060  0.75000000  0.03553807  1
  Li  Li7  1  0.78204940  0.25000000  0.53553807  1
  Mn  Mn8  1  0.15756452  0.25000000  0.46936352  1
  Mn  Mn9  1  0.34243548  0.75000000  0.96936352  1
  Mn  Mn10  1  0.65756452  0.25000000  0.03063648  1
  Mn  Mn11  1  0.84243548  0.75000000  0.53063648  1
  F  F12  1  0.04813808  0.75000000  0.68286688  1
  F  F13  1  0.07269861  0.25000000  0.82427978  1
  F  F14  1  0.19553148  0.99208000  0.19136820  1
  F  F15  1  0.19553148  0.50792000  0.19136820  1
  F  F16  1  0.30446852  0.49208000  0.69136820  1
  F  F17  1  0.30446852  0.00792000  0.69136820  1
  F  F18  1  0.42730139  0.75000000  0.32427978  1
  F  F19  1  0.45186192  0.25000000  0.18286688  1
  F  F20  1  0.54813808  0.75000000  0.81713312  1
  F  F21  1  0.57269861  0.25000000  0.67572022  1
  F  F22  1  0.69553148  0.99208000  0.30863180  1
  F  F23  1  0.69553148  0.50792000  0.30863180  1
  F  F24  1  0.80446852  0.49208000  0.80863180  1
  F  F25  1  0.80446852  0.00792000  0.80863180  1
  F  F26  1  0.92730139  0.75000000  0.17572022  1
  F  F27  1  0.95186192  0.25000000  0.31713312  1
