# generated using pymatgen
data_Mn3CoCu2(PO4)6
_symmetry_space_group_name_H-M   'P 1'
_cell_length_a   8.49044733
_cell_length_b   8.47257933
_cell_length_c   8.47257903
_cell_angle_alpha   59.99999933
_cell_angle_beta   60.06959306
_cell_angle_gamma   60.06959147
_symmetry_Int_Tables_number   1
_chemical_formula_structural   Mn3CoCu2(PO4)6
_chemical_formula_sum   'Mn3 Co1 Cu2 P6 O24'
_cell_volume   431.42258106
_cell_formula_units_Z   1
loop_
 _symmetry_equiv_pos_site_id
 _symmetry_equiv_pos_as_xyz
  1  'x, y, z'
loop_
 _atom_site_type_symbol
 _atom_site_label
 _atom_site_symmetry_multiplicity
 _atom_site_fract_x
 _atom_site_fract_y
 _atom_site_fract_z
 _atom_site_occupancy
  Mn  Mn0  1  0.07307780  0.64230773  0.64230773  1
  Mn  Mn1  1  0.42519422  0.85826859  0.85826859  1
  Mn  Mn2  1  0.92656433  0.35781222  0.35781222  1
  Co  Co3  1  0.57808794  0.14063802  0.14063802  1
  Cu  Cu4  1  0.99419258  0.00193581  0.00193581  1
  Cu  Cu5  1  0.49930273  0.50023209  0.50023209  1
  P  P6  1  0.25302448  0.24903594  0.53516339  1
  P  P7  1  0.25302448  0.96277619  0.24903594  1
  P  P8  1  0.25302448  0.53516339  0.96277619  1
  P  P9  1  0.74919704  0.45896406  0.03903617  1
  P  P10  1  0.74919704  0.03903617  0.75280273  1
  P  P11  1  0.74919704  0.75280273  0.45896406  1
  O  O12  1  0.06416473  0.12308269  0.30268555  1
  O  O13  1  0.06416473  0.51006703  0.12308269  1
  O  O14  1  0.06416473  0.30268555  0.51006703  1
  O  O15  1  0.23595213  0.08212720  0.73640259  1
  O  O16  1  0.43812705  0.19787002  0.37419462  1
  O  O17  1  0.26294776  0.41956542  0.55403729  1
  O  O18  1  0.23595213  0.94551808  0.08212720  1
  O  O19  1  0.26294776  0.76344953  0.41956542  1
  O  O20  1  0.56386451  0.62307824  0.01038001  1
  O  O21  1  0.26294776  0.55403729  0.76344953  1
  O  O22  1  0.76217186  0.26146954  0.05566561  1
  O  O23  1  0.56386451  0.01038001  0.80267724  1
  O  O24  1  0.43812705  0.98980830  0.19787002  1
  O  O25  1  0.23595213  0.73640259  0.94551808  1
  O  O26  1  0.73645882  0.44539866  0.23660328  1
  O  O27  1  0.43812705  0.37419462  0.98980830  1
  O  O28  1  0.73645882  0.23660328  0.58153923  1
  O  O29  1  0.76217186  0.05566561  0.92069399  1
  O  O30  1  0.73645882  0.58153923  0.44539866  1
  O  O31  1  0.56386451  0.80267724  0.62307824  1
  O  O32  1  0.76217186  0.92069399  0.26146954  1
  O  O33  1  0.93528608  0.69825908  0.48978450  1
  O  O34  1  0.93528608  0.48978450  0.87667034  1
  O  O35  1  0.93528608  0.87667034  0.69825908  1
