# generated using pymatgen
data_Ca3V10O25
_symmetry_space_group_name_H-M   'P 1'
_cell_length_a   6.30581814
_cell_length_b   18.10158857
_cell_length_c   9.17301558
_cell_angle_alpha   86.11053584
_cell_angle_beta   101.15653167
_cell_angle_gamma   91.82240470
_symmetry_Int_Tables_number   1
_chemical_formula_structural   Ca3V10O25
_chemical_formula_sum   'Ca6 V20 O50'
_cell_volume   1024.71718880
_cell_formula_units_Z   2
loop_
 _symmetry_equiv_pos_site_id
 _symmetry_equiv_pos_as_xyz
  1  'x, y, z'
loop_
 _atom_site_type_symbol
 _atom_site_label
 _atom_site_symmetry_multiplicity
 _atom_site_fract_x
 _atom_site_fract_y
 _atom_site_fract_z
 _atom_site_occupancy
  Ca  Ca0  1  0.20692915  0.84769639  0.49328009  1
  Ca  Ca1  1  0.04780466  0.65862417  0.49622900  1
  Ca  Ca2  1  0.58904116  0.94811133  0.50694271  1
  Ca  Ca3  1  0.85386678  0.46285711  0.50007727  1
  Ca  Ca4  1  0.59725436  0.27884247  0.49587140  1
  Ca  Ca5  1  0.80904230  0.12456812  0.50638772  1
  V  V6  1  0.17318384  0.98093944  0.16199457  1
  V  V7  1  0.38129992  0.95751580  0.84283464  1
  V  V8  1  0.17481782  0.75633109  0.84992519  1
  V  V9  1  0.03236025  0.44253338  0.15310787  1
  V  V10  1  0.22161305  0.64112651  0.15680223  1
  V  V11  1  0.41678209  0.84161599  0.15668459  1
  V  V12  1  0.43669992  0.61875949  0.84157100  1
  V  V13  1  0.62539376  0.81760093  0.83898358  1
  V  V14  1  0.03428418  0.21912256  0.83996767  1
  V  V15  1  0.23652174  0.42003662  0.84427185  1
  V  V16  1  0.57198223  0.38314787  0.15163493  1
  V  V17  1  0.76118224  0.58179128  0.15391973  1
  V  V18  1  0.36490425  0.18179186  0.16129393  1
  V  V19  1  0.95452088  0.78210798  0.14150241  1
  V  V20  1  0.97763994  0.55766299  0.84500325  1
  V  V21  1  0.58131266  0.15900470  0.84189947  1
  V  V22  1  0.78065676  0.35844195  0.84798107  1
  V  V23  1  0.81829864  0.24198771  0.15733939  1
  V  V24  1  0.62141868  0.04304059  0.14795621  1
  V  V25  1  0.84535256  0.01575619  0.86206437  1
  O  O26  1  0.11462401  0.98747736  0.89994892  1
  O  O27  1  0.22826662  0.96860037  0.35220547  1
  O  O28  1  0.00415112  0.77030952  0.33608653  1
  O  O29  1  0.09278494  0.76211610  0.65863703  1
  O  O30  1  0.30548236  0.95626731  0.65448878  1
  O  O31  1  0.11369934  0.87291916  0.13832955  1
  O  O32  1  0.14616884  0.64826532  0.89355758  1
  O  O33  1  0.34579092  0.84977888  0.89205643  1
  O  O34  1  0.25536449  0.74855155  0.10651438  1
  O  O35  1  0.45175936  0.95041202  0.10773982  1
  O  O36  1  0.05410121  0.54664394  0.10649282  1
  O  O37  1  0.47555977  0.72153953  0.86555185  1
  O  O38  1  0.27982720  0.52353078  0.86955478  1
  O  O39  1  0.68462380  0.92644873  0.86456695  1
  O  O40  1  0.07857654  0.32431557  0.86662465  1
  O  O41  1  0.08670220  0.43439921  0.33730132  1
  O  O42  1  0.49151240  0.84348048  0.34516165  1
  O  O43  1  0.28628682  0.63349324  0.34167198  1
  O  O44  1  0.56684559  0.83118726  0.64852903  1
  O  O45  1  0.37830633  0.62301812  0.65779375  1
  O  O46  1  0.18484486  0.42373937  0.65978335  1
  O  O47  1  0.91381911  0.78580837  0.91448659  1
  O  O48  1  0.30128175  0.18920562  0.88684974  1
  O  O49  1  0.50615323  0.38848488  0.90439593  1
  O  O50  1  0.70652472  0.58796627  0.89619801  1
  O  O51  1  0.27417574  0.41379413  0.10236351  1
  O  O52  1  0.49500238  0.61120614  0.10540544  1
  O  O53  1  0.09752841  0.21198442  0.11245193  1
  O  O54  1  0.68594759  0.81158418  0.10249531  1
  O  O55  1  0.81393065  0.57462254  0.34417815  1
  O  O56  1  0.61501313  0.38200437  0.34336443  1
  O  O57  1  0.43597155  0.17914533  0.34918671  1
  O  O58  1  0.53207323  0.17320964  0.65266543  1
  O  O59  1  0.70358395  0.37018278  0.65796877  1
  O  O60  1  0.90903516  0.56527761  0.65508621  1
  O  O61  1  0.32449108  0.07891216  0.13818417  1
  O  O62  1  0.91633727  0.67206597  0.13216309  1
  O  O63  1  0.51783595  0.27499463  0.13311885  1
  O  O64  1  0.72348124  0.47825090  0.12898788  1
  O  O65  1  0.75012108  0.25161426  0.89568087  1
  O  O66  1  0.54239833  0.05216552  0.89079251  1
  O  O67  1  0.94564229  0.45022461  0.88817097  1
  O  O68  1  0.65113067  0.15083925  0.10277120  1
  O  O69  1  0.85650314  0.35173204  0.10880912  1
  O  O70  1  0.88295189  0.12693097  0.86579421  1
  O  O71  1  0.86907380  0.22927108  0.34662396  1
  O  O72  1  0.71112899  0.03346220  0.33941890  1
  O  O73  1  0.79889879  0.02433576  0.66512578  1
  O  O74  1  0.96723277  0.22419941  0.65169250  1
  O  O75  1  0.88458259  0.01442463  0.08451008  1
