# generated using pymatgen
data_Li7V2P7O24
_symmetry_space_group_name_H-M   'P 1'
_cell_length_a   15.18928999
_cell_length_b   5.20355253
_cell_length_c   11.73612768
_cell_angle_alpha   90.00000000
_cell_angle_beta   96.79480653
_cell_angle_gamma   90.00000000
_symmetry_Int_Tables_number   1
_chemical_formula_structural   Li7V2P7O24
_chemical_formula_sum   'Li14 V4 P14 O48'
_cell_volume   921.08794323
_cell_formula_units_Z   2
loop_
 _symmetry_equiv_pos_site_id
 _symmetry_equiv_pos_as_xyz
  1  'x, y, z'
loop_
 _atom_site_type_symbol
 _atom_site_label
 _atom_site_symmetry_multiplicity
 _atom_site_fract_x
 _atom_site_fract_y
 _atom_site_fract_z
 _atom_site_occupancy
  Li  Li0  1  0.04966273  0.73961830  0.51626013  1
  Li  Li1  1  0.13558443  0.79188107  0.88353213  1
  Li  Li2  1  0.04966273  0.26038170  0.01626013  1
  Li  Li3  1  0.13558443  0.20811893  0.38353213  1
  Li  Li4  1  0.40872898  0.15816112  0.56274748  1
  Li  Li5  1  0.40872898  0.84183888  0.06274748  1
  Li  Li6  1  0.50000000  0.71164300  0.75000000  1
  Li  Li7  1  0.50000000  0.28835700  0.25000000  1
  Li  Li8  1  0.59127102  0.15816112  0.93725252  1
  Li  Li9  1  0.59127102  0.84183888  0.43725252  1
  Li  Li10  1  0.86441557  0.79188107  0.61646787  1
  Li  Li11  1  0.95033727  0.73961830  0.98373987  1
  Li  Li12  1  0.86441557  0.20811893  0.11646787  1
  Li  Li13  1  0.95033727  0.26038170  0.48373987  1
  V  V14  1  0.27851957  0.63752595  0.68913319  1
  V  V15  1  0.27851957  0.36247405  0.18913319  1
  V  V16  1  0.72148043  0.63752595  0.81086681  1
  V  V17  1  0.72148043  0.36247405  0.31086681  1
  P  P18  1  0.00000000  0.43199391  0.75000000  1
  P  P19  1  0.00000000  0.56800609  0.25000000  1
  P  P20  1  0.14072321  0.12402740  0.65786727  1
  P  P21  1  0.14072321  0.87597260  0.15786727  1
  P  P22  1  0.27838210  0.38881976  0.95242086  1
  P  P23  1  0.27838210  0.61118024  0.45242086  1
  P  P24  1  0.39160929  0.15010106  0.80348017  1
  P  P25  1  0.39160929  0.84989894  0.30348017  1
  P  P26  1  0.60839071  0.15010106  0.69651983  1
  P  P27  1  0.60839071  0.84989894  0.19651983  1
  P  P28  1  0.72161790  0.38881976  0.54757914  1
  P  P29  1  0.72161790  0.61118024  0.04757914  1
  P  P30  1  0.85927679  0.12402740  0.84213273  1
  P  P31  1  0.85927679  0.87597260  0.34213273  1
  O  O32  1  0.01497334  0.57663210  0.86250648  1
  O  O33  1  0.01497334  0.42336790  0.36250648  1
  O  O34  1  0.08199117  0.23840576  0.75552908  1
  O  O35  1  0.08016906  0.10651163  0.54458098  1
  O  O36  1  0.08199117  0.76159424  0.25552908  1
  O  O37  1  0.08016906  0.89348837  0.04458098  1
  O  O38  1  0.16788648  0.86560559  0.71513698  1
  O  O39  1  0.20366860  0.28372610  0.01558921  1
  O  O40  1  0.21743524  0.30292531  0.65233918  1
  O  O41  1  0.16788648  0.13439441  0.21513698  1
  O  O42  1  0.20366860  0.71627390  0.51558921  1
  O  O43  1  0.24942413  0.59161346  0.86145986  1
  O  O44  1  0.21743524  0.69707469  0.15233918  1
  O  O45  1  0.24942413  0.40838654  0.36145986  1
  O  O46  1  0.31452473  0.14010339  0.88956399  1
  O  O47  1  0.31452473  0.85989661  0.38956399  1
  O  O48  1  0.35967329  0.96769931  0.70322091  1
  O  O49  1  0.35172103  0.52036052  0.54583329  1
  O  O50  1  0.39648762  0.43461040  0.76508754  1
  O  O51  1  0.35967329  0.03230069  0.20322091  1
  O  O52  1  0.35172103  0.47963948  0.04583329  1
  O  O53  1  0.39648762  0.56538960  0.26508754  1
  O  O54  1  0.47428636  0.04707507  0.87317064  1
  O  O55  1  0.47428636  0.95292493  0.37317064  1
  O  O56  1  0.52571364  0.04707507  0.62682936  1
  O  O57  1  0.52571364  0.95292493  0.12682936  1
  O  O58  1  0.60351238  0.43461040  0.73491246  1
  O  O59  1  0.64827897  0.52036052  0.95416671  1
  O  O60  1  0.64032671  0.96769931  0.79677909  1
  O  O61  1  0.60351238  0.56538960  0.23491246  1
  O  O62  1  0.64827897  0.47963948  0.45416671  1
  O  O63  1  0.64032671  0.03230069  0.29677909  1
  O  O64  1  0.68547527  0.14010339  0.61043601  1
  O  O65  1  0.68547527  0.85989661  0.11043601  1
  O  O66  1  0.75057587  0.59161346  0.63854014  1
  O  O67  1  0.78256476  0.30292531  0.84766082  1
  O  O68  1  0.75057587  0.40838654  0.13854014  1
  O  O69  1  0.79633140  0.28372610  0.48441079  1
  O  O70  1  0.83211352  0.86560559  0.78486302  1
  O  O71  1  0.78256476  0.69707469  0.34766082  1
  O  O72  1  0.79633140  0.71627390  0.98441079  1
  O  O73  1  0.83211352  0.13439441  0.28486302  1
  O  O74  1  0.91983094  0.10651163  0.95541902  1
  O  O75  1  0.91800883  0.23840576  0.74447092  1
  O  O76  1  0.91983094  0.89348837  0.45541902  1
  O  O77  1  0.91800883  0.76159424  0.24447092  1
  O  O78  1  0.98502666  0.57663210  0.63749352  1
  O  O79  1  0.98502666  0.42336790  0.13749352  1
