# generated using pymatgen
data_Li2Co2Si2O7
_symmetry_space_group_name_H-M   'P 1'
_cell_length_a   5.08450110
_cell_length_b   4.88177261
_cell_length_c   13.13370819
_cell_angle_alpha   90.00000000
_cell_angle_beta   90.00000000
_cell_angle_gamma   121.38350095
_symmetry_Int_Tables_number   1
_chemical_formula_structural   Li2Co2Si2O7
_chemical_formula_sum   'Li4 Co4 Si4 O14'
_cell_volume   278.30367404
_cell_formula_units_Z   2
loop_
 _symmetry_equiv_pos_site_id
 _symmetry_equiv_pos_as_xyz
  1  'x, y, z'
loop_
 _atom_site_type_symbol
 _atom_site_label
 _atom_site_symmetry_multiplicity
 _atom_site_fract_x
 _atom_site_fract_y
 _atom_site_fract_z
 _atom_site_occupancy
  Li  Li0  1  0.33896629  0.58979566  0.58481385  1
  Li  Li1  1  0.33896629  0.58979566  0.91518615  1
  Li  Li2  1  0.74917063  0.41020434  0.08481385  1
  Li  Li3  1  0.74917063  0.41020434  0.41518615  1
  Co  Co4  1  0.03019740  0.00000000  0.00000000  1
  Co  Co5  1  0.03019740  0.00000000  0.50000000  1
  Co  Co6  1  0.01166086  0.01152618  0.25000000  1
  Co  Co7  1  0.00013468  0.98847382  0.75000000  1
  Si  Si8  1  0.40072238  0.70693057  0.13655629  1
  Si  Si9  1  0.40072238  0.70693057  0.36344371  1
  Si  Si10  1  0.69379182  0.29306943  0.63655629  1
  Si  Si11  1  0.69379182  0.29306943  0.86344371  1
  O  O12  1  0.14097124  0.80737268  0.13544124  1
  O  O13  1  0.14097124  0.80737268  0.36455876  1
  O  O14  1  0.37311251  0.52652634  0.25000000  1
  O  O15  1  0.72457246  0.97268128  0.87012726  1
  O  O16  1  0.72457246  0.97268128  0.62987274  1
  O  O17  1  0.37327264  0.45206984  0.05229258  1
  O  O18  1  0.37327264  0.45206984  0.44770742  1
  O  O19  1  0.33359856  0.19262732  0.86455876  1
  O  O20  1  0.33359856  0.19262732  0.63544124  1
  O  O21  1  0.84658617  0.47347366  0.75000000  1
  O  O22  1  0.75189118  0.02731872  0.37012726  1
  O  O23  1  0.75189118  0.02731872  0.12987274  1
  O  O24  1  0.92120280  0.54793016  0.55229258  1
  O  O25  1  0.92120280  0.54793016  0.94770742  1
