# generated using pymatgen
data_Li4Cr3Co3(NiO8)2
_symmetry_space_group_name_H-M   'P 1'
_cell_length_a   5.75418964
_cell_length_b   5.76753402
_cell_length_c   9.56453573
_cell_angle_alpha   89.98992002
_cell_angle_beta   89.99723362
_cell_angle_gamma   120.08509458
_symmetry_Int_Tables_number   1
_chemical_formula_structural   Li4Cr3Co3(NiO8)2
_chemical_formula_sum   'Li4 Cr3 Co3 Ni2 O16'
_cell_volume   274.66025300
_cell_formula_units_Z   1
loop_
 _symmetry_equiv_pos_site_id
 _symmetry_equiv_pos_as_xyz
  1  'x, y, z'
loop_
 _atom_site_type_symbol
 _atom_site_label
 _atom_site_symmetry_multiplicity
 _atom_site_fract_x
 _atom_site_fract_y
 _atom_site_fract_z
 _atom_site_occupancy
  Li  Li0  1  0.34018105  0.67009256  0.89153778  1
  Li  Li1  1  0.98983307  0.99491857  0.99643925  1
  Li  Li2  1  0.99098322  0.99546585  0.49887197  1
  Li  Li3  1  0.67399211  0.33706662  0.39622579  1
  Cr  Cr4  1  0.16809088  0.83150531  0.21443064  1
  Cr  Cr5  1  0.16813866  0.33664336  0.21442511  1
  Cr  Cr6  1  0.33766142  0.16883763  0.71444869  1
  Co  Co7  1  0.66162900  0.83087053  0.21418037  1
  Co  Co8  1  0.83211109  0.66300963  0.71347415  1
  Co  Co9  1  0.83209186  0.16914012  0.71348186  1
  Ni  Ni10  1  0.33356377  0.66660859  0.49150073  1
  Ni  Ni11  1  0.66660557  0.33323493  0.98932797  1
  O  O12  1  0.15688146  0.83981099  0.60879392  1
  O  O13  1  0.03717055  0.51856854  0.32878130  1
  O  O14  1  0.33895736  0.66955701  0.10407070  1
  O  O15  1  0.99041559  0.99519614  0.31458811  1
  O  O16  1  0.99036083  0.99518048  0.81165966  1
  O  O17  1  0.15689127  0.31709413  0.60879838  1
  O  O18  1  0.48617001  0.96438196  0.32893596  1
  O  O19  1  0.48614268  0.52183824  0.32896128  1
  O  O20  1  0.31920047  0.15966558  0.10789533  1
  O  O21  1  0.68212680  0.84110049  0.61285243  1
  O  O22  1  0.52241836  0.48511150  0.82668602  1
  O  O23  1  0.52241195  0.03734614  0.82667589  1
  O  O24  1  0.67491637  0.33749448  0.60735129  1
  O  O25  1  0.83865997  0.68184197  0.10943513  1
  O  O26  1  0.96368882  0.48184599  0.82460086  1
  O  O27  1  0.83870679  0.15687164  0.10940645  1
