# generated using pymatgen
data_Li3V2(CO5)2
_symmetry_space_group_name_H-M   'P 1'
_cell_length_a   9.58908829
_cell_length_b   11.90259029
_cell_length_c   5.76585753
_cell_angle_alpha   90.00012636
_cell_angle_beta   90.00000000
_cell_angle_gamma   90.00000000
_symmetry_Int_Tables_number   1
_chemical_formula_structural   Li3V2(CO5)2
_chemical_formula_sum   'Li12 V8 C8 O40'
_cell_volume   658.08608674
_cell_formula_units_Z   4
loop_
 _symmetry_equiv_pos_site_id
 _symmetry_equiv_pos_as_xyz
  1  'x, y, z'
loop_
 _atom_site_type_symbol
 _atom_site_label
 _atom_site_symmetry_multiplicity
 _atom_site_fract_x
 _atom_site_fract_y
 _atom_site_fract_z
 _atom_site_occupancy
  Li  Li0  1  0.00287247  0.49654344  0.99556786  1
  Li  Li1  1  0.00287005  0.49654217  0.50443192  1
  Li  Li2  1  0.99789081  0.00155674  0.75000497  1
  Li  Li3  1  0.00337122  0.27912931  0.24999739  1
  Li  Li4  1  0.49662878  0.77912931  0.24999739  1
  Li  Li5  1  0.50210919  0.50155674  0.75000497  1
  Li  Li6  1  0.49712753  0.99654344  0.99556786  1
  Li  Li7  1  0.49712995  0.99654217  0.50443192  1
  Li  Li8  1  0.50220924  0.22017533  0.24999704  1
  Li  Li9  1  0.50232110  0.21816789  0.75000275  1
  Li  Li10  1  0.99779076  0.72017533  0.24999704  1
  Li  Li11  1  0.99767890  0.71816789  0.75000275  1
  V  V12  1  0.23972296  0.11148839  0.50011335  1
  V  V13  1  0.23974024  0.11148745  0.99989170  1
  V  V14  1  0.26025976  0.61148745  0.99989170  1
  V  V15  1  0.26027704  0.61148839  0.50011335  1
  V  V16  1  0.74367066  0.38820511  0.00031706  1
  V  V17  1  0.74366735  0.38820198  0.49968667  1
  V  V18  1  0.75632934  0.88820511  0.00031706  1
  V  V19  1  0.75633265  0.88820198  0.49968667  1
  C  C20  1  0.23760738  0.86222107  0.49948953  1
  C  C21  1  0.23758235  0.86222532  0.00050259  1
  C  C22  1  0.26241765  0.36222532  0.00050259  1
  C  C23  1  0.26239262  0.36222107  0.49948953  1
  C  C24  1  0.74058834  0.63897358  0.00006382  1
  C  C25  1  0.74059528  0.63897300  0.49993514  1
  C  C26  1  0.75941166  0.13897358  0.00006382  1
  C  C27  1  0.75940472  0.13897300  0.49993514  1
  O  O28  1  0.12682707  0.14766494  0.25001290  1
  O  O29  1  0.12420104  0.14333142  0.74998387  1
  O  O30  1  0.13177947  0.57599365  0.25001134  1
  O  O31  1  0.12961733  0.57785863  0.74999309  1
  O  O32  1  0.13172809  0.36317142  0.01193490  1
  O  O33  1  0.13173162  0.36317127  0.48806415  1
  O  O34  1  0.16147207  0.95443032  0.51010348  1
  O  O35  1  0.16147716  0.95442626  0.98989757  1
  O  O36  1  0.16480480  0.76706730  0.99874132  1
  O  O37  1  0.16479416  0.76706842  0.50125749  1
  O  O38  1  0.33519520  0.26706730  0.99874132  1
  O  O39  1  0.33520584  0.26706842  0.50125749  1
  O  O40  1  0.33852284  0.45442626  0.98989757  1
  O  O41  1  0.33852793  0.45443032  0.51010348  1
  O  O42  1  0.36827191  0.86317142  0.01193490  1
  O  O43  1  0.36826838  0.86317127  0.48806415  1
  O  O44  1  0.36822053  0.07599365  0.25001134  1
  O  O45  1  0.37038267  0.07785863  0.74999309  1
  O  O46  1  0.37317293  0.64766494  0.25001290  1
  O  O47  1  0.37579896  0.64333142  0.74998387  1
  O  O48  1  0.62673028  0.35265554  0.25000171  1
  O  O49  1  0.62171300  0.35457288  0.74999645  1
  O  O50  1  0.63051197  0.92395807  0.25000422  1
  O  O51  1  0.63528758  0.92550766  0.74999718  1
  O  O52  1  0.62659721  0.13761054  0.00024800  1
  O  O53  1  0.62659958  0.13761048  0.49975074  1
  O  O54  1  0.66544550  0.54664804  0.99396709  1
  O  O55  1  0.66544425  0.54664754  0.50603270  1
  O  O56  1  0.66959477  0.73301821  0.00619424  1
  O  O57  1  0.66959165  0.73302064  0.49380577  1
  O  O58  1  0.83040835  0.23302064  0.49380577  1
  O  O59  1  0.83040523  0.23301821  0.00619424  1
  O  O60  1  0.83455450  0.04664804  0.99396709  1
  O  O61  1  0.83455575  0.04664754  0.50603270  1
  O  O62  1  0.87340279  0.63761054  0.00024800  1
  O  O63  1  0.87340042  0.63761048  0.49975074  1
  O  O64  1  0.86948803  0.42395807  0.25000422  1
  O  O65  1  0.86471242  0.42550766  0.74999718  1
  O  O66  1  0.87326972  0.85265554  0.25000171  1
  O  O67  1  0.87828700  0.85457288  0.74999645  1
