# generated using pymatgen
data_La2Fe2S5
_symmetry_space_group_name_H-M   'P 1'
_cell_length_a   3.96544020
_cell_length_b   8.51545409
_cell_length_c   11.30803240
_cell_angle_alpha   90.00000000
_cell_angle_beta   90.00000000
_cell_angle_gamma   103.46420616
_symmetry_Int_Tables_number   1
_chemical_formula_structural   La2Fe2S5
_chemical_formula_sum   'La4 Fe4 S10'
_cell_volume   371.34948305
_cell_formula_units_Z   2
loop_
 _symmetry_equiv_pos_site_id
 _symmetry_equiv_pos_as_xyz
  1  'x, y, z'
loop_
 _atom_site_type_symbol
 _atom_site_label
 _atom_site_symmetry_multiplicity
 _atom_site_fract_x
 _atom_site_fract_y
 _atom_site_fract_z
 _atom_site_occupancy
  S  S0  1  0.45828155  0.91656310  0.20086063  1
  S  S1  1  0.54171845  0.08343690  0.70086063  1
  S  S2  1  0.99032513  0.98065027  0.46590987  1
  S  S3  1  0.00967487  0.01934973  0.96590987  1
  S  S4  1  0.15457910  0.30915820  0.25699840  1
  S  S5  1  0.84542090  0.69084180  0.75699840  1
  S  S6  1  0.80107413  0.60214825  0.10514540  1
  S  S7  1  0.19892587  0.39785175  0.60514540  1
  S  S8  1  0.19977595  0.39955189  0.90609563  1
  S  S9  1  0.80022405  0.60044811  0.40609563  1
  Fe  Fe10  1  0.91456223  0.82912446  0.28590721  1
  Fe  Fe11  1  0.08543777  0.17087554  0.78590721  1
  Fe  Fe12  1  0.30445415  0.60890830  0.24827611  1
  Fe  Fe13  1  0.69554585  0.39109170  0.74827611  1
  La  La14  1  0.62314203  0.24628405  0.06960670  1
  La  La15  1  0.37685797  0.75371595  0.56960670  1
  La  La16  1  0.62113380  0.24226760  0.45120003  1
  La  La17  1  0.37886620  0.75773240  0.95120003  1
