# generated using pymatgen
data_Li3CrFe3O8
_symmetry_space_group_name_H-M   'P 1'
_cell_length_a   5.90247870
_cell_length_b   5.89277683
_cell_length_c   9.58604787
_cell_angle_alpha   90.02635019
_cell_angle_beta   90.05260604
_cell_angle_gamma   59.94551279
_symmetry_Int_Tables_number   1
_chemical_formula_structural   Li3CrFe3O8
_chemical_formula_sum   'Li6 Cr2 Fe6 O16'
_cell_volume   288.59297396
_cell_formula_units_Z   2
loop_
 _symmetry_equiv_pos_site_id
 _symmetry_equiv_pos_as_xyz
  1  'x, y, z'
loop_
 _atom_site_type_symbol
 _atom_site_label
 _atom_site_symmetry_multiplicity
 _atom_site_fract_x
 _atom_site_fract_y
 _atom_site_fract_z
 _atom_site_occupancy
  Li  Li0  1  0.82915974  0.82814239  0.94406657  1
  Li  Li1  1  0.34396604  0.82780208  0.94377295  1
  Li  Li2  1  0.82957773  0.34155343  0.94421968  1
  Li  Li3  1  0.17113116  0.65844857  0.44421868  1
  Li  Li4  1  0.65730713  0.17185261  0.44406857  1
  Li  Li5  1  0.17176712  0.17219992  0.44377195  1
  Cr  Cr6  1  0.66684441  0.66698018  0.48813034  1
  Cr  Cr7  1  0.33382459  0.33301982  0.98813034  1
  Fe  Fe8  1  0.83144248  0.83040348  0.21291012  1
  Fe  Fe9  1  0.33739101  0.83141635  0.21258291  1
  Fe  Fe10  1  0.83261605  0.33627868  0.21285160  1
  Fe  Fe11  1  0.16889473  0.66372132  0.71285160  1
  Fe  Fe12  1  0.66184596  0.16959652  0.71291012  1
  Fe  Fe13  1  0.16880736  0.16858365  0.71258291  1
  O  O14  1  0.83055509  0.83421609  0.59224231  1
  O  O15  1  0.52000127  0.96024721  0.34892878  1
  O  O16  1  0.66689163  0.66529307  0.09625490  1
  O  O17  1  0.96209738  0.51926753  0.34836347  1
  O  O18  1  0.33233277  0.83514666  0.59228934  1
  O  O19  1  0.51999688  0.52023141  0.34881205  1
  O  O20  1  0.83099172  0.33715911  0.59132597  1
  O  O21  1  0.16815083  0.66284089  0.09132597  1
  O  O22  1  0.48136491  0.48073247  0.84836347  1
  O  O23  1  0.33218569  0.33470693  0.59625490  1
  O  O24  1  0.04022929  0.47976859  0.84881205  1
  O  O25  1  0.66477118  0.16578391  0.09224231  1
  O  O26  1  0.00009038  0.99909120  0.32234501  1
  O  O27  1  0.99918058  0.00090880  0.82234501  1
  O  O28  1  0.48024948  0.03975279  0.84892878  1
  O  O29  1  0.16747843  0.16485334  0.09228934  1
