# generated using pymatgen
data_Li4Co3O3F4
_symmetry_space_group_name_H-M   'P 1'
_cell_length_a   2.95248014
_cell_length_b   2.95248014
_cell_length_c   15.13713527
_cell_angle_alpha   95.59663229
_cell_angle_beta   95.59663229
_cell_angle_gamma   90.00000000
_symmetry_Int_Tables_number   1
_chemical_formula_structural   Li4Co3O3F4
_chemical_formula_sum   'Li4 Co3 O3 F4'
_cell_volume   130.69148491
_cell_formula_units_Z   1
loop_
 _symmetry_equiv_pos_site_id
 _symmetry_equiv_pos_as_xyz
  1  'x, y, z'
loop_
 _atom_site_type_symbol
 _atom_site_label
 _atom_site_symmetry_multiplicity
 _atom_site_fract_x
 _atom_site_fract_y
 _atom_site_fract_z
 _atom_site_occupancy
  Li  Li0  1  0.21910376  0.21910376  0.43820752  1
  Li  Li1  1  0.78802274  0.78802274  0.57604648  1
  Li  Li2  1  0.35483426  0.35483426  0.70966852  1
  Li  Li3  1  0.92375324  0.92375324  0.84750648  1
  Co  Co4  1  0.49748054  0.49748054  0.99496009  1
  Co  Co5  1  0.07142900  0.07142900  0.14285700  1
  Co  Co6  1  0.64537746  0.64537746  0.29075391  1
  O  O7  1  0.99593374  0.99593374  0.99186647  1
  O  O8  1  0.57142900  0.57142900  0.14285700  1
  O  O9  1  0.14692426  0.14692426  0.29384753  1
  F  F10  1  0.72070138  0.72070138  0.44140276  1
  F  F11  1  0.28765335  0.28765335  0.57530671  1
  F  F12  1  0.85520365  0.85520365  0.71040729  1
  F  F13  1  0.42215562  0.42215562  0.84431224  1
