# generated using pymatgen
data_LiV(PO3)4
_symmetry_space_group_name_H-M   'P 1'
_cell_length_a   8.12001925
_cell_length_b   8.63728620
_cell_length_c   9.52842144
_cell_angle_alpha   119.24030409
_cell_angle_beta   115.21997242
_cell_angle_gamma   61.96205759
_symmetry_Int_Tables_number   1
_chemical_formula_structural   LiV(PO3)4
_chemical_formula_sum   'Li2 V2 P8 O24'
_cell_volume   497.65429517
_cell_formula_units_Z   2
loop_
 _symmetry_equiv_pos_site_id
 _symmetry_equiv_pos_as_xyz
  1  'x, y, z'
loop_
 _atom_site_type_symbol
 _atom_site_label
 _atom_site_symmetry_multiplicity
 _atom_site_fract_x
 _atom_site_fract_y
 _atom_site_fract_z
 _atom_site_occupancy
  Li  Li0  1  0.00000000  0.50000000  0.50000000  1
  Li  Li1  1  0.00000000  0.00000000  0.00000000  1
  V  V2  1  0.66686233  0.75000000  0.75000000  1
  V  V3  1  0.33313767  0.25000000  0.25000000  1
  P  P4  1  0.69625312  0.85806662  0.14009784  1
  P  P5  1  0.34386964  0.81059105  0.10678308  1
  P  P6  1  0.04767761  0.68940895  0.39321692  1
  P  P7  1  0.41422190  0.64193338  0.35990216  1
  P  P8  1  0.58577810  0.35806662  0.64009784  1
  P  P9  1  0.95232239  0.31059105  0.60678308  1
  P  P10  1  0.65613036  0.18940895  0.89321692  1
  P  P11  1  0.30374688  0.14193338  0.85990216  1
  O  O12  1  0.27523263  0.02069820  0.20975551  1
  O  O13  1  0.78244486  0.78608052  0.99818262  1
  O  O14  1  0.86269462  0.81086635  0.29257158  1
  O  O15  1  0.56078799  0.74148164  0.09170043  1
  O  O16  1  0.41085322  0.93523705  0.79647799  1
  O  O17  1  0.21057020  0.75851836  0.40829957  1
  O  O18  1  0.38099039  0.68913365  0.20742842  1
  O  O19  1  0.01805795  0.74530218  0.55708526  1
  O  O20  1  0.57034276  0.71391948  0.50181738  1
  O  O21  1  0.20627387  0.75469782  0.94291474  1
  O  O22  1  0.08617532  0.47930180  0.29024449  1
  O  O23  1  0.54961229  0.56476295  0.70352201  1
  O  O24  1  0.45038771  0.43523705  0.29647799  1
  O  O25  1  0.91382468  0.52069820  0.70975551  1
  O  O26  1  0.79372613  0.24530218  0.05708526  1
  O  O27  1  0.42965724  0.28608052  0.49818262  1
  O  O28  1  0.98194205  0.25469782  0.44291474  1
  O  O29  1  0.61900961  0.31086635  0.79257158  1
  O  O30  1  0.78942980  0.24148164  0.59170043  1
  O  O31  1  0.58914678  0.06476295  0.20352201  1
  O  O32  1  0.43921201  0.25851836  0.90829957  1
  O  O33  1  0.13730538  0.18913365  0.70742842  1
  O  O34  1  0.21755514  0.21391948  0.00181738  1
  O  O35  1  0.72476737  0.97930180  0.79024449  1
