# generated using pymatgen
data_Li3CrO4
_symmetry_space_group_name_H-M   'P 1'
_cell_length_a   7.78117680
_cell_length_b   5.35433998
_cell_length_c   5.21980683
_cell_angle_alpha   65.76325759
_cell_angle_beta   110.16952259
_cell_angle_gamma   98.19627860
_symmetry_Int_Tables_number   1
_chemical_formula_structural   Li3CrO4
_chemical_formula_sum   'Li6 Cr2 O8'
_cell_volume   186.14359042
_cell_formula_units_Z   2
loop_
 _symmetry_equiv_pos_site_id
 _symmetry_equiv_pos_as_xyz
  1  'x, y, z'
loop_
 _atom_site_type_symbol
 _atom_site_label
 _atom_site_symmetry_multiplicity
 _atom_site_fract_x
 _atom_site_fract_y
 _atom_site_fract_z
 _atom_site_occupancy
  Li  Li0  1  0.20101426  0.28886734  0.41715216  1
  Li  Li1  1  0.43788046  0.74150223  0.47810846  1
  Li  Li2  1  0.54880563  0.26699695  0.51346655  1
  Li  Li3  1  0.58192121  0.75164109  0.07361942  1
  Li  Li4  1  0.81633099  0.70032828  0.60593217  1
  Li  Li5  1  0.99899891  0.21727596  0.78934675  1
  Cr  Cr6  1  0.23073793  0.71009938  0.82624920  1
  Cr  Cr7  1  0.76132662  0.28505752  0.16152678  1
  O  O8  1  0.04351495  0.87034147  0.78553798  1
  O  O9  1  0.19287711  0.47712211  0.67321105  1
  O  O10  1  0.38085232  0.95807321  0.66620352  1
  O  O11  1  0.36509345  0.55495376  0.20233176  1
  O  O12  1  0.63160593  0.49200829  0.80993832  1
  O  O13  1  0.63958968  0.99114519  0.29507554  1
  O  O14  1  0.78288779  0.44508230  0.40164748  1
  O  O15  1  0.96555373  0.23690391  0.13455984  1
