# generated using pymatgen
data_Li4Fe2SiO7
_symmetry_space_group_name_H-M   'P 1'
_cell_length_a   4.98347758
_cell_length_b   5.03850814
_cell_length_c   5.11994189
_cell_angle_alpha   95.36824389
_cell_angle_beta   100.49035851
_cell_angle_gamma   101.81746474
_symmetry_Int_Tables_number   1
_chemical_formula_structural   Li4Fe2SiO7
_chemical_formula_sum   'Li4 Fe2 Si1 O7'
_cell_volume   122.58136488
_cell_formula_units_Z   1
loop_
 _symmetry_equiv_pos_site_id
 _symmetry_equiv_pos_as_xyz
  1  'x, y, z'
loop_
 _atom_site_type_symbol
 _atom_site_label
 _atom_site_symmetry_multiplicity
 _atom_site_fract_x
 _atom_site_fract_y
 _atom_site_fract_z
 _atom_site_occupancy
  Li  Li0  1  0.07498063  0.65125066  0.79428080  1
  Li  Li1  1  0.35835750  0.24546874  0.94997325  1
  Li  Li2  1  0.64164250  0.75453126  0.05002775  1
  Li  Li3  1  0.92501937  0.34874934  0.20571920  1
  Fe  Fe4  1  0.19926623  0.91800904  0.34110678  1
  Fe  Fe5  1  0.80073377  0.08199096  0.65889322  1
  Si  Si6  1  0.50000000  0.50000000  0.50000000  1
  O  O7  1  0.30593768  0.58150722  0.19412313  1
  O  O8  1  0.00000000  0.00000000  0.00000000  1
  O  O9  1  0.16872275  0.27622603  0.56091232  1
  O  O10  1  0.43699616  0.80181765  0.67665626  1
  O  O11  1  0.56300384  0.19818235  0.32334374  1
  O  O12  1  0.83127725  0.72377397  0.43908768  1
  O  O13  1  0.69406232  0.41849278  0.80587687  1
