# generated using pymatgen
data_MnOF
_symmetry_space_group_name_H-M   'P 1'
_cell_length_a   4.57069780
_cell_length_b   7.70059117
_cell_length_c   7.65846254
_cell_angle_alpha   94.85010081
_cell_angle_beta   90.18334123
_cell_angle_gamma   90.28558816
_symmetry_Int_Tables_number   1
_chemical_formula_structural   MnOF
_chemical_formula_sum   'Mn8 O8 F8'
_cell_volume   268.58517597
_cell_formula_units_Z   8
loop_
 _symmetry_equiv_pos_site_id
 _symmetry_equiv_pos_as_xyz
  1  'x, y, z'
loop_
 _atom_site_type_symbol
 _atom_site_label
 _atom_site_symmetry_multiplicity
 _atom_site_fract_x
 _atom_site_fract_y
 _atom_site_fract_z
 _atom_site_occupancy
  Mn  Mn0  1  0.51063158  0.68437453  0.04997768  1
  Mn  Mn1  1  0.51429133  0.28192653  0.94777852  1
  Mn  Mn2  1  0.48311900  0.19087755  0.53788525  1
  Mn  Mn3  1  0.48009224  0.79044443  0.44028555  1
  Mn  Mn4  1  0.00236892  0.96107984  0.81495171  1
  Mn  Mn5  1  0.95528168  0.56834012  0.70053838  1
  Mn  Mn6  1  0.96426408  0.46189760  0.29612460  1
  Mn  Mn7  1  0.00124740  0.06077654  0.21443191  1
  O  O8  1  0.79772733  0.09998640  0.99621103  1
  O  O9  1  0.77581210  0.74356805  0.85822993  1
  O  O10  1  0.77089972  0.24331890  0.35287847  1
  O  O11  1  0.75055821  0.60919445  0.48872856  1
  O  O12  1  0.72634673  0.47200400  0.07694197  1
  O  O13  1  0.28548845  0.14420679  0.76800796  1
  O  O14  1  0.26877866  0.64460361  0.25567685  1
  O  O15  1  0.27262958  0.01216707  0.39832142  1
  F  F16  1  0.72839233  0.33317258  0.71240141  1
  F  F17  1  0.73904891  0.96447811  0.58602246  1
  F  F18  1  0.75924533  0.84314648  0.23161690  1
  F  F19  1  0.25491803  0.50212157  0.87924048  1
  F  F20  1  0.21039133  0.42213658  0.52462184  1
  F  F21  1  0.24322962  0.27839318  0.16163821  1
  F  F22  1  0.26615050  0.90257398  0.03699274  1
  F  F23  1  0.23908994  0.78521113  0.67049519  1
