# generated using pymatgen
data_V(CO3)2
_symmetry_space_group_name_H-M   'P 1'
_cell_length_a   6.10019938
_cell_length_b   6.10019954
_cell_length_c   6.37057492
_cell_angle_alpha   77.59851244
_cell_angle_beta   102.40148192
_cell_angle_gamma   88.48032849
_symmetry_Int_Tables_number   1
_chemical_formula_structural   V(CO3)2
_chemical_formula_sum   'V2 C4 O12'
_cell_volume   225.47399041
_cell_formula_units_Z   2
loop_
 _symmetry_equiv_pos_site_id
 _symmetry_equiv_pos_as_xyz
  1  'x, y, z'
loop_
 _atom_site_type_symbol
 _atom_site_label
 _atom_site_symmetry_multiplicity
 _atom_site_fract_x
 _atom_site_fract_y
 _atom_site_fract_z
 _atom_site_occupancy
  V  V0  1  0.19250010  0.19250010  0.25000000  1
  V  V1  1  0.80749990  0.80749990  0.75000000  1
  C  C2  1  0.11684835  0.69610128  0.19498312  1
  C  C3  1  0.30389872  0.88315165  0.69498312  1
  C  C4  1  0.69610128  0.11684835  0.30501688  1
  C  C5  1  0.88315165  0.30389872  0.80501688  1
  O  O6  1  0.08076801  0.29126936  0.94291232  1
  O  O7  1  0.12600890  0.79110395  0.72856264  1
  O  O8  1  0.20889605  0.87399110  0.22856264  1
  O  O9  1  0.21725989  0.50485684  0.29563184  1
  O  O10  1  0.29126936  0.08076801  0.55708768  1
  O  O11  1  0.49514316  0.78274011  0.79563184  1
  O  O12  1  0.50485684  0.21725989  0.20436816  1
  O  O13  1  0.70873064  0.91923199  0.44291232  1
  O  O14  1  0.78274011  0.49514316  0.70436816  1
  O  O15  1  0.79110395  0.12600890  0.77143736  1
  O  O16  1  0.87399110  0.20889605  0.27143736  1
  O  O17  1  0.91923199  0.70873064  0.05708768  1
