# generated using pymatgen
data_Mn12O7F17
_symmetry_space_group_name_H-M   'P 1'
_cell_length_a   5.57366936
_cell_length_b   4.90878165
_cell_length_c   16.11408290
_cell_angle_alpha   89.68868175
_cell_angle_beta   96.69044895
_cell_angle_gamma   86.64324724
_symmetry_Int_Tables_number   1
_chemical_formula_structural   Mn12O7F17
_chemical_formula_sum   'Mn12 O7 F17'
_cell_volume   437.09310125
_cell_formula_units_Z   1
loop_
 _symmetry_equiv_pos_site_id
 _symmetry_equiv_pos_as_xyz
  1  'x, y, z'
loop_
 _atom_site_type_symbol
 _atom_site_label
 _atom_site_symmetry_multiplicity
 _atom_site_fract_x
 _atom_site_fract_y
 _atom_site_fract_z
 _atom_site_occupancy
  Mn  Mn0  1  0.89989632  0.03052607  0.00184548  1
  Mn  Mn1  1  0.17280827  0.49193116  0.16410300  1
  Mn  Mn2  1  0.00888985  0.98451917  0.33162020  1
  Mn  Mn3  1  0.93437956  0.48591712  0.51037600  1
  Mn  Mn4  1  0.93206924  0.04742293  0.66416547  1
  Mn  Mn5  1  0.04547572  0.54174633  0.81564566  1
  Mn  Mn6  1  0.60211393  0.98905758  0.17308340  1
  Mn  Mn7  1  0.41611192  0.47385537  0.00137860  1
  Mn  Mn8  1  0.39346380  0.51760866  0.66604349  1
  Mn  Mn9  1  0.43033372  0.08845144  0.53140280  1
  Mn  Mn10  1  0.53113698  0.47767351  0.32572895  1
  Mn  Mn11  1  0.55965270  0.99382912  0.83799209  1
  O  O12  1  0.16269311  0.26101178  0.60740267  1
  O  O13  1  0.14494008  0.74835831  0.71199605  1
  O  O14  1  0.39472144  0.27567292  0.10568090  1
  O  O15  1  0.43509707  0.67655139  0.22062928  1
  O  O16  1  0.61962693  0.21342956  0.94768452  1
  O  O17  1  0.64729434  0.28754420  0.61997964  1
  O  O18  1  0.70652812  0.17563928  0.27768592  1
  F  F19  1  0.20549301  0.24466649  0.27222361  1
  F  F20  1  0.15995532  0.75377397  0.04945643  1
  F  F21  1  0.31187705  0.74788979  0.37251693  1
  F  F22  1  0.10894617  0.27609347  0.94053143  1
  F  F23  1  0.28703724  0.71554071  0.54486933  1
  F  F24  1  0.35293767  0.70769499  0.89551905  1
  F  F25  1  0.33630432  0.28001441  0.77811323  1
  F  F26  1  0.12346978  0.20400068  0.43960215  1
  F  F27  1  0.65495299  0.79244473  0.06207105  1
  F  F28  1  0.83254670  0.70099812  0.38966465  1
  F  F29  1  0.64202164  0.73156334  0.73605488  1
  F  F30  1  0.61280994  0.29186128  0.43996509  1
  F  F31  1  0.90933548  0.26456357  0.10874983  1
  F  F32  1  0.85663026  0.18909494  0.78157957  1
  F  F33  1  0.77529005  0.82664769  0.56022485  1
  F  F34  1  0.85418133  0.76517755  0.90040227  1
  F  F35  1  0.93897595  0.74722734  0.21400854  1
