# generated using pymatgen
data_Li3TiCo3O8
_symmetry_space_group_name_H-M   'P 1'
_cell_length_a   5.73153323
_cell_length_b   5.73203088
_cell_length_c   9.16050450
_cell_angle_alpha   90.00042277
_cell_angle_beta   89.99768106
_cell_angle_gamma   120.00459303
_symmetry_Int_Tables_number   1
_chemical_formula_structural   Li3TiCo3O8
_chemical_formula_sum   'Li6 Ti2 Co6 O16'
_cell_volume   260.62091049
_cell_formula_units_Z   2
loop_
 _symmetry_equiv_pos_site_id
 _symmetry_equiv_pos_as_xyz
  1  'x, y, z'
loop_
 _atom_site_type_symbol
 _atom_site_label
 _atom_site_symmetry_multiplicity
 _atom_site_fract_x
 _atom_site_fract_y
 _atom_site_fract_z
 _atom_site_occupancy
  Li  Li0  1  0.17175071  0.82836489  0.05595501  1
  Li  Li1  1  0.65653044  0.82824926  0.05591632  1
  Li  Li2  1  0.17177787  0.34342560  0.05593610  1
  Li  Li3  1  0.82830417  0.65658113  0.55591908  1
  Li  Li4  1  0.34340013  0.17168256  0.55585086  1
  Li  Li5  1  0.82830262  0.17170696  0.55595851  1
  Ti  Ti6  1  0.33332059  0.66664693  0.49775377  1
  Ti  Ti7  1  0.66670355  0.33335666  0.99773958  1
  Co  Co8  1  0.16889931  0.83111577  0.78402090  1
  Co  Co9  1  0.66219873  0.83110845  0.78401573  1
  Co  Co10  1  0.16889710  0.33780988  0.78401744  1
  Co  Co11  1  0.83108327  0.66218522  0.28401823  1
  Co  Co12  1  0.33777458  0.16888000  0.28402940  1
  Co  Co13  1  0.83108532  0.16889309  0.28401722  1
  O  O14  1  0.16252691  0.83748523  0.40498200  1
  O  O15  1  0.48144202  0.96284578  0.66102708  1
  O  O16  1  0.67498688  0.83747712  0.40496285  1
  O  O17  1  0.03712101  0.51856891  0.66104116  1
  O  O18  1  0.33331110  0.66667199  0.89366528  1
  O  O19  1  0.48143912  0.51859922  0.66103051  1
  O  O20  1  0.83744891  0.67501743  0.90498966  1
  O  O21  1  0.16252185  0.32498758  0.40499519  1
  O  O22  1  0.51853393  0.48139086  0.16104938  1
  O  O23  1  0.96285347  0.48143550  0.16102657  1
  O  O24  1  0.99997198  0.99998529  0.18053587  1
  O  O25  1  0.66666773  0.33332492  0.39366551  1
  O  O26  1  0.32502881  0.16254633  0.90495448  1
  O  O27  1  0.51853873  0.03715513  0.16103828  1
  O  O28  1  0.83745338  0.16247876  0.90498169  1
  O  O29  1  0.00003277  0.00001757  0.68052934  1
