# generated using pymatgen
data_Li8Fe(O2F)2
_symmetry_space_group_name_H-M   'P 1'
_cell_length_a   5.73706944
_cell_length_b   5.44928602
_cell_length_c   11.29542494
_cell_angle_alpha   98.03090192
_cell_angle_beta   80.87212914
_cell_angle_gamma   59.91485947
_symmetry_Int_Tables_number   1
_chemical_formula_structural   Li8Fe(O2F)2
_chemical_formula_sum   'Li16 Fe2 O8 F4'
_cell_volume   291.58372477
_cell_formula_units_Z   2
loop_
 _symmetry_equiv_pos_site_id
 _symmetry_equiv_pos_as_xyz
  1  'x, y, z'
loop_
 _atom_site_type_symbol
 _atom_site_label
 _atom_site_symmetry_multiplicity
 _atom_site_fract_x
 _atom_site_fract_y
 _atom_site_fract_z
 _atom_site_occupancy
  Li  Li0  1  0.25120173  0.03389850  0.18455465  1
  Li  Li1  1  0.30162949  0.26154862  0.03355617  1
  Li  Li2  1  0.48950666  0.14178892  0.31437550  1
  Li  Li3  1  0.07591224  0.83882044  0.33520399  1
  Li  Li4  1  0.14110070  0.28481202  0.82460630  1
  Li  Li5  1  0.17905916  0.55782833  0.68939587  1
  Li  Li6  1  0.55745465  0.40034119  0.16847170  1
  Li  Li7  1  0.61909609  0.09886304  0.54657185  1
  Li  Li8  1  0.38090391  0.90113696  0.45342815  1
  Li  Li9  1  0.44254535  0.59965881  0.83152830  1
  Li  Li10  1  0.82094084  0.44217167  0.31060413  1
  Li  Li11  1  0.51049334  0.85821108  0.68562450  1
  Li  Li12  1  0.85889930  0.71518798  0.17539370  1
  Li  Li13  1  0.92408776  0.16117956  0.66479601  1
  Li  Li14  1  0.69837051  0.73845138  0.96644383  1
  Li  Li15  1  0.74879827  0.96610150  0.81544535  1
  Fe  Fe16  1  0.00000000  0.00000000  0.00000000  1
  Fe  Fe17  1  0.00000000  0.50000000  0.50000000  1
  O  O18  1  0.12987941  0.16156496  0.36484641  1
  O  O19  1  0.24277761  0.17873949  0.61937351  1
  O  O20  1  0.59054054  0.03115264  0.12227308  1
  O  O21  1  0.06447961  0.67285603  0.87170358  1
  O  O22  1  0.93552039  0.32714397  0.12829642  1
  O  O23  1  0.40945946  0.96884736  0.87772692  1
  O  O24  1  0.75722239  0.82126051  0.38062649  1
  O  O25  1  0.87012059  0.83843504  0.63515359  1
  F  F26  1  0.21880847  0.68821733  0.14097808  1
  F  F27  1  0.43687992  0.52568757  0.35162804  1
  F  F28  1  0.56312008  0.47431243  0.64837196  1
  F  F29  1  0.78119153  0.31178267  0.85902192  1
