# generated using pymatgen
data_C2S9N2
_symmetry_space_group_name_H-M   'P 1'
_cell_length_a   6.14647270
_cell_length_b   9.03593819
_cell_length_c   13.15199722
_cell_angle_alpha   102.88256714
_cell_angle_beta   90.00000000
_cell_angle_gamma   90.00000000
_symmetry_Int_Tables_number   1
_chemical_formula_structural   C2S9N2
_chemical_formula_sum   'C4 S18 N4'
_cell_volume   712.06459270
_cell_formula_units_Z   2
loop_
 _symmetry_equiv_pos_site_id
 _symmetry_equiv_pos_as_xyz
  1  'x, y, z'
loop_
 _atom_site_type_symbol
 _atom_site_label
 _atom_site_symmetry_multiplicity
 _atom_site_fract_x
 _atom_site_fract_y
 _atom_site_fract_z
 _atom_site_occupancy
  N  N0  1  0.52025953  0.45036125  0.74902315  1
  N  N1  1  0.02025953  0.54963875  0.25097685  1
  C  C2  1  0.32930887  0.45231009  0.75191285  1
  C  C3  1  0.82930887  0.54768991  0.24808715  1
  S  S4  1  0.05501754  0.45448010  0.74955890  1
  S  S5  1  0.55501754  0.54551990  0.25044110  1
  S  S6  1  0.98327245  0.50481549  0.90990474  1
  S  S7  1  0.48327245  0.49518451  0.09009526  1
  S  S8  1  1.00216397  0.73450061  0.96234863  1
  S  S9  1  0.50216397  0.26549939  0.03765137  1
  S  S10  1  0.70195699  0.82871674  0.94037690  1
  S  S11  1  0.20195699  0.17128326  0.05962310  1
  S  S12  1  0.69383142  0.85365593  0.78826023  1
  S  S13  1  0.19383142  0.14634407  0.21173977  1
  S  S14  1  0.83799175  0.05646120  0.77924690  1
  S  S15  1  0.33799175  0.94353880  0.22075310  1
  S  S16  1  0.16670064  0.01149555  0.74990255  1
  S  S17  1  0.66670064  0.98850445  0.25009745  1
  S  S18  1  0.21491408  0.96190268  0.59253752  1
  S  S19  1  0.71491408  0.03809732  0.40746248  1
  S  S20  1  0.20406149  0.72445507  0.53921809  1
  S  S21  1  0.70406149  0.27554493  0.46078191  1
  C  C22  1  0.93454312  0.69753456  0.52175271  1
  C  C23  1  0.43454312  0.30246544  0.47824729  1
  N  N24  1  0.74747815  0.67310941  0.50933686  1
  N  N25  1  0.24747815  0.32689059  0.49066314  1
