# generated using pymatgen
data_Mn6O5F7
_symmetry_space_group_name_H-M   'P 1'
_cell_length_a   4.72270275
_cell_length_b   5.70037070
_cell_length_c   15.63992087
_cell_angle_alpha   90.00000000
_cell_angle_beta   89.79193820
_cell_angle_gamma   90.00000000
_symmetry_Int_Tables_number   1
_chemical_formula_structural   Mn6O5F7
_chemical_formula_sum   'Mn12 O10 F14'
_cell_volume   421.04197932
_cell_formula_units_Z   2
loop_
 _symmetry_equiv_pos_site_id
 _symmetry_equiv_pos_as_xyz
  1  'x, y, z'
loop_
 _atom_site_type_symbol
 _atom_site_label
 _atom_site_symmetry_multiplicity
 _atom_site_fract_x
 _atom_site_fract_y
 _atom_site_fract_z
 _atom_site_occupancy
  Mn  Mn0  1  0.05105404  0.16972880  0.41589747  1
  Mn  Mn1  1  0.97197604  0.85203110  0.24914220  1
  Mn  Mn2  1  0.04358766  0.16004390  0.07832726  1
  Mn  Mn3  1  0.97197604  0.14796890  0.74914220  1
  Mn  Mn4  1  0.04358766  0.83995610  0.57832726  1
  Mn  Mn5  1  0.05105404  0.83027120  0.91589747  1
  Mn  Mn6  1  0.51482794  0.36421420  0.58822412  1
  Mn  Mn7  1  0.47603545  0.34749231  0.92248591  1
  Mn  Mn8  1  0.47224686  0.34947459  0.24608935  1
  Mn  Mn9  1  0.51482794  0.63578580  0.08822412  1
  Mn  Mn10  1  0.47603545  0.65250769  0.42248591  1
  Mn  Mn11  1  0.47224686  0.65052541  0.74608935  1
  O  O12  1  0.20697629  0.11041890  0.29808955  1
  O  O13  1  0.23910601  0.11458749  0.97570395  1
  O  O14  1  0.23910601  0.88541251  0.47570395  1
  O  O15  1  0.20697629  0.88958110  0.79808955  1
  O  O16  1  0.28960413  0.38308925  0.13830196  1
  O  O17  1  0.30417543  0.39942495  0.48096093  1
  O  O18  1  0.28960413  0.61691075  0.63830196  1
  O  O19  1  0.30417543  0.60057505  0.98096093  1
  O  O20  1  0.70729667  0.61667321  0.19853110  1
  O  O21  1  0.70729667  0.38332679  0.69853110  1
  F  F22  1  0.23336029  0.11648457  0.64074960  1
  F  F23  1  0.23336029  0.88351543  0.14074960  1
  F  F24  1  0.21820035  0.61322761  0.31151792  1
  F  F25  1  0.21820035  0.38677239  0.81151792  1
  F  F26  1  0.77067746  0.37839584  0.02304075  1
  F  F27  1  0.70037516  0.38647578  0.35752841  1
  F  F28  1  0.77067746  0.62160416  0.52304075  1
  F  F29  1  0.70037516  0.61352422  0.85752841  1
  F  F30  1  0.78037638  0.11669237  0.18086669  1
  F  F31  1  0.78671479  0.13244137  0.53018755  1
  F  F32  1  0.73340902  0.88349602  0.36435528  1
  F  F33  1  0.78671479  0.86755863  0.03018755  1
  F  F34  1  0.73340902  0.11650398  0.86435528  1
  F  F35  1  0.78037638  0.88330763  0.68086669  1
