# generated using pymatgen
data_Li3Fe8(BO3)8
_symmetry_space_group_name_H-M   'P 1'
_cell_length_a   5.23599088
_cell_length_b   9.12560771
_cell_length_c   11.41365041
_cell_angle_alpha   66.74073230
_cell_angle_beta   76.99762990
_cell_angle_gamma   89.56189704
_symmetry_Int_Tables_number   1
_chemical_formula_structural   Li3Fe8(BO3)8
_chemical_formula_sum   'Li3 Fe8 B8 O24'
_cell_volume   486.18048561
_cell_formula_units_Z   1
loop_
 _symmetry_equiv_pos_site_id
 _symmetry_equiv_pos_as_xyz
  1  'x, y, z'
loop_
 _atom_site_type_symbol
 _atom_site_label
 _atom_site_symmetry_multiplicity
 _atom_site_fract_x
 _atom_site_fract_y
 _atom_site_fract_z
 _atom_site_occupancy
  Li  Li0  1  0.97033024  0.96889261  0.39555658  1
  Li  Li1  1  0.01543339  0.99342637  0.66141418  1
  Li  Li2  1  0.24653297  0.25914656  0.14717403  1
  Fe  Fe3  1  0.98195918  0.64374113  0.37233769  1
  Fe  Fe4  1  0.72653657  0.06534377  0.88614343  1
  Fe  Fe5  1  0.52918952  0.83697591  0.62946857  1
  Fe  Fe6  1  0.76573198  0.43968866  0.13094636  1
  Fe  Fe7  1  0.23516280  0.56323597  0.87311836  1
  Fe  Fe8  1  0.48228349  0.15326782  0.38649497  1
  Fe  Fe9  1  0.01939214  0.35346533  0.62857180  1
  Fe  Fe10  1  0.25430000  0.93174567  0.12763589  1
  B  B11  1  0.96809536  0.31170870  0.37750730  1
  B  B12  1  0.73093708  0.39296170  0.88136948  1
  B  B13  1  0.51031295  0.17949818  0.63436801  1
  B  B14  1  0.76473200  0.11457758  0.12895964  1
  B  B15  1  0.48488249  0.81561268  0.37539791  1
  B  B16  1  0.23630182  0.89627551  0.87394083  1
  B  B17  1  0.03508371  0.68935836  0.62028911  1
  B  B18  1  0.26964013  0.59702912  0.13037281  1
  O  O19  1  0.98916741  0.93124578  0.85289623  1
  O  O20  1  0.86605681  0.29299023  0.82597479  1
  O  O21  1  0.86894775  0.47611275  0.93117673  1
  O  O22  1  0.91918700  0.83050046  0.60218147  1
  O  O23  1  0.94986931  0.58057230  0.57494115  1
  O  O24  1  0.75824576  0.16285103  0.66893659  1
  O  O25  1  0.74602195  0.34753965  0.32565571  1
  O  O26  1  0.46971005  0.40421110  0.89028599  1
  O  O27  1  0.36135979  0.77653855  0.84300666  1
  O  O28  1  0.57066097  0.92738485  0.41741500  1
  O  O29  1  0.63798766  0.69806284  0.36596830  1
  O  O30  1  0.36569536  0.98350554  0.92236502  1
  O  O31  1  0.65300270  0.02617122  0.07423824  1
  O  O32  1  0.36449707  0.30261955  0.63807038  1
  O  O33  1  0.41820578  0.06646809  0.59651973  1
  O  O34  1  0.60685449  0.22426840  0.16449318  1
  O  O35  1  0.53078109  0.59358628  0.12382443  1
  O  O36  1  0.24196428  0.65278217  0.68142758  1
  O  O37  1  0.23582856  0.82822281  0.34421853  1
  O  O38  1  0.04699169  0.41326741  0.43193480  1
  O  O39  1  0.10124271  0.18561527  0.37111836  1
  O  O40  1  0.14754296  0.49544231  0.08743597  1
  O  O41  1  0.11928468  0.69442982  0.18005878  1
  O  O42  1  0.01449833  0.09884995  0.14619241  1
