# generated using pymatgen
data_Li4Mn3Cr2Sb3O16
_symmetry_space_group_name_H-M   'P 1'
_cell_length_a   6.24804524
_cell_length_b   6.12663293
_cell_length_c   9.74434767
_cell_angle_alpha   89.99615750
_cell_angle_beta   92.61755684
_cell_angle_gamma   119.36015403
_symmetry_Int_Tables_number   1
_chemical_formula_structural   Li4Mn3Cr2Sb3O16
_chemical_formula_sum   'Li4 Mn3 Cr2 Sb3 O16'
_cell_volume   324.65149723
_cell_formula_units_Z   1
loop_
 _symmetry_equiv_pos_site_id
 _symmetry_equiv_pos_as_xyz
  1  'x, y, z'
loop_
 _atom_site_type_symbol
 _atom_site_label
 _atom_site_symmetry_multiplicity
 _atom_site_fract_x
 _atom_site_fract_y
 _atom_site_fract_z
 _atom_site_occupancy
  Li  Li0  1  0.32071522  0.66040869  0.88292706  1
  Li  Li1  1  0.97448133  0.98723993  0.98371869  1
  Li  Li2  1  0.98877144  0.99439937  0.50406469  1
  Li  Li3  1  0.64462156  0.32233127  0.40326046  1
  Mn  Mn4  1  0.66362613  0.83179012  0.21268230  1
  Mn  Mn5  1  0.83477616  0.66129395  0.70992006  1
  Mn  Mn6  1  0.83489791  0.17358887  0.70991260  1
  Cr  Cr7  1  0.35313289  0.67654638  0.49446384  1
  Cr  Cr8  1  0.69388162  0.34698832  0.97534795  1
  Sb  Sb9  1  0.16840813  0.83131201  0.21500884  1
  Sb  Sb10  1  0.16838919  0.33708576  0.21500330  1
  Sb  Sb11  1  0.34450666  0.17223857  0.71543043  1
  O  O12  1  0.18985553  0.85135295  0.59812162  1
  O  O13  1  0.03503161  0.51752996  0.33642195  1
  O  O14  1  0.30864826  0.65431673  0.10117011  1
  O  O15  1  0.01995049  0.00997955  0.31740845  1
  O  O16  1  0.01609642  0.00787932  0.80154851  1
  O  O17  1  0.18982237  0.33850138  0.59813943  1
  O  O18  1  0.46210127  0.95816160  0.34314187  1
  O  O19  1  0.46208687  0.50392180  0.34312735  1
  O  O20  1  0.31171911  0.15585206  0.10625512  1
  O  O21  1  0.67669854  0.83820306  0.59552451  1
  O  O22  1  0.50810292  0.46847354  0.85111862  1
  O  O23  1  0.50818327  0.03971828  0.85112719  1
  O  O24  1  0.65019847  0.32528881  0.60488686  1
  O  O25  1  0.85923181  0.68087595  0.09681779  1
  O  O26  1  0.95284171  0.47663508  0.84447739  1
  O  O27  1  0.85922114  0.17838567  0.09681297  1
