# generated using pymatgen
data_Li6Co11(OF12)2
_symmetry_space_group_name_H-M   'P 1'
_cell_length_a   8.21026862
_cell_length_b   8.75538292
_cell_length_c   8.10264173
_cell_angle_alpha   106.16858152
_cell_angle_beta   90.09063505
_cell_angle_gamma   107.99160818
_symmetry_Int_Tables_number   1
_chemical_formula_structural   Li6Co11(OF12)2
_chemical_formula_sum   'Li6 Co11 O2 F24'
_cell_volume   529.60669581
_cell_formula_units_Z   1
loop_
 _symmetry_equiv_pos_site_id
 _symmetry_equiv_pos_as_xyz
  1  'x, y, z'
loop_
 _atom_site_type_symbol
 _atom_site_label
 _atom_site_symmetry_multiplicity
 _atom_site_fract_x
 _atom_site_fract_y
 _atom_site_fract_z
 _atom_site_occupancy
  Li  Li0  1  0.09200224  0.23966939  0.42376273  1
  Li  Li1  1  0.21064609  0.45517389  0.07873858  1
  Li  Li2  1  0.57611229  0.93279780  0.29696531  1
  Li  Li3  1  0.37659787  0.09239656  0.69619613  1
  Li  Li4  1  0.80916015  0.55326866  0.92765777  1
  Li  Li5  1  0.89930394  0.74306313  0.57376959  1
  Co  Co6  1  0.11537168  0.85091159  0.27574226  1
  Co  Co7  1  0.23033141  0.75323635  0.86603466  1
  Co  Co8  1  0.00568510  0.99517133  0.00741486  1
  Co  Co9  1  0.29561445  0.68798239  0.48486388  1
  Co  Co10  1  0.41866248  0.50800215  0.70277390  1
  Co  Co11  1  0.35158771  0.14684892  0.14218227  1
  Co  Co12  1  0.61965348  0.85607114  0.88153603  1
  Co  Co13  1  0.62793340  0.55759994  0.27333832  1
  Co  Co14  1  0.70887751  0.32091890  0.52449945  1
  Co  Co15  1  0.78992365  0.23897001  0.12865936  1
  Co  Co16  1  0.86842186  0.15560229  0.73541147  1
  O  O17  1  0.13379433  0.06469976  0.23042709  1
  O  O18  1  0.42592387  0.74526820  0.71540858  1
  F  F19  1  0.00723106  0.75398218  0.98990885  1
  F  F20  1  0.08499570  0.68328312  0.63500176  1
  F  F21  1  0.07391869  0.16838545  0.62036380  1
  F  F22  1  0.15445487  0.62418925  0.25038048  1
  F  F23  1  0.24652579  0.52902726  0.88452786  1
  F  F24  1  0.29255540  0.92618584  0.48510329  1
  F  F25  1  0.37939995  0.89223076  0.10900644  1
  F  F26  1  0.28545049  0.44085018  0.47069458  1
  F  F27  1  0.25326401  0.01962087  0.88665585  1
  F  F28  1  0.40257806  0.38535082  0.13436558  1
  F  F29  1  0.49247043  0.30440287  0.66423175  1
  F  F30  1  0.51267583  0.72568331  0.34355129  1
  F  F31  1  0.62270752  0.63575881  0.91272257  1
  F  F32  1  0.75797903  0.98832210  0.11539840  1
  F  F33  1  0.57869500  0.22047335  0.27422231  1
  F  F34  1  0.68846016  0.54513427  0.51400415  1
  F  F35  1  0.65461656  0.10982534  0.88189143  1
  F  F36  1  0.85966507  0.91347544  0.77378441  1
  F  F37  1  0.69243414  0.08378248  0.51878520  1
  F  F38  1  0.76562366  0.45170366  0.10705937  1
  F  F39  1  0.85237272  0.38689813  0.75092621  1
  F  F40  1  0.87480348  0.76319962  0.35033856  1
  F  F41  1  0.90614547  0.31759867  0.36595124  1
  F  F42  1  0.00537538  0.23298684  0.99574538  1
