# generated using pymatgen
data_Li6Co5Ni3O16
_symmetry_space_group_name_H-M   'P 1'
_cell_length_a   5.69754467
_cell_length_b   5.68371479
_cell_length_c   9.18676617
_cell_angle_alpha   91.37322664
_cell_angle_beta   88.57757888
_cell_angle_gamma   120.54945021
_symmetry_Int_Tables_number   1
_chemical_formula_structural   Li6Co5Ni3O16
_chemical_formula_sum   'Li6 Co5 Ni3 O16'
_cell_volume   256.10053287
_cell_formula_units_Z   1
loop_
 _symmetry_equiv_pos_site_id
 _symmetry_equiv_pos_as_xyz
  1  'x, y, z'
loop_
 _atom_site_type_symbol
 _atom_site_label
 _atom_site_symmetry_multiplicity
 _atom_site_fract_x
 _atom_site_fract_y
 _atom_site_fract_z
 _atom_site_occupancy
  Li  Li0  1  0.82989458  0.17117934  0.44890211  1
  Li  Li1  1  0.33391612  0.17076102  0.44632368  1
  Li  Li2  1  0.82916204  0.66641789  0.44637518  1
  Li  Li3  1  0.16627206  0.33319268  0.95045587  1
  Li  Li4  1  0.66491522  0.83221739  0.95023683  1
  Li  Li5  1  0.16669972  0.83237763  0.94560244  1
  Co  Co6  1  0.82950166  0.17088096  0.71439117  1
  Co  Co7  1  0.66954553  0.33021646  0.98842550  1
  Co  Co8  1  0.17003069  0.33894343  0.21459864  1
  Co  Co9  1  0.66056303  0.82982232  0.21460812  1
  Co  Co10  1  0.33314716  0.66972825  0.48644016  1
  Ni  Ni11  1  0.33736591  0.16714277  0.71396997  1
  Ni  Ni12  1  0.83307856  0.66255080  0.71405895  1
  Ni  Ni13  1  0.16857909  0.83239872  0.21253875  1
  O  O14  1  0.83813032  0.16149845  0.09668505  1
  O  O15  1  0.52996040  0.03362572  0.85070536  1
  O  O16  1  0.96737406  0.47044417  0.85074126  1
  O  O17  1  0.67233747  0.32830861  0.60589335  1
  O  O18  1  0.32490746  0.16633805  0.08904958  1
  O  O19  1  0.52288121  0.47538140  0.85209343  1
  O  O20  1  0.15656681  0.33645978  0.58616153  1
  O  O21  1  0.82898180  0.67076296  0.08779291  1
  O  O22  1  0.48077657  0.51876806  0.34109296  1
  O  O23  1  0.66460733  0.84339426  0.58627471  1
  O  O24  1  0.03919064  0.51574781  0.34707407  1
  O  O25  1  0.33829210  0.66319519  0.10699442  1
  O  O26  1  0.48856123  0.96239336  0.34838190  1
  O  O27  1  0.16022071  0.84138399  0.58666953  1
  O  O28  1  0.99379944  0.00592461  0.81654861  1
  O  O29  1  0.99646911  0.00213292  0.31701199  1
