# generated using pymatgen
data_Li4Ti3Mn2Nb3O16
_symmetry_space_group_name_H-M   'P 1'
_cell_length_a   6.09259473
_cell_length_b   6.02754413
_cell_length_c   10.12993545
_cell_angle_alpha   89.99636674
_cell_angle_beta   89.68478578
_cell_angle_gamma   119.65374918
_symmetry_Int_Tables_number   1
_chemical_formula_structural   Li4Ti3Mn2Nb3O16
_chemical_formula_sum   'Li4 Ti3 Mn2 Nb3 O16'
_cell_volume   323.27783013
_cell_formula_units_Z   1
loop_
 _symmetry_equiv_pos_site_id
 _symmetry_equiv_pos_as_xyz
  1  'x, y, z'
loop_
 _atom_site_type_symbol
 _atom_site_label
 _atom_site_symmetry_multiplicity
 _atom_site_fract_x
 _atom_site_fract_y
 _atom_site_fract_z
 _atom_site_occupancy
  Li  Li0  1  0.33322182  0.66658450  0.89581086  1
  Li  Li1  1  0.01386016  0.00698322  0.99656693  1
  Li  Li2  1  0.00948225  0.00476369  0.49731898  1
  Li  Li3  1  0.66299468  0.33150622  0.38836363  1
  Ti  Ti4  1  0.16801743  0.83109111  0.21601421  1
  Ti  Ti5  1  0.16803289  0.33689511  0.21600067  1
  Ti  Ti6  1  0.32843758  0.16421266  0.72160618  1
  Mn  Mn7  1  0.34480135  0.67245229  0.49539484  1
  Mn  Mn8  1  0.66590105  0.33298024  0.00057306  1
  Nb  Nb9  1  0.66243602  0.83122955  0.21495876  1
  Nb  Nb10  1  0.83379025  0.64556677  0.71095403  1
  Nb  Nb11  1  0.83379175  0.18825218  0.71096709  1
  O  O12  1  0.15526742  0.84027944  0.60666320  1
  O  O13  1  0.03630714  0.51813899  0.32339330  1
  O  O14  1  0.33163498  0.66577855  0.10598618  1
  O  O15  1  0.00455658  0.00231019  0.31622644  1
  O  O16  1  0.00764558  0.00385010  0.81527689  1
  O  O17  1  0.15526608  0.31499366  0.60669331  1
  O  O18  1  0.48036000  0.96862383  0.32753210  1
  O  O19  1  0.48031758  0.51179061  0.32752786  1
  O  O20  1  0.30967799  0.15490152  0.10973958  1
  O  O21  1  0.69409045  0.84706186  0.59886682  1
  O  O22  1  0.51180012  0.47962536  0.82503646  1
  O  O23  1  0.51182568  0.03218153  0.82501870  1
  O  O24  1  0.62916935  0.31455282  0.59626579  1
  O  O25  1  0.84898882  0.69160636  0.10561945  1
  O  O26  1  0.96930718  0.48466712  0.84782423  1
  O  O27  1  0.84901581  0.15742050  0.10563843  1
