# generated using pymatgen
data_LiFe3OF5
_symmetry_space_group_name_H-M   'P 1'
_cell_length_a   6.27619224
_cell_length_b   6.24976434
_cell_length_c   6.18370011
_cell_angle_alpha   91.54331559
_cell_angle_beta   91.42005085
_cell_angle_gamma   91.82180964
_symmetry_Int_Tables_number   1
_chemical_formula_structural   LiFe3OF5
_chemical_formula_sum   'Li2 Fe6 O2 F10'
_cell_volume   242.26357498
_cell_formula_units_Z   2
loop_
 _symmetry_equiv_pos_site_id
 _symmetry_equiv_pos_as_xyz
  1  'x, y, z'
loop_
 _atom_site_type_symbol
 _atom_site_label
 _atom_site_symmetry_multiplicity
 _atom_site_fract_x
 _atom_site_fract_y
 _atom_site_fract_z
 _atom_site_occupancy
  Li  Li0  1  0.49947289  0.50760552  0.49261429  1
  Li  Li1  1  0.01303833  0.01483350  0.00247732  1
  Fe  Fe2  1  0.44215834  0.91245468  0.72779796  1
  Fe  Fe3  1  0.23999768  0.54740842  0.06042521  1
  Fe  Fe4  1  0.07589061  0.26742089  0.58828072  1
  Fe  Fe5  1  0.90345665  0.76061334  0.43635704  1
  Fe  Fe6  1  0.76381330  0.42332344  0.93296628  1
  Fe  Fe7  1  0.56500407  0.05307701  0.25712900  1
  O  O8  1  0.06370897  0.32498879  0.90775599  1
  O  O9  1  0.59579367  0.82220505  0.46397236  1
  F  F10  1  0.09447363  0.91315982  0.68789102  1
  F  F11  1  0.31148362  0.89555217  0.06503273  1
  F  F12  1  0.17686020  0.55829181  0.39730376  1
  F  F13  1  0.47947928  0.58181782  0.82629637  1
  F  F14  1  0.54271220  0.38238017  0.18613380  1
  F  F15  1  0.39776167  0.20071443  0.54545429  1
  F  F16  1  0.91109532  0.70597115  0.08916523  1
  F  F17  1  0.79976686  0.45713266  0.58226514  1
  F  F18  1  0.67834465  0.07211607  0.93217569  1
  F  F19  1  0.94568806  0.09893327  0.31850480  1
