# generated using pymatgen
data_Li3Fe8(BO3)8
_symmetry_space_group_name_H-M   'P 1'
_cell_length_a   5.31624460
_cell_length_b   9.02785092
_cell_length_c   10.04298897
_cell_angle_alpha   90.50107529
_cell_angle_beta   91.31270412
_cell_angle_gamma   90.53075361
_symmetry_Int_Tables_number   1
_chemical_formula_structural   Li3Fe8(BO3)8
_chemical_formula_sum   'Li3 Fe8 B8 O24'
_cell_volume   481.83934187
_cell_formula_units_Z   1
loop_
 _symmetry_equiv_pos_site_id
 _symmetry_equiv_pos_as_xyz
  1  'x, y, z'
loop_
 _atom_site_type_symbol
 _atom_site_label
 _atom_site_symmetry_multiplicity
 _atom_site_fract_x
 _atom_site_fract_y
 _atom_site_fract_z
 _atom_site_occupancy
  Li  Li0  1  0.65095910  0.99950667  0.08737050  1
  Li  Li1  1  0.15568777  0.50270590  0.09442312  1
  Li  Li2  1  0.34230662  0.99142581  0.35619312  1
  Fe  Fe3  1  0.15180943  0.15905708  0.11751357  1
  Fe  Fe4  1  0.83825854  0.17049072  0.37429701  1
  Fe  Fe5  1  0.34018345  0.33484616  0.86887643  1
  Fe  Fe6  1  0.66343380  0.33600697  0.62605542  1
  Fe  Fe7  1  0.33492610  0.66053843  0.37242435  1
  Fe  Fe8  1  0.16153788  0.84102033  0.62415414  1
  Fe  Fe9  1  0.66535279  0.65677403  0.12214796  1
  Fe  Fe10  1  0.83823153  0.83290627  0.86299654  1
  B  B11  1  0.17459290  0.17378168  0.61870190  1
  B  B12  1  0.33333311  0.32592970  0.37185558  1
  B  B13  1  0.83152207  0.16733033  0.87259405  1
  B  B14  1  0.66551099  0.33054555  0.12110217  1
  B  B15  1  0.33298725  0.67029697  0.87735076  1
  B  B16  1  0.65714774  0.66877213  0.62084339  1
  B  B17  1  0.16447579  0.83066216  0.12756221  1
  B  B18  1  0.83090677  0.83381969  0.36764805  1
  O  O19  1  0.28630788  0.04226593  0.60702122  1
  O  O20  1  0.08145214  0.19005940  0.91071377  1
  O  O21  1  0.72276024  0.03140515  0.89038402  1
  O  O22  1  0.19733172  0.19685931  0.33565589  1
  O  O23  1  0.30259128  0.30141641  0.66901991  1
  O  O24  1  0.76986197  0.19639788  0.16875325  1
  O  O25  1  0.92396367  0.19540355  0.57396855  1
  O  O26  1  0.41326261  0.32703595  0.07596509  1
  O  O27  1  0.23327433  0.46145370  0.35331024  1
  O  O28  1  0.57632774  0.30733193  0.42373581  1
  O  O29  1  0.69246590  0.28816972  0.82748275  1
  O  O30  1  0.23025851  0.53130476  0.89119149  1
  O  O31  1  0.80764629  0.45576499  0.11816751  1
  O  O32  1  0.27524334  0.69542743  0.16439751  1
  O  O33  1  0.41725197  0.68554160  0.56379723  1
  O  O34  1  0.76468986  0.53267554  0.63163769  1
  O  O35  1  0.58289152  0.69429448  0.91605001  1
  O  O36  1  0.08743713  0.82236742  0.39952844  1
  O  O37  1  0.18921229  0.78868227  0.83506784  1
  O  O38  1  0.68825611  0.70930870  0.33304706  1
  O  O39  1  0.78493584  0.79537242  0.66818724  1
  O  O40  1  0.30288357  0.95997296  0.14289288  1
  O  O41  1  0.91596577  0.83207605  0.07955351  1
  O  O42  1  0.71870772  0.97109287  0.36534884  1
