# generated using pymatgen
data_Li4Mn3V2Fe3O16
_symmetry_space_group_name_H-M   'P 1'
_cell_length_a   5.89167779
_cell_length_b   5.96419488
_cell_length_c   9.51485719
_cell_angle_alpha   89.12837263
_cell_angle_beta   90.01855432
_cell_angle_gamma   120.25918558
_symmetry_Int_Tables_number   1
_chemical_formula_structural   Li4Mn3V2Fe3O16
_chemical_formula_sum   'Li4 Mn3 V2 Fe3 O16'
_cell_volume   288.74706446
_cell_formula_units_Z   1
loop_
 _symmetry_equiv_pos_site_id
 _symmetry_equiv_pos_as_xyz
  1  'x, y, z'
loop_
 _atom_site_type_symbol
 _atom_site_label
 _atom_site_symmetry_multiplicity
 _atom_site_fract_x
 _atom_site_fract_y
 _atom_site_fract_z
 _atom_site_occupancy
  Li  Li0  1  0.34464532  0.67938513  0.89740708  1
  Li  Li1  1  0.99302505  0.99666096  0.99420779  1
  Li  Li2  1  0.99080295  0.99192726  0.49399462  1
  Li  Li3  1  0.67526559  0.33774422  0.39783509  1
  Mn  Mn4  1  0.65618570  0.82836169  0.21370657  1
  Mn  Mn5  1  0.82974972  0.65622662  0.71571663  1
  Mn  Mn6  1  0.83620323  0.17336179  0.71282902  1
  V  V7  1  0.33367514  0.66247236  0.48885722  1
  V  V8  1  0.66298821  0.33531636  0.98813070  1
  Fe  Fe9  1  0.16752249  0.82943778  0.21410459  1
  Fe  Fe10  1  0.16814352  0.33887825  0.21341761  1
  Fe  Fe11  1  0.33749359  0.16548816  0.71278557  1
  O  O12  1  0.15914607  0.82598992  0.59803435  1
  O  O13  1  0.04999889  0.52269021  0.35084878  1
  O  O14  1  0.34130273  0.67403272  0.10475437  1
  O  O15  1  0.98845837  0.99266145  0.30606569  1
  O  O16  1  0.98592813  0.98621518  0.80535146  1
  O  O17  1  0.15721225  0.32326524  0.59476342  1
  O  O18  1  0.49289302  0.96020175  0.34145989  1
  O  O19  1  0.49098758  0.52789008  0.33915315  1
  O  O20  1  0.33901112  0.17255769  0.09252042  1
  O  O21  1  0.64587521  0.79786158  0.59174871  1
  O  O22  1  0.52418777  0.48549302  0.83950897  1
  O  O23  1  0.53618660  0.05266481  0.84547452  1
  O  O24  1  0.67976420  0.34452967  0.60832104  1
  O  O25  1  0.82126541  0.66372359  0.09968647  1
  O  O26  1  0.96541432  0.51190317  0.85012590  1
  O  O27  1  0.82666982  0.16335833  0.09703335  1
