# generated using pymatgen
data_Mn6O5F7
_symmetry_space_group_name_H-M   'P 1'
_cell_length_a   4.74537457
_cell_length_b   5.75731484
_cell_length_c   15.59549682
_cell_angle_alpha   91.17309180
_cell_angle_beta   91.38950196
_cell_angle_gamma   85.49082346
_symmetry_Int_Tables_number   1
_chemical_formula_structural   Mn6O5F7
_chemical_formula_sum   'Mn12 O10 F14'
_cell_volume   424.56115873
_cell_formula_units_Z   2
loop_
 _symmetry_equiv_pos_site_id
 _symmetry_equiv_pos_as_xyz
  1  'x, y, z'
loop_
 _atom_site_type_symbol
 _atom_site_label
 _atom_site_symmetry_multiplicity
 _atom_site_fract_x
 _atom_site_fract_y
 _atom_site_fract_z
 _atom_site_occupancy
  Mn  Mn0  1  0.98932302  0.15172035  0.41582858  1
  Mn  Mn1  1  0.03368205  0.83841101  0.24317582  1
  Mn  Mn2  1  0.01899798  0.17222044  0.08751797  1
  Mn  Mn3  1  0.02665282  0.16430101  0.75014380  1
  Mn  Mn4  1  0.02670547  0.83143583  0.57808638  1
  Mn  Mn5  1  0.00120143  0.84101991  0.90845797  1
  Mn  Mn6  1  0.51158152  0.35731934  0.59354044  1
  Mn  Mn7  1  0.49197349  0.34317633  0.91999084  1
  Mn  Mn8  1  0.49503352  0.35632491  0.25406861  1
  Mn  Mn9  1  0.49363165  0.63683665  0.08806596  1
  Mn  Mn10  1  0.48124331  0.65151202  0.41144083  1
  Mn  Mn11  1  0.46894646  0.63632053  0.75076147  1
  O  O12  1  0.23455941  0.88315398  0.14109215  1
  O  O13  1  0.21498791  0.88099763  0.46724496  1
  O  O14  1  0.22755809  0.88566804  0.80169185  1
  O  O15  1  0.28954791  0.39177804  0.14520223  1
  O  O16  1  0.27391556  0.61611102  0.30519846  1
  O  O17  1  0.28280721  0.60907386  0.64146041  1
  O  O18  1  0.27168236  0.38448408  0.81262345  1
  O  O19  1  0.71690200  0.38577090  0.02720408  1
  O  O20  1  0.70998956  0.38234834  0.36268185  1
  O  O21  1  0.73420165  0.39675411  0.69758925  1
  F  F22  1  0.23050416  0.11788487  0.30926721  1
  F  F23  1  0.24065631  0.11075811  0.63489766  1
  F  F24  1  0.22791269  0.11050299  0.97161894  1
  F  F25  1  0.26108185  0.37853014  0.48524524  1
  F  F26  1  0.25108140  0.60916647  0.97567206  1
  F  F27  1  0.75399884  0.61217511  0.19391371  1
  F  F28  1  0.71996584  0.62589326  0.51857607  1
  F  F29  1  0.70640444  0.62051977  0.85877863  1
  F  F30  1  0.76711597  0.11342369  0.19924905  1
  F  F31  1  0.76081354  0.12337542  0.52942197  1
  F  F32  1  0.78062516  0.88271934  0.34754996  1
  F  F33  1  0.75873514  0.87824985  0.02646901  1
  F  F34  1  0.75914887  0.12014476  0.85961903  1
  F  F35  1  0.78683344  0.89991793  0.68665510  1
