# generated using pymatgen
data_Li3Fe8(BO3)8
_symmetry_space_group_name_H-M   'P 1'
_cell_length_a   5.25036557
_cell_length_b   9.20612286
_cell_length_c   10.08471653
_cell_angle_alpha   90.80199240
_cell_angle_beta   91.14593906
_cell_angle_gamma   88.55363316
_symmetry_Int_Tables_number   1
_chemical_formula_structural   Li3Fe8(BO3)8
_chemical_formula_sum   'Li3 Fe8 B8 O24'
_cell_volume   487.15276369
_cell_formula_units_Z   1
loop_
 _symmetry_equiv_pos_site_id
 _symmetry_equiv_pos_as_xyz
  1  'x, y, z'
loop_
 _atom_site_type_symbol
 _atom_site_label
 _atom_site_symmetry_multiplicity
 _atom_site_fract_x
 _atom_site_fract_y
 _atom_site_fract_z
 _atom_site_occupancy
  Li  Li0  1  0.67563529  0.67131485  0.41196106  1
  Li  Li1  1  0.67436734  0.67498131  0.91866305  1
  Li  Li2  1  0.17100052  0.17580454  0.90152681  1
  Fe  Fe3  1  0.82494974  0.16363386  0.63479376  1
  Fe  Fe4  1  0.81658829  0.49769148  0.12832047  1
  Fe  Fe5  1  0.68725580  -0.00192984  0.87832853  1
  Fe  Fe6  1  0.67352598  0.33163642  0.37515085  1
  Fe  Fe7  1  0.32319993  0.66609878  0.63611417  1
  Fe  Fe8  1  0.33383175  0.99504615  0.12617954  1
  Fe  Fe9  1  0.16481788  0.84207850  0.37512984  1
  Fe  Fe10  1  0.17871044  0.49866044  0.87998703  1
  B  B11  1  0.83465268  0.49773258  0.61933904  1
  B  B12  1  0.83429816  0.16335453  0.12971591  1
  B  B13  1  0.65772951  0.99843819  0.38189833  1
  B  B14  1  0.66654772  0.33547624  0.87526007  1
  B  B15  1  0.33840098  0.99773502  0.62969362  1
  B  B16  1  0.32334371  0.67176709  0.12520627  1
  B  B17  1  0.16746809  0.50577349  0.37814039  1
  B  B18  1  0.17296846  0.83177040  0.87763226  1
  O  O19  1  0.90428144  0.50534625  0.35300739  1
  O  O20  1  0.91649925  0.82365767  0.87766958  1
  O  O21  1  0.81592749  0.21159912  0.83434035  1
  O  O22  1  0.75556362  0.12869061  0.42870628  1
  O  O23  1  0.80261117  0.87142897  0.38277879  1
  O  O24  1  0.79135383  0.46178193  0.91016238  1
  O  O25  1  0.67087912  0.61615368  0.61082946  1
  O  O26  1  0.67369647  0.05417202  0.08659502  1
  O  O27  1  0.75155161  0.36170398  0.57749677  1
  O  O28  1  0.73432214  0.28949594  0.18532348  1
  O  O29  1  0.58100067  0.66825441  0.11451453  1
  O  O30  1  0.59149505  0.00788343  0.66769680  1
  O  O31  1  0.40612900  0.99770043  0.33379256  1
  O  O32  1  0.40983680  0.32448680  0.87954167  1
  O  O33  1  0.32729429  0.71395557  0.83106593  1
  O  O34  1  0.27182743  0.64136210  0.41871038  1
  O  O35  1  0.32408751  0.38830048  0.36809165  1
  O  O36  1  0.30397528  0.95399198  0.92464483  1
  O  O37  1  0.16857633  0.56362946  0.08183492  1
  O  O38  1  0.17160532  0.11038348  0.64712732  1
  O  O39  1  0.25720606  0.86445151  0.57388787  1
  O  O40  1  0.20644964  0.80320170  0.17793772  1
  O  O41  1  0.09204095  0.14892239  0.10808036  1
  O  O42  1  0.08321523  0.51435409  0.66374099  1
