# generated using pymatgen
data_Mn6O5F7
_symmetry_space_group_name_H-M   'P 1'
_cell_length_a   4.72802717
_cell_length_b   5.72468656
_cell_length_c   15.63151816
_cell_angle_alpha   90.40069261
_cell_angle_beta   91.15181742
_cell_angle_gamma   86.64902876
_symmetry_Int_Tables_number   1
_chemical_formula_structural   Mn6O5F7
_chemical_formula_sum   'Mn12 O10 F14'
_cell_volume   422.27416089
_cell_formula_units_Z   2
loop_
 _symmetry_equiv_pos_site_id
 _symmetry_equiv_pos_as_xyz
  1  'x, y, z'
loop_
 _atom_site_type_symbol
 _atom_site_label
 _atom_site_symmetry_multiplicity
 _atom_site_fract_x
 _atom_site_fract_y
 _atom_site_fract_z
 _atom_site_occupancy
  Mn  Mn0  1  0.01883117  0.16809813  0.41666778  1
  Mn  Mn1  1  0.98247135  0.82545943  0.23691340  1
  Mn  Mn2  1  0.99317692  0.15020418  0.08006379  1
  Mn  Mn3  1  0.03464779  0.16478680  0.75927560  1
  Mn  Mn4  1  0.02698723  0.83726966  0.58021464  1
  Mn  Mn5  1  0.03120924  0.82932748  0.91315766  1
  Mn  Mn6  1  0.47602422  0.35231670  0.58081675  1
  Mn  Mn7  1  0.50507745  0.36393359  0.92191620  1
  Mn  Mn8  1  0.51859128  0.35909645  0.25432919  1
  Mn  Mn9  1  0.49099442  0.64813530  0.08386869  1
  Mn  Mn10  1  0.49020675  0.64940714  0.42003579  1
  Mn  Mn11  1  0.46851941  0.64844882  0.75062116  1
  O  O12  1  0.20898424  0.88449557  0.13205236  1
  O  O13  1  0.23032135  0.88953777  0.47241843  1
  O  O14  1  0.23183859  0.88148152  0.81137048  1
  O  O15  1  0.27061087  0.39213104  0.47432015  1
  O  O16  1  0.27353717  0.60961027  0.63683661  1
  O  O17  1  0.29575450  0.39406072  0.81222517  1
  O  O18  1  0.28422126  0.61572185  0.97454802  1
  O  O19  1  0.72437662  0.38450846  0.02944883  1
  O  O20  1  0.69678202  0.61128235  0.19404447  1
  O  O21  1  0.72593990  0.39740620  0.36502329  1
  F  F22  1  0.23523450  0.11617028  0.29853302  1
  F  F23  1  0.24081641  0.10844666  0.64359978  1
  F  F24  1  0.23050870  0.11918076  0.97480272  1
  F  F25  1  0.24777499  0.37794167  0.14845561  1
  F  F26  1  0.24614917  0.61669305  0.31022837  1
  F  F27  1  0.74040417  0.61349914  0.52906126  1
  F  F28  1  0.74876007  0.61790689  0.85273845  1
  F  F29  1  0.73055297  0.37809965  0.69221788  1
  F  F30  1  0.74906115  0.11295655  0.18421372  1
  F  F31  1  0.76272184  0.11100981  0.53417667  1
  F  F32  1  0.76720324  0.89862941  0.35800991  1
  F  F33  1  0.77849553  0.87966058  0.01428374  1
  F  F34  1  0.76669696  0.11627287  0.86726418  1
  F  F35  1  0.77651556  0.87681326  0.69225021  1
