# generated using pymatgen
data_LiFe4(BO3)4
_symmetry_space_group_name_H-M   'P 1'
_cell_length_a   5.32426558
_cell_length_b   9.02162972
_cell_length_c   11.33264268
_cell_angle_alpha   113.67090987
_cell_angle_beta   77.18193878
_cell_angle_gamma   90.10499696
_symmetry_Int_Tables_number   1
_chemical_formula_structural   LiFe4(BO3)4
_chemical_formula_sum   'Li2 Fe8 B8 O24'
_cell_volume   483.80012449
_cell_formula_units_Z   2
loop_
 _symmetry_equiv_pos_site_id
 _symmetry_equiv_pos_as_xyz
  1  'x, y, z'
loop_
 _atom_site_type_symbol
 _atom_site_label
 _atom_site_symmetry_multiplicity
 _atom_site_fract_x
 _atom_site_fract_y
 _atom_site_fract_z
 _atom_site_occupancy
  Li  Li0  1  0.60101464  0.05630337  0.09788572  1
  Li  Li1  1  0.93045087  0.43251597  0.84061906  1
  Fe  Fe2  1  0.40321047  0.26546752  0.87442301  1
  Fe  Fe3  1  0.09905813  0.22644456  0.12445401  1
  Fe  Fe4  1  0.84262098  0.14089084  0.61730721  1
  Fe  Fe5  1  0.65361277  0.35449642  0.37178403  1
  Fe  Fe6  1  0.34970130  0.64541643  0.62598693  1
  Fe  Fe7  1  0.15100290  0.84879695  0.36855301  1
  Fe  Fe8  1  0.90404157  0.78277569  0.86723367  1
  Fe  Fe9  1  0.60219308  0.72193776  0.12087074  1
  B  B10  1  0.64433051  0.01356017  0.36685466  1
  B  B11  1  0.88696550  0.11499516  0.87685945  1
  B  B12  1  0.14374107  0.51817770  0.37652727  1
  B  B13  1  0.40294844  0.59608864  0.87058443  1
  B  B14  1  0.85135269  0.48318297  0.62361726  1
  B  B15  1  0.60467525  0.39352388  0.12197149  1
  B  B16  1  0.35120355  0.98083169  0.62308194  1
  B  B17  1  0.10940306  0.89213507  0.12291461  1
  O  O18  1  0.11883198  0.14972534  0.91338828  1
  O  O19  1  0.46845226  0.12661229  0.66982819  1
  O  O20  1  0.23662117  0.01980439  0.11747263  1
  O  O21  1  0.55716550  0.14652317  0.35569213  1
  O  O22  1  0.85755274  0.01647402  0.42207662  1
  O  O23  1  0.79356613  0.21705548  0.82344051  1
  O  O24  1  0.28106024  0.46064517  0.86853948  1
  O  O25  1  0.02393201  0.37555902  0.33497890  1
  O  O26  1  0.69279535  0.29020368  0.17290764  1
  O  O27  1  0.63673674  0.47610609  0.57106855  1
  O  O28  1  0.93072491  0.35412232  0.64570662  1
  O  O29  1  0.39678035  0.34658274  0.06418948  1
  O  O30  1  0.63117024  0.62848656  0.91766132  1
  O  O31  1  0.36376801  0.51865577  0.42557760  1
  O  O32  1  0.30337607  0.69734594  0.82369307  1
  O  O33  1  0.97355420  0.62476215  0.66145729  1
  O  O34  1  0.71997389  0.52811610  0.12426526  1
  O  O35  1  0.21661545  0.78355397  0.16441392  1
  O  O36  1  0.13827657  0.98290335  0.56932788  1
  O  O37  1  0.44266639  0.84622068  0.62863499  1
  O  O38  1  0.05294476  0.65320189  0.36925869  1
  O  O39  1  0.75108254  0.99946826  0.89846514  1
  O  O40  1  0.52896629  0.86776618  0.32408539  1
  O  O41  1  0.86870442  0.86437965  0.08841391  1
