# generated using pymatgen
data_Mn6O5F7
_symmetry_space_group_name_H-M   'P 1'
_cell_length_a   4.73984153
_cell_length_b   5.73160747
_cell_length_c   15.58641743
_cell_angle_alpha   90.07409316
_cell_angle_beta   89.91214446
_cell_angle_gamma   90.16695136
_symmetry_Int_Tables_number   1
_chemical_formula_structural   Mn6O5F7
_chemical_formula_sum   'Mn12 O10 F14'
_cell_volume   423.43216982
_cell_formula_units_Z   2
loop_
 _symmetry_equiv_pos_site_id
 _symmetry_equiv_pos_as_xyz
  1  'x, y, z'
loop_
 _atom_site_type_symbol
 _atom_site_label
 _atom_site_symmetry_multiplicity
 _atom_site_fract_x
 _atom_site_fract_y
 _atom_site_fract_z
 _atom_site_occupancy
  Mn  Mn0  1  0.03664553  0.16557464  0.41913393  1
  Mn  Mn1  1  0.00459164  0.81440129  0.25169386  1
  Mn  Mn2  1  0.04328390  0.16495774  0.08290427  1
  Mn  Mn3  1  0.97579415  0.15487058  0.74470186  1
  Mn  Mn4  1  0.00390303  0.86425663  0.57852218  1
  Mn  Mn5  1  0.05468816  0.83758408  0.91527929  1
  Mn  Mn6  1  0.47300850  0.33388582  0.58861940  1
  Mn  Mn7  1  0.48045197  0.34026316  0.92091650  1
  Mn  Mn8  1  0.50612257  0.37367349  0.24626156  1
  Mn  Mn9  1  0.51164820  0.63659302  0.08426570  1
  Mn  Mn10  1  0.46801150  0.65653190  0.42032414  1
  Mn  Mn11  1  0.47981367  0.65584728  0.75092498  1
  O  O12  1  0.19449364  0.10865251  0.63838125  1
  O  O13  1  0.23676152  0.10535318  0.97088163  1
  O  O14  1  0.21802832  0.90468441  0.47428883  1
  O  O15  1  0.20765075  0.89498465  0.80057486  1
  O  O16  1  0.29405670  0.39011358  0.14222961  1
  O  O17  1  0.29034979  0.59957093  0.30974301  1
  O  O18  1  0.28143753  0.38962336  0.47781934  1
  O  O19  1  0.29761522  0.59484795  0.97856867  1
  O  O20  1  0.72027593  0.60958603  0.19187166  1
  O  O21  1  0.68632345  0.37371578  0.69510670  1
  F  F22  1  0.26115567  0.11894649  0.29962685  1
  F  F23  1  0.24224701  0.88864152  0.14130926  1
  F  F24  1  0.24259500  0.60839577  0.63869313  1
  F  F25  1  0.23301040  0.40380782  0.80908203  1
  F  F26  1  0.76371890  0.37090299  0.02472604  1
  F  F27  1  0.75981991  0.38035872  0.35756260  1
  F  F28  1  0.72878911  0.63491293  0.52648980  1
  F  F29  1  0.73108776  0.61337317  0.86466212  1
  F  F30  1  0.77837030  0.12485215  0.19610244  1
  F  F31  1  0.74858160  0.13579790  0.52440653  1
  F  F32  1  0.77008002  0.89267189  0.36614766  1
  F  F33  1  0.78842768  0.86577720  0.02905991  1
  F  F34  1  0.74333983  0.12332057  0.85744349  1
  F  F35  1  0.74382314  0.86866988  0.68167588  1
