# generated using pymatgen
data_Li2VF4
_symmetry_space_group_name_H-M   'P 1'
_cell_length_a   5.38217688
_cell_length_b   6.19203717
_cell_length_c   10.10713576
_cell_angle_alpha   90.00000000
_cell_angle_beta   85.13661558
_cell_angle_gamma   90.00000000
_symmetry_Int_Tables_number   1
_chemical_formula_structural   Li2VF4
_chemical_formula_sum   'Li8 V4 F16'
_cell_volume   335.62414715
_cell_formula_units_Z   4
loop_
 _symmetry_equiv_pos_site_id
 _symmetry_equiv_pos_as_xyz
  1  'x, y, z'
loop_
 _atom_site_type_symbol
 _atom_site_label
 _atom_site_symmetry_multiplicity
 _atom_site_fract_x
 _atom_site_fract_y
 _atom_site_fract_z
 _atom_site_occupancy
  Li  Li0  1  0.18489234  0.93388336  0.22410851  1
  Li  Li1  1  0.24697081  0.38693980  0.55173882  1
  Li  Li2  1  0.31510766  0.43388336  0.27589149  1
  Li  Li3  1  0.25302919  0.88693980  0.94826118  1
  Li  Li4  1  0.74697081  0.11306020  0.05173882  1
  Li  Li5  1  0.68489234  0.56611664  0.72410851  1
  Li  Li6  1  0.75302919  0.61306020  0.44826118  1
  Li  Li7  1  0.81510766  0.06611664  0.77589149  1
  V  V8  1  0.25439483  0.86596360  0.51233633  1
  V  V9  1  0.24560517  0.36596360  0.98766367  1
  V  V10  1  0.75439483  0.63403640  0.01233633  1
  V  V11  1  0.74560517  0.13403640  0.48766367  1
  F  F12  1  0.10718669  0.10646521  0.38355548  1
  F  F13  1  0.11037920  0.62187645  0.39263122  1
  F  F14  1  0.07018031  0.12297806  0.88588804  1
  F  F15  1  0.09198518  0.62902041  0.89079379  1
  F  F16  1  0.38962080  0.12187645  0.10736878  1
  F  F17  1  0.39281331  0.60646521  0.11644452  1
  F  F18  1  0.40801482  0.12902041  0.60920621  1
  F  F19  1  0.42981969  0.62297806  0.61411196  1
  F  F20  1  0.57018031  0.37702194  0.38588804  1
  F  F21  1  0.59198518  0.87097959  0.39079379  1
  F  F22  1  0.60718669  0.39353479  0.88355548  1
  F  F23  1  0.61037920  0.87812355  0.89263122  1
  F  F24  1  0.90801482  0.37097959  0.10920621  1
  F  F25  1  0.92981969  0.87702194  0.11411196  1
  F  F26  1  0.88962080  0.37812355  0.60736878  1
  F  F27  1  0.89281331  0.89353479  0.61644452  1
