# generated using pymatgen
data_Fe4OF7
_symmetry_space_group_name_H-M   'P 1'
_cell_length_a   5.80840145
_cell_length_b   5.80840145
_cell_length_c   5.80840145
_cell_angle_alpha   73.02994020
_cell_angle_beta   107.77337396
_cell_angle_gamma   66.24195220
_symmetry_Int_Tables_number   1
_chemical_formula_structural   Fe4OF7
_chemical_formula_sum   'Fe4 O1 F7'
_cell_volume   150.20580270
_cell_formula_units_Z   1
loop_
 _symmetry_equiv_pos_site_id
 _symmetry_equiv_pos_as_xyz
  1  'x, y, z'
loop_
 _atom_site_type_symbol
 _atom_site_label
 _atom_site_symmetry_multiplicity
 _atom_site_fract_x
 _atom_site_fract_y
 _atom_site_fract_z
 _atom_site_occupancy
  Fe  Fe0  1  0.74130876  0.75000000  0.49130876  1
  Fe  Fe1  1  0.27193777  0.25000000  0.52193777  1
  Fe  Fe2  1  0.51152695  0.47974587  0.99127282  1
  Fe  Fe3  1  0.97101970  0.02025413  0.99127282  1
  O  O4  1  0.55554665  0.25000000  0.80554665  1
  F  F5  1  0.05052311  0.75000000  0.80052311  1
  F  F6  1  0.50285422  0.78950773  0.70596351  1
  F  F7  1  0.99547124  0.29688971  0.70596351  1
  F  F8  1  0.99547124  0.71049227  0.29236196  1
  F  F9  1  0.50285422  0.20311029  0.29236196  1
  F  F10  1  0.96640988  0.25000000  0.21640988  1
  F  F11  1  0.43507524  0.75000000  0.18507524  1
