# generated using pymatgen
data_Li4Ni2OF7
_symmetry_space_group_name_H-M   'P 1'
_cell_length_a   5.87536328
_cell_length_b   5.97877126
_cell_length_c   5.96555941
_cell_angle_alpha   119.92584850
_cell_angle_beta   89.99660347
_cell_angle_gamma   59.87076216
_symmetry_Int_Tables_number   1
_chemical_formula_structural   Li4Ni2OF7
_chemical_formula_sum   'Li4 Ni2 O1 F7'
_cell_volume   148.04936402
_cell_formula_units_Z   1
loop_
 _symmetry_equiv_pos_site_id
 _symmetry_equiv_pos_as_xyz
  1  'x, y, z'
loop_
 _atom_site_type_symbol
 _atom_site_label
 _atom_site_symmetry_multiplicity
 _atom_site_fract_x
 _atom_site_fract_y
 _atom_site_fract_z
 _atom_site_occupancy
  Li  Li0  1  0.36810304  0.76928649  0.88462397  1
  Li  Li1  1  0.64005119  0.23239491  0.11619476  1
  Li  Li2  1  0.99798418  0.00075711  0.50037373  1
  Li  Li3  1  0.50881535  0.97617654  0.48809457  1
  Ni  Ni4  1  0.01007875  0.49730209  0.50548245  1
  Ni  Ni5  1  0.01005582  0.49731387  0.99181236  1
  O  O6  1  0.20285283  0.52898623  0.76448078  1
  F  F7  1  0.75732430  0.97622663  0.25547201  1
  F  F8  1  0.75733729  0.97619732  0.72074341  1
  F  F9  1  0.77128995  0.50447233  0.25227080  1
  F  F10  1  0.23584397  0.50547107  0.25272040  1
  F  F11  1  0.76548867  0.48785096  0.74395122  1
  F  F12  1  0.23740891  0.02376377  0.27711692  1
  F  F13  1  0.23736576  0.02380068  0.74666263  1
