# generated using pymatgen
data_V2(OF)3
_symmetry_space_group_name_H-M   'P 1'
_cell_length_a   5.28289989
_cell_length_b   7.37414899
_cell_length_c   5.41681933
_cell_angle_alpha   92.35772914
_cell_angle_beta   90.00000000
_cell_angle_gamma   90.00000000
_symmetry_Int_Tables_number   1
_chemical_formula_structural   V2(OF)3
_chemical_formula_sum   'V4 O6 F6'
_cell_volume   210.84379897
_cell_formula_units_Z   2
loop_
 _symmetry_equiv_pos_site_id
 _symmetry_equiv_pos_as_xyz
  1  'x, y, z'
loop_
 _atom_site_type_symbol
 _atom_site_label
 _atom_site_symmetry_multiplicity
 _atom_site_fract_x
 _atom_site_fract_y
 _atom_site_fract_z
 _atom_site_occupancy
  V  V0  1  0.47349208  0.48102990  0.53385634  1
  V  V1  1  0.47349208  0.01897010  0.46614366  1
  V  V2  1  0.98348258  0.51735628  0.04457839  1
  V  V3  1  0.98348258  0.98264372  0.95542161  1
  O  O4  1  0.80109488  0.53842112  0.29160307  1
  O  O5  1  0.80109488  0.96157888  0.70839693  1
  O  O6  1  0.58665712  0.25000000  0.50000000  1
  O  O7  1  0.22104142  0.04006159  0.28882295  1
  O  O8  1  0.22104142  0.45993841  0.71117705  1
  O  O9  1  0.06505621  0.75000000  0.00000000  1
  F  F10  1  0.92727233  0.25000000  0.00000000  1
  F  F11  1  0.71580409  0.95856021  0.20495918  1
  F  F12  1  0.71580409  0.54143979  0.79504082  1
  F  F13  1  0.43756565  0.75000000  0.50000000  1
  F  F14  1  0.29680930  0.45832858  0.21418001  1
  F  F15  1  0.29680930  0.04167142  0.78581999  1
