# generated using pymatgen
data_LiFe8(BO3)8
_symmetry_space_group_name_H-M   'P 1'
_cell_length_a   5.24301788
_cell_length_b   9.10284764
_cell_length_c   11.45993152
_cell_angle_alpha   65.74070394
_cell_angle_beta   76.77912106
_cell_angle_gamma   88.74580825
_symmetry_Int_Tables_number   1
_chemical_formula_structural   LiFe8(BO3)8
_chemical_formula_sum   'Li1 Fe8 B8 O24'
_cell_volume   483.82402827
_cell_formula_units_Z   1
loop_
 _symmetry_equiv_pos_site_id
 _symmetry_equiv_pos_as_xyz
  1  'x, y, z'
loop_
 _atom_site_type_symbol
 _atom_site_label
 _atom_site_symmetry_multiplicity
 _atom_site_fract_x
 _atom_site_fract_y
 _atom_site_fract_z
 _atom_site_occupancy
  Li  Li0  1  0.23884411  0.25321643  0.15415793  1
  Fe  Fe1  1  0.98012904  0.64775717  0.37513562  1
  Fe  Fe2  1  0.73229509  0.06406299  0.87730608  1
  Fe  Fe3  1  0.51648554  0.84711518  0.62873461  1
  Fe  Fe4  1  0.75049390  0.45256653  0.12542028  1
  Fe  Fe5  1  0.23163404  0.56132961  0.88231846  1
  Fe  Fe6  1  0.49349164  0.15330204  0.37646683  1
  Fe  Fe7  1  0.01779153  0.34889753  0.62932006  1
  Fe  Fe8  1  0.26628650  0.92553769  0.12492418  1
  B  B9  1  0.97963805  0.31732699  0.37418646  1
  B  B10  1  0.73376382  0.39284183  0.87833999  1
  B  B11  1  0.52513622  0.18461967  0.62815590  1
  B  B12  1  0.76308174  0.10470547  0.12742479  1
  B  B13  1  0.47148545  0.81365928  0.37695893  1
  B  B14  1  0.23410360  0.89309098  0.87626376  1
  B  B15  1  0.02875430  0.68498886  0.62742239  1
  B  B16  1  0.26513280  0.60775280  0.12693987  1
  O  O17  1  0.98274545  0.91853110  0.87134269  1
  O  O18  1  0.86946650  0.28949448  0.82678293  1
  O  O19  1  0.87209256  0.47742956  0.92390220  1
  O  O20  1  0.86297402  0.79946156  0.63119073  1
  O  O21  1  0.98146426  0.58133716  0.57062914  1
  O  O22  1  0.75157193  0.16536739  0.67675516  1
  O  O23  1  0.74556324  0.32864895  0.33594507  1
  O  O24  1  0.47154044  0.40376560  0.88859046  1
  O  O25  1  0.37242465  0.78778548  0.82877072  1
  O  O26  1  0.51273994  0.92004233  0.43236907  1
  O  O27  1  0.63528109  0.69864683  0.37685455  1
  O  O28  1  0.36594274  0.97107069  0.93134648  1
  O  O29  1  0.63561825  0.02547746  0.07222602  1
  O  O30  1  0.36092510  0.29753512  0.63539528  1
  O  O31  1  0.47277949  0.07967639  0.57307094  1
  O  O32  1  0.61160549  0.20353960  0.17796918  1
  O  O33  1  0.51805396  0.61551946  0.12675963  1
  O  O34  1  0.25293445  0.66541771  0.67804849  1
  O  O35  1  0.25251535  0.83097380  0.32186010  1
  O  O36  1  0.03189958  0.41623549  0.43332863  1
  O  O37  1  0.15855490  0.21758664  0.34754518  1
  O  O38  1  0.15562334  0.50632309  0.08150701  1
  O  O39  1  0.09620831  0.70631322  0.17446660  1
  O  O40  1  0.02196157  0.08839286  0.13071262  1
