# generated using pymatgen
data_Li6Fe5WO12
_symmetry_space_group_name_H-M   'P 1'
_cell_length_a   5.21538931
_cell_length_b   5.21538922
_cell_length_c   10.29711916
_cell_angle_alpha   94.40072295
_cell_angle_beta   85.59927666
_cell_angle_gamma   59.58282107
_symmetry_Int_Tables_number   1
_chemical_formula_structural   Li6Fe5WO12
_chemical_formula_sum   'Li6 Fe5 W1 O12'
_cell_volume   238.63645597
_cell_formula_units_Z   1
loop_
 _symmetry_equiv_pos_site_id
 _symmetry_equiv_pos_as_xyz
  1  'x, y, z'
loop_
 _atom_site_type_symbol
 _atom_site_label
 _atom_site_symmetry_multiplicity
 _atom_site_fract_x
 _atom_site_fract_y
 _atom_site_fract_z
 _atom_site_occupancy
  Li  Li0  1  0.29300933  0.05670807  0.24406521  1
  Li  Li1  1  0.05689169  0.29229616  0.75412751  1
  Li  Li2  1  0.38170973  0.61829027  0.75409021  1
  Li  Li3  1  0.61940632  0.38059368  0.24979296  1
  Li  Li4  1  0.94329193  0.70699067  0.24406521  1
  Li  Li5  1  0.70770384  0.94310831  0.75412751  1
  Fe  Fe6  1  0.67369530  0.66189744  0.00028015  1
  Fe  Fe7  1  0.49977371  0.50022629  0.50065026  1
  Fe  Fe8  1  0.33810256  0.32630470  0.00028015  1
  Fe  Fe9  1  0.83388029  0.83340638  0.49979517  1
  Fe  Fe10  1  0.16659362  0.16611971  0.49979517  1
  W  W11  1  0.98830993  0.01169007  0.99914405  1
  O  O12  1  0.65250479  0.03205025  0.12250842  1
  O  O13  1  0.02028646  0.65438734  0.88371841  1
  O  O14  1  0.53740643  0.79645331  0.38723604  1
  O  O15  1  0.13192752  0.86807248  0.61028549  1
  O  O16  1  0.79645402  0.53845823  0.61284848  1
  O  O17  1  0.28354407  0.71645593  0.10715935  1
  O  O18  1  0.72817772  0.27182228  0.87934328  1
  O  O19  1  0.20354669  0.46259357  0.38723604  1
  O  O20  1  0.86867190  0.13132810  0.39037760  1
  O  O21  1  0.46154177  0.20354598  0.61284848  1
  O  O22  1  0.96794975  0.34749521  0.12250842  1
  O  O23  1  0.34561266  0.97971354  0.88371841  1
