# generated using pymatgen
data_Li2VOF4
_symmetry_space_group_name_H-M   'P 1'
_cell_length_a   5.25235958
_cell_length_b   9.39020917
_cell_length_c   8.57861808
_cell_angle_alpha   90.65545280
_cell_angle_beta   92.16472871
_cell_angle_gamma   93.32647132
_symmetry_Int_Tables_number   1
_chemical_formula_structural   Li2VOF4
_chemical_formula_sum   'Li8 V4 O4 F16'
_cell_volume   422.05019868
_cell_formula_units_Z   4
loop_
 _symmetry_equiv_pos_site_id
 _symmetry_equiv_pos_as_xyz
  1  'x, y, z'
loop_
 _atom_site_type_symbol
 _atom_site_label
 _atom_site_symmetry_multiplicity
 _atom_site_fract_x
 _atom_site_fract_y
 _atom_site_fract_z
 _atom_site_occupancy
  Li  Li0  1  0.21779007  0.67913749  0.39060815  1
  Li  Li1  1  0.32689817  0.01663742  0.39038228  1
  Li  Li2  1  0.17736914  0.99133468  0.87657146  1
  Li  Li3  1  0.25585221  0.33566283  0.89601871  1
  Li  Li4  1  0.80420206  0.81799860  0.56313880  1
  Li  Li5  1  0.81805473  0.49027073  0.61930105  1
  Li  Li6  1  0.66071283  0.50746281  0.12832630  1
  Li  Li7  1  0.68071803  0.19322007  0.08976201  1
  V  V8  1  0.32436800  0.64628272  0.78200782  1
  V  V9  1  0.18745132  0.37009345  0.28759559  1
  V  V10  1  0.76640473  0.87088825  0.19927554  1
  V  V11  1  0.71491046  0.12928368  0.71920415  1
  O  O12  1  0.23644286  0.22590503  0.38969926  1
  O  O13  1  0.40948387  0.50263079  0.32263250  1
  O  O14  1  0.32413499  0.79009694  0.89509678  1
  O  O15  1  0.67096469  0.28756964  0.64450200  1
  F  F16  1  0.00481709  0.18640167  0.86147406  1
  F  F17  1  0.91476372  0.35882329  0.12816792  1
  F  F18  1  0.99689437  0.96985366  0.06798640  1
  F  F19  1  0.07817320  0.48854784  0.80214761  1
  F  F20  1  0.47342700  0.00426531  0.60011552  1
  F  F21  1  0.58438089  0.65600780  0.63011229  1
  F  F22  1  0.48658968  0.80437800  0.32655811  1
  F  F23  1  0.38511440  0.31494958  0.10449514  1
  F  F24  1  0.51026030  0.10843533  0.89908578  1
  F  F25  1  0.53844689  0.52229309  0.90121633  1
  F  F26  1  0.61470622  0.05387657  0.23863690  1
  F  F27  1  0.93338141  0.97123170  0.69224281  1
  F  F28  1  0.86609107  0.68136641  0.16061901  1
  F  F29  1  0.94323903  0.45821560  0.40618410  1
  F  F30  1  0.00171360  0.88223834  0.38309297  1
  F  F31  1  0.09224496  0.68463870  0.60374366  1
