# generated using pymatgen
data_Li3Fe8(BO3)8
_symmetry_space_group_name_H-M   'P 1'
_cell_length_a   5.23908573
_cell_length_b   9.05579093
_cell_length_c   10.15837284
_cell_angle_alpha   90.22192208
_cell_angle_beta   90.24232449
_cell_angle_gamma   89.57173050
_symmetry_Int_Tables_number   1
_chemical_formula_structural   Li3Fe8(BO3)8
_chemical_formula_sum   'Li3 Fe8 B8 O24'
_cell_volume   481.93317099
_cell_formula_units_Z   1
loop_
 _symmetry_equiv_pos_site_id
 _symmetry_equiv_pos_as_xyz
  1  'x, y, z'
loop_
 _atom_site_type_symbol
 _atom_site_label
 _atom_site_symmetry_multiplicity
 _atom_site_fract_x
 _atom_site_fract_y
 _atom_site_fract_z
 _atom_site_occupancy
  Li  Li0  1  0.66361233  0.67634748  0.89824588  1
  Li  Li1  1  0.34391020  0.32114190  0.66421667  1
  Li  Li2  1  0.31039113  0.32982306  0.16651644  1
  Fe  Fe3  1  0.84940561  0.15265839  0.62810344  1
  Fe  Fe4  1  0.81775966  0.51285044  0.13570959  1
  Fe  Fe5  1  0.67727308  0.01445354  0.87716343  1
  Fe  Fe6  1  0.67950811  0.33628924  0.38390778  1
  Fe  Fe7  1  0.32839032  0.66663332  0.62924133  1
  Fe  Fe8  1  0.32591289  0.98954655  0.12574200  1
  Fe  Fe9  1  0.16308713  0.83634185  0.37626233  1
  Fe  Fe10  1  0.17292542  0.49621568  0.88600052  1
  B  B11  1  0.82636650  0.49702062  0.62864460  1
  B  B12  1  0.82637876  0.16998486  0.12941190  1
  B  B13  1  0.66111741  0.99935812  0.37241619  1
  B  B14  1  0.67665686  0.33778336  0.87306071  1
  B  B15  1  0.34918712  0.00263489  0.62786738  1
  B  B16  1  0.33147007  0.66623096  0.12506344  1
  B  B17  1  0.16979015  0.50383237  0.37980559  1
  B  B18  1  0.16874779  0.83430272  0.87833188  1
  O  O19  1  0.91320599  0.49595324  0.34714223  1
  O  O20  1  0.91095911  0.84681223  0.87904402  1
  O  O21  1  0.81639051  0.20878136  0.84297374  1
  O  O22  1  0.74221922  0.13268112  0.42317828  1
  O  O23  1  0.81599103  0.87982836  0.37216003  1
  O  O24  1  0.79970670  0.46319369  0.91927441  1
  O  O25  1  0.67787507  0.61794523  0.65113143  1
  O  O26  1  0.67218194  0.05927116  0.07659458  1
  O  O27  1  0.71193135  0.36661647  0.58247650  1
  O  O28  1  0.69949809  0.29536046  0.17875644  1
  O  O29  1  0.58306816  0.67992772  0.09755851  1
  O  O30  1  0.58810907  0.99585575  0.68805568  1
  O  O31  1  0.40932332  0.99106251  0.32237702  1
  O  O32  1  0.41864606  0.33674878  0.85205539  1
  O  O33  1  0.29201188  0.70757111  0.82841680  1
  O  O34  1  0.26509470  0.63665352  0.42994734  1
  O  O35  1  0.32817424  0.38634475  0.35924556  1
  O  O36  1  0.32576153  0.94375644  0.93129964  1
  O  O37  1  0.20074432  0.53530349  0.09898271  1
  O  O38  1  0.21882836  0.13000763  0.61892627  1
  O  O39  1  0.25178153  0.87019789  0.57397141  1
  O  O40  1  0.19361072  0.79067158  0.17370915  1
  O  O41  1  0.08677145  0.15533456  0.13359205  1
  O  O42  1  0.09048811  0.49618763  0.65482569  1
