# generated using pymatgen
data_Li14Mn5F24
_symmetry_space_group_name_H-M   'P 1'
_cell_length_a   15.26753513
_cell_length_b   10.15400819
_cell_length_c   6.06882494
_cell_angle_alpha   90.00000000
_cell_angle_beta   90.00000000
_cell_angle_gamma   90.00000000
_symmetry_Int_Tables_number   1
_chemical_formula_structural   Li14Mn5F24
_chemical_formula_sum   'Li28 Mn10 F48'
_cell_volume   940.82976223
_cell_formula_units_Z   2
loop_
 _symmetry_equiv_pos_site_id
 _symmetry_equiv_pos_as_xyz
  1  'x, y, z'
loop_
 _atom_site_type_symbol
 _atom_site_label
 _atom_site_symmetry_multiplicity
 _atom_site_fract_x
 _atom_site_fract_y
 _atom_site_fract_z
 _atom_site_occupancy
  Li  Li0  1  0.00000000  0.00000000  0.50000000  1
  Li  Li1  1  0.00000000  0.50000000  0.50000000  1
  Li  Li2  1  0.01075282  0.74785544  0.25049864  1
  Li  Li3  1  0.01075282  0.74785544  0.74950136  1
  Li  Li4  1  0.16541004  0.91986001  0.25680540  1
  Li  Li5  1  0.16541004  0.91986001  0.74319460  1
  Li  Li6  1  0.16720601  0.64475924  0.50000000  1
  Li  Li7  1  0.17891216  0.17930367  0.00000000  1
  Li  Li8  1  0.32108784  0.67930367  0.00000000  1
  Li  Li9  1  0.33279399  0.14475924  0.50000000  1
  Li  Li10  1  0.33458996  0.41986001  0.25680540  1
  Li  Li11  1  0.33458996  0.41986001  0.74319460  1
  Li  Li12  1  0.48924718  0.24785544  0.25049864  1
  Li  Li13  1  0.48924718  0.24785544  0.74950136  1
  Li  Li14  1  0.50000000  0.00000000  0.50000000  1
  Li  Li15  1  0.50000000  0.50000000  0.50000000  1
  Li  Li16  1  0.51075282  0.75214456  0.25049864  1
  Li  Li17  1  0.51075282  0.75214456  0.74950136  1
  Li  Li18  1  0.66541004  0.58013999  0.25680540  1
  Li  Li19  1  0.66541004  0.58013999  0.74319460  1
  Li  Li20  1  0.66720601  0.85524076  0.50000000  1
  Li  Li21  1  0.67891216  0.32069633  0.00000000  1
  Li  Li22  1  0.82108784  0.82069633  0.00000000  1
  Li  Li23  1  0.83279399  0.35524076  0.50000000  1
  Li  Li24  1  0.83458996  0.08013999  0.25680540  1
  Li  Li25  1  0.83458996  0.08013999  0.74319460  1
  Li  Li26  1  0.98924718  0.25214456  0.25049864  1
  Li  Li27  1  0.98924718  0.25214456  0.74950136  1
  Mn  Mn28  1  0.00000000  0.00000000  0.00000000  1
  Mn  Mn29  1  0.13797229  0.50785072  0.00000000  1
  Mn  Mn30  1  0.17824670  0.30284482  0.50000000  1
  Mn  Mn31  1  0.32175330  0.80284482  0.50000000  1
  Mn  Mn32  1  0.36202771  0.00785072  0.00000000  1
  Mn  Mn33  1  0.50000000  0.50000000  0.00000000  1
  Mn  Mn34  1  0.63797229  0.99214928  0.00000000  1
  Mn  Mn35  1  0.67824670  0.19715518  0.50000000  1
  Mn  Mn36  1  0.82175330  0.69715518  0.50000000  1
  Mn  Mn37  1  0.86202771  0.49214928  0.00000000  1
  F  F38  1  0.05146864  0.32922820  0.50000000  1
  F  F39  1  0.07807123  0.08507821  0.25260406  1
  F  F40  1  0.07807123  0.08507821  0.74739594  1
  F  F41  1  0.07921113  0.83064116  0.00000000  1
  F  F42  1  0.08484091  0.32146464  0.00000000  1
  F  F43  1  0.08401045  0.58439006  0.27390116  1
  F  F44  1  0.08401045  0.58439006  0.72609884  1
  F  F45  1  0.08826142  0.84205937  0.50000000  1
  F  F46  1  0.25596634  0.24497646  0.25005250  1
  F  F47  1  0.25596634  0.24497646  0.74994750  1
  F  F48  1  0.24526043  0.48297862  0.50000000  1
  F  F49  1  0.27102599  0.49986388  0.00000000  1
  F  F50  1  0.22897401  0.99986388  0.00000000  1
  F  F51  1  0.25473957  0.98297862  0.50000000  1
  F  F52  1  0.24403366  0.74497646  0.25005250  1
  F  F53  1  0.24403366  0.74497646  0.74994750  1
  F  F54  1  0.41173858  0.34205937  0.50000000  1
  F  F55  1  0.41598955  0.08439006  0.27390116  1
  F  F56  1  0.41598955  0.08439006  0.72609884  1
  F  F57  1  0.41515909  0.82146464  0.00000000  1
  F  F58  1  0.42078887  0.33064116  0.00000000  1
  F  F59  1  0.42192877  0.58507821  0.25260406  1
  F  F60  1  0.42192877  0.58507821  0.74739594  1
  F  F61  1  0.44853136  0.82922820  0.50000000  1
  F  F62  1  0.55146864  0.17077180  0.50000000  1
  F  F63  1  0.57807123  0.41492179  0.25260406  1
  F  F64  1  0.57807123  0.41492179  0.74739594  1
  F  F65  1  0.57921113  0.66935884  0.00000000  1
  F  F66  1  0.58484091  0.17853536  0.00000000  1
  F  F67  1  0.58401045  0.91560994  0.27390116  1
  F  F68  1  0.58401045  0.91560994  0.72609884  1
  F  F69  1  0.58826142  0.65794063  0.50000000  1
  F  F70  1  0.75596634  0.25502354  0.25005250  1
  F  F71  1  0.75596634  0.25502354  0.74994750  1
  F  F72  1  0.74526043  0.01702138  0.50000000  1
  F  F73  1  0.77102599  0.00013612  0.00000000  1
  F  F74  1  0.72897401  0.50013612  0.00000000  1
  F  F75  1  0.75473957  0.51702138  0.50000000  1
  F  F76  1  0.74403366  0.75502354  0.25005250  1
  F  F77  1  0.74403366  0.75502354  0.74994750  1
  F  F78  1  0.91173858  0.15794063  0.50000000  1
  F  F79  1  0.91598955  0.41560994  0.27390116  1
  F  F80  1  0.91598955  0.41560994  0.72609884  1
  F  F81  1  0.91515909  0.67853536  0.00000000  1
  F  F82  1  0.92078887  0.16935884  0.00000000  1
  F  F83  1  0.92192877  0.91492179  0.25260406  1
  F  F84  1  0.92192877  0.91492179  0.74739594  1
  F  F85  1  0.94853136  0.67077180  0.50000000  1
