# generated using pymatgen
data_Ni3OF5
_symmetry_space_group_name_H-M   'P 1'
_cell_length_a   7.39009897
_cell_length_b   5.63057625
_cell_length_c   5.63059727
_cell_angle_alpha   71.58549012
_cell_angle_beta   71.93223596
_cell_angle_gamma   71.93277236
_symmetry_Int_Tables_number   1
_chemical_formula_structural   Ni3OF5
_chemical_formula_sum   'Ni6 O2 F10'
_cell_volume   205.40499552
_cell_formula_units_Z   2
loop_
 _symmetry_equiv_pos_site_id
 _symmetry_equiv_pos_as_xyz
  1  'x, y, z'
loop_
 _atom_site_type_symbol
 _atom_site_label
 _atom_site_symmetry_multiplicity
 _atom_site_fract_x
 _atom_site_fract_y
 _atom_site_fract_z
 _atom_site_occupancy
  Ni  Ni0  1  0.84119790  0.65832467  0.65832164  1
  Ni  Ni1  1  0.33462201  0.66885569  0.66885611  1
  Ni  Ni2  1  0.66537799  0.33114431  0.33114389  1
  Ni  Ni3  1  0.15880210  0.34167533  0.34167836  1
  Ni  Ni4  1  0.50000000  0.00000000  0.00000000  1
  Ni  Ni5  1  0.00000000  0.00000000  0.00000000  1
  O  O6  1  0.99999907  0.30058551  0.69941875  1
  O  O7  1  0.00000093  0.69941449  0.30058125  1
  F  F8  1  0.33070013  0.36450042  0.97527753  1
  F  F9  1  0.66929994  0.02472372  0.63550052  1
  F  F10  1  0.96196443  0.23405253  0.23406207  1
  F  F11  1  0.63140847  0.56271063  0.56271807  1
  F  F12  1  0.29966611  0.89964528  0.89963404  1
  F  F13  1  0.03803557  0.76594747  0.76593793  1
  F  F14  1  0.36859153  0.43728937  0.43728193  1
  F  F15  1  0.70033389  0.10035472  0.10036596  1
  F  F16  1  0.33070006  0.97527628  0.36449948  1
  F  F17  1  0.66929987  0.63549958  0.02472247  1
