# generated using pymatgen
data_LiV3(O2F)2
_symmetry_space_group_name_H-M   'P 1'
_cell_length_a   4.90295493
_cell_length_b   10.29891976
_cell_length_c   8.66088450
_cell_angle_alpha   89.99747727
_cell_angle_beta   89.99837408
_cell_angle_gamma   90.00105616
_symmetry_Int_Tables_number   1
_chemical_formula_structural   LiV3(O2F)2
_chemical_formula_sum   'Li4 V12 O16 F8'
_cell_volume   437.33256991
_cell_formula_units_Z   4
loop_
 _symmetry_equiv_pos_site_id
 _symmetry_equiv_pos_as_xyz
  1  'x, y, z'
loop_
 _atom_site_type_symbol
 _atom_site_label
 _atom_site_symmetry_multiplicity
 _atom_site_fract_x
 _atom_site_fract_y
 _atom_site_fract_z
 _atom_site_occupancy
  Li  Li0  1  0.04414767  0.21965551  0.24989156  1
  Li  Li1  1  0.45582972  0.71967719  0.25011020  1
  Li  Li2  1  0.54417491  0.28031199  0.75011606  1
  Li  Li3  1  0.95583697  0.78033007  0.74987350  1
  V  V4  1  0.96256427  0.10049656  0.74998862  1
  V  V5  1  0.98801471  0.35841461  0.57510840  1
  V  V6  1  0.98800646  0.35842415  0.92493457  1
  V  V7  1  0.51199127  0.85841681  0.57506581  1
  V  V8  1  0.51199578  0.85838590  0.92488394  1
  V  V9  1  0.53747109  0.60048564  0.75001248  1
  V  V10  1  0.46252292  0.39950156  0.25000230  1
  V  V11  1  0.48799368  0.14156507  0.07505854  1
  V  V12  1  0.48802712  0.14160076  0.42489659  1
  V  V13  1  0.01198789  0.64161218  0.07512064  1
  V  V14  1  0.01198039  0.64158542  0.42492937  1
  V  V15  1  0.03745521  0.89951472  0.25000078  1
  O  O16  1  0.26206717  0.06154261  0.24998528  1
  O  O17  1  0.25495061  0.30092695  0.08181203  1
  O  O18  1  0.25491055  0.30095623  0.41810145  1
  O  O19  1  0.17464087  0.26737911  0.75001637  1
  O  O20  1  0.32537388  0.76734093  0.74998089  1
  O  O21  1  0.24510207  0.80094661  0.08189762  1
  O  O22  1  0.24505991  0.80095104  0.41816660  1
  O  O23  1  0.23791225  0.56154555  0.25003361  1
  O  O24  1  0.76206890  0.43845558  0.75003479  1
  O  O25  1  0.75497065  0.19905166  0.91817369  1
  O  O26  1  0.75493224  0.19905682  0.58188252  1
  O  O27  1  0.67462213  0.23262740  0.24996321  1
  O  O28  1  0.82535723  0.73265178  0.25003301  1
  O  O29  1  0.74507427  0.69906313  0.58184007  1
  O  O30  1  0.74511275  0.69905134  0.91810785  1
  O  O31  1  0.73791175  0.93846093  0.74996026  1
  F  F32  1  0.23382788  0.53168858  0.58853615  1
  F  F33  1  0.23376589  0.53169884  0.91153966  1
  F  F34  1  0.26622842  0.03169036  0.58848317  1
  F  F35  1  0.26615081  0.03165809  0.91144161  1
  F  F36  1  0.73376175  0.96829397  0.08846588  1
  F  F37  1  0.73382926  0.96833259  0.41146134  1
  F  F38  1  0.76615270  0.46833548  0.08856682  1
  F  F39  1  0.76621599  0.46831628  0.41152278  1
