# generated using pymatgen
data_Li6Co(SiO4)2
_symmetry_space_group_name_H-M   'P 1'
_cell_length_a   5.52393861
_cell_length_b   5.10315476
_cell_length_c   6.23560353
_cell_angle_alpha   79.24532542
_cell_angle_beta   87.98944344
_cell_angle_gamma   84.16051655
_symmetry_Int_Tables_number   1
_chemical_formula_structural   Li6Co(SiO4)2
_chemical_formula_sum   'Li6 Co1 Si2 O8'
_cell_volume   171.77168069
_cell_formula_units_Z   1
loop_
 _symmetry_equiv_pos_site_id
 _symmetry_equiv_pos_as_xyz
  1  'x, y, z'
loop_
 _atom_site_type_symbol
 _atom_site_label
 _atom_site_symmetry_multiplicity
 _atom_site_fract_x
 _atom_site_fract_y
 _atom_site_fract_z
 _atom_site_occupancy
  Li  Li0  1  0.41642425  0.18317203  0.80364949  1
  Li  Li1  1  0.25034442  0.62325188  0.03242410  1
  Li  Li2  1  0.35688626  0.78864464  0.61263434  1
  Li  Li3  1  0.64311374  0.21135536  0.38736566  1
  Li  Li4  1  0.74965558  0.37674812  0.96757590  1
  Li  Li5  1  0.58357575  0.81682797  0.19635051  1
  Co  Co6  1  0.00000000  0.50000000  0.50000000  1
  Si  Si7  1  0.20457534  0.13032606  0.27800649  1
  Si  Si8  1  0.79542466  0.86967394  0.72199351  1
  O  O9  1  0.21848698  0.80249086  0.29404220  1
  O  O10  1  0.05771454  0.68955898  0.77335726  1
  O  O11  1  0.28826221  0.19561866  0.51646145  1
  O  O12  1  0.41942049  0.23976545  0.10241556  1
  O  O13  1  0.58057951  0.76023455  0.89758444  1
  O  O14  1  0.71173779  0.80438134  0.48353855  1
  O  O15  1  0.94228546  0.31044102  0.22664274  1
  O  O16  1  0.78151302  0.19750914  0.70595780  1
