# generated using pymatgen
data_LiV(PO3)4
_symmetry_space_group_name_H-M   'P 1'
_cell_length_a   7.28663170
_cell_length_b   7.77437848
_cell_length_c   8.47870043
_cell_angle_alpha   90.00000000
_cell_angle_beta   90.00000000
_cell_angle_gamma   93.29469216
_symmetry_Int_Tables_number   1
_chemical_formula_structural   LiV(PO3)4
_chemical_formula_sum   'Li2 V2 P8 O24'
_cell_volume   479.51629492
_cell_formula_units_Z   2
loop_
 _symmetry_equiv_pos_site_id
 _symmetry_equiv_pos_as_xyz
  1  'x, y, z'
loop_
 _atom_site_type_symbol
 _atom_site_label
 _atom_site_symmetry_multiplicity
 _atom_site_fract_x
 _atom_site_fract_y
 _atom_site_fract_z
 _atom_site_occupancy
  Li  Li0  1  0.25768753  0.85711310  0.69557854  1
  Li  Li1  1  0.74231247  0.14288690  0.19557854  1
  V  V2  1  0.25717224  0.33175126  0.49597602  1
  V  V3  1  0.74282776  0.66824874  0.99597602  1
  P  P4  1  0.08675992  0.97443913  0.28991864  1
  P  P5  1  0.06487844  0.37353283  0.87929702  1
  P  P6  1  0.35164876  0.80740624  0.07002533  1
  P  P7  1  0.36928868  0.44398995  0.12567880  1
  P  P8  1  0.63071132  0.55601005  0.62567880  1
  P  P9  1  0.64835124  0.19259376  0.57002533  1
  P  P10  1  0.93512156  0.62646717  0.37929702  1
  P  P11  1  0.91324008  0.02556087  0.78991864  1
  O  O12  1  0.06540928  0.80081605  0.39922244  1
  O  O13  1  0.05036195  0.48098352  0.42292784  1
  O  O14  1  0.26634288  0.80526147  0.91152181  1
  O  O15  1  0.07590827  0.01611696  0.68647373  1
  O  O16  1  0.16096726  0.38056959  0.72312703  1
  O  O17  1  0.27248831  0.94348663  0.19055375  1
  O  O18  1  0.13615050  0.12160953  0.39704442  1
  O  O19  1  0.21367226  0.34583301  0.01818656  1
  O  O20  1  0.29107480  0.62823716  0.16201151  1
  O  O21  1  0.38042428  0.34536357  0.27641512  1
  O  O22  1  0.55884454  0.83660456  0.08316337  1
  O  O23  1  0.45091243  0.53540664  0.53654707  1
  O  O24  1  0.54908757  0.46459336  0.03654707  1
  O  O25  1  0.44115546  0.16339544  0.58316337  1
  O  O26  1  0.61957572  0.65463643  0.77641512  1
  O  O27  1  0.70892520  0.37176284  0.66201151  1
  O  O28  1  0.78632774  0.65416699  0.51818656  1
  O  O29  1  0.86384950  0.87839047  0.89704442  1
  O  O30  1  0.72751169  0.05651337  0.69055375  1
  O  O31  1  0.83903274  0.61943041  0.22312703  1
  O  O32  1  0.92409173  0.98388304  0.18647373  1
  O  O33  1  0.73365712  0.19473853  0.41152181  1
  O  O34  1  0.94963805  0.51901648  0.92292684  1
  O  O35  1  0.93459072  0.19918395  0.89922244  1
