# generated using pymatgen
data_Mn2OF2
_symmetry_space_group_name_H-M   'P 1'
_cell_length_a   5.49602055
_cell_length_b   5.62067323
_cell_length_c   14.60975641
_cell_angle_alpha   89.81806673
_cell_angle_beta   90.00000000
_cell_angle_gamma   60.73094897
_symmetry_Int_Tables_number   1
_chemical_formula_structural   Mn2OF2
_chemical_formula_sum   'Mn12 O6 F12'
_cell_volume   393.69448339
_cell_formula_units_Z   6
loop_
 _symmetry_equiv_pos_site_id
 _symmetry_equiv_pos_as_xyz
  1  'x, y, z'
loop_
 _atom_site_type_symbol
 _atom_site_label
 _atom_site_symmetry_multiplicity
 _atom_site_fract_x
 _atom_site_fract_y
 _atom_site_fract_z
 _atom_site_occupancy
  Mn  Mn0  1  0.99053311  0.99113590  0.64413605  1
  Mn  Mn1  1  0.01832998  0.99113590  0.14413605  1
  Mn  Mn2  1  0.62305726  0.71253014  0.81022497  1
  Mn  Mn3  1  0.64267790  0.70405135  0.52281744  1
  Mn  Mn4  1  0.66441260  0.71253014  0.31022497  1
  Mn  Mn5  1  0.65327075  0.70405135  0.02281744  1
  Mn  Mn6  1  0.34672925  0.29594865  0.97718256  1
  Mn  Mn7  1  0.33558740  0.28746986  0.68977503  1
  Mn  Mn8  1  0.35732210  0.29594865  0.47718256  1
  Mn  Mn9  1  0.37694274  0.28746986  0.18977503  1
  Mn  Mn10  1  0.98167002  0.00886410  0.85586395  1
  Mn  Mn11  1  0.00946689  0.00886410  0.35586395  1
  O  O12  1  0.66834695  0.95745782  0.91355801  1
  O  O13  1  0.37419522  0.95745782  0.41355801  1
  O  O14  1  0.62580478  0.04254218  0.58644199  1
  O  O15  1  0.33165305  0.04254218  0.08644199  1
  O  O16  1  0.25168040  1.00000000  0.75000000  1
  O  O17  1  0.74831960  0.00000000  0.25000000  1
  F  F18  1  0.99525365  0.66855924  0.74499308  1
  F  F19  1  0.33618811  0.66855924  0.24499308  1
  F  F20  1  0.35328285  0.65350432  0.91988834  1
  F  F21  1  0.99321183  0.65350432  0.41988834  1
  F  F22  1  0.32531667  0.62676165  0.58196662  1
  F  F23  1  0.04792169  0.62676165  0.08196662  1
  F  F24  1  0.95207831  0.37323835  0.91803338  1
  F  F25  1  0.67468333  0.37323835  0.41803338  1
  F  F26  1  0.00678817  0.34649568  0.58011166  1
  F  F27  1  0.64671715  0.34649568  0.08011166  1
  F  F28  1  0.66381189  0.33144076  0.75500692  1
  F  F29  1  0.00474635  0.33144076  0.25500692  1
