# generated using pymatgen
data_LiNiPO4
_symmetry_space_group_name_H-M   'P 1'
_cell_length_a   8.43012658
_cell_length_b   5.22690275
_cell_length_c   7.92015708
_cell_angle_alpha   90.00000000
_cell_angle_beta   104.78940680
_cell_angle_gamma   90.00000000
_symmetry_Int_Tables_number   1
_chemical_formula_structural   LiNiPO4
_chemical_formula_sum   'Li4 Ni4 P4 O16'
_cell_volume   337.42764839
_cell_formula_units_Z   4
loop_
 _symmetry_equiv_pos_site_id
 _symmetry_equiv_pos_as_xyz
  1  'x, y, z'
loop_
 _atom_site_type_symbol
 _atom_site_label
 _atom_site_symmetry_multiplicity
 _atom_site_fract_x
 _atom_site_fract_y
 _atom_site_fract_z
 _atom_site_occupancy
  Li  Li0  1  0.20847980  0.34048300  0.87121287  1
  Li  Li1  1  0.38423292  0.82657910  0.35883985  1
  Li  Li2  1  0.70847980  0.65951700  0.87121287  1
  Li  Li3  1  0.88423292  0.17342090  0.35883985  1
  Ni  Ni4  1  0.05648102  0.83429108  0.95789849  1
  Ni  Ni5  1  0.26533276  0.32480003  0.48773651  1
  Ni  Ni6  1  0.55648102  0.16570892  0.95789849  1
  Ni  Ni7  1  0.76533276  0.67519997  0.48773651  1
  P  P8  1  0.01083921  0.67610617  0.25310778  1
  P  P9  1  0.33486644  0.82432786  0.74083246  1
  P  P10  1  0.51083921  0.32389383  0.25310778  1
  P  P11  1  0.83486644  0.17567214  0.74083246  1
  O  O12  1  0.00408240  0.18993979  0.87699955  1
  O  O13  1  0.05603546  0.39773053  0.31697542  1
  O  O14  1  0.19858562  0.70876493  0.81633605  1
  O  O15  1  0.30261236  0.11779826  0.70465731  1
  O  O16  1  0.16330432  0.81428985  0.21843215  1
  O  O17  1  0.34085888  0.67664953  0.57390213  1
  O  O18  1  0.50408240  0.81006021  0.87699955  1
  O  O19  1  0.44104926  0.18429043  0.39124303  1
  O  O20  1  0.38704056  0.31375982  0.07062539  1
  O  O21  1  0.55603546  0.60226947  0.31697542  1
  O  O22  1  0.69858562  0.29123507  0.81633605  1
  O  O23  1  0.80261236  0.88220174  0.70465731  1
  O  O24  1  0.66330432  0.18571015  0.21843215  1
  O  O25  1  0.84085888  0.32335047  0.57390213  1
  O  O26  1  0.94104926  0.81570957  0.39124303  1
  O  O27  1  0.88704056  0.68624018  0.07062539  1
