# generated using pymatgen
data_Li2Co(SiO3)2
_symmetry_space_group_name_H-M   'P 1'
_cell_length_a   9.71412523
_cell_length_b   4.78309315
_cell_length_c   5.49910373
_cell_angle_alpha   90.00004988
_cell_angle_beta   87.19344902
_cell_angle_gamma   89.99975518
_symmetry_Int_Tables_number   1
_chemical_formula_structural   Li2Co(SiO3)2
_chemical_formula_sum   'Li4 Co2 Si4 O12'
_cell_volume   255.20149791
_cell_formula_units_Z   2
loop_
 _symmetry_equiv_pos_site_id
 _symmetry_equiv_pos_as_xyz
  1  'x, y, z'
loop_
 _atom_site_type_symbol
 _atom_site_label
 _atom_site_symmetry_multiplicity
 _atom_site_fract_x
 _atom_site_fract_y
 _atom_site_fract_z
 _atom_site_occupancy
  Li  Li0  1  0.33360758  0.79855263  0.35461149  1
  Li  Li1  1  0.48683812  0.29892100  0.16237771  1
  Li  Li2  1  0.51316240  0.79892138  0.83762188  1
  Li  Li3  1  0.66639257  0.29855324  0.64538848  1
  Co  Co4  1  0.14794389  0.30540491  0.23342854  1
  Co  Co5  1  0.85205787  0.80540200  0.76657251  1
  Si  Si6  1  0.17654540  0.79066657  0.87702005  1
  Si  Si7  1  0.33919498  0.29280906  0.69391068  1
  Si  Si8  1  0.66080381  0.79280952  0.30609049  1
  Si  Si9  1  0.82345438  0.29066236  0.12298153  1
  O  O10  1  0.04135529  0.72071006  0.73827519  1
  O  O11  1  0.18791512  0.69744505  0.15733977  1
  O  O12  1  0.21762609  0.13508735  0.87387153  1
  O  O13  1  0.31398728  0.64100679  0.71810992  1
  O  O14  1  0.32060567  0.20730736  0.41019517  1
  O  O15  1  0.48649648  0.21639498  0.80049863  1
  O  O16  1  0.51350423  0.71639319  0.19949964  1
  O  O17  1  0.67939707  0.70730591  0.58980040  1
  O  O18  1  0.68601168  0.14101132  0.28189212  1
  O  O19  1  0.78237124  0.63508176  0.12613071  1
  O  O20  1  0.81208392  0.19744677  0.84265975  1
  O  O21  1  0.95864392  0.22070478  0.26172381  1
