# generated using pymatgen
data_Li9Mn4(BO3)8
_symmetry_space_group_name_H-M   'P 1'
_cell_length_a   5.21370988
_cell_length_b   8.79872399
_cell_length_c   9.71670680
_cell_angle_alpha   90.92907020
_cell_angle_beta   86.32865038
_cell_angle_gamma   90.99608940
_symmetry_Int_Tables_number   1
_chemical_formula_structural   Li9Mn4(BO3)8
_chemical_formula_sum   'Li9 Mn4 B8 O24'
_cell_volume   444.71121532
_cell_formula_units_Z   1
loop_
 _symmetry_equiv_pos_site_id
 _symmetry_equiv_pos_as_xyz
  1  'x, y, z'
loop_
 _atom_site_type_symbol
 _atom_site_label
 _atom_site_symmetry_multiplicity
 _atom_site_fract_x
 _atom_site_fract_y
 _atom_site_fract_z
 _atom_site_occupancy
  Li  Li0  1  0.13419199  0.01669118  0.31883824  1
  Li  Li1  1  0.29516553  0.53448368  0.61543453  1
  Li  Li2  1  0.10067575  0.05550756  0.85463011  1
  Li  Li3  1  0.17900631  0.34945362  0.38106690  1
  Li  Li4  1  0.37298783  0.57120642  0.16249879  1
  Li  Li5  1  0.66996470  0.47293214  0.39231380  1
  Li  Li6  1  0.61663489  0.43398361  0.84263796  1
  Li  Li7  1  0.77817185  0.96802583  0.11173594  1
  Li  Li8  1  0.80747682  0.68650983  0.62788746  1
  Mn  Mn9  1  0.88168673  0.29836514  0.12304876  1
  Mn  Mn10  1  0.39076450  0.20529333  0.62382267  1
  Mn  Mn11  1  0.61469524  0.79569456  0.37697281  1
  Mn  Mn12  1  0.10525882  0.70970224  0.87902776  1
  B  B13  1  0.15127045  0.67836278  0.38962485  1
  B  B14  1  0.15326247  0.36785968  0.86135511  1
  B  B15  1  0.32200208  0.21331749  0.11485817  1
  B  B16  1  0.31808091  0.86392276  0.63622426  1
  B  B17  1  0.66975273  0.14964222  0.36174933  1
  B  B18  1  0.66157795  0.78964695  0.88578417  1
  B  B19  1  0.84154722  0.63652115  0.13364887  1
  B  B20  1  0.82888667  0.29461139  0.61440491  1
  O  O21  1  0.08168133  0.65970569  0.06964364  1
  O  O22  1  0.08271793  0.33387797  0.59403927  1
  O  O23  1  0.10943381  0.11493581  0.10594325  1
  O  O24  1  0.23508522  0.36062912  0.14452275  1
  O  O25  1  0.14594962  0.74678428  0.68209716  1
  O  O26  1  0.23908182  0.01068922  0.65833385  1
  O  O27  1  0.31895344  0.55898385  0.39469229  1
  O  O28  1  0.24742693  0.82046978  0.35386436  1
  O  O29  1  0.24967090  0.51203039  0.83315423  1
  O  O30  1  0.31784749  0.24954367  0.82017171  1
  O  O31  1  0.42111398  0.17919025  0.42219776  1
  O  O32  1  0.41300688  0.82954039  0.89851599  1
  O  O33  1  0.57186871  0.17265848  0.10440566  1
  O  O34  1  0.54728255  0.81717423  0.57378294  1
  O  O35  1  0.73295325  0.49338232  0.15670872  1
  O  O36  1  0.68581677  0.75451295  0.17930064  1
  O  O37  1  0.73549031  0.14964858  0.63924427  1
  O  O38  1  0.76228755  0.01019757  0.33499195  1
  O  O39  1  0.62730242  0.39913343  0.60942432  1
  O  O40  1  0.82811634  0.27757321  0.32422570  1
  O  O41  1  0.75296045  0.64499962  0.84569071  1
  O  O42  1  0.87017044  0.88497272  0.91348971  1
  O  O43  1  0.89043938  0.65466316  0.42094640  1
  O  O44  1  0.91606705  0.33326674  0.92615735  1
