# generated using pymatgen
data_LiFe4(BO3)4
_symmetry_space_group_name_H-M   'P 1'
_cell_length_a   5.24822802
_cell_length_b   9.13174281
_cell_length_c   11.55303577
_cell_angle_alpha   66.29776348
_cell_angle_beta   76.83237394
_cell_angle_gamma   89.13368619
_symmetry_Int_Tables_number   1
_chemical_formula_structural   LiFe4(BO3)4
_chemical_formula_sum   'Li2 Fe8 B8 O24'
_cell_volume   491.83172832
_cell_formula_units_Z   2
loop_
 _symmetry_equiv_pos_site_id
 _symmetry_equiv_pos_as_xyz
  1  'x, y, z'
loop_
 _atom_site_type_symbol
 _atom_site_label
 _atom_site_symmetry_multiplicity
 _atom_site_fract_x
 _atom_site_fract_y
 _atom_site_fract_z
 _atom_site_occupancy
  Li  Li0  1  0.00285904  0.98699203  0.66692993  1
  Li  Li1  1  0.23712319  0.24665169  0.16077721  1
  Fe  Fe2  1  0.97534546  0.64907458  0.37763570  1
  Fe  Fe3  1  0.73654188  0.06484019  0.88223763  1
  Fe  Fe4  1  0.53062662  0.83772474  0.62571293  1
  Fe  Fe5  1  0.76405082  0.44258518  0.12590458  1
  Fe  Fe6  1  0.23613352  0.56827698  0.87112744  1
  Fe  Fe7  1  0.48700534  0.14782326  0.38517029  1
  Fe  Fe8  1  0.01121441  0.35262940  0.63258662  1
  Fe  Fe9  1  0.26591496  0.92894993  0.12392678  1
  B  B10  1  0.98047109  0.31960832  0.37474265  1
  B  B11  1  0.73195377  0.39822611  0.87938862  1
  B  B12  1  0.51509356  0.18641183  0.62618469  1
  B  B13  1  0.76295133  0.10690912  0.13177566  1
  B  B14  1  0.47306794  0.81710280  0.36973293  1
  B  B15  1  0.23806794  0.89005397  0.87679713  1
  B  B16  1  0.03438279  0.68846311  0.62467257  1
  B  B17  1  0.26341917  0.60022128  0.13056325  1
  O  O18  1  0.00455335  0.92698568  0.84682473  1
  O  O19  1  0.86696520  0.30628270  0.81954515  1
  O  O20  1  0.86899199  0.47417111  0.93522667  1
  O  O21  1  0.90469271  0.81990411  0.61946114  1
  O  O22  1  0.96515753  0.58654119  0.57023594  1
  O  O23  1  0.75936306  0.16748913  0.65889674  1
  O  O24  1  0.75085731  0.32993166  0.33016260  1
  O  O25  1  0.47166350  0.41003612  0.89137661  1
  O  O26  1  0.38007572  0.77815164  0.83993909  1
  O  O27  1  0.52411994  0.92644260  0.41942709  1
  O  O28  1  0.63396602  0.70059655  0.37048419  1
  O  O29  1  0.35064631  0.96470097  0.94049959  1
  O  O30  1  0.62844613  0.02000374  0.08743233  1
  O  O31  1  0.35734064  0.29847795  0.63955122  1
  O  O32  1  0.43294841  0.07885741  0.57754220  1
  O  O33  1  0.61879804  0.21715091  0.17432392  1
  O  O34  1  0.52094888  0.58929556  0.12941389  1
  O  O35  1  0.24513070  0.65128532  0.68257733  1
  O  O36  1  0.24577631  0.82962129  0.32183326  1
  O  O37  1  0.02985367  0.41957951  0.43230933  1
  O  O38  1  0.15527967  0.21507167  0.35343281  1
  O  O39  1  0.13912974  0.50076888  0.08887972  1
  O  O40  1  0.11560888  0.70336128  0.17548397  1
  O  O41  1  0.02313344  0.09242149  0.13359388  1
