# generated using pymatgen
data_Li4Ni3O6F
_symmetry_space_group_name_H-M   'P 1'
_cell_length_a   6.37425741
_cell_length_b   4.14074523
_cell_length_c   5.05348864
_cell_angle_alpha   65.79889284
_cell_angle_beta   97.61265274
_cell_angle_gamma   90.01220206
_symmetry_Int_Tables_number   1
_chemical_formula_structural   Li4Ni3O6F
_chemical_formula_sum   'Li4 Ni3 O6 F1'
_cell_volume   120.37163550
_cell_formula_units_Z   1
loop_
 _symmetry_equiv_pos_site_id
 _symmetry_equiv_pos_as_xyz
  1  'x, y, z'
loop_
 _atom_site_type_symbol
 _atom_site_label
 _atom_site_symmetry_multiplicity
 _atom_site_fract_x
 _atom_site_fract_y
 _atom_site_fract_z
 _atom_site_occupancy
  Li  Li0  1  0.14246633  0.28124907  0.43593688  1
  Li  Li1  1  0.28822731  0.57809596  0.84646066  1
  Li  Li2  1  0.57251646  0.13793555  0.72492962  1
  Li  Li3  1  0.71751713  0.43464074  0.13341709  1
  Ni  Ni4  1  0.00510718  0.00023190  -0.00022516  1
  Ni  Ni5  1  0.43092861  0.85816992  0.28593942  1
  Ni  Ni6  1  0.85667345  0.71321534  0.57315149  1
  O  O7  1  0.29508346  0.05108278  0.90009104  1
  O  O8  1  0.99172159  0.51495894  0.97023910  1
  O  O9  1  0.14816104  0.80117163  0.39702814  1
  O  O10  1  0.56623247  0.66431378  0.67213922  1
  O  O11  1  0.86994758  0.19813824  0.60324470  1
  O  O12  1  0.71395738  0.91287188  0.17533585  1
  F  F13  1  0.43096800  0.35785327  0.28580295  1
