# generated using pymatgen
data_Sn(PO3)3
_symmetry_space_group_name_H-M   'P 1'
_cell_length_a   8.79166397
_cell_length_b   8.78637511
_cell_length_c   9.34282757
_cell_angle_alpha   90.00000000
_cell_angle_beta   90.00000000
_cell_angle_gamma   90.00000000
_symmetry_Int_Tables_number   1
_chemical_formula_structural   Sn(PO3)3
_chemical_formula_sum   'Sn4 P12 O36'
_cell_volume   721.70406977
_cell_formula_units_Z   4
loop_
 _symmetry_equiv_pos_site_id
 _symmetry_equiv_pos_as_xyz
  1  'x, y, z'
loop_
 _atom_site_type_symbol
 _atom_site_label
 _atom_site_symmetry_multiplicity
 _atom_site_fract_x
 _atom_site_fract_y
 _atom_site_fract_z
 _atom_site_occupancy
  Sn  Sn0  1  0.12108095  0.09612688  0.14265627  1
  Sn  Sn1  1  0.37891905  0.90387312  0.64265627  1
  Sn  Sn2  1  0.62108095  0.40387312  0.85734373  1
  Sn  Sn3  1  0.87891905  0.59612688  0.35734373  1
  P  P4  1  0.05571837  0.94402548  0.82329009  1
  P  P5  1  0.06858617  0.71665034  0.05968962  1
  P  P6  1  0.22406380  0.55494663  0.55657243  1
  P  P7  1  0.27593620  0.44505337  0.05657243  1
  P  P8  1  0.43141383  0.28334966  0.55968962  1
  P  P9  1  0.44428163  0.05597452  0.32329009  1
  P  P10  1  0.55571837  0.55597452  0.17670991  1
  P  P11  1  0.56858617  0.78334966  0.94031038  1
  P  P12  1  0.72406380  0.94505337  0.44342757  1
  P  P13  1  0.77593620  0.05494663  0.94342757  1
  P  P14  1  0.93141383  0.21665034  0.44031038  1
  P  P15  1  0.94428163  0.44402548  0.67670991  1
  O  O16  1  0.02242995  0.78427176  0.90512137  1
  O  O17  1  0.06143857  0.12278985  0.38341780  1
  O  O18  1  0.11825261  0.90949702  0.67720820  1
  O  O19  1  0.12779534  0.84210880  0.15495886  1
  O  O20  1  0.11502865  0.50945363  0.69205621  1
  O  O21  1  0.15012154  0.34658441  0.11434325  1
  O  O22  1  0.12976199  0.61024257  0.43296427  1
  O  O23  1  0.15060543  0.05096343  0.91373662  1
  O  O24  1  0.20693502  0.60791842  0.01119387  1
  O  O25  1  0.29306498  0.39208158  0.51119387  1
  O  O26  1  0.34939457  0.94903657  0.41373662  1
  O  O27  1  0.37023801  0.38975743  0.93296427  1
  O  O28  1  0.34987846  0.65341559  0.61434325  1
  O  O29  1  0.38497135  0.49054637  0.19205621  1
  O  O30  1  0.37220466  0.15789120  0.65495886  1
  O  O31  1  0.38174739  0.09050298  0.17720820  1
  O  O32  1  0.43856143  0.87721015  0.88341780  1
  O  O33  1  0.47757005  0.21572824  0.40512137  1
  O  O34  1  0.52242995  0.71572824  0.09487863  1
  O  O35  1  0.56143857  0.37721015  0.61658220  1
  O  O36  1  0.61825261  0.59050298  0.32279180  1
  O  O37  1  0.62779534  0.65789120  0.84504114  1
  O  O38  1  0.61502865  0.99054637  0.30794379  1
  O  O39  1  0.65012154  0.15341559  0.88565675  1
  O  O40  1  0.62976199  0.88975743  0.56703573  1
  O  O41  1  0.65060543  0.44903657  0.08626338  1
  O  O42  1  0.70693502  0.89208158  0.98880613  1
  O  O43  1  0.79306498  0.10791842  0.48880613  1
  O  O44  1  0.84939457  0.55096343  0.58626338  1
  O  O45  1  0.87023801  0.11024257  0.06703573  1
  O  O46  1  0.84987846  0.84658441  0.38565675  1
  O  O47  1  0.88497135  0.00945363  0.80794379  1
  O  O48  1  0.87220466  0.34210880  0.34504114  1
  O  O49  1  0.88174739  0.40949702  0.82279180  1
  O  O50  1  0.93856143  0.62278985  0.11658220  1
  O  O51  1  0.97757005  0.28427176  0.59487863  1
