# generated using pymatgen
data_NiP2O7
_symmetry_space_group_name_H-M   'P 1'
_cell_length_a   7.32465255
_cell_length_b   8.27126845
_cell_length_c   9.43206286
_cell_angle_alpha   90.00000000
_cell_angle_beta   108.88145010
_cell_angle_gamma   90.00000000
_symmetry_Int_Tables_number   1
_chemical_formula_structural   NiP2O7
_chemical_formula_sum   'Ni4 P8 O28'
_cell_volume   540.68493292
_cell_formula_units_Z   4
loop_
 _symmetry_equiv_pos_site_id
 _symmetry_equiv_pos_as_xyz
  1  'x, y, z'
loop_
 _atom_site_type_symbol
 _atom_site_label
 _atom_site_symmetry_multiplicity
 _atom_site_fract_x
 _atom_site_fract_y
 _atom_site_fract_z
 _atom_site_occupancy
  O  O0  1  0.61425148  0.85018202  0.56355839  1
  O  O1  1  0.95904163  0.58558370  0.17960881  1
  O  O2  1  0.85918616  0.87769228  0.10285512  1
  O  O3  1  0.95904290  0.91441624  0.67960918  1
  O  O4  1  0.04095714  0.41441669  0.82039063  1
  O  O5  1  0.14081411  0.12230811  0.89714473  1
  O  O6  1  0.04095737  0.08558414  0.32039067  1
  O  O7  1  0.16127157  0.17464701  0.59474381  1
  O  O8  1  0.33744591  0.81363298  0.89791694  1
  O  O9  1  0.38574706  0.35018118  0.93644101  1
  O  O10  1  0.14081435  0.37769145  0.39714477  1
  O  O11  1  0.28931246  0.84899442  0.59878710  1
  O  O12  1  0.49816849  0.09730016  0.83015233  1
  O  O13  1  0.16127181  0.32535382  0.09474385  1
  O  O14  1  0.33744615  0.68636696  0.39791698  1
  O  O15  1  0.38574729  0.14981837  0.43644105  1
  O  O16  1  0.50183155  0.59730099  0.66984748  1
  O  O17  1  0.66255436  0.18636740  0.10208291  1
  O  O18  1  0.71068758  0.34899487  0.90121270  1
  O  O19  1  0.49816872  0.40269939  0.33015237  1
  O  O20  1  0.83872719  0.82535338  0.40525674  1
  O  O21  1  0.66255412  0.31363343  0.60208287  1
  O  O22  1  0.83872845  0.67464656  0.90525710  1
  O  O23  1  0.50183178  0.90269895  0.16984752  1
  O  O24  1  0.71068781  0.15100596  0.40121274  1
  O  O25  1  0.85918592  0.62230766  0.60285507  1
  O  O26  1  0.61425171  0.64981793  0.06355843  1
  O  O27  1  0.28931119  0.65100552  0.09878674  1
  P  P28  1  0.43193349  0.73780469  0.56059597  1
  P  P29  1  0.56806678  0.26219442  0.43940388  1
  P  P30  1  0.43193373  0.76219525  0.06059601  1
  P  P31  1  0.82800890  0.80163293  0.56307322  1
  P  P32  1  0.17199113  0.30163210  0.93692659  1
  P  P33  1  0.17199137  0.19836746  0.43692663  1
  P  P34  1  0.56806654  0.23780514  0.93940383  1
  P  P35  1  0.82800764  0.69836829  0.06307285  1
  Ni  Ni36  1  0.76638044  0.00596435  0.24936393  1
  Ni  Ni37  1  0.76638021  0.49403521  0.74936389  1
  Ni  Ni38  1  0.23362006  0.50596518  0.25063596  1
  Ni  Ni39  1  0.23361983  0.99403476  0.75063592  1
