# generated using pymatgen
data_V3O5F3
_symmetry_space_group_name_H-M   'P 1'
_cell_length_a   7.31190121
_cell_length_b   7.31190157
_cell_length_c   5.00073597
_cell_angle_alpha   89.73599020
_cell_angle_beta   90.26400788
_cell_angle_gamma   77.38598019
_symmetry_Int_Tables_number   1
_chemical_formula_structural   V3O5F3
_chemical_formula_sum   'V6 O10 F6'
_cell_volume   260.89862433
_cell_formula_units_Z   2
loop_
 _symmetry_equiv_pos_site_id
 _symmetry_equiv_pos_as_xyz
  1  'x, y, z'
loop_
 _atom_site_type_symbol
 _atom_site_label
 _atom_site_symmetry_multiplicity
 _atom_site_fract_x
 _atom_site_fract_y
 _atom_site_fract_z
 _atom_site_occupancy
  V  V0  1  0.17573138  0.68696012  0.75987274  1
  V  V1  1  0.33001242  0.33218544  0.26241535  1
  V  V2  1  0.31303988  0.82426862  0.25987274  1
  V  V3  1  0.65145858  0.16065674  0.77337021  1
  V  V4  1  0.66781456  0.66998758  0.76241535  1
  V  V5  1  0.83934326  0.34854142  0.27337021  1
  O  O6  1  0.06799195  0.32153942  0.36313894  1
  O  O7  1  0.09695331  0.80862479  0.04107517  1
  O  O8  1  0.19137521  0.90304669  0.54107517  1
  O  O9  1  0.30568657  0.56281867  0.40476413  1
  O  O10  1  0.45198740  0.20673184  0.57761264  1
  O  O11  1  0.43718133  0.69431343  0.90476413  1
  O  O12  1  0.56376130  0.29073527  0.08159111  1
  O  O13  1  0.70926473  0.43623870  0.58159111  1
  O  O14  1  0.67846058  0.93200805  0.86313894  1
  O  O15  1  0.79326816  0.54801260  0.07761264  1
  F  F16  1  0.20778942  0.43333001  0.91702390  1
  F  F17  1  0.32336900  0.07086420  0.11967830  1
  F  F18  1  0.56666999  0.79221158  0.41702390  1
  F  F19  1  0.81137643  0.10605026  0.45691950  1
  F  F20  1  0.89394974  0.18862357  0.95691950  1
  F  F21  1  0.92913580  0.67663100  0.61967830  1
