# generated using pymatgen
data_Li8VNi3(PO4)6
_symmetry_space_group_name_H-M   'P 1'
_cell_length_a   8.79378975
_cell_length_b   8.79378943
_cell_length_c   8.54238725
_cell_angle_alpha   120.97840312
_cell_angle_beta   59.02159654
_cell_angle_gamma   119.99999732
_symmetry_Int_Tables_number   1
_chemical_formula_structural   Li8VNi3(PO4)6
_chemical_formula_sum   'Li8 V1 Ni3 P6 O24'
_cell_volume   460.07957361
_cell_formula_units_Z   1
loop_
 _symmetry_equiv_pos_site_id
 _symmetry_equiv_pos_as_xyz
  1  'x, y, z'
loop_
 _atom_site_type_symbol
 _atom_site_label
 _atom_site_symmetry_multiplicity
 _atom_site_fract_x
 _atom_site_fract_y
 _atom_site_fract_z
 _atom_site_occupancy
  Li  Li0  1  0.29124701  0.35650369  0.22169284  1
  Li  Li1  1  0.84356384  0.70875299  0.22169284  1
  Li  Li2  1  0.64349631  0.15643616  0.22169284  1
  Li  Li3  1  0.49954073  0.50045927  0.50137782  1
  Li  Li4  1  0.98206433  0.01793567  0.05380801  1
  Li  Li5  1  0.35614285  0.84129827  0.78740818  1
  Li  Li6  1  0.15870173  0.30225275  0.78740818  1
  Li  Li7  1  0.69774725  0.64385715  0.78740818  1
  V  V8  1  0.14402890  0.85597110  0.56791431  1
  Ni  Ni9  1  0.64740086  0.35259914  0.05779841  1
  Ni  Ni10  1  0.85348964  0.14651036  0.43953009  1
  Ni  Ni11  1  0.35407642  0.64592358  0.93777074  1
  P  P12  1  0.54637573  0.74821374  0.24660039  1
  P  P13  1  0.25178626  0.04476338  0.24660039  1
  P  P14  1  0.95523662  0.45362427  0.24660039  1
  P  P15  1  0.04712582  0.54717948  0.74618175  1
  P  P16  1  0.75387092  0.95287418  0.74618175  1
  P  P17  1  0.45282052  0.24612908  0.74618175  1
  O  O18  1  0.29260401  0.88162471  0.05728862  1
  O  O19  1  0.11837529  0.46826792  0.05728862  1
  O  O20  1  0.53173208  0.70739599  0.05728862  1
  O  O21  1  0.17501863  0.98333775  0.42229607  1
  O  O22  1  0.01666225  0.61397695  0.42229607  1
  O  O23  1  0.74559968  0.88534316  0.24268122  1
  O  O24  1  0.38602305  0.82498137  0.42229607  1
  O  O25  1  0.52249674  0.57204406  0.27004967  1
  O  O26  1  0.11465684  0.10293774  0.24268122  1
  O  O27  1  0.42795594  0.22050135  0.27004967  1
  O  O28  1  0.00357928  0.39868821  0.56593279  1
  O  O29  1  0.10647129  0.75287833  0.75115899  1
  O  O30  1  0.77949865  0.47750326  0.27004967  1
  O  O31  1  0.82917614  0.99642072  0.56593279  1
  O  O32  1  0.89706226  0.25440032  0.24268122  1
  O  O33  1  0.22603279  0.53935880  0.73552339  1
  O  O34  1  0.57780161  0.77396721  0.73552339  1
  O  O35  1  0.89524906  0.89352871  0.75115899  1
  O  O36  1  0.46064120  0.42219839  0.73552339  1
  O  O37  1  0.60131179  0.17082386  0.56593279  1
  O  O38  1  0.24712167  0.10475094  0.75115899  1
  O  O39  1  0.46235252  0.28149420  0.93767496  1
  O  O40  1  0.88146671  0.53764748  0.93767496  1
  O  O41  1  0.71850580  0.11853329  0.93767496  1
