# generated using pymatgen
data_Li5Mn5CoO12
_symmetry_space_group_name_H-M   'P 1'
_cell_length_a   8.59787053
_cell_length_b   9.07439341
_cell_length_c   10.16495609
_cell_angle_alpha   85.78525789
_cell_angle_beta   92.58818621
_cell_angle_gamma   61.02458686
_symmetry_Int_Tables_number   1
_chemical_formula_structural   Li5Mn5CoO12
_chemical_formula_sum   'Li15 Mn15 Co3 O36'
_cell_volume   688.95647217
_cell_formula_units_Z   3
loop_
 _symmetry_equiv_pos_site_id
 _symmetry_equiv_pos_as_xyz
  1  'x, y, z'
loop_
 _atom_site_type_symbol
 _atom_site_label
 _atom_site_symmetry_multiplicity
 _atom_site_fract_x
 _atom_site_fract_y
 _atom_site_fract_z
 _atom_site_occupancy
  Li  Li0  1  0.64372843  0.92550908  0.73266173  1
  Li  Li1  1  0.69466434  0.72865539  0.26808566  1
  Li  Li2  1  0.98946004  0.41232174  0.25719311  1
  Li  Li3  1  0.69310568  0.56093963  0.74820196  1
  Li  Li4  1  0.34690395  0.89507425  0.74449805  1
  Li  Li5  1  0.33472630  0.75233014  0.25581225  1
  Li  Li6  1  0.98089901  0.10127689  0.25405299  1
  Li  Li7  1  0.02134578  0.90390036  0.74736242  1
  Li  Li8  1  0.69406643  0.24112840  0.74995045  1
  Li  Li9  1  0.03170937  0.73786007  0.27064673  1
  Li  Li10  1  0.38433149  0.40076084  0.27470331  1
  Li  Li11  1  0.67222514  0.08356726  0.26291454  1
  Li  Li12  1  0.02193181  0.57860444  0.74189286  1
  Li  Li13  1  0.29335778  0.26727706  0.72756271  1
  Li  Li14  1  0.35519499  0.07807781  0.26815261  1
  Mn  Mn15  1  0.83075819  0.83608974  0.49947129  1
  Mn  Mn16  1  0.50006942  0.83210146  0.49621446  1
  Mn  Mn17  1  0.83453274  0.49762863  0.50213344  1
  Mn  Mn18  1  0.32990578  0.66657717  0.99607493  1
  Mn  Mn19  1  0.66902521  0.33546961  0.00963765  1
  Mn  Mn20  1  0.83040296  0.16905953  0.50146723  1
  Mn  Mn21  1  0.49681325  0.50446771  0.50358503  1
  Mn  Mn22  1  0.16505085  0.83653610  0.49909620  1
  Mn  Mn23  1  0.99442662  0.66628742  0.00327880  1
  Mn  Mn24  1  0.66818583  0.00467742  0.00356161  1
  Mn  Mn25  1  0.16597082  0.50126112  0.49397123  1
  Mn  Mn26  1  0.49808791  0.16790884  0.50656838  1
  Mn  Mn27  1  0.00397087  0.33181300  0.99180187  1
  Mn  Mn28  1  0.33532693  0.99707558  0.99607385  1
  Mn  Mn29  1  0.16599574  0.16481721  0.50555166  1
  Co  Co30  1  0.66651813  0.66191132  0.99700393  1
  Co  Co31  1  0.33587001  0.33453339  0.00399984  1
  Co  Co32  1  0.00131509  0.00199612  0.00180001  1
  O  O33  1  0.94256162  0.93073676  0.38068981  1
  O  O34  1  0.87316970  0.91220069  0.90266079  1
  O  O35  1  0.94102269  0.59710040  0.37848543  1
  O  O36  1  0.61102821  0.93028871  0.38070262  1
  O  O37  1  0.78518432  0.76014112  0.09898821  1
  O  O38  1  0.72142769  0.73736887  0.61566668  1
  O  O39  1  0.53616642  0.88776064  0.89240173  1
  O  O40  1  0.87327592  0.55389542  0.88948274  1
  O  O41  1  0.45721849  0.75721527  0.09587540  1
  O  O42  1  0.79860803  0.43253976  0.09685070  1
  O  O43  1  0.27729548  0.93213918  0.37960000  1
  O  O44  1  0.94799285  0.26327630  0.38944810  1
  O  O45  1  0.60881346  0.60765646  0.39466305  1
  O  O46  1  0.54734427  0.56270454  0.90333907  1
  O  O47  1  0.71962902  0.40080642  0.61482076  1
  O  O48  1  0.38857605  0.73865494  0.60860639  1
  O  O49  1  0.20091731  0.88553302  0.89195117  1
  O  O50  1  0.87336928  0.23390607  0.90416411  1
  O  O51  1  0.13022934  0.77660628  0.10536376  1
  O  O52  1  0.80252406  0.11489478  0.11220414  1
  O  O53  1  0.60826953  0.25855435  0.38853277  1
  O  O54  1  0.27752394  0.60021687  0.37906650  1
  O  O55  1  0.45012569  0.43850813  0.10026979  1
  O  O56  1  0.38740561  0.39391382  0.60500976  1
  O  O57  1  0.05033555  0.73820986  0.61097970  1
  O  O58  1  0.72235579  0.06827755  0.61926521  1
  O  O59  1  0.20298584  0.56794935  0.90618768  1
  O  O60  1  0.54932825  0.24380455  0.90679844  1
  O  O61  1  0.12148358  0.42081040  0.09960721  1
  O  O62  1  0.46842379  0.10999760  0.10902611  1
  O  O63  1  0.27911411  0.26099353  0.38715181  1
  O  O64  1  0.22050559  0.23861827  0.90156386  1
  O  O65  1  0.38949005  0.06491706  0.62120546  1
  O  O66  1  0.06003275  0.40616248  0.61190508  1
  O  O67  1  0.12683067  0.10063547  0.09617802  1
  O  O68  1  0.05705721  0.05663732  0.60860814  1
