# generated using pymatgen
data_Li2VF5
_symmetry_space_group_name_H-M   'P 1'
_cell_length_a   5.02093502
_cell_length_b   6.75443420
_cell_length_c   5.58930408
_cell_angle_alpha   88.29464668
_cell_angle_beta   89.92962070
_cell_angle_gamma   68.23749620
_symmetry_Int_Tables_number   1
_chemical_formula_structural   Li2VF5
_chemical_formula_sum   'Li4 V2 F10'
_cell_volume   175.95577964
_cell_formula_units_Z   2
loop_
 _symmetry_equiv_pos_site_id
 _symmetry_equiv_pos_as_xyz
  1  'x, y, z'
loop_
 _atom_site_type_symbol
 _atom_site_label
 _atom_site_symmetry_multiplicity
 _atom_site_fract_x
 _atom_site_fract_y
 _atom_site_fract_z
 _atom_site_occupancy
  Li  Li0  1  0.19718644  0.07953906  0.48082925  1
  Li  Li1  1  0.27722642  0.91874138  0.01485654  1
  Li  Li2  1  0.72153402  0.08159597  0.98219485  1
  Li  Li3  1  0.80314533  0.91741461  0.51679143  1
  V  V4  1  0.99852340  0.49973824  -0.00054360  1
  V  V5  1  0.49892354  0.49907155  0.49979208  1
  F  F6  1  0.02467784  -0.00000040  0.74849508  1
  F  F7  1  0.29722370  0.21605583  0.05406051  1
  F  F8  1  0.14493345  0.57981721  0.31114098  1
  F  F9  1  0.27116397  0.58103841  0.80997342  1
  F  F10  1  0.48433665  0.21529057  0.55443380  1
  F  F11  1  0.51424837  0.78266463  0.44478703  1
  F  F12  1  0.72572687  0.41776988  0.18866776  1
  F  F13  1  0.97442276  0.99845664  0.24875690  1
  F  F14  1  0.85205288  0.41868044  0.68977953  1
  F  F15  1  0.70046736  0.78340998  0.94478744  1
