# generated using pymatgen
data_Li4Cu3Bi(PO4)4
_symmetry_space_group_name_H-M   'P 1'
_cell_length_a   4.82149287
_cell_length_b   10.51078536
_cell_length_c   6.25156578
_cell_angle_alpha   90.00000000
_cell_angle_beta   90.00000000
_cell_angle_gamma   87.29089781
_symmetry_Int_Tables_number   1
_chemical_formula_structural   Li4Cu3Bi(PO4)4
_chemical_formula_sum   'Li4 Cu3 Bi1 P4 O16'
_cell_volume   316.46075060
_cell_formula_units_Z   1
loop_
 _symmetry_equiv_pos_site_id
 _symmetry_equiv_pos_as_xyz
  1  'x, y, z'
loop_
 _atom_site_type_symbol
 _atom_site_label
 _atom_site_symmetry_multiplicity
 _atom_site_fract_x
 _atom_site_fract_y
 _atom_site_fract_z
 _atom_site_occupancy
  Li  Li0  1  0.01045768  0.98122821  0.99295180  1
  Li  Li1  1  0.01045768  0.98122821  0.50704820  1
  Li  Li2  1  0.49773015  0.52131079  0.50721170  1
  Li  Li3  1  0.49773015  0.52131079  0.99278830  1
  Cu  Cu4  1  0.00199698  0.72334527  0.75000000  1
  Cu  Cu5  1  0.45042386  0.20567841  0.75000000  1
  Cu  Cu6  1  0.55781841  0.78195290  0.25000000  1
  Bi  Bi7  1  0.98407416  0.28674999  0.25000000  1
  P  P8  1  0.09287937  0.60872377  0.25000000  1
  P  P9  1  0.43389968  0.07494077  0.25000000  1
  P  P10  1  0.58451987  0.90865728  0.75000000  1
  P  P11  1  0.88839365  0.41101553  0.75000000  1
  O  O12  1  0.23121869  0.46753113  0.25000000  1
  O  O13  1  0.21146774  0.67003443  0.04516411  1
  O  O14  1  0.21146774  0.67003443  0.45483589  1
  O  O15  1  0.20478572  0.38762122  0.75000000  1
  O  O16  1  0.26738424  0.91214507  0.75000000  1
  O  O17  1  0.30211716  0.14978440  0.05285334  1
  O  O18  1  0.30211716  0.14978440  0.44714666  1
  O  O19  1  0.31399701  0.94078901  0.25000000  1
  O  O20  1  0.70526426  0.04458439  0.75000000  1
  O  O21  1  0.72307900  0.83584059  0.55318852  1
  O  O22  1  0.72307900  0.83584059  0.94681148  1
  O  O23  1  0.75296052  0.07422158  0.25000000  1
  O  O24  1  0.77080442  0.60605851  0.25000000  1
  O  O25  1  0.74532352  0.34901409  0.55176769  1
  O  O26  1  0.74532352  0.34901409  0.94823231  1
  O  O27  1  0.77922665  0.55155716  0.75000000  1
