# generated using pymatgen
data_Li6VO5F
_symmetry_space_group_name_H-M   'P 1'
_cell_length_a   5.55706876
_cell_length_b   5.62381149
_cell_length_c   10.72856636
_cell_angle_alpha   90.09720355
_cell_angle_beta   89.91564568
_cell_angle_gamma   60.31546895
_symmetry_Int_Tables_number   1
_chemical_formula_structural   Li6VO5F
_chemical_formula_sum   'Li12 V2 O10 F2'
_cell_volume   291.28525075
_cell_formula_units_Z   2
loop_
 _symmetry_equiv_pos_site_id
 _symmetry_equiv_pos_as_xyz
  1  'x, y, z'
loop_
 _atom_site_type_symbol
 _atom_site_label
 _atom_site_symmetry_multiplicity
 _atom_site_fract_x
 _atom_site_fract_y
 _atom_site_fract_z
 _atom_site_occupancy
  Li  Li0  1  0.03852529  0.32235111  0.74315241  1
  Li  Li1  1  0.31900214  0.32779044  0.42852734  1
  Li  Li2  1  0.35140358  0.32906247  0.91147995  1
  Li  Li3  1  0.27116460  0.70379960  0.76150469  1
  Li  Li4  1  0.66062737  0.98562894  0.74689553  1
  Li  Li5  1  0.60526200  0.38014846  0.63578072  1
  Li  Li6  1  0.36498791  0.95707658  0.24095002  1
  Li  Li7  1  0.64879914  0.33835224  0.25000783  1
  Li  Li8  1  0.67813699  0.65734906  0.41103727  1
  Li  Li9  1  0.66208029  0.66081817  0.92836101  1
  Li  Li10  1  0.98923689  0.39229724  0.13616913  1
  Li  Li11  1  0.98334531  0.72454972  0.26086433  1
  V  V12  1  0.99652493  0.99767156  0.00083665  1
  V  V13  1  0.00565332  0.99605305  0.50044428  1
  O  O14  1  0.98461654  0.02084888  0.66477556  1
  O  O15  1  0.29726842  0.99422969  0.44263997  1
  O  O16  1  0.00768802  0.70428293  0.44778096  1
  O  O17  1  0.35597785  0.34103695  0.73350401  1
  O  O18  1  0.29110271  0.71045896  0.94776489  1
  O  O19  1  0.69723895  0.29162588  0.45280957  1
  O  O20  1  0.70014894  0.64130111  0.23317735  1
  O  O21  1  0.99883542  0.29738936  0.95281491  1
  O  O22  1  0.71061348  0.98628013  0.94400007  1
  O  O23  1  0.99728194  0.02067020  0.16515422  1
  F  F24  1  0.30906232  0.33600231  0.23405386  1
  F  F25  1  0.66166765  0.64430195  0.73370747  1
