# generated using pymatgen
data_Li7Mn3Co3O16
_symmetry_space_group_name_H-M   'P 1'
_cell_length_a   5.67585183
_cell_length_b   5.67554314
_cell_length_c   9.92152442
_cell_angle_alpha   92.44690166
_cell_angle_beta   87.56300207
_cell_angle_gamma   120.12309154
_symmetry_Int_Tables_number   1
_chemical_formula_structural   Li7Mn3Co3O16
_chemical_formula_sum   'Li7 Mn3 Co3 O16'
_cell_volume   276.10985374
_cell_formula_units_Z   1
loop_
 _symmetry_equiv_pos_site_id
 _symmetry_equiv_pos_as_xyz
  1  'x, y, z'
loop_
 _atom_site_type_symbol
 _atom_site_label
 _atom_site_symmetry_multiplicity
 _atom_site_fract_x
 _atom_site_fract_y
 _atom_site_fract_z
 _atom_site_occupancy
  Li  Li0  1  0.97565383  0.02469506  0.50913776  1
  Li  Li1  1  0.66254354  0.33734686  0.02213515  1
  Li  Li2  1  0.66592502  0.33396257  0.57891960  1
  Li  Li3  1  0.66483658  0.33506629  0.79661648  1
  Li  Li4  1  0.65892373  0.82793221  0.04407734  1
  Li  Li5  1  0.31496501  0.68523920  0.50085951  1
  Li  Li6  1  0.17210467  0.34121341  0.04408703  1
  Mn  Mn7  1  0.82650601  0.67067689  0.28204737  1
  Mn  Mn8  1  0.32945437  0.17367481  0.28205979  1
  Mn  Mn9  1  0.16315206  0.83676689  0.79444531  1
  Co  Co10  1  0.83084169  0.16927738  0.29031998  1
  Co  Co11  1  0.66202759  0.83442075  0.78762439  1
  Co  Co12  1  0.16547816  0.33787962  0.78762288  1
  O  O13  1  0.99682037  0.00331799  0.17914157  1
  O  O14  1  0.00250121  0.99731690  0.69029500  1
  O  O15  1  0.83685258  0.16317216  0.89475076  1
  O  O16  1  0.95863170  0.46318733  0.17512520  1
  O  O17  1  0.53694656  0.04148221  0.17510367  1
  O  O18  1  0.65566636  0.34447380  0.38804900  1
  O  O19  1  0.82182970  0.68873244  0.89552227  1
  O  O20  1  0.51127820  0.48877961  0.16792844  1
  O  O21  1  0.67261112  0.85484146  0.38681567  1
  O  O22  1  0.49067695  0.50915229  0.68649873  1
  O  O23  1  0.31123826  0.17814900  0.89553219  1
  O  O24  1  0.49693796  0.98208516  0.68489197  1
  O  O25  1  0.32860870  0.67137828  0.89544598  1
  O  O26  1  0.14531673  0.32766590  0.38684584  1
  O  O27  1  0.01777437  0.50289799  0.68487357  1
  O  O28  1  0.14232696  0.85790956  0.38979155  1
