# generated using pymatgen
data_LiTiCoO4
_symmetry_space_group_name_H-M   'P 1'
_cell_length_a   5.96638688
_cell_length_b   5.96638880
_cell_length_c   8.17972067
_cell_angle_alpha   89.99989646
_cell_angle_beta   89.99935714
_cell_angle_gamma   90.00171386
_symmetry_Int_Tables_number   1
_chemical_formula_structural   LiTiCoO4
_chemical_formula_sum   'Li4 Ti4 Co4 O16'
_cell_volume   291.17992835
_cell_formula_units_Z   4
loop_
 _symmetry_equiv_pos_site_id
 _symmetry_equiv_pos_as_xyz
  1  'x, y, z'
loop_
 _atom_site_type_symbol
 _atom_site_label
 _atom_site_symmetry_multiplicity
 _atom_site_fract_x
 _atom_site_fract_y
 _atom_site_fract_z
 _atom_site_occupancy
  Li  Li0  1  0.00001575  0.22732802  -0.00000104  1
  Li  Li1  1  0.00000121  0.77266630  0.50002006  1
  Li  Li2  1  0.22733524  0.99998654  0.24997279  1
  Li  Li3  1  0.77267588  0.99997210  0.75000836  1
  Ti  Ti4  1  0.22145076  0.50001440  0.25000542  1
  Ti  Ti5  1  0.49998880  0.22142980  -0.00001529  1
  Ti  Ti6  1  0.49998423  0.77855141  0.50000621  1
  Ti  Ti7  1  0.77857290  0.50000917  0.75000354  1
  Co  Co8  1  0.25746970  0.25747351  0.62500167  1
  Co  Co9  1  0.25750219  0.74249481  0.87499501  1
  Co  Co10  1  0.74251540  0.25747967  0.37500490  1
  Co  Co11  1  0.74252165  0.74252696  0.12499790  1
  O  O12  1  0.01166491  0.26756748  0.25942780  1
  O  O13  1  0.01168679  0.73243952  0.24057855  1
  O  O14  1  0.26753420  0.01169783  0.99057755  1
  O  O15  1  0.26758354  0.98833054  0.50943147  1
  O  O16  1  0.26432383  0.48346139  0.01061508  1
  O  O17  1  0.26428732  0.51652783  0.48938017  1
  O  O18  1  0.48348250  0.26430238  0.23938449  1
  O  O19  1  0.48346538  0.73569969  0.26062472  1
  O  O20  1  0.51651590  0.26429185  0.76062332  1
  O  O21  1  0.51653283  0.73567542  0.73937909  1
  O  O22  1  0.73569786  0.51651307  0.51062108  1
  O  O23  1  0.73569537  0.48347869  0.98937209  1
  O  O24  1  0.73243149  0.01168593  0.00941325  1
  O  O25  1  0.73242966  0.98833789  0.49058553  1
  O  O26  1  0.98833081  0.26759251  0.74057537  1
  O  O27  1  0.98830390  0.73246529  0.75941091  1
