# generated using pymatgen
data_LiV3O5F
_symmetry_space_group_name_H-M   'P 1'
_cell_length_a   5.11955927
_cell_length_b   5.52299589
_cell_length_c   5.11223654
_cell_angle_alpha   116.79180577
_cell_angle_beta   60.53621141
_cell_angle_gamma   118.03764024
_symmetry_Int_Tables_number   1
_chemical_formula_structural   LiV3O5F
_chemical_formula_sum   'Li1 V3 O5 F1'
_cell_volume   106.45487185
_cell_formula_units_Z   1
loop_
 _symmetry_equiv_pos_site_id
 _symmetry_equiv_pos_as_xyz
  1  'x, y, z'
loop_
 _atom_site_type_symbol
 _atom_site_label
 _atom_site_symmetry_multiplicity
 _atom_site_fract_x
 _atom_site_fract_y
 _atom_site_fract_z
 _atom_site_occupancy
  Li  Li0  1  0.86311944  0.59921291  0.88955992  1
  V  V1  1  0.17193225  0.43970962  0.12388388  1
  V  V2  1  0.36590524  0.05630808  0.32661003  1
  V  V3  1  0.63909280  0.96643643  0.65519362  1
  O  O4  1  0.06957822  0.21016761  0.42142044  1
  O  O5  1  0.51570116  0.75889963  0.28381394  1
  O  O6  1  0.27191261  0.76236509  0.95154594  1
  O  O7  1  0.75126219  0.23844617  0.06088205  1
  O  O8  1  0.42409336  0.23869771  0.73839912  1
  F  F9  1  0.92740073  0.72975574  0.54868906  1
