# generated using pymatgen
data_Fe7S8
_symmetry_space_group_name_H-M   'P 1'
_cell_length_a   6.64482158
_cell_length_b   6.64482158
_cell_length_c   15.77436323
_cell_angle_alpha   90.00000000
_cell_angle_beta   90.00000000
_cell_angle_gamma   120.00000007
_symmetry_Int_Tables_number   1
_chemical_formula_structural   Fe7S8
_chemical_formula_sum   'Fe21 S24'
_cell_volume   603.18303271
_cell_formula_units_Z   3
loop_
 _symmetry_equiv_pos_site_id
 _symmetry_equiv_pos_as_xyz
  1  'x, y, z'
loop_
 _atom_site_type_symbol
 _atom_site_label
 _atom_site_symmetry_multiplicity
 _atom_site_fract_x
 _atom_site_fract_y
 _atom_site_fract_z
 _atom_site_occupancy
  S  S0  1  0.16435674  0.33018070  0.09056889  1
  S  S1  1  0.66981930  0.83417604  0.42390222  1
  S  S2  1  0.16582396  0.83564326  0.75723556  1
  S  S3  1  0.15946410  0.83448595  0.06602963  1
  S  S4  1  0.16551405  0.32497815  0.39936297  1
  S  S5  1  0.67502185  0.84053590  0.73269630  1
  S  S6  1  0.64525216  0.32625789  0.08884227  1
  S  S7  1  0.67374211  0.31899427  0.42217561  1
  S  S8  1  0.68100573  0.35474784  0.75550894  1
  S  S9  1  0.64264707  0.80398094  0.08866303  1
  S  S10  1  0.19601906  0.83866613  0.42199637  1
  S  S11  1  0.16133387  0.35735293  0.75532970  1
  S  S12  1  0.31722886  0.14342864  0.25465015  1
  S  S13  1  0.85657136  0.17380022  0.58798348  1
  S  S14  1  0.82619978  0.68277114  0.92131681  1
  S  S15  1  0.31385800  0.64949523  0.24818951  1
  S  S16  1  0.35050477  0.66436276  0.58152284  1
  S  S17  1  0.33563724  0.68614200  0.91485618  1
  S  S18  1  0.81879486  0.64735395  0.25161058  1
  S  S19  1  0.35264605  0.17144091  0.58494392  1
  S  S20  1  0.82855909  0.18120514  0.91827725  1
  S  S21  1  0.80610446  0.13971407  0.22894379  1
  S  S22  1  0.86028593  0.66639039  0.56227712  1
  S  S23  1  0.33360961  0.19389554  0.89561046  1
  Fe  Fe24  1  0.47936537  0.47245379  0.17967634  1
  Fe  Fe25  1  0.52754621  1.00691159  0.51300968  1
  Fe  Fe26  1  -0.00691159  0.52063463  0.84634301  1
  Fe  Fe27  1  0.43273151  0.96295744  0.16240924  1
  Fe  Fe28  1  0.03704256  0.46977406  0.49574257  1
  Fe  Fe29  1  0.53022594  0.56726849  0.82907591  1
  Fe  Fe30  1  0.01249475  0.96216472  0.16220489  1
  Fe  Fe31  1  0.03783528  0.05033003  0.49553822  1
  Fe  Fe32  1  0.94966997  0.98750525  0.82887155  1
  Fe  Fe33  1  0.01012875  0.54171605  0.15383539  1
  Fe  Fe34  1  0.45828395  0.46841270  0.48716872  1
  Fe  Fe35  1  0.53158730  0.98987125  0.82050206  1
  Fe  Fe36  1  0.52737218  0.00215507  0.33439823  1
  Fe  Fe37  1  0.99784493  0.52521711  0.66773157  1
  Fe  Fe38  1  0.47478289  0.47262782  1.00106490  1
  Fe  Fe39  1  0.95203754  0.00003419  0.32496202  1
  Fe  Fe40  1  0.99996581  0.95200335  0.65829535  1
  Fe  Fe41  1  0.04799665  0.04796246  0.99162869  1
  Fe  Fe42  1  0.95529405  0.43026360  0.31971603  1
  Fe  Fe43  1  0.56973640  0.52503045  0.65304936  1
  Fe  Fe44  1  0.47496955  0.04470595  0.98638270  1
