# generated using pymatgen
data_Li6Mn5FeO12
_symmetry_space_group_name_H-M   'P 1'
_cell_length_a   5.11559682
_cell_length_b   5.30818074
_cell_length_c   10.25008612
_cell_angle_alpha   89.18967040
_cell_angle_beta   91.67469397
_cell_angle_gamma   118.80603643
_symmetry_Int_Tables_number   1
_chemical_formula_structural   Li6Mn5FeO12
_chemical_formula_sum   'Li6 Mn5 Fe1 O12'
_cell_volume   243.78947180
_cell_formula_units_Z   1
loop_
 _symmetry_equiv_pos_site_id
 _symmetry_equiv_pos_as_xyz
  1  'x, y, z'
loop_
 _atom_site_type_symbol
 _atom_site_label
 _atom_site_symmetry_multiplicity
 _atom_site_fract_x
 _atom_site_fract_y
 _atom_site_fract_z
 _atom_site_occupancy
  Li  Li0  1  0.99611983  0.33044816  0.77545850  1
  Li  Li1  1  0.66807556  0.99998324  0.22415286  1
  Li  Li2  1  0.66569892  0.66958684  0.77548043  1
  Li  Li3  1  0.33194747  0.00000022  0.77584691  1
  Li  Li4  1  0.33434171  0.33044303  0.22454129  1
  Li  Li5  1  0.00388471  0.66957364  0.22453132  1
  Mn  Mn6  1  0.66467896  0.32938196  0.00001022  1
  Mn  Mn7  1  0.83352112  0.66706411  0.50002381  1
  Mn  Mn8  1  0.49993950  0.99995065  0.49996800  1
  Mn  Mn9  1  0.33531381  0.67062329  0.00000768  1
  Mn  Mn10  1  0.16646981  0.33294776  0.50000946  1
  Fe  Fe11  1  0.00000655  0.00003362  0.00000212  1
  O  O12  1  0.81372701  0.99985585  0.39811219  1
  O  O13  1  0.85157537  0.33263635  0.60148569  1
  O  O14  1  0.01154318  0.67903807  0.88765879  1
  O  O15  1  0.67882372  0.99996298  0.88299569  1
  O  O16  1  0.32115227  0.99998127  0.11702422  1
  O  O17  1  0.66750922  0.67907044  0.11238724  1
  O  O18  1  0.48102417  0.33265995  0.39846948  1
  O  O19  1  0.51909180  0.66743441  0.60155409  1
  O  O20  1  0.18618710  0.99992574  0.60186261  1
  O  O21  1  0.33240358  0.32096054  0.88760327  1
  O  O22  1  0.98857030  0.32099843  0.11237883  1
  O  O23  1  0.14839233  0.66743045  0.39844133  1
