# generated using pymatgen
data_VCo3O8
_symmetry_space_group_name_H-M   'P 1'
_cell_length_a   5.66672076
_cell_length_b   5.66965224
_cell_length_c   8.83513464
_cell_angle_alpha   90.00397006
_cell_angle_beta   89.99802030
_cell_angle_gamma   120.01711417
_symmetry_Int_Tables_number   1
_chemical_formula_structural   VCo3O8
_chemical_formula_sum   'V2 Co6 O16'
_cell_volume   245.78598502
_cell_formula_units_Z   2
loop_
 _symmetry_equiv_pos_site_id
 _symmetry_equiv_pos_as_xyz
  1  'x, y, z'
loop_
 _atom_site_type_symbol
 _atom_site_label
 _atom_site_symmetry_multiplicity
 _atom_site_fract_x
 _atom_site_fract_y
 _atom_site_fract_z
 _atom_site_occupancy
  V  V0  1  0.33269337  0.66759038  0.50186448  1
  V  V1  1  0.66730663  0.33489701  0.00186448  1
  Co  Co2  1  0.17007095  0.83135244  0.21694999  1
  Co  Co3  1  0.16999228  0.33967967  0.21197221  1
  Co  Co4  1  0.65850428  0.82959350  0.21313702  1
  Co  Co5  1  0.34149572  0.17108921  0.71313702  1
  Co  Co6  1  0.82992905  0.66128149  0.71694999  1
  Co  Co7  1  0.83000772  0.16968739  0.71197221  1
  O  O8  1  0.17288112  0.82776434  0.59756428  1
  O  O9  1  0.04008671  0.51829036  0.33540927  1
  O  O10  1  0.32870993  0.67033406  0.10611099  1
  O  O11  1  0.00287779  0.99624947  0.31104955  1
  O  O12  1  0.99712221  0.99337268  0.81104955  1
  O  O13  1  0.16773212  0.33958768  0.59698940  1
  O  O14  1  0.47704044  0.95691620  0.33760898  1
  O  O15  1  0.47585036  0.51844483  0.33316639  1
  O  O16  1  0.33707387  0.17105320  0.09603843  1
  O  O17  1  0.66292613  0.83397932  0.59603843  1
  O  O18  1  0.52295956  0.47987576  0.83760898  1
  O  O19  1  0.52414964  0.04259347  0.83316639  1
  O  O20  1  0.67129007  0.34162413  0.60611099  1
  O  O21  1  0.82711888  0.65488321  0.09756428  1
  O  O22  1  0.95991329  0.47820365  0.83540927  1
  O  O23  1  0.83226788  0.17185556  0.09698940  1
