# generated using pymatgen
data_Ga2Te3
_symmetry_space_group_name_H-M   'P 1'
_cell_length_a   4.17563896
_cell_length_b   17.04653566
_cell_length_c   18.74788075
_cell_angle_alpha   23.27119843
_cell_angle_beta   56.16419879
_cell_angle_gamma   60.66530017
_symmetry_Int_Tables_number   1
_chemical_formula_structural   Ga2Te3
_chemical_formula_sum   'Ga4 Te6'
_cell_volume   436.98687037
_cell_formula_units_Z   2
loop_
 _symmetry_equiv_pos_site_id
 _symmetry_equiv_pos_as_xyz
  1  'x, y, z'
loop_
 _atom_site_type_symbol
 _atom_site_label
 _atom_site_symmetry_multiplicity
 _atom_site_fract_x
 _atom_site_fract_y
 _atom_site_fract_z
 _atom_site_occupancy
  Ga  Ga0  1  0.24805847  0.24061116  0.10828769  1
  Ga  Ga1  1  0.25735449  0.68889687  0.14594071  1
  Ga  Ga2  1  0.24757464  0.11424424  0.60957476  1
  Ga  Ga3  1  0.24492968  0.82917946  0.63868456  1
  Te  Te4  1  0.00138983  0.23091072  0.01471549  1
  Te  Te5  1  0.96615114  0.51010027  0.00545933  1
  Te  Te6  1  0.01936717  0.15189390  0.47073801  1
  Te  Te7  1  0.02769966  0.73834343  -0.00175461  1
  Te  Te8  1  0.97297944  0.37849796  0.50800986  1
  Te  Te9  1  0.01449548  0.86732200  0.50034421  1
