# generated using pymatgen
data_Ni3OF5
_symmetry_space_group_name_H-M   'P 1'
_cell_length_a   7.27886026
_cell_length_b   5.62444592
_cell_length_c   5.62444592
_cell_angle_alpha   73.00420166
_cell_angle_beta   72.76545960
_cell_angle_gamma   72.76545960
_symmetry_Int_Tables_number   1
_chemical_formula_structural   Ni3OF5
_chemical_formula_sum   'Ni6 O2 F10'
_cell_volume   204.70182763
_cell_formula_units_Z   2
loop_
 _symmetry_equiv_pos_site_id
 _symmetry_equiv_pos_as_xyz
  1  'x, y, z'
loop_
 _atom_site_type_symbol
 _atom_site_label
 _atom_site_symmetry_multiplicity
 _atom_site_fract_x
 _atom_site_fract_y
 _atom_site_fract_z
 _atom_site_occupancy
  Ni  Ni0  1  0.83333300  0.66666700  0.66666700  1
  Ni  Ni1  1  0.33333300  0.66666700  0.66666700  1
  Ni  Ni2  1  0.67067862  0.32601863  0.32601863  1
  Ni  Ni3  1  0.16120445  0.32960037  0.32960037  1
  Ni  Ni4  1  0.50546255  0.00373263  0.00373263  1
  Ni  Ni5  1  0.99598738  0.00731437  0.00731437  1
  O  O6  1  0.96389029  0.23331269  0.23331269  1
  O  O7  1  0.70277571  0.10002131  0.10002131  1
  F  F8  1  0.66623097  0.02726714  0.63604889  1
  F  F9  1  0.33333300  0.36485411  0.96847889  1
  F  F10  1  0.29880942  0.90168073  0.90168073  1
  F  F11  1  0.63150262  0.56185837  0.56185837  1
  F  F12  1  0.03516438  0.77147563  0.77147563  1
  F  F13  1  0.36785658  0.43165327  0.43165327  1
  F  F14  1  0.00043603  0.30606586  0.69728411  1
  F  F15  1  0.33333300  0.96847889  0.36485411  1
  F  F16  1  0.66623097  0.63604889  0.02726714  1
  F  F17  1  0.00043603  0.69728411  0.30606586  1
