# generated using pymatgen
data_Zr3U7O20
_symmetry_space_group_name_H-M   'P 1'
_cell_length_a   3.78663958
_cell_length_b   6.53870286
_cell_length_c   15.57080493
_cell_angle_alpha   93.86397983
_cell_angle_beta   97.00604786
_cell_angle_gamma   90.02937226
_symmetry_Int_Tables_number   1
_chemical_formula_structural   Zr3U7O20
_chemical_formula_sum   'Zr3 U7 O20'
_cell_volume   381.76533023
_cell_formula_units_Z   1
loop_
 _symmetry_equiv_pos_site_id
 _symmetry_equiv_pos_as_xyz
  1  'x, y, z'
loop_
 _atom_site_type_symbol
 _atom_site_label
 _atom_site_symmetry_multiplicity
 _atom_site_fract_x
 _atom_site_fract_y
 _atom_site_fract_z
 _atom_site_occupancy
  Zr  Zr0  1  0.40340280  0.79877489  0.80147181  1
  Zr  Zr1  1  0.19170585  0.40261331  0.40054302  1
  Zr  Zr2  1  0.49856792  0.50176521  0.99901551  1
  U  U3  1  0.90351253  0.30191850  0.80304413  1
  U  U4  1  0.79895184  0.60098376  0.60129699  1
  U  U5  1  0.70174695  0.90120615  0.40036932  1
  U  U6  1  0.30219987  0.10153747  0.60156075  1
  U  U7  1  0.10118960  0.69961811  0.19862464  1
  U  U8  1  0.60090765  0.20310838  0.20062627  1
  U  U9  1  0.99882370  0.99890202  0.99810939  1
  O  O10  1  0.92459739  0.96718982  0.84896343  1
  O  O11  1  0.47593141  0.81686466  0.94796842  1
  O  O12  1  0.77452520  0.92495715  0.55046599  1
  O  O13  1  0.32687273  0.77372679  0.65548920  1
  O  O14  1  0.42748934  0.48350905  0.85331951  1
  O  O15  1  0.97839551  0.33281875  0.95215214  1
  O  O16  1  0.87745858  0.63376019  0.75452047  1
  O  O17  1  0.17672770  0.71852887  0.35288375  1
  O  O18  1  0.82589325  0.27757014  0.65254310  1
  O  O19  1  0.62518582  0.87449309  0.24989007  1
  O  O20  1  0.27205542  0.42601321  0.54711293  1
  O  O21  1  0.72603866  0.56768687  0.44870132  1
  O  O22  1  0.37924200  0.12014267  0.75521277  1
  O  O23  1  0.67876043  0.23429191  0.35120733  1
  O  O24  1  0.57505179  0.52638137  0.14512871  1
  O  O25  1  0.12887431  0.37936869  0.25349262  1
  O  O26  1  0.22588115  0.08449744  0.44798499  1
  O  O27  1  0.02509684  0.66772340  0.04652764  1
  O  O28  1  0.07578562  0.02683895  0.14974957  1
  O  O29  1  0.52580418  0.17976618  0.04621322  1
