# generated using pymatgen
data_Li8Mn(FeO4)3
_symmetry_space_group_name_H-M   'P 1'
_cell_length_a   5.00874264
_cell_length_b   4.94898134
_cell_length_c   8.54662066
_cell_angle_alpha   89.99970035
_cell_angle_beta   89.99995861
_cell_angle_gamma   89.53749371
_symmetry_Int_Tables_number   1
_chemical_formula_structural   Li8Mn(FeO4)3
_chemical_formula_sum   'Li8 Mn1 Fe3 O12'
_cell_volume   211.84821650
_cell_formula_units_Z   1
loop_
 _symmetry_equiv_pos_site_id
 _symmetry_equiv_pos_as_xyz
  1  'x, y, z'
loop_
 _atom_site_type_symbol
 _atom_site_label
 _atom_site_symmetry_multiplicity
 _atom_site_fract_x
 _atom_site_fract_y
 _atom_site_fract_z
 _atom_site_occupancy
  Li  Li0  1  0.99999770  0.49999701  0.58252515  1
  Li  Li1  1  0.00000094  0.50000074  0.26824892  1
  Li  Li2  1  0.50000164  0.49999851  0.93332058  1
  Li  Li3  1  0.50000121  0.49999763  0.24446013  1
  Li  Li4  1  0.00000023  -0.00000001  0.74420332  1
  Li  Li5  1  0.99999738  0.99999712  0.43022784  1
  Li  Li6  1  0.50000026  0.99999998  0.08296644  1
  Li  Li7  1  0.49999916  0.99999899  0.76799546  1
  Mn  Mn8  1  0.00001159  0.00000361  0.09675080  1
  Fe  Fe9  1  0.00000092  0.50000278  0.91791493  1
  Fe  Fe10  1  0.49999988  0.49999912  0.59898997  1
  Fe  Fe11  1  0.49999603  0.00000125  0.41332607  1
  O  O12  1  0.24328874  0.85227730  0.25293652  1
  O  O13  1  0.21359655  0.82498452  0.93206686  1
  O  O14  1  0.28015892  0.81834261  0.58539612  1
  O  O15  1  0.71801552  0.67728829  0.43103227  1
  O  O16  1  0.78082616  0.68107401  0.08298930  1
  O  O17  1  0.74766318  0.64443542  0.75839994  1
  O  O18  1  0.25233968  0.35556644  0.75839829  1
  O  O19  1  0.21917465  0.31893513  0.08298869  1
  O  O20  1  0.28197885  0.32270998  0.43103141  1
  O  O21  1  0.71983233  0.18165542  0.58539453  1
  O  O22  1  0.78640679  0.17502376  0.93206924  1
  O  O23  1  0.75670870  0.14772238  0.25293821  1
