# generated using pymatgen
data_Co3NiO8
_symmetry_space_group_name_H-M   'P 1'
_cell_length_a   5.60028714
_cell_length_b   5.60028732
_cell_length_c   5.64866990
_cell_angle_alpha   60.28294091
_cell_angle_beta   119.71706068
_cell_angle_gamma   120.00000553
_symmetry_Int_Tables_number   1
_chemical_formula_structural   Co3NiO8
_chemical_formula_sum   'Co3 Ni1 O8'
_cell_volume   125.80442742
_cell_formula_units_Z   1
loop_
 _symmetry_equiv_pos_site_id
 _symmetry_equiv_pos_as_xyz
  1  'x, y, z'
loop_
 _atom_site_type_symbol
 _atom_site_label
 _atom_site_symmetry_multiplicity
 _atom_site_fract_x
 _atom_site_fract_y
 _atom_site_fract_z
 _atom_site_occupancy
  Co  Co0  1  0.50000000  0.50000000  0.00000000  1
  Co  Co1  1  0.50000000  0.00000000  0.00000000  1
  Co  Co2  1  0.00000000  0.50000000  0.00000000  1
  Ni  Ni3  1  0.50000000  0.50000000  0.50000000  1
  O  O4  1  0.73512127  0.70905518  0.76118636  1
  O  O5  1  0.73512127  0.26487873  0.76118636  1
  O  O6  1  0.26225956  0.73774044  0.78677967  1
  O  O7  1  0.29094482  0.26487873  0.76118636  1
  O  O8  1  0.70905518  0.73512127  0.23881364  1
  O  O9  1  0.73774044  0.26225956  0.21322033  1
  O  O10  1  0.26487873  0.73512127  0.23881364  1
  O  O11  1  0.26487873  0.29094482  0.23881364  1
