# generated using pymatgen
data_Li3Fe8(BO3)8
_symmetry_space_group_name_H-M   'P 1'
_cell_length_a   5.31237162
_cell_length_b   9.03637285
_cell_length_c   10.13637115
_cell_angle_alpha   90.55287242
_cell_angle_beta   91.10579686
_cell_angle_gamma   89.53189605
_symmetry_Int_Tables_number   1
_chemical_formula_structural   Li3Fe8(BO3)8
_chemical_formula_sum   'Li3 Fe8 B8 O24'
_cell_volume   486.46336406
_cell_formula_units_Z   1
loop_
 _symmetry_equiv_pos_site_id
 _symmetry_equiv_pos_as_xyz
  1  'x, y, z'
loop_
 _atom_site_type_symbol
 _atom_site_label
 _atom_site_symmetry_multiplicity
 _atom_site_fract_x
 _atom_site_fract_y
 _atom_site_fract_z
 _atom_site_occupancy
  Li  Li0  1  0.64954230  0.00657666  0.09320105  1
  Li  Li1  1  0.84839282  0.51365712  0.84517758  1
  Li  Li2  1  0.34367457  0.99067160  0.35383754  1
  Fe  Fe3  1  0.14886852  0.16791096  0.11878647  1
  Fe  Fe4  1  0.83987395  0.17117762  0.37273752  1
  Fe  Fe5  1  0.34122552  0.33005424  0.87635155  1
  Fe  Fe6  1  0.65050972  0.33198880  0.62211844  1
  Fe  Fe7  1  0.33525507  0.66152534  0.36047632  1
  Fe  Fe8  1  0.16164299  0.82858049  0.62744795  1
  Fe  Fe9  1  0.67162795  0.65548219  0.12145404  1
  Fe  Fe10  1  0.83583677  0.84882070  0.86998304  1
  B  B11  1  0.16620097  0.16450804  0.62040119  1
  B  B12  1  0.32696449  0.32912631  0.37636693  1
  B  B13  1  0.82722350  0.17799736  0.87541727  1
  B  B14  1  0.66625845  0.32715671  0.12101953  1
  B  B15  1  0.34429762  0.66126753  0.86529324  1
  B  B16  1  0.65918126  0.67097528  0.61851875  1
  B  B17  1  0.16422273  0.83629426  0.12982119  1
  B  B18  1  0.83049066  0.83421451  0.37095548  1
  O  O19  1  0.26371072  0.02713945  0.61065908  1
  O  O20  1  0.07712960  0.19155010  0.91034216  1
  O  O21  1  0.69940864  0.05204624  0.89533548  1
  O  O22  1  0.19949586  0.19950863  0.33978033  1
  O  O23  1  0.30521051  0.28326086  0.67143325  1
  O  O24  1  0.77539787  0.19645112  0.17805300  1
  O  O25  1  0.92096730  0.19525381  0.57284619  1
  O  O26  1  0.42698738  0.30871460  0.06576649  1
  O  O27  1  0.22744901  0.46441747  0.36603971  1
  O  O28  1  0.57325012  0.30790128  0.42826985  1
  O  O29  1  0.70622492  0.30744664  0.82455503  1
  O  O30  1  0.21866814  0.52779995  0.86644908  1
  O  O31  1  0.79735294  0.45189356  0.11602172  1
  O  O32  1  0.28856232  0.70539780  0.16828442  1
  O  O33  1  0.41808606  0.69225497  0.56354380  1
  O  O34  1  0.74384543  0.53077059  0.64638626  1
  O  O35  1  0.59462811  0.67104242  0.90444025  1
  O  O36  1  0.08737308  0.82289294  0.40780934  1
  O  O37  1  0.21065548  0.78550725  0.81973675  1
  O  O38  1  0.69416708  0.71049444  0.33823250  1
  O  O39  1  0.80541430  0.79215072  0.65059739  1
  O  O40  1  0.29560304  0.96651294  0.14282742  1
  O  O41  1  0.91482580  0.83427425  0.08574105  1
  O  O42  1  0.71889141  0.97295323  0.36607934  1
