# generated using pymatgen
data_MnV4O12
_symmetry_space_group_name_H-M   'P 1'
_cell_length_a   6.63614248
_cell_length_b   6.63614302
_cell_length_c   5.99788673
_cell_angle_alpha   74.71084159
_cell_angle_beta   105.28915957
_cell_angle_gamma   96.48190316
_symmetry_Int_Tables_number   1
_chemical_formula_structural   MnV4O12
_chemical_formula_sum   'Mn1 V4 O12'
_cell_volume   245.50414014
_cell_formula_units_Z   1
loop_
 _symmetry_equiv_pos_site_id
 _symmetry_equiv_pos_as_xyz
  1  'x, y, z'
loop_
 _atom_site_type_symbol
 _atom_site_label
 _atom_site_symmetry_multiplicity
 _atom_site_fract_x
 _atom_site_fract_y
 _atom_site_fract_z
 _atom_site_occupancy
  Mn  Mn0  1  0.91593834  0.91593834  0.25000000  1
  V  V1  1  0.19916744  0.62036890  0.74841772  1
  V  V2  1  0.38951331  0.78900780  0.27030087  1
  V  V3  1  0.62036890  0.19916744  0.75158228  1
  V  V4  1  0.78900780  0.38951331  0.22969913  1
  O  O5  1  0.01775669  0.80587948  0.58179519  1
  O  O6  1  0.07595620  0.39344530  0.78819058  1
  O  O7  1  0.19809845  0.96292995  0.20115889  1
  O  O8  1  0.36949039  0.62396717  0.55103712  1
  O  O9  1  0.39344530  0.07595620  0.71180942  1
  O  O10  1  0.34090897  0.64882622  0.04902931  1
  O  O11  1  0.62396717  0.36949039  0.94896288  1
  O  O12  1  0.63709939  0.90973900  0.29369679  1
  O  O13  1  0.64882622  0.34090897  0.45097069  1
  O  O14  1  0.80587948  0.01775669  0.91820481  1
  O  O15  1  0.90973900  0.63709939  0.20630321  1
  O  O16  1  0.96292995  0.19809845  0.29884111  1
