# generated using pymatgen
data_LiNiPO4
_symmetry_space_group_name_H-M   'P 1'
_cell_length_a   8.58613282
_cell_length_b   7.71743745
_cell_length_c   15.25126605
_cell_angle_alpha   90.00000000
_cell_angle_beta   87.92368580
_cell_angle_gamma   90.00000000
_symmetry_Int_Tables_number   1
_chemical_formula_structural   LiNiPO4
_chemical_formula_sum   'Li12 Ni12 P12 O48'
_cell_volume   1009.93027379
_cell_formula_units_Z   12
loop_
 _symmetry_equiv_pos_site_id
 _symmetry_equiv_pos_as_xyz
  1  'x, y, z'
loop_
 _atom_site_type_symbol
 _atom_site_label
 _atom_site_symmetry_multiplicity
 _atom_site_fract_x
 _atom_site_fract_y
 _atom_site_fract_z
 _atom_site_occupancy
  Li  Li0  1  0.23086672  0.03249050  0.55984031  1
  Li  Li1  1  0.24067038  0.96095825  0.90695266  1
  Li  Li2  1  0.24426534  0.16032647  0.25448505  1
  Li  Li3  1  0.25573466  0.66032647  0.24551495  1
  Li  Li4  1  0.25932962  0.46095825  0.59304734  1
  Li  Li5  1  0.26913328  0.53249050  0.94015969  1
  Li  Li6  1  0.73086672  0.46750950  0.05984031  1
  Li  Li7  1  0.74067038  0.53904175  0.40695266  1
  Li  Li8  1  0.74426534  0.33967353  0.75448505  1
  Li  Li9  1  0.75573466  0.83967353  0.74551495  1
  Li  Li10  1  0.75932962  0.03904175  0.09304734  1
  Li  Li11  1  0.76913328  0.96750950  0.44015969  1
  Ni  Ni12  1  0.03715206  0.73892633  0.08894522  1
  Ni  Ni13  1  0.09631494  0.76993222  0.72862779  1
  Ni  Ni14  1  0.12034054  0.72592490  0.42235291  1
  Ni  Ni15  1  0.37965946  0.22592490  0.07764709  1
  Ni  Ni16  1  0.40368506  0.26993222  0.77137221  1
  Ni  Ni17  1  0.46284794  0.23892633  0.41105478  1
  Ni  Ni18  1  0.53715206  0.76107367  0.58894522  1
  Ni  Ni19  1  0.59631494  0.73006778  0.22862779  1
  Ni  Ni20  1  0.62034054  0.77407510  0.92235291  1
  Ni  Ni21  1  0.87965946  0.27407510  0.57764709  1
  Ni  Ni22  1  0.90368506  0.23006778  0.27137221  1
  Ni  Ni23  1  0.96284794  0.26107367  0.91105478  1
  P  P24  1  0.04375464  0.32826191  0.09171393  1
  P  P25  1  0.09206505  0.17643618  0.72403934  1
  P  P26  1  0.11376610  0.32384604  0.42957936  1
  P  P27  1  0.38623390  0.82384604  0.07042064  1
  P  P28  1  0.40793495  0.67643618  0.77596066  1
  P  P29  1  0.45624536  0.82826191  0.40828607  1
  P  P30  1  0.54375464  0.17173809  0.59171393  1
  P  P31  1  0.59206505  0.32356382  0.22403934  1
  P  P32  1  0.61376610  0.17615396  0.92957936  1
  P  P33  1  0.88623390  0.67615396  0.57042064  1
  P  P34  1  0.90793495  0.82356382  0.27596066  1
  P  P35  1  0.95624536  0.67173809  0.90828607  1
  O  O36  1  0.03779670  0.49755409  0.88721585  1
  O  O37  1  0.02783295  0.64143322  0.62762288  1
  O  O38  1  0.07127873  0.78142753  0.96252159  1
  O  O39  1  0.06243715  0.73111018  0.29781797  1
  O  O40  1  0.07068957  0.20809273  0.51057402  1
  O  O41  1  0.10120446  0.00122593  0.67434561  1
  O  O42  1  0.10199391  0.14500749  0.82445878  1
  O  O43  1  0.07941145  0.23210569  0.17881123  1
  O  O44  1  0.17974287  0.49734517  0.46459145  1
  O  O45  1  0.19815851  0.35585164  0.03642428  1
  O  O46  1  0.24401996  0.23081352  0.37350004  1
  O  O47  1  0.22972497  0.29263391  0.69169009  1
  O  O48  1  0.25598004  0.73081352  0.12649996  1
  O  O49  1  0.27027503  0.79263391  0.80830991  1
  O  O50  1  0.30184149  0.85585164  0.46357572  1
  O  O51  1  0.32025713  0.99734517  0.03540855  1
  O  O52  1  0.42058855  0.73210569  0.32118877  1
  O  O53  1  0.39800609  0.64500749  0.67554122  1
  O  O54  1  0.39879554  0.50122593  0.82565439  1
  O  O55  1  0.43756285  0.23111018  0.20218203  1
  O  O56  1  0.42931043  0.70809273  0.98942598  1
  O  O57  1  0.42872127  0.28142753  0.53747841  1
  O  O58  1  0.47216705  0.14143322  0.87237712  1
  O  O59  1  0.46220330  0.99755409  0.61278415  1
  O  O60  1  0.53779670  0.00244591  0.38721585  1
  O  O61  1  0.52783295  0.85856678  0.12762288  1
  O  O62  1  0.57127873  0.71857247  0.46252159  1
  O  O63  1  0.57068957  0.29190727  0.01057402  1
  O  O64  1  0.56243715  0.76888982  0.79781797  1
  O  O65  1  0.60120446  0.49877407  0.17434561  1
  O  O66  1  0.60199391  0.35499251  0.32445878  1
  O  O67  1  0.57941145  0.26789431  0.67881123  1
  O  O68  1  0.67974287  0.00265483  0.96459145  1
  O  O69  1  0.69815851  0.14414836  0.53642428  1
  O  O70  1  0.72972497  0.20736609  0.19169009  1
  O  O71  1  0.74401996  0.26918648  0.87350004  1
  O  O72  1  0.77027503  0.70736609  0.30830991  1
  O  O73  1  0.75598004  0.76918648  0.62649996  1
  O  O74  1  0.80184149  0.64414836  0.96357572  1
  O  O75  1  0.82025713  0.50265483  0.53540855  1
  O  O76  1  0.92058855  0.76789431  0.82118877  1
  O  O77  1  0.89800609  0.85499251  0.17554122  1
  O  O78  1  0.89879554  0.99877407  0.32565439  1
  O  O79  1  0.92931043  0.79190727  0.48942598  1
  O  O80  1  0.93756285  0.26888982  0.70218203  1
  O  O81  1  0.92872127  0.21857247  0.03747841  1
  O  O82  1  0.97216705  0.35856678  0.37237712  1
  O  O83  1  0.96220330  0.50244591  0.11278415  1
