# generated using pymatgen
data_Li4Mn7O9F7
_symmetry_space_group_name_H-M   'P 1'
_cell_length_a   6.08178133
_cell_length_b   6.07875229
_cell_length_c   10.63972196
_cell_angle_alpha   89.05700002
_cell_angle_beta   75.47912530
_cell_angle_gamma   122.38156885
_symmetry_Int_Tables_number   1
_chemical_formula_structural   Li4Mn7O9F7
_chemical_formula_sum   'Li4 Mn7 O9 F7'
_cell_volume   316.05671515
_cell_formula_units_Z   1
loop_
 _symmetry_equiv_pos_site_id
 _symmetry_equiv_pos_as_xyz
  1  'x, y, z'
loop_
 _atom_site_type_symbol
 _atom_site_label
 _atom_site_symmetry_multiplicity
 _atom_site_fract_x
 _atom_site_fract_y
 _atom_site_fract_z
 _atom_site_occupancy
  Li  Li0  1  0.98162385  0.00978156  0.01077229  1
  Li  Li1  1  0.26829827  0.61245404  0.12448043  1
  Li  Li2  1  0.26411008  0.12640338  0.61297376  1
  Li  Li3  1  0.97731435  0.51228272  0.50801953  1
  Mn  Mn4  1  0.63691958  0.29257517  0.07360814  1
  Mn  Mn5  1  0.11275441  0.06201553  0.30682235  1
  Mn  Mn6  1  0.62758164  0.57651551  0.30711559  1
  Mn  Mn7  1  0.64079425  0.06546068  0.80437792  1
  Mn  Mn8  1  0.63070719  0.57017948  0.80481270  1
  Mn  Mn9  1  0.62246292  0.80841803  0.56589083  1
  Mn  Mn10  1  0.13516015  0.56049269  0.80509813  1
  O  O11  1  0.84783385  0.44059963  0.71658579  1
  O  O12  1  0.83956487  0.72260186  0.43389436  1
  O  O13  1  0.39379783  0.40842690  0.19571376  1
  O  O14  1  0.86736795  0.21602457  0.91997075  1
  O  O15  1  0.87565601  0.91754752  0.20363774  1
  O  O16  1  0.85350106  0.91643631  0.67370210  1
  O  O17  1  0.40309138  0.47211753  0.67268458  1
  O  O18  1  0.40354719  0.91304576  0.68899894  1
  O  O19  1  0.41290724  0.69273548  0.90209902  1
  F  F20  1  0.84955087  0.16636618  0.45927197  1
  F  F21  1  0.88803415  0.44962711  0.18999225  1
  F  F22  1  0.36217722  0.21085614  0.42203006  1
  F  F23  1  0.87543696  0.69183245  0.93571803  1
  F  F24  1  0.37116800  0.68713896  0.46006158  1
  F  F25  1  0.37923923  0.20471879  0.93299733  1
  F  F26  1  0.36283853  0.92475400  0.19137708  1
