# generated using pymatgen
data_Li2V(CO3)2
_symmetry_space_group_name_H-M   'P 1'
_cell_length_a   4.82455888
_cell_length_b   6.57981068
_cell_length_c   8.13034219
_cell_angle_alpha   89.99967590
_cell_angle_beta   87.12692226
_cell_angle_gamma   89.99933942
_symmetry_Int_Tables_number   1
_chemical_formula_structural   Li2V(CO3)2
_chemical_formula_sum   'Li4 V2 C4 O12'
_cell_volume   257.77072337
_cell_formula_units_Z   2
loop_
 _symmetry_equiv_pos_site_id
 _symmetry_equiv_pos_as_xyz
  1  'x, y, z'
loop_
 _atom_site_type_symbol
 _atom_site_label
 _atom_site_symmetry_multiplicity
 _atom_site_fract_x
 _atom_site_fract_y
 _atom_site_fract_z
 _atom_site_occupancy
  Li  Li0  1  0.02167460  0.22475947  0.61946585  1
  Li  Li1  1  0.47832526  0.72475517  0.88053277  1
  Li  Li2  1  0.52170799  0.27525989  0.11936685  1
  Li  Li3  1  0.97829434  0.77526891  0.38063750  1
  V  V4  1  0.00006062  0.99998798  0.00002411  1
  V  V5  1  0.49995169  0.49995569  0.49996624  1
  C  C6  1  0.00807819  0.33098334  0.27857127  1
  C  C7  1  0.49192691  0.83099406  0.22140934  1
  C  C8  1  0.50816777  0.16901016  0.77861774  1
  C  C9  1  0.99182706  0.66901316  0.72139991  1
  O  O10  1  0.12258948  0.26393725  0.14112993  1
  O  O11  1  0.14962190  0.33433081  0.40971216  1
  O  O12  1  0.25153604  0.10666789  0.78425601  1
  O  O13  1  0.24844949  0.60662671  0.71574569  1
  O  O14  1  0.35037263  0.83433953  0.09030194  1
  O  O15  1  0.37743426  0.76389793  0.35887629  1
  O  O16  1  0.62257437  0.23612466  0.64112670  1
  O  O17  1  0.64983082  0.16561919  0.90969216  1
  O  O18  1  0.75146537  0.39333062  0.28417505  1
  O  O19  1  0.74851939  0.89336234  0.21582625  1
  O  O20  1  0.85013805  0.66559930  0.59031011  1
  O  O21  1  0.87745575  0.73617393  0.85885613  1
