# generated using pymatgen
data_Li7Mn(O2F)2
_symmetry_space_group_name_H-M   'P 1'
_cell_length_a   5.67678766
_cell_length_b   10.25371963
_cell_length_c   5.51436758
_cell_angle_alpha   103.35401499
_cell_angle_beta   118.76903187
_cell_angle_gamma   75.39727355
_symmetry_Int_Tables_number   1
_chemical_formula_structural   Li7Mn(O2F)2
_chemical_formula_sum   'Li14 Mn2 O8 F4'
_cell_volume   269.98936318
_cell_formula_units_Z   2
loop_
 _symmetry_equiv_pos_site_id
 _symmetry_equiv_pos_as_xyz
  1  'x, y, z'
loop_
 _atom_site_type_symbol
 _atom_site_label
 _atom_site_symmetry_multiplicity
 _atom_site_fract_x
 _atom_site_fract_y
 _atom_site_fract_z
 _atom_site_occupancy
  Li  Li0  1  0.28031572  0.16347760  0.02192002  1
  Li  Li1  1  0.10536391  0.67788960  0.21997180  1
  Li  Li2  1  0.14991258  0.32952073  0.37013178  1
  Li  Li3  1  0.12765019  0.82612596  0.62383868  1
  Li  Li4  1  0.57961592  0.35281631  0.09138809  1
  Li  Li5  1  0.41370302  0.84511413  0.35831797  1
  Li  Li6  1  0.15312394  0.47624475  0.75644468  1
  Li  Li7  1  0.74430894  0.98224833  0.39488420  1
  Li  Li8  1  0.53600810  0.16784277  0.65892020  1
  Li  Li9  1  0.47783139  0.65280625  0.96275831  1
  Li  Li10  1  0.94658319  0.16935089  0.43001893  1
  Li  Li11  1  0.82997385  0.66991826  0.54671747  1
  Li  Li12  1  0.86221596  0.31791267  0.78513667  1
  Li  Li13  1  0.71600966  0.82646502  0.92886376  1
  Mn  Mn14  1  0.99035783  0.00270943  0.99731448  1
  Mn  Mn15  1  0.50303158  0.50394317  0.51242783  1
  O  O16  1  0.01934073  0.88651234  0.25530173  1
  O  O17  1  0.22741099  0.12122952  0.30663714  1
  O  O18  1  0.19771311  0.62181639  0.57680671  1
  O  O19  1  0.47133947  0.62772313  0.27997703  1
  O  O20  1  0.48844898  0.37382967  0.71559373  1
  O  O21  1  0.83217273  0.38697867  0.47635918  1
  O  O22  1  0.78436441  0.87603291  0.66590427  1
  O  O23  1  0.92863602  0.11896317  0.73093126  1
  F  F24  1  0.20834440  0.36496530  0.06965271  1
  F  F25  1  0.62303759  0.14669094  0.05300179  1
  F  F26  1  0.41984774  0.85772921  0.00410980  1
  F  F27  1  0.80126204  0.63306489  0.89109778  1
