# generated using pymatgen
data_Li3Mn3O5F3
_symmetry_space_group_name_H-M   'P 1'
_cell_length_a   5.81840266
_cell_length_b   5.98802913
_cell_length_c   6.00228617
_cell_angle_alpha   59.01699407
_cell_angle_beta   92.08671886
_cell_angle_gamma   119.07066921
_symmetry_Int_Tables_number   1
_chemical_formula_structural   Li3Mn3O5F3
_chemical_formula_sum   'Li3 Mn3 O5 F3'
_cell_volume   150.19138112
_cell_formula_units_Z   1
loop_
 _symmetry_equiv_pos_site_id
 _symmetry_equiv_pos_as_xyz
  1  'x, y, z'
loop_
 _atom_site_type_symbol
 _atom_site_label
 _atom_site_symmetry_multiplicity
 _atom_site_fract_x
 _atom_site_fract_y
 _atom_site_fract_z
 _atom_site_occupancy
  Li  Li0  1  0.98621048  0.97287295  0.02266478  1
  Li  Li1  1  0.62965616  0.25116973  0.61965670  1
  Li  Li2  1  0.25205856  0.51734151  0.23071188  1
  Mn  Mn3  1  0.63160300  0.25144913  0.13007728  1
  Mn  Mn4  1  0.63808006  0.77444237  0.61366756  1
  Mn  Mn5  1  0.12553318  0.74979225  0.62541320  1
  O  O6  1  0.83878014  0.21014292  0.38672346  1
  O  O7  1  0.86182623  0.74021926  0.42390972  1
  O  O8  1  0.85836520  0.70484265  0.87251816  1
  O  O9  1  0.39674296  0.80052681  0.37666307  1
  O  O10  1  0.38655804  0.75602587  0.82862395  1
  F  F11  1  0.38249067  0.26015296  0.38078376  1
  F  F12  1  0.86202120  0.23832915  0.86762648  1
  F  F13  1  0.40007513  0.27269244  0.87095999  1
