# generated using pymatgen
data_LiVSiO4
_symmetry_space_group_name_H-M   'P 1'
_cell_length_a   5.60561361
_cell_length_b   10.66757247
_cell_length_c   10.42850198
_cell_angle_alpha   90.00000000
_cell_angle_beta   90.54462975
_cell_angle_gamma   90.00000000
_symmetry_Int_Tables_number   1
_chemical_formula_structural   LiVSiO4
_chemical_formula_sum   'Li8 V8 Si8 O32'
_cell_volume   623.57840665
_cell_formula_units_Z   8
loop_
 _symmetry_equiv_pos_site_id
 _symmetry_equiv_pos_as_xyz
  1  'x, y, z'
loop_
 _atom_site_type_symbol
 _atom_site_label
 _atom_site_symmetry_multiplicity
 _atom_site_fract_x
 _atom_site_fract_y
 _atom_site_fract_z
 _atom_site_occupancy
  Li  Li0  1  0.10743322  0.84155767  0.82584766  1
  Li  Li1  1  0.10743322  0.65844233  0.32584766  1
  Li  Li2  1  0.37322512  0.38058718  0.58834183  1
  Li  Li3  1  0.37322512  0.11941282  0.08834183  1
  Li  Li4  1  0.62677488  0.88058718  0.91165817  1
  Li  Li5  1  0.62677488  0.61941282  0.41165817  1
  Li  Li6  1  0.89256678  0.34155767  0.67415234  1
  Li  Li7  1  0.89256678  0.15844233  0.17415234  1
  V  V8  1  0.15528221  0.12774267  0.51660184  1
  V  V9  1  0.15528221  0.37225733  0.01660184  1
  V  V10  1  0.33807586  0.59200418  0.76984672  1
  V  V11  1  0.33807586  0.90799582  0.26984672  1
  V  V12  1  0.66192414  0.09200418  0.73015328  1
  V  V13  1  0.66192414  0.40799582  0.23015328  1
  V  V14  1  0.84471779  0.62774267  0.98339816  1
  V  V15  1  0.84471779  0.87225733  0.48339816  1
  Si  Si16  1  0.11746161  0.09956865  0.83698489  1
  Si  Si17  1  0.11746161  0.40043135  0.33698489  1
  Si  Si18  1  0.39006312  0.85475431  0.57983110  1
  Si  Si19  1  0.39006312  0.64524569  0.07983110  1
  Si  Si20  1  0.60993688  0.35475431  0.92016890  1
  Si  Si21  1  0.60993688  0.14524569  0.42016890  1
  Si  Si22  1  0.88253839  0.59956865  0.66301511  1
  Si  Si23  1  0.88253839  0.90043135  0.16301511  1
  O  O24  1  0.11579787  0.19609835  0.95894341  1
  O  O25  1  0.11247406  0.49950323  0.65474563  1
  O  O26  1  0.11579787  0.30390165  0.45894341  1
  O  O27  1  0.11247406  0.00049677  0.15474563  1
  O  O28  1  0.04790918  0.16951206  0.69639615  1
  O  O29  1  0.14604067  0.93784264  0.57086853  1
  O  O30  1  0.04790918  0.33048794  0.19639615  1
  O  O31  1  0.14604067  0.56215736  0.07086853  1
  O  O32  1  0.35333649  0.75294289  0.69124732  1
  O  O33  1  0.36811306  0.02012851  0.83171350  1
  O  O34  1  0.35333649  0.74705711  0.19124732  1
  O  O35  1  0.36811306  0.47987149  0.33171350  1
  O  O36  1  0.37140657  0.43937358  0.88187568  1
  O  O37  1  0.47510508  0.69404109  0.93536483  1
  O  O38  1  0.37140657  0.06062642  0.38187568  1
  O  O39  1  0.47510508  0.80595891  0.43536483  1
  O  O40  1  0.52489492  0.19404109  0.56463517  1
  O  O41  1  0.62859343  0.93937358  0.61812432  1
  O  O42  1  0.52489492  0.30595891  0.06463517  1
  O  O43  1  0.62859343  0.56062642  0.11812432  1
  O  O44  1  0.63188694  0.52012851  0.66828650  1
  O  O45  1  0.64666351  0.25294289  0.80875268  1
  O  O46  1  0.63188694  0.97987149  0.16828650  1
  O  O47  1  0.64666351  0.24705711  0.30875268  1
  O  O48  1  0.85395933  0.43784264  0.92913147  1
  O  O49  1  0.95209082  0.66951206  0.80360385  1
  O  O50  1  0.85395933  0.06215736  0.42913147  1
  O  O51  1  0.95209082  0.83048794  0.30360385  1
  O  O52  1  0.88752594  0.99950323  0.84525437  1
  O  O53  1  0.88420213  0.69609835  0.54105659  1
  O  O54  1  0.88752594  0.50049677  0.34525437  1
  O  O55  1  0.88420213  0.80390165  0.04105659  1
