# generated using pymatgen
data_Li2Mn7F18
_symmetry_space_group_name_H-M   'P 1'
_cell_length_a   7.22607673
_cell_length_b   7.66982951
_cell_length_c   7.90586679
_cell_angle_alpha   96.31744885
_cell_angle_beta   93.25632800
_cell_angle_gamma   117.02491612
_symmetry_Int_Tables_number   1
_chemical_formula_structural   Li2Mn7F18
_chemical_formula_sum   'Li2 Mn7 F18'
_cell_volume   385.11841065
_cell_formula_units_Z   1
loop_
 _symmetry_equiv_pos_site_id
 _symmetry_equiv_pos_as_xyz
  1  'x, y, z'
loop_
 _atom_site_type_symbol
 _atom_site_label
 _atom_site_symmetry_multiplicity
 _atom_site_fract_x
 _atom_site_fract_y
 _atom_site_fract_z
 _atom_site_occupancy
  Li  Li0  1  0.36540008  0.84995309  0.57197208  1
  Li  Li1  1  0.63459992  0.15004691  0.42802792  1
  Mn  Mn2  1  0.21727307  0.88789578  0.17729257  1
  Mn  Mn3  1  0.00000000  0.00000000  0.50000000  1
  Mn  Mn4  1  0.18549696  0.39451904  0.21275955  1
  Mn  Mn5  1  0.38329034  0.26726666  0.87369687  1
  Mn  Mn6  1  0.61670966  0.73273334  0.12630313  1
  Mn  Mn7  1  0.81450304  0.60548096  0.78724045  1
  Mn  Mn8  1  0.78272693  0.11210422  0.82270743  1
  F  F9  1  0.07573291  0.74473902  0.92850128  1
  F  F10  1  0.16225383  0.64618295  0.30191352  1
  F  F11  1  0.06455513  0.26072569  0.40059547  1
  F  F12  1  0.08013222  0.13885462  0.75228454  1
  F  F13  1  0.31060106  0.50522123  0.00492410  1
  F  F14  1  0.54103528  0.96161715  0.20184918  1
  F  F15  1  0.46894022  0.54543146  0.31598289  1
  F  F16  1  0.27654900  0.16695648  0.10696786  1
  F  F17  1  0.68395594  0.96712655  0.55113818  1
  F  F18  1  0.31604406  0.03287345  0.44886182  1
  F  F19  1  0.72345100  0.83304352  0.89303214  1
  F  F20  1  0.53105978  0.45456854  0.68401711  1
  F  F21  1  0.45896472  0.03838285  0.79815082  1
  F  F22  1  0.68939894  0.49477877  0.99507590  1
  F  F23  1  0.91986778  0.86114538  0.24771546  1
  F  F24  1  0.93544487  0.73927431  0.59940453  1
  F  F25  1  0.83774617  0.35381705  0.69808648  1
  F  F26  1  0.92426709  0.25526098  0.07149872  1
