# generated using pymatgen
data_Li3Mn(OF)2
_symmetry_space_group_name_H-M   'P 1'
_cell_length_a   5.06222038
_cell_length_b   6.00858139
_cell_length_c   5.06958812
_cell_angle_alpha   90.00000000
_cell_angle_beta   106.77535791
_cell_angle_gamma   90.00000000
_symmetry_Int_Tables_number   1
_chemical_formula_structural   Li3Mn(OF)2
_chemical_formula_sum   'Li6 Mn2 O4 F4'
_cell_volume   147.63826283
_cell_formula_units_Z   2
loop_
 _symmetry_equiv_pos_site_id
 _symmetry_equiv_pos_as_xyz
  1  'x, y, z'
loop_
 _atom_site_type_symbol
 _atom_site_label
 _atom_site_symmetry_multiplicity
 _atom_site_fract_x
 _atom_site_fract_y
 _atom_site_fract_z
 _atom_site_occupancy
  Li  Li0  1  0.25000000  0.11174782  0.50000000  1
  Li  Li1  1  0.25000000  0.63978157  0.50000000  1
  Li  Li2  1  0.25000000  0.36952273  0.00000000  1
  Li  Li3  1  0.75000000  0.36021843  0.50000000  1
  Li  Li4  1  0.75000000  0.88825218  0.50000000  1
  Li  Li5  1  0.75000000  0.63047727  0.00000000  1
  Mn  Mn6  1  0.25000000  0.88930266  0.00000000  1
  Mn  Mn7  1  0.75000000  0.11069734  0.00000000  1
  O  O8  1  0.01491843  0.88090324  0.23414775  1
  O  O9  1  0.48508157  0.88090324  0.76585225  1
  O  O10  1  0.51491843  0.11909676  0.23414775  1
  O  O11  1  0.98508157  0.11909676  0.76585225  1
  F  F12  1  0.00497687  0.61880057  0.75148817  1
  F  F13  1  0.50497687  0.38119943  0.75148817  1
  F  F14  1  0.49502313  0.61880057  0.24851183  1
  F  F15  1  0.99502313  0.38119943  0.24851183  1
