# generated using pymatgen
data_Mn4Si4O13
_symmetry_space_group_name_H-M   'P 1'
_cell_length_a   10.10102093
_cell_length_b   7.81232400
_cell_length_c   7.10362391
_cell_angle_alpha   81.33150337
_cell_angle_beta   90.84553388
_cell_angle_gamma   112.98343273
_symmetry_Int_Tables_number   1
_chemical_formula_structural   Mn4Si4O13
_chemical_formula_sum   'Mn8 Si8 O26'
_cell_volume   509.57135408
_cell_formula_units_Z   2
loop_
 _symmetry_equiv_pos_site_id
 _symmetry_equiv_pos_as_xyz
  1  'x, y, z'
loop_
 _atom_site_type_symbol
 _atom_site_label
 _atom_site_symmetry_multiplicity
 _atom_site_fract_x
 _atom_site_fract_y
 _atom_site_fract_z
 _atom_site_occupancy
  Mn  Mn0  1  0.99717304  0.79906620  0.93888045  1
  Mn  Mn1  1  0.00789208  0.80527440  0.43729770  1
  Mn  Mn2  1  0.37859146  0.81869583  0.42990795  1
  Mn  Mn3  1  0.37960200  0.80560044  0.94869797  1
  Mn  Mn4  1  0.62039800  0.19439956  0.05130203  1
  Mn  Mn5  1  0.62140854  0.18130417  0.57009205  1
  Mn  Mn6  1  0.99210792  0.19472560  0.56270230  1
  Mn  Mn7  1  0.00282696  0.20093380  0.06111955  1
  Si  Si8  1  0.17273911  0.59435625  0.72699307  1
  Si  Si9  1  0.28580535  0.42307699  0.28052934  1
  Si  Si10  1  0.29039230  0.14952626  0.61147974  1
  Si  Si11  1  0.28936467  0.12388629  0.05943985  1
  Si  Si12  1  0.71063533  0.87611371  0.94056015  1
  Si  Si13  1  0.70960770  0.85047374  0.38852026  1
  Si  Si14  1  0.71419465  0.57692301  0.71947066  1
  Si  Si15  1  0.82726089  0.40564375  0.27300693  1
  O  O16  1  0.11865056  0.02779531  0.58664797  1
  O  O17  1  0.11679437  0.00439024  0.11468595  1
  O  O18  1  0.07847360  0.36867407  0.76991486  1
  O  O19  1  0.15954945  0.69687407  0.50712083  1
  O  O20  1  0.15962544  0.71294740  0.89977062  1
  O  O21  1  0.10945559  0.33720788  0.27640410  1
  O  O22  1  0.39627583  0.01172141  0.12395724  1
  O  O23  1  0.39971521  0.05435244  0.55376748  1
  O  O24  1  0.35034411  0.66223889  0.73225124  1
  O  O25  1  0.36331612  0.65075582  0.22696899  1
  O  O26  1  0.31257731  0.17461416  0.83133387  1
  O  O27  1  0.33152483  0.36203539  0.49505273  1
  O  O28  1  0.34832566  0.32502892  0.13492025  1
  O  O29  1  0.65167434  0.67497108  0.86507975  1
  O  O30  1  0.66847517  0.63796461  0.50494727  1
  O  O31  1  0.68742269  0.82538584  0.16866613  1
  O  O32  1  0.63668388  0.34924418  0.77303101  1
  O  O33  1  0.64965589  0.33776111  0.26774876  1
  O  O34  1  0.60028479  0.94564756  0.44623252  1
  O  O35  1  0.60372417  0.98827859  0.87604276  1
  O  O36  1  0.89054441  0.66279212  0.72359590  1
  O  O37  1  0.84037456  0.28705260  0.10022938  1
  O  O38  1  0.84045055  0.30312593  0.49287917  1
  O  O39  1  0.92152640  0.63132593  0.23008514  1
  O  O40  1  0.88320563  0.99560976  0.88531405  1
  O  O41  1  0.88134944  0.97220469  0.41335203  1
