# generated using pymatgen
data_Li3VF6
_symmetry_space_group_name_H-M   'P 1'
_cell_length_a   5.42558597
_cell_length_b   5.54956570
_cell_length_c   10.99098562
_cell_angle_alpha   99.60402527
_cell_angle_beta   75.74623939
_cell_angle_gamma   60.73478484
_symmetry_Int_Tables_number   1
_chemical_formula_structural   Li3VF6
_chemical_formula_sum   'Li6 V2 F12'
_cell_volume   263.17165384
_cell_formula_units_Z   2
loop_
 _symmetry_equiv_pos_site_id
 _symmetry_equiv_pos_as_xyz
  1  'x, y, z'
loop_
 _atom_site_type_symbol
 _atom_site_label
 _atom_site_symmetry_multiplicity
 _atom_site_fract_x
 _atom_site_fract_y
 _atom_site_fract_z
 _atom_site_occupancy
  Li  Li0  1  0.16134581  0.15983081  0.94921307  1
  Li  Li1  1  0.22874160  0.66082792  0.44938017  1
  Li  Li2  1  0.66320532  0.87054245  0.05252653  1
  Li  Li3  1  0.54497054  0.45018110  0.82157351  1
  Li  Li4  1  0.68254618  0.95195094  0.32195398  1
  Li  Li5  1  0.91476457  0.36936235  0.55188277  1
  V  V6  1  0.48888566  0.46940634  0.14911900  1
  V  V7  1  0.39325011  0.96814143  0.64898657  1
  F  F8  1  0.32734061  0.24767519  0.06993370  1
  F  F9  1  0.36302311  0.07206915  0.48634905  1
  F  F10  1  0.09696221  0.79735152  0.28923690  1
  F  F11  1  0.31737060  0.29584856  0.78880187  1
  F  F12  1  0.50745019  0.31708106  0.29700985  1
  F  F13  1  0.87601604  0.08043092  0.04602698  1
  F  F14  1  0.49851567  0.57918435  0.54546195  1
  F  F15  1  0.37916538  0.81574894  0.79670683  1
  F  F16  1  0.66780458  0.69976168  0.19356318  1
  F  F17  1  0.93975608  0.19788663  0.69287713  1
  F  F18  1  0.57880296  0.57224129  0.98643009  1
  F  F19  1  0.85582379  0.74644237  0.56950887  1
