# generated using pymatgen
data_Li2Si2Ni2O7
_symmetry_space_group_name_H-M   'P 1'
_cell_length_a   8.05990117
_cell_length_b   13.02112676
_cell_length_c   5.48445839
_cell_angle_alpha   90.00000000
_cell_angle_beta   88.76116962
_cell_angle_gamma   90.00000000
_symmetry_Int_Tables_number   1
_chemical_formula_structural   Li2Si2Ni2O7
_chemical_formula_sum   'Li8 Si8 Ni8 O28'
_cell_volume   575.45385741
_cell_formula_units_Z   4
loop_
 _symmetry_equiv_pos_site_id
 _symmetry_equiv_pos_as_xyz
  1  'x, y, z'
loop_
 _atom_site_type_symbol
 _atom_site_label
 _atom_site_symmetry_multiplicity
 _atom_site_fract_x
 _atom_site_fract_y
 _atom_site_fract_z
 _atom_site_occupancy
  Li  Li0  1  0.11944380  0.35847421  0.15111772  1
  Li  Li1  1  0.17457729  0.74907986  0.79744018  1
  Li  Li2  1  0.32542271  0.24907986  0.70255982  1
  Li  Li3  1  0.38055620  0.85847421  0.34888228  1
  Li  Li4  1  0.61944380  0.14152579  0.65111772  1
  Li  Li5  1  0.67457729  0.75092014  0.29744018  1
  Li  Li6  1  0.82542271  0.25092014  0.20255982  1
  Li  Li7  1  0.88055620  0.64152579  0.84888228  1
  Si  Si8  1  0.03243214  0.89027562  0.17991727  1
  Si  Si9  1  0.04488955  0.67686364  0.31974384  1
  Si  Si10  1  0.45511045  0.17686364  0.18025616  1
  Si  Si11  1  0.46756786  0.39027562  0.32008273  1
  Si  Si12  1  0.53243214  0.60972438  0.67991727  1
  Si  Si13  1  0.54488955  0.82313636  0.81974384  1
  Si  Si14  1  0.95511045  0.32313636  0.68025616  1
  Si  Si15  1  0.96756786  0.10972438  0.82008273  1
  Ni  Ni16  1  0.10499822  0.08560838  0.34645751  1
  Ni  Ni17  1  0.19068610  0.49113800  0.63985385  1
  Ni  Ni18  1  0.30931390  0.99113800  0.86014615  1
  Ni  Ni19  1  0.39500178  0.58560838  0.15354249  1
  Ni  Ni20  1  0.60499822  0.41439162  0.84645751  1
  Ni  Ni21  1  0.69068610  0.00886200  0.13985385  1
  Ni  Ni22  1  0.80931390  0.50886200  0.36014615  1
  Ni  Ni23  1  0.89500178  0.91439162  0.65354249  1
  O  O24  1  0.03973413  0.80195081  0.40049212  1
  O  O25  1  0.01847595  0.16546549  0.06838969  1
  O  O26  1  0.09879663  0.02472336  0.70092904  1
  O  O27  1  0.07159661  0.62190343  0.58629061  1
  O  O28  1  0.13744754  0.35567377  0.78654211  1
  O  O29  1  0.18748262  0.66325851  0.11035249  1
  O  O30  1  0.21155807  0.95088696  0.18297062  1
  O  O31  1  0.28844193  0.45088696  0.31702938  1
  O  O32  1  0.31251738  0.16325851  0.38964751  1
  O  O33  1  0.36255246  0.85567377  0.71345789  1
  O  O34  1  0.42840339  0.12190343  0.91370939  1
  O  O35  1  0.40120337  0.52472336  0.79907096  1
  O  O36  1  0.48152405  0.66546549  0.43161031  1
  O  O37  1  0.46026587  0.30195081  0.09950788  1
  O  O38  1  0.53973413  0.69804919  0.90049212  1
  O  O39  1  0.51847595  0.33453451  0.56838969  1
  O  O40  1  0.59879663  0.47527664  0.20092904  1
  O  O41  1  0.57159661  0.87809657  0.08629061  1
  O  O42  1  0.63744754  0.14432623  0.28654211  1
  O  O43  1  0.68748262  0.83674149  0.61035249  1
  O  O44  1  0.71155807  0.54911304  0.68297062  1
  O  O45  1  0.78844193  0.04911304  0.81702938  1
  O  O46  1  0.81251738  0.33674149  0.88964751  1
  O  O47  1  0.86255246  0.64432623  0.21345789  1
  O  O48  1  0.92840339  0.37809657  0.41370939  1
  O  O49  1  0.90120337  0.97527664  0.29907096  1
  O  O50  1  0.98152405  0.83453451  0.93161031  1
  O  O51  1  0.96026587  0.19804919  0.59950788  1
