# generated using pymatgen
data_Li2SiNiO4
_symmetry_space_group_name_H-M   'P 1'
_cell_length_a   10.45049081
_cell_length_b   5.35928084
_cell_length_c   12.78708153
_cell_angle_alpha   90.00000000
_cell_angle_beta   90.00000000
_cell_angle_gamma   90.00000000
_symmetry_Int_Tables_number   1
_chemical_formula_structural   Li2SiNiO4
_chemical_formula_sum   'Li16 Si8 Ni8 O32'
_cell_volume   716.16754790
_cell_formula_units_Z   8
loop_
 _symmetry_equiv_pos_site_id
 _symmetry_equiv_pos_as_xyz
  1  'x, y, z'
loop_
 _atom_site_type_symbol
 _atom_site_label
 _atom_site_symmetry_multiplicity
 _atom_site_fract_x
 _atom_site_fract_y
 _atom_site_fract_z
 _atom_site_occupancy
  Li  Li0  1  0.97016923  0.96233564  0.56004981  1
  Li  Li1  1  0.95715096  0.45747686  0.94147309  1
  Li  Li2  1  0.21754177  0.38760430  0.30260215  1
  Li  Li3  1  0.21192714  0.88049754  0.19461024  1
  Li  Li4  1  0.28807286  0.88049754  0.69461024  1
  Li  Li5  1  0.28245823  0.38760430  0.80260215  1
  Li  Li6  1  0.52983077  0.96233564  0.06004981  1
  Li  Li7  1  0.54284904  0.45747686  0.44147309  1
  Li  Li8  1  0.45715096  0.54252314  0.94147309  1
  Li  Li9  1  0.47016923  0.03766436  0.56004981  1
  Li  Li10  1  0.71754177  0.61239570  0.30260215  1
  Li  Li11  1  0.71192714  0.11950246  0.19461024  1
  Li  Li12  1  0.78807286  0.11950246  0.69461024  1
  Li  Li13  1  0.78245823  0.61239570  0.80260215  1
  Li  Li14  1  0.02983077  0.03766436  0.06004981  1
  Li  Li15  1  0.04284904  0.54252314  0.44147309  1
  Si  Si16  1  0.03111310  0.47286027  0.68971309  1
  Si  Si17  1  0.21137450  0.03257453  0.43843670  1
  Si  Si18  1  0.28862550  0.03257453  0.93843670  1
  Si  Si19  1  0.46888690  0.47286027  0.18971309  1
  Si  Si20  1  0.53111310  0.52713973  0.68971309  1
  Si  Si21  1  0.71137450  0.96742547  0.43843670  1
  Si  Si22  1  0.78862550  0.96742547  0.93843670  1
  Si  Si23  1  0.96888690  0.52713973  0.18971309  1
  Ni  Ni24  1  0.03724608  0.95732058  0.81177356  1
  Ni  Ni25  1  0.21310259  0.53128912  0.05887748  1
  Ni  Ni26  1  0.28689741  0.53128912  0.55887748  1
  Ni  Ni27  1  0.46275392  0.95732058  0.31177356  1
  Ni  Ni28  1  0.53724608  0.04267942  0.81177356  1
  Ni  Ni29  1  0.71310259  0.46871088  0.05887748  1
  Ni  Ni30  1  0.78689741  0.46871088  0.55887748  1
  Ni  Ni31  1  0.96275392  0.04267942  0.31177356  1
  O  O32  1  0.02793843  0.39152754  0.29567053  1
  O  O33  1  0.00706114  0.82695856  0.19126233  1
  O  O34  1  0.06884703  0.90630104  0.42851273  1
  O  O35  1  0.03873198  0.40920136  0.08489589  1
  O  O36  1  0.18612982  0.54191446  0.69012223  1
  O  O37  1  0.22098936  0.03022907  0.82132350  1
  O  O38  1  0.19494403  0.33289880  0.46097997  1
  O  O39  1  0.20222612  0.90024719  0.03042670  1
  O  O40  1  0.29777388  0.90024719  0.53042670  1
  O  O41  1  0.30505597  0.33289880  0.96097997  1
  O  O42  1  0.27901064  0.03022907  0.32132350  1
  O  O43  1  0.31387018  0.54191446  0.19012223  1
  O  O44  1  0.46126802  0.40920136  0.58489589  1
  O  O45  1  0.43115297  0.90630104  0.92851273  1
  O  O46  1  0.49293886  0.82695856  0.69126233  1
  O  O47  1  0.47206157  0.39152754  0.79567053  1
  O  O48  1  0.52793843  0.60847246  0.29567053  1
  O  O49  1  0.50706114  0.17304144  0.19126233  1
  O  O50  1  0.56884703  0.09369896  0.42851273  1
  O  O51  1  0.53873198  0.59079864  0.08489589  1
  O  O52  1  0.68612982  0.45808554  0.69012223  1
  O  O53  1  0.72098936  0.96977093  0.82132350  1
  O  O54  1  0.69494403  0.66710120  0.46097997  1
  O  O55  1  0.70222612  0.09975281  0.03042670  1
  O  O56  1  0.79777388  0.09975281  0.53042670  1
  O  O57  1  0.80505597  0.66710120  0.96097997  1
  O  O58  1  0.77901064  0.96977093  0.32132350  1
  O  O59  1  0.81387018  0.45808554  0.19012223  1
  O  O60  1  0.96126802  0.59079864  0.58489589  1
  O  O61  1  0.93115297  0.09369896  0.92851273  1
  O  O62  1  0.99293886  0.17304144  0.69126233  1
  O  O63  1  0.97206157  0.60847246  0.79567053  1
