# generated using pymatgen
data_Li3Cr4(PO4)6
_symmetry_space_group_name_H-M   'P 1'
_cell_length_a   8.75805641
_cell_length_b   8.48147951
_cell_length_c   6.35883750
_cell_angle_alpha   74.45722548
_cell_angle_beta   106.87729036
_cell_angle_gamma   88.54133389
_symmetry_Int_Tables_number   1
_chemical_formula_structural   Li3Cr4(PO4)6
_chemical_formula_sum   'Li3 Cr4 P6 O24'
_cell_volume   432.72937430
_cell_formula_units_Z   1
loop_
 _symmetry_equiv_pos_site_id
 _symmetry_equiv_pos_as_xyz
  1  'x, y, z'
loop_
 _atom_site_type_symbol
 _atom_site_label
 _atom_site_symmetry_multiplicity
 _atom_site_fract_x
 _atom_site_fract_y
 _atom_site_fract_z
 _atom_site_occupancy
  Li  Li0  1  0.29476012  0.28687185  0.73911658  1
  Li  Li1  1  0.50000000  0.50000000  0.00000000  1
  Li  Li2  1  0.70523988  0.71312815  0.26088342  1
  Cr  Cr3  1  0.05947941  0.62343112  0.13431299  1
  Cr  Cr4  1  0.38140969  0.94093895  0.63475832  1
  Cr  Cr5  1  0.61859031  0.05906105  0.36524168  1
  Cr  Cr6  1  0.94052059  0.37656888  0.86568701  1
  P  P7  1  0.15099628  0.64501847  0.65015354  1
  P  P8  1  0.28216778  0.28587635  0.24786135  1
  P  P9  1  0.35207696  0.85247523  0.13217721  1
  P  P10  1  0.64792304  0.14752477  0.86782279  1
  P  P11  1  0.71783222  0.71412365  0.75213865  1
  P  P12  1  0.84900372  0.35498153  0.34984646  1
  O  O13  1  0.04902993  0.59586615  0.82518365  1
  O  O14  1  0.02636082  0.64638821  0.41514900  1
  O  O15  1  0.19148588  0.82258792  0.62641769  1
  O  O16  1  0.15903508  0.26361755  0.02578088  1
  O  O17  1  0.26363510  0.16594910  0.46892195  1
  O  O18  1  0.18165163  0.80687026  0.12830682  1
  O  O19  1  0.29589019  0.52086720  0.73011591  1
  O  O20  1  0.34420275  0.98691382  0.90715317  1
  O  O21  1  0.25201755  0.46324275  0.26432081  1
  O  O22  1  0.41205062  0.94096786  0.32847886  1
  O  O23  1  0.53386235  0.29745935  0.82546196  1
  O  O24  1  0.45226551  0.26268970  0.22552043  1
  O  O25  1  0.54773449  0.73731030  0.77447957  1
  O  O26  1  0.46613765  0.70254065  0.17453804  1
  O  O27  1  0.58794938  0.05903214  0.67152114  1
  O  O28  1  0.74798245  0.53675725  0.73567919  1
  O  O29  1  0.65579725  0.01308618  0.09284683  1
  O  O30  1  0.70410981  0.47913280  0.26988409  1
  O  O31  1  0.81834837  0.19312974  0.87169318  1
  O  O32  1  0.73636490  0.83405090  0.53107805  1
  O  O33  1  0.84096492  0.73638245  0.97421912  1
  O  O34  1  0.80851412  0.17741208  0.37358231  1
  O  O35  1  0.97363918  0.35361179  0.58485100  1
  O  O36  1  0.95097007  0.40413385  0.17481635  1
