# generated using pymatgen
data_LiTi2Mn3O10
_symmetry_space_group_name_H-M   'P 1'
_cell_length_a   5.02144344
_cell_length_b   5.08531775
_cell_length_c   8.23060408
_cell_angle_alpha   111.56989557
_cell_angle_beta   100.70406452
_cell_angle_gamma   98.00614559
_symmetry_Int_Tables_number   1
_chemical_formula_structural   LiTi2Mn3O10
_chemical_formula_sum   'Li1 Ti2 Mn3 O10'
_cell_volume   187.03407042
_cell_formula_units_Z   1
loop_
 _symmetry_equiv_pos_site_id
 _symmetry_equiv_pos_as_xyz
  1  'x, y, z'
loop_
 _atom_site_type_symbol
 _atom_site_label
 _atom_site_symmetry_multiplicity
 _atom_site_fract_x
 _atom_site_fract_y
 _atom_site_fract_z
 _atom_site_occupancy
  Li  Li0  1  0.67627065  0.04373463  0.54429862  1
  Ti  Ti1  1  0.12406222  0.69743115  0.68296249  1
  Ti  Ti2  1  0.89332921  0.33442395  0.32644002  1
  Mn  Mn3  1  0.00962771  0.50076238  0.00296754  1
  Mn  Mn4  1  0.70457794  0.88874941  0.90577090  1
  Mn  Mn5  1  0.31214752  0.11013453  0.10421688  1
  O  O6  1  0.04517036  0.09214319  0.87773033  1
  O  O7  1  0.36372852  0.73580802  0.94685882  1
  O  O8  1  0.09231526  0.31295869  0.53092347  1
  O  O9  1  0.19594716  0.45882650  0.21591026  1
  O  O10  1  0.47798692  0.87721003  0.69436410  1
  O  O11  1  0.54789770  0.13226573  0.31475440  1
  O  O12  1  0.81861406  0.53779923  0.78873089  1
  O  O13  1  0.90084590  0.71245984  0.48100188  1
  O  O14  1  0.65109485  0.26523641  0.05916780  1
  O  O15  1  0.96909601  0.90576931  0.12652957  1
