# generated using pymatgen
data_Na3GePCO7
_symmetry_space_group_name_H-M   'P 1'
_cell_length_a   9.24403729
_cell_length_b   7.06796168
_cell_length_c   5.15306241
_cell_angle_alpha   90.00000000
_cell_angle_beta   91.15373317
_cell_angle_gamma   90.00000000
_symmetry_Int_Tables_number   1
_chemical_formula_structural   Na3GePCO7
_chemical_formula_sum   'Na6 Ge2 P2 C2 O14'
_cell_volume   336.61481307
_cell_formula_units_Z   2
loop_
 _symmetry_equiv_pos_site_id
 _symmetry_equiv_pos_as_xyz
  1  'x, y, z'
loop_
 _atom_site_type_symbol
 _atom_site_label
 _atom_site_symmetry_multiplicity
 _atom_site_fract_x
 _atom_site_fract_y
 _atom_site_fract_z
 _atom_site_occupancy
  Na  Na0  1  0.08397458  0.25000000  0.76649759  1
  Na  Na1  1  0.25682775  0.00140729  0.25018638  1
  Na  Na2  1  0.25682775  0.49859271  0.25018638  1
  Na  Na3  1  0.74317225  0.50140729  0.74981362  1
  Na  Na4  1  0.74317225  0.99859271  0.74981362  1
  Na  Na5  1  0.91602542  0.75000000  0.23350241  1
  Ge  Ge6  1  0.36327096  0.75000000  0.77884416  1
  Ge  Ge7  1  0.63672904  0.25000000  0.22115584  1
  P  P8  1  0.40378255  0.25000000  0.70798090  1
  P  P9  1  0.59621745  0.75000000  0.29201910  1
  C  C10  1  0.05498759  0.75000000  0.72999324  1
  C  C11  1  0.94501241  0.25000000  0.27000676  1
  O  O12  1  0.08455709  0.25000000  0.27281391  1
  O  O13  1  0.12636876  0.75000000  0.95413253  1
  O  O14  1  0.12550415  0.75000000  0.51452366  1
  O  O15  1  0.31862566  0.07376737  0.80292944  1
  O  O16  1  0.31862566  0.42623263  0.80292944  1
  O  O17  1  0.40738712  0.25000000  0.40583123  1
  O  O18  1  0.43496946  0.75000000  0.18519917  1
  O  O19  1  0.56503054  0.25000000  0.81480083  1
  O  O20  1  0.59261288  0.75000000  0.59416877  1
  O  O21  1  0.68137434  0.57376737  0.19707056  1
  O  O22  1  0.68137434  0.92623263  0.19707056  1
  O  O23  1  0.87449585  0.25000000  0.48547634  1
  O  O24  1  0.87363124  0.25000000  0.04586747  1
  O  O25  1  0.91544291  0.75000000  0.72718609  1
