# generated using pymatgen
data_Li6Mn2O5F2
_symmetry_space_group_name_H-M   'P 1'
_cell_length_a   5.84022621
_cell_length_b   5.83026145
_cell_length_c   9.85552409
_cell_angle_alpha   82.41136593
_cell_angle_beta   92.72432663
_cell_angle_gamma   62.03485249
_symmetry_Int_Tables_number   1
_chemical_formula_structural   Li6Mn2O5F2
_chemical_formula_sum   'Li12 Mn4 O10 F4'
_cell_volume   291.49511643
_cell_formula_units_Z   2
loop_
 _symmetry_equiv_pos_site_id
 _symmetry_equiv_pos_as_xyz
  1  'x, y, z'
loop_
 _atom_site_type_symbol
 _atom_site_label
 _atom_site_symmetry_multiplicity
 _atom_site_fract_x
 _atom_site_fract_y
 _atom_site_fract_z
 _atom_site_occupancy
  Li  Li0  1  0.47145301  0.86967108  0.60995004  1
  Li  Li1  1  0.90121788  0.87869292  0.59932096  1
  Li  Li2  1  0.67927497  0.85454070  0.10662907  1
  Li  Li3  1  0.22667214  0.85123154  0.10263574  1
  Li  Li4  1  0.33620490  0.59164880  0.88046488  1
  Li  Li5  1  0.06708090  0.59089773  0.39263119  1
  Li  Li6  1  0.91232301  0.42274127  0.61192321  1
  Li  Li7  1  0.67047258  0.41326294  0.10689088  1
  Li  Li8  1  0.82443663  0.11059635  0.89960705  1
  Li  Li9  1  0.31935264  0.13007544  0.89190621  1
  Li  Li10  1  0.05922282  0.15659985  0.40424924  1
  Li  Li11  1  0.51623151  0.14675546  0.39113081  1
  Mn  Mn12  1  0.82433841  0.59933409  0.87423382  1
  Mn  Mn13  1  0.53761974  0.64783274  0.36821119  1
  Mn  Mn14  1  0.42484065  0.38448426  0.63494898  1
  Mn  Mn15  1  0.20043180  0.35424165  0.13209990  1
  O  O16  1  0.51890802  0.74724560  0.97101688  1
  O  O17  1  0.72925334  0.76369248  0.47482280  1
  O  O18  1  0.13992443  0.48901487  0.75541113  1
  O  O19  1  0.62898782  0.50370040  0.74548529  1
  O  O20  1  0.01761678  0.69872598  0.00668846  1
  O  O21  1  0.02607811  0.23034453  0.01102133  1
  O  O22  1  0.36155049  0.50754599  0.24762541  1
  O  O23  1  0.68893197  0.31038249  0.49852211  1
  O  O24  1  0.25030480  0.25258664  0.52727590  1
  O  O25  1  0.36910049  0.00015520  0.24676516  1
  F  F26  1  0.19404217  0.80279909  0.49883315  1
  F  F27  1  0.87065092  0.48211882  0.25219345  1
  F  F28  1  0.68927489  0.99055831  0.74794508  1
  F  F29  1  0.54420318  0.21852079  0.00955968  1
