# generated using pymatgen
data_Li4V8O13F3
_symmetry_space_group_name_H-M   'P 1'
_cell_length_a   6.00080227
_cell_length_b   6.15432488
_cell_length_c   10.51876319
_cell_angle_alpha   106.35536435
_cell_angle_beta   73.89227418
_cell_angle_gamma   120.84795158
_symmetry_Int_Tables_number   1
_chemical_formula_structural   Li4V8O13F3
_chemical_formula_sum   'Li4 V8 O13 F3'
_cell_volume   315.81354642
_cell_formula_units_Z   1
loop_
 _symmetry_equiv_pos_site_id
 _symmetry_equiv_pos_as_xyz
  1  'x, y, z'
loop_
 _atom_site_type_symbol
 _atom_site_label
 _atom_site_symmetry_multiplicity
 _atom_site_fract_x
 _atom_site_fract_y
 _atom_site_fract_z
 _atom_site_occupancy
  Li  Li0  1  0.79441284  0.67143873  0.05789140  1
  Li  Li1  1  0.72208985  0.83819986  0.44261191  1
  Li  Li2  1  0.27677482  0.16693615  0.55414994  1
  Li  Li3  1  0.22076502  0.33098931  0.94267930  1
  V  V4  1  0.24046928  0.75877109  0.23890967  1
  V  V5  1  0.01076751  0.50531228  0.49893217  1
  V  V6  1  0.24900237  0.24790840  0.24449883  1
  V  V7  1  0.48089951  0.99218255  0.00412771  1
  V  V8  1  0.24892280  0.75068162  0.75058904  1
  V  V9  1  0.75073281  0.25175495  0.24964385  1
  V  V10  1  0.74852956  0.75103695  0.75048933  1
  V  V11  1  0.74831579  0.25022579  0.75078390  1
  O  O12  1  0.13249531  0.88309500  0.13384923  1
  O  O13  1  0.58356140  0.87631232  0.13737412  1
  O  O14  1  0.12448028  0.39399871  0.14517510  1
  O  O15  1  0.09888402  0.83760929  0.62951916  1
  O  O16  1  0.60276340  0.33305172  0.12830213  1
  O  O17  1  0.09579462  0.39064132  0.62881752  1
  O  O18  1  0.37492802  0.11272516  0.35046912  1
  O  O19  1  0.62856434  0.89051550  0.64704880  1
  O  O20  1  0.92493222  0.62515816  0.36516371  1
  O  O21  1  0.39846255  0.66204959  0.87062185  1
  O  O22  1  0.90375293  0.17246938  0.37036885  1
  O  O23  1  0.86902147  0.61040700  0.85230687  1
  O  O24  1  0.40189961  0.10914104  0.87176926  1
  F  F25  1  0.37621807  0.62737954  0.37070426  1
  F  F26  1  0.62947360  0.38028978  0.62445629  1
  F  F27  1  0.86859198  0.12025179  0.87436469  1
