# generated using pymatgen
data_LiCePCO7
_symmetry_space_group_name_H-M   'P 1'
_cell_length_a   9.14010592
_cell_length_b   7.00020184
_cell_length_c   5.22660762
_cell_angle_alpha   90.00000000
_cell_angle_beta   86.56170086
_cell_angle_gamma   90.00000000
_symmetry_Int_Tables_number   1
_chemical_formula_structural   LiCePCO7
_chemical_formula_sum   'Li2 Ce2 P2 C2 O14'
_cell_volume   333.80991860
_cell_formula_units_Z   2
loop_
 _symmetry_equiv_pos_site_id
 _symmetry_equiv_pos_as_xyz
  1  'x, y, z'
loop_
 _atom_site_type_symbol
 _atom_site_label
 _atom_site_symmetry_multiplicity
 _atom_site_fract_x
 _atom_site_fract_y
 _atom_site_fract_z
 _atom_site_occupancy
  Li  Li0  1  0.19724947  0.49459370  0.24027500  1
  Li  Li1  1  0.80275053  0.99459370  0.75972500  1
  Ce  Ce2  1  0.34250258  0.76132626  0.78006586  1
  Ce  Ce3  1  0.65749742  0.26132626  0.21993414  1
  P  P4  1  0.41978450  0.25938707  0.72240396  1
  P  P5  1  0.58021550  0.75938707  0.27759604  1
  C  C6  1  0.04931899  0.73497487  0.72620326  1
  C  C7  1  0.95068101  0.23497487  0.27379674  1
  O  O8  1  0.07843771  0.28254303  0.30516590  1
  O  O9  1  0.10816532  0.72920031  0.95337610  1
  O  O10  1  0.14848703  0.69630222  0.53477921  1
  O  O11  1  0.32951524  0.07807762  0.78828272  1
  O  O12  1  0.34824791  0.43563936  0.85593915  1
  O  O13  1  0.41931359  0.73537617  0.19340543  1
  O  O14  1  0.43318943  0.29042739  0.42655124  1
  O  O15  1  0.56681057  0.79042739  0.57344876  1
  O  O16  1  0.58068641  0.23537617  0.80659457  1
  O  O17  1  0.65175209  0.93563936  0.14406085  1
  O  O18  1  0.67048476  0.57807762  0.21171728  1
  O  O19  1  0.85151297  0.19630222  0.46522079  1
  O  O20  1  0.89183468  0.22920031  0.04662390  1
  O  O21  1  0.92156229  0.78254303  0.69483410  1
