# generated using pymatgen
data_CuAsSe2
_symmetry_space_group_name_H-M   'P 1'
_cell_length_a   8.20472240
_cell_length_b   10.92773653
_cell_length_c   7.22291551
_cell_angle_alpha   29.03773141
_cell_angle_beta   55.39157879
_cell_angle_gamma   41.33886457
_symmetry_Int_Tables_number   1
_chemical_formula_structural   CuAsSe2
_chemical_formula_sum   'Cu2 As2 Se4'
_cell_volume   199.55981550
_cell_formula_units_Z   2
loop_
 _symmetry_equiv_pos_site_id
 _symmetry_equiv_pos_as_xyz
  1  'x, y, z'
loop_
 _atom_site_type_symbol
 _atom_site_label
 _atom_site_symmetry_multiplicity
 _atom_site_fract_x
 _atom_site_fract_y
 _atom_site_fract_z
 _atom_site_occupancy
  As  As0  1  0.50009034  0.99990856  0.00000255  1
  As  As1  1  0.25008999  0.49990856  0.00000255  1
  Cu  Cu2  1  -0.00001751  0.00000698  1.00006137  1
  Cu  Cu3  1  0.74994217  0.50000698  1.00006137  1
  Se  Se4  1  0.37530064  0.53044308  0.21958167  1
  Se  Se5  1  0.09423153  0.03044308  0.21958167  1
  Se  Se6  1  0.87464661  0.46964138  0.28035440  1
  Se  Se7  1  0.65571624  0.96964138  0.28035440  1
