# generated using pymatgen
data_Na2FeO3
_symmetry_space_group_name_H-M   'P 1'
_cell_length_a   6.34769630
_cell_length_b   6.28748657
_cell_length_c   5.91756778
_cell_angle_alpha   90.02096846
_cell_angle_beta   57.66569098
_cell_angle_gamma   90.07484112
_symmetry_Int_Tables_number   1
_chemical_formula_structural   Na2FeO3
_chemical_formula_sum   'Na4 Fe2 O6'
_cell_volume   199.55508340
_cell_formula_units_Z   2
loop_
 _symmetry_equiv_pos_site_id
 _symmetry_equiv_pos_as_xyz
  1  'x, y, z'
loop_
 _atom_site_type_symbol
 _atom_site_label
 _atom_site_symmetry_multiplicity
 _atom_site_fract_x
 _atom_site_fract_y
 _atom_site_fract_z
 _atom_site_occupancy
  Na  Na0  1  0.24957729  0.49833651  0.50865324  1
  Na  Na1  1  0.24786476  0.99845670  0.51036527  1
  Na  Na2  1  0.74703954  0.49791992  0.51164847  1
  Na  Na3  1  0.74783161  0.99829593  0.50931018  1
  Fe  Fe4  1  0.15504659  0.74831312  0.01037590  1
  Fe  Fe5  1  0.84178086  0.24820306  0.00985916  1
  O  O6  1  0.99748746  0.99797479  0.01137749  1
  O  O7  1  0.99682283  0.49891369  0.01143403  1
  O  O8  1  0.90011555  0.24820678  0.67912613  1
  O  O9  1  0.56898784  0.24815877  0.33849656  1
  O  O10  1  0.10070769  0.74793526  0.33918093  1
  O  O11  1  0.42756598  0.74788148  0.68183865  1
