# generated using pymatgen
data_Na5Cr2As(CO4)4
_symmetry_space_group_name_H-M   'P 1'
_cell_length_a   9.92761835
_cell_length_b   9.93880080
_cell_length_c   9.87907516
_cell_angle_alpha   119.87613575
_cell_angle_beta   60.23639972
_cell_angle_gamma   120.36026397
_symmetry_Int_Tables_number   1
_chemical_formula_structural   Na5Cr2As(CO4)4
_chemical_formula_sum   'Na10 Cr4 As2 C8 O32'
_cell_volume   689.21360296
_cell_formula_units_Z   2
loop_
 _symmetry_equiv_pos_site_id
 _symmetry_equiv_pos_as_xyz
  1  'x, y, z'
loop_
 _atom_site_type_symbol
 _atom_site_label
 _atom_site_symmetry_multiplicity
 _atom_site_fract_x
 _atom_site_fract_y
 _atom_site_fract_z
 _atom_site_occupancy
  Na  Na0  1  0.91404301  0.15801403  0.92412564  1
  Na  Na1  1  0.91437053  0.15684848  0.31882394  1
  Na  Na2  1  0.68015362  0.42412564  0.65801403  1
  Na  Na3  1  0.68117606  0.42365401  0.08562947  1
  Na  Na4  1  0.32915502  0.17084498  0.92084498  1
  Na  Na5  1  0.34198597  0.58595699  0.31984638  1
  Na  Na6  1  0.34315152  0.58562947  0.92365401  1
  Na  Na7  1  0.07915502  0.42084498  0.67084498  1
  Na  Na8  1  0.07587436  0.81984638  0.08595699  1
  Na  Na9  1  0.07634599  0.81882394  0.65684848  1
  Cr  Cr10  1  0.49976309  0.99934322  0.00228603  1
  Cr  Cr11  1  0.50065678  0.00023691  0.49729410  1
  Cr  Cr12  1  0.50270590  0.50228603  0.49934322  1
  Cr  Cr13  1  0.99771397  0.99729410  0.50023691  1
  As  As14  1  0.87312652  0.62687348  0.87687348  1
  As  As15  1  0.12312652  0.37687348  0.12687348  1
  C  C16  1  0.71266625  0.13772808  0.71254108  1
  C  C17  1  0.63522084  0.21433521  0.29085635  1
  C  C18  1  0.28747926  0.21254108  0.63772808  1
  C  C19  1  0.28745892  0.21252074  0.28733375  1
  C  C20  1  0.71174198  0.79085635  0.71433521  1
  C  C21  1  0.70914365  0.78825802  0.36477916  1
  C  C22  1  0.36227192  0.78733375  0.71252074  1
  C  C23  1  0.28566479  0.86477916  0.28825802  1
  O  O24  1  0.85572956  0.14037847  0.68668435  1
  O  O25  1  0.64128151  0.10147790  0.31572245  1
  O  O26  1  0.68749182  0.14145715  0.59747040  1
  O  O27  1  0.63963631  0.18897024  0.14583794  1
  O  O28  1  0.59814995  0.13945249  0.85523112  1
  O  O29  1  0.94606238  0.55336442  0.66294852  1
  O  O30  1  0.94663558  0.55393762  0.94435452  1
  O  O31  1  0.63191175  0.35397234  0.40694794  1
  O  O32  1  0.31331565  0.09796355  0.14427044  1
  O  O33  1  0.40203645  0.18668435  0.64037847  1
  O  O34  1  0.96123567  0.83772919  0.93788302  1
  O  O35  1  0.66227081  0.53876433  0.93861050  1
  O  O36  1  0.85552706  0.81572245  0.60147790  1
  O  O37  1  0.68427755  0.64447294  0.35871849  1
  O  O38  1  0.40252960  0.35649593  0.31250818  1
  O  O39  1  0.14350407  0.09747040  0.64145715  1
  O  O40  1  0.85416206  0.90349599  0.36036369  1
  O  O41  1  0.59650401  0.64583794  0.68897024  1
  O  O42  1  0.31392859  0.35523112  0.63945249  1
  O  O43  1  0.14476888  0.18607141  0.40185005  1
  O  O44  1  0.33705148  0.44435452  0.05393762  1
  O  O45  1  0.05564548  0.16294852  0.05336442  1
  O  O46  1  0.68488835  0.90694794  0.85397234  1
  O  O47  1  0.59305206  0.81511165  0.36808825  1
  O  O48  1  0.35962153  0.64427044  0.59796355  1
  O  O49  1  0.06211698  0.43861050  0.03876433  1
  O  O50  1  0.06138950  0.43788302  0.33772919  1
  O  O51  1  0.39852210  0.85871849  0.14447294  1
  O  O52  1  0.35854285  0.81250818  0.85649593  1
  O  O53  1  0.31102976  0.86036369  0.40349599  1
  O  O54  1  0.36054751  0.90185005  0.68607141  1
  O  O55  1  0.14602766  0.86808825  0.31511165  1
