# generated using pymatgen
data_DyNbO4
_symmetry_space_group_name_H-M   'P 1'
_cell_length_a   4.02425494
_cell_length_b   7.09437592
_cell_length_c   7.24261944
_cell_angle_alpha   74.18667536
_cell_angle_beta   90.15330077
_cell_angle_gamma   73.70061394
_symmetry_Int_Tables_number   1
_chemical_formula_structural   DyNbO4
_chemical_formula_sum   'Dy2 Nb2 O8'
_cell_volume   190.24948118
_cell_formula_units_Z   2
loop_
 _symmetry_equiv_pos_site_id
 _symmetry_equiv_pos_as_xyz
  1  'x, y, z'
loop_
 _atom_site_type_symbol
 _atom_site_label
 _atom_site_symmetry_multiplicity
 _atom_site_fract_x
 _atom_site_fract_y
 _atom_site_fract_z
 _atom_site_occupancy
  Dy  Dy0  1  0.20132191  0.60903917  0.78862477  1
  Dy  Dy1  1  0.80846883  0.38947351  0.21119375  1
  Nb  Nb2  1  0.10421667  0.80222563  0.20805649  1
  Nb  Nb3  1  0.91196361  0.19546439  0.79215078  1
  O  O4  1  0.04890048  0.90221253  0.86867377  1
  O  O5  1  0.13833670  0.73327445  0.47303618  1
  O  O6  1  0.76410160  0.48181231  0.85967197  1
  O  O7  1  0.62968473  0.74872678  0.19450842  1
  O  O8  1  0.37855880  0.24772411  0.80818291  1
  O  O9  1  0.24503108  0.51737072  0.13821553  1
  O  O10  1  0.86986574  0.26120677  0.52772623  1
  O  O11  1  0.95637486  0.09538361  0.13345820  1
