# generated using pymatgen
data_Li4FeO4
_symmetry_space_group_name_H-M   'P 1'
_cell_length_a   5.28898322
_cell_length_b   5.25575924
_cell_length_c   7.23496661
_cell_angle_alpha   88.76038133
_cell_angle_beta   73.84849981
_cell_angle_gamma   70.11059123
_symmetry_Int_Tables_number   1
_chemical_formula_structural   Li4FeO4
_chemical_formula_sum   'Li8 Fe2 O8'
_cell_volume   181.05965345
_cell_formula_units_Z   2
loop_
 _symmetry_equiv_pos_site_id
 _symmetry_equiv_pos_as_xyz
  1  'x, y, z'
loop_
 _atom_site_type_symbol
 _atom_site_label
 _atom_site_symmetry_multiplicity
 _atom_site_fract_x
 _atom_site_fract_y
 _atom_site_fract_z
 _atom_site_occupancy
  Li  Li0  1  0.21542535  0.24282789  0.68734404  1
  Li  Li1  1  0.21271475  0.75146647  0.51580119  1
  Li  Li2  1  0.05708085  0.71985539  0.93384259  1
  Li  Li3  1  0.40220573  0.79332287  0.14205918  1
  Li  Li4  1  0.59779427  0.20667713  0.85794082  1
  Li  Li5  1  0.94291915  0.28014461  0.06615741  1
  Li  Li6  1  0.78728525  0.24853353  0.48419881  1
  Li  Li7  1  0.78457465  0.75717211  0.31265596  1
  Fe  Fe8  1  0.40515674  0.28650356  0.25246430  1
  Fe  Fe9  1  0.59484326  0.71349644  0.74753570  1
  O  O10  1  0.15469526  0.53710995  0.15878841  1
  O  O11  1  0.20749172  0.10706896  0.41432689  1
  O  O12  1  0.70209730  0.00923983  0.10604650  1
  O  O13  1  0.58992626  0.49901706  0.30088472  1
  O  O14  1  0.41007374  0.50098294  0.69911528  1
  O  O15  1  0.29790270  0.99076017  0.89395350  1
  O  O16  1  0.79250828  0.89293104  0.58567311  1
  O  O17  1  0.84530474  0.46289005  0.84121159  1
