# generated using pymatgen
data_BaY3Cl11
_symmetry_space_group_name_H-M   'P 1'
_cell_length_a   19.27918966
_cell_length_b   10.30999816
_cell_length_c   5.33905081
_cell_angle_alpha   90.00000000
_cell_angle_beta   90.00000000
_cell_angle_gamma   90.00000000
_symmetry_Int_Tables_number   1
_chemical_formula_structural   BaY3Cl11
_chemical_formula_sum   'Ba2 Y6 Cl22'
_cell_volume   1061.23463999
_cell_formula_units_Z   2
loop_
 _symmetry_equiv_pos_site_id
 _symmetry_equiv_pos_as_xyz
  1  'x, y, z'
loop_
 _atom_site_type_symbol
 _atom_site_label
 _atom_site_symmetry_multiplicity
 _atom_site_fract_x
 _atom_site_fract_y
 _atom_site_fract_z
 _atom_site_occupancy
  Ba  Ba0  1  0.01421186  0.50000000  0.00000000  1
  Ba  Ba1  1  0.98578814  0.00000000  0.00000000  1
  Y  Y2  1  0.23575848  0.24936633  0.00000000  1
  Y  Y3  1  0.23575848  0.75063367  0.00000000  1
  Y  Y4  1  0.50000000  0.25000000  0.00000000  1
  Y  Y5  1  0.50000000  0.75000000  0.00000000  1
  Y  Y6  1  0.76424152  0.25063367  0.00000000  1
  Y  Y7  1  0.76424152  0.74936633  0.00000000  1
  Cl  Cl8  1  0.06904859  0.50000000  0.50000000  1
  Cl  Cl9  1  0.10080581  0.21283335  0.00000000  1
  Cl  Cl10  1  0.10080581  0.78716665  0.00000000  1
  Cl  Cl11  1  0.20326891  0.50000000  0.00000000  1
  Cl  Cl12  1  0.23923368  0.24622015  0.50000000  1
  Cl  Cl13  1  0.23923368  0.75377985  0.50000000  1
  Cl  Cl14  1  0.26775639  0.00000000  0.00000000  1
  Cl  Cl15  1  0.36821267  0.31915183  0.00000000  1
  Cl  Cl16  1  0.36821267  0.68084817  0.00000000  1
  Cl  Cl17  1  0.46420184  0.00000000  0.00000000  1
  Cl  Cl18  1  0.50000000  0.25000000  0.50000000  1
  Cl  Cl19  1  0.50000000  0.75000000  0.50000000  1
  Cl  Cl20  1  0.53579816  0.50000000  0.00000000  1
  Cl  Cl21  1  0.63178733  0.18084817  0.00000000  1
  Cl  Cl22  1  0.63178733  0.81915183  0.00000000  1
  Cl  Cl23  1  0.73224361  0.50000000  0.00000000  1
  Cl  Cl24  1  0.76076632  0.25377985  0.50000000  1
  Cl  Cl25  1  0.76076632  0.74622015  0.50000000  1
  Cl  Cl26  1  0.79673109  0.00000000  0.00000000  1
  Cl  Cl27  1  0.89919419  0.28716665  0.00000000  1
  Cl  Cl28  1  0.89919419  0.71283335  0.00000000  1
  Cl  Cl29  1  0.93095141  0.00000000  0.50000000  1
