# generated using pymatgen
data_Li2CrO4
_symmetry_space_group_name_H-M   'P 1'
_cell_length_a   7.80107494
_cell_length_b   5.28603083
_cell_length_c   5.19349172
_cell_angle_alpha   65.94560738
_cell_angle_beta   109.77342374
_cell_angle_gamma   98.40880507
_symmetry_Int_Tables_number   1
_chemical_formula_structural   Li2CrO4
_chemical_formula_sum   'Li4 Cr2 O8'
_cell_volume   184.02488209
_cell_formula_units_Z   2
loop_
 _symmetry_equiv_pos_site_id
 _symmetry_equiv_pos_as_xyz
  1  'x, y, z'
loop_
 _atom_site_type_symbol
 _atom_site_label
 _atom_site_symmetry_multiplicity
 _atom_site_fract_x
 _atom_site_fract_y
 _atom_site_fract_z
 _atom_site_occupancy
  Li  Li0  1  0.17823082  0.28368287  0.40940610  1
  Li  Li1  1  0.46644824  0.74133515  0.48602743  1
  Li  Li2  1  0.56451815  0.27669698  0.50542018  1
  Li  Li3  1  0.97872518  0.23736921  0.77928170  1
  Cr  Cr4  1  0.24829505  0.71764371  0.84239816  1
  Cr  Cr5  1  0.74799178  0.27725089  0.15174527  1
  O  O6  1  0.07245419  0.87502225  0.81372397  1
  O  O7  1  0.18462854  0.48738941  0.68261212  1
  O  O8  1  0.37772220  0.96080464  0.66225020  1
  O  O9  1  0.35552635  0.54381605  0.20795530  1
  O  O10  1  0.62785840  0.45803928  0.80348958  1
  O  O11  1  0.61699954  0.01948580  0.29530804  1
  O  O12  1  0.79654225  0.45059800  0.37149370  1
  O  O13  1  0.94436032  0.18006673  0.15128725  1
