# generated using pymatgen
data_Sr4Ta2O9
_symmetry_space_group_name_H-M   'P 1'
_cell_length_a   5.98063861
_cell_length_b   10.35812727
_cell_length_c   15.30601344
_cell_angle_alpha   90.00000000
_cell_angle_beta   90.00000000
_cell_angle_gamma   90.00000000
_symmetry_Int_Tables_number   1
_chemical_formula_structural   Sr4Ta2O9
_chemical_formula_sum   'Sr16 Ta8 O36'
_cell_volume   948.18022482
_cell_formula_units_Z   4
loop_
 _symmetry_equiv_pos_site_id
 _symmetry_equiv_pos_as_xyz
  1  'x, y, z'
loop_
 _atom_site_type_symbol
 _atom_site_label
 _atom_site_symmetry_multiplicity
 _atom_site_fract_x
 _atom_site_fract_y
 _atom_site_fract_z
 _atom_site_occupancy
  Sr  Sr0  1  0.00677371  0.33542671  0.29041678  1
  Sr  Sr1  1  0.00677371  0.66457329  0.20958322  1
  Sr  Sr2  1  0.01476283  0.66421861  0.48411842  1
  Sr  Sr3  1  0.01476283  0.33578139  0.01588158  1
  Sr  Sr4  1  0.48523717  0.16421861  0.51588158  1
  Sr  Sr5  1  0.48523717  0.83578139  0.98411842  1
  Sr  Sr6  1  0.49322629  0.83542671  0.70958322  1
  Sr  Sr7  1  0.49322629  0.16457329  0.79041678  1
  Sr  Sr8  1  0.50677371  0.83542671  0.20958322  1
  Sr  Sr9  1  0.50677371  0.16457329  0.29041678  1
  Sr  Sr10  1  0.51476283  0.16421861  0.01588158  1
  Sr  Sr11  1  0.51476283  0.83578139  0.48411842  1
  Sr  Sr12  1  0.98523717  0.66421861  0.98411842  1
  Sr  Sr13  1  0.98523717  0.33578139  0.51588158  1
  Sr  Sr14  1  0.99322629  0.66457329  0.70958322  1
  Sr  Sr15  1  0.99322629  0.33542671  0.79041678  1
  Ta  Ta16  1  0.00441923  0.00097621  0.14963283  1
  Ta  Ta17  1  0.00441923  0.99902379  0.35036717  1
  Ta  Ta18  1  0.49558077  0.49902379  0.64963283  1
  Ta  Ta19  1  0.49558077  0.50097621  0.85036717  1
  Ta  Ta20  1  0.50441923  0.50097621  0.35036717  1
  Ta  Ta21  1  0.50441923  0.49902379  0.14963283  1
  Ta  Ta22  1  0.99558077  0.00097621  0.64963283  1
  Ta  Ta23  1  0.99558077  0.99902379  0.85036717  1
  O  O24  1  0.11756095  0.12413014  0.74626914  1
  O  O25  1  0.11756095  0.87586986  0.75373086  1
  O  O26  1  0.14678596  0.14012934  0.08955459  1
  O  O27  1  0.14678596  0.85987066  0.41044541  1
  O  O28  1  0.20966674  0.48653459  0.40369891  1
  O  O29  1  0.20966674  0.51346541  0.09630109  1
  O  O30  1  0.15834297  0.15179877  0.39968645  1
  O  O31  1  0.15834297  0.84820123  0.10031355  1
  O  O32  1  0.24954949  0.50000000  0.75000000  1
  O  O33  1  0.25045051  0.00000000  0.25000000  1
  O  O34  1  0.34165703  0.34820123  0.89968645  1
  O  O35  1  0.34165703  0.65179877  0.60031355  1
  O  O36  1  0.29033326  0.98653459  0.59630109  1
  O  O37  1  0.29033326  0.01346541  0.90369891  1
  O  O38  1  0.35321404  0.35987066  0.58955459  1
  O  O39  1  0.35321404  0.64012934  0.91044541  1
  O  O40  1  0.38243905  0.37586986  0.24626914  1
  O  O41  1  0.38243905  0.62413014  0.25373086  1
  O  O42  1  0.61756095  0.62413014  0.75373086  1
  O  O43  1  0.61756095  0.37586986  0.74626914  1
  O  O44  1  0.64678596  0.64012934  0.41044541  1
  O  O45  1  0.64678596  0.35987066  0.08955459  1
  O  O46  1  0.70966674  0.01346541  0.40369891  1
  O  O47  1  0.70966674  0.98653459  0.09630109  1
  O  O48  1  0.65834297  0.34820123  0.39968645  1
  O  O49  1  0.65834297  0.65179877  0.10031355  1
  O  O50  1  0.74954949  0.00000000  0.75000000  1
  O  O51  1  0.75045051  0.50000000  0.25000000  1
  O  O52  1  0.84165703  0.15179877  0.89968645  1
  O  O53  1  0.84165703  0.84820123  0.60031355  1
  O  O54  1  0.79033326  0.48653459  0.90369891  1
  O  O55  1  0.79033326  0.51346541  0.59630109  1
  O  O56  1  0.85321404  0.14012934  0.58955459  1
  O  O57  1  0.85321404  0.85987066  0.91044541  1
  O  O58  1  0.88243905  0.12413014  0.24626914  1
  O  O59  1  0.88243905  0.87586986  0.25373086  1
