# generated using pymatgen
data_Mn9(FeO6)4
_symmetry_space_group_name_H-M   'P 1'
_cell_length_a   5.91050642
_cell_length_b   5.89657587
_cell_length_c   13.13655324
_cell_angle_alpha   102.67945046
_cell_angle_beta   102.85641020
_cell_angle_gamma   90.17707213
_symmetry_Int_Tables_number   1
_chemical_formula_structural   Mn9(FeO6)4
_chemical_formula_sum   'Mn9 Fe4 O24'
_cell_volume   434.81975332
_cell_formula_units_Z   1
loop_
 _symmetry_equiv_pos_site_id
 _symmetry_equiv_pos_as_xyz
  1  'x, y, z'
loop_
 _atom_site_type_symbol
 _atom_site_label
 _atom_site_symmetry_multiplicity
 _atom_site_fract_x
 _atom_site_fract_y
 _atom_site_fract_z
 _atom_site_occupancy
  Mn  Mn0  1  0.33794941  0.33534329  0.17016601  1
  Mn  Mn1  1  0.33703843  0.83354560  0.17029278  1
  Mn  Mn2  1  0.66842454  0.16571024  0.33308063  1
  Mn  Mn3  1  0.16698774  0.16572033  0.33324430  1
  Mn  Mn4  1  0.99924059  0.00117920  0.49972071  1
  Mn  Mn5  1  0.99976779  0.49940855  0.49943280  1
  Mn  Mn6  1  0.83145842  0.83041641  0.66370557  1
  Mn  Mn7  1  0.33224680  0.83137476  0.66365244  1
  Mn  Mn8  1  0.66640482  0.65467053  0.83249920  1
  Fe  Fe9  1  0.51200517  0.49930116  0.00068628  1
  Fe  Fe10  1  0.98850226  0.50043237  0.00193614  1
  Fe  Fe11  1  0.66858432  0.17654416  0.83265925  1
  Fe  Fe12  1  0.20900701  0.95492079  0.91751075  1
  O  O13  1  0.25394412  0.26132408  0.00854287  1
  O  O14  1  0.25354618  0.74561567  0.01019335  1
  O  O15  1  0.54125016  0.58114793  0.15988827  1
  O  O16  1  0.12392061  0.57916332  0.16127750  1
  O  O17  1  0.55899706  0.08954572  0.17896047  1
  O  O18  1  0.12529418  0.08873756  0.17938787  1
  O  O19  1  0.41414486  0.37814711  0.32341307  1
  O  O20  1  0.41255240  0.94371528  0.32353957  1
  O  O21  1  0.92238394  0.95456651  0.34451978  1
  O  O22  1  0.92380517  0.38789444  0.34395782  1
  O  O23  1  0.21018863  0.24496975  0.48884298  1
  O  O24  1  0.77788294  0.24383619  0.48885059  1
  O  O25  1  0.78756478  0.75453539  0.51028860  1
  O  O26  1  0.22253051  0.75650583  0.51004685  1
  O  O27  1  0.07742561  0.04395077  0.65461557  1
  O  O28  1  0.07630387  0.61010684  0.65399714  1
  O  O29  1  0.58740377  0.62473559  0.67708262  1
  O  O30  1  0.58756413  0.04277599  0.67287200  1
  O  O31  1  0.42443481  0.90402838  0.82449356  1
  O  O32  1  0.90149795  0.90442288  0.82421508  1
  O  O33  1  0.89199076  0.43355431  0.83673589  1
  O  O34  1  0.44588496  0.43119277  0.83757561  1
  O  O35  1  0.74673191  0.26479744  0.99129042  1
  O  O36  1  0.74315440  0.72762484  0.98350466  1
