# generated using pymatgen
data_Ba3Y2Br12
_symmetry_space_group_name_H-M   'P 1'
_cell_length_a   9.62577376
_cell_length_b   9.62577376
_cell_length_c   16.18193287
_cell_angle_alpha   78.29104405
_cell_angle_beta   101.70895595
_cell_angle_gamma   68.88590906
_symmetry_Int_Tables_number   1
_chemical_formula_structural   Ba3Y2Br12
_chemical_formula_sum   'Ba6 Y4 Br24'
_cell_volume   1305.54660948
_cell_formula_units_Z   2
loop_
 _symmetry_equiv_pos_site_id
 _symmetry_equiv_pos_as_xyz
  1  'x, y, z'
loop_
 _atom_site_type_symbol
 _atom_site_label
 _atom_site_symmetry_multiplicity
 _atom_site_fract_x
 _atom_site_fract_y
 _atom_site_fract_z
 _atom_site_occupancy
  Ba  Ba0  1  0.47929439  0.79421432  0.92666424  1
  Ba  Ba1  1  0.88778579  0.88778579  0.75000000  1
  Ba  Ba2  1  0.20578568  0.52070561  0.42666424  1
  Ba  Ba3  1  0.79421432  0.47929439  0.57333576  1
  Ba  Ba4  1  0.11221421  0.11221421  0.25000000  1
  Ba  Ba5  1  0.52070561  0.20578568  0.07333576  1
  Y  Y6  1  0.26572100  0.96792044  0.59692304  1
  Y  Y7  1  0.03207956  0.73427900  0.09692304  1
  Y  Y8  1  0.96792044  0.26572100  0.90307696  1
  Y  Y9  1  0.73427900  0.03207956  0.40307696  1
  Br  Br10  1  0.10030995  0.94114393  0.92676142  1
  Br  Br11  1  0.24853249  0.75766900  0.74522946  1
  Br  Br12  1  0.51551226  0.94313164  0.73108278  1
  Br  Br13  1  0.05885607  0.89969005  0.42676142  1
  Br  Br14  1  0.24233100  0.75146751  0.24522946  1
  Br  Br15  1  0.71337874  0.86744559  0.55991047  1
  Br  Br16  1  0.30765810  0.17641165  0.89560697  1
  Br  Br17  1  0.67314055  0.43069229  0.93415830  1
  Br  Br18  1  0.05686836  0.48448774  0.23108278  1
  Br  Br19  1  0.43069229  0.67314055  0.56584170  1
  Br  Br20  1  0.17641165  0.30765810  0.60439303  1
  Br  Br21  1  0.86744559  0.71337874  0.94008953  1
  Br  Br22  1  0.13255441  0.28662126  0.05991047  1
  Br  Br23  1  0.82358835  0.69234190  0.39560697  1
  Br  Br24  1  0.56930771  0.32685945  0.43415830  1
  Br  Br25  1  0.94313164  0.51551226  0.76891722  1
  Br  Br26  1  0.32685945  0.56930771  0.06584170  1
  Br  Br27  1  0.69234190  0.82358835  0.10439303  1
  Br  Br28  1  0.28662126  0.13255441  0.44008953  1
  Br  Br29  1  0.75766900  0.24853249  0.75477054  1
  Br  Br30  1  0.94114393  0.10030995  0.57323858  1
  Br  Br31  1  0.48448774  0.05686836  0.26891722  1
  Br  Br32  1  0.75146751  0.24233100  0.25477054  1
  Br  Br33  1  0.89969005  0.05885607  0.07323858  1
