# generated using pymatgen
data_Gd2V2O7
_symmetry_space_group_name_H-M   'P 1'
_cell_length_a   6.84733441
_cell_length_b   7.04795969
_cell_length_c   7.04266368
_cell_angle_alpha   85.07030256
_cell_angle_beta   62.92458868
_cell_angle_gamma   83.61944616
_symmetry_Int_Tables_number   1
_chemical_formula_structural   Gd2V2O7
_chemical_formula_sum   'Gd4 V4 O14'
_cell_volume   300.51469867
_cell_formula_units_Z   2
loop_
 _symmetry_equiv_pos_site_id
 _symmetry_equiv_pos_as_xyz
  1  'x, y, z'
loop_
 _atom_site_type_symbol
 _atom_site_label
 _atom_site_symmetry_multiplicity
 _atom_site_fract_x
 _atom_site_fract_y
 _atom_site_fract_z
 _atom_site_occupancy
  Gd  Gd0  1  0.27117069  0.57219782  0.26421107  1
  Gd  Gd1  1  0.25363401  0.15338042  0.67440664  1
  Gd  Gd2  1  0.74636599  0.84661958  0.32559336  1
  Gd  Gd3  1  0.72882931  0.42780218  0.73578893  1
  V  V4  1  0.27436748  0.06553149  0.15491573  1
  V  V5  1  0.19591584  0.66451688  0.77837459  1
  V  V6  1  0.80408416  0.33548312  0.22162541  1
  V  V7  1  0.72563252  0.93446851  0.84508427  1
  O  O8  1  0.05090234  0.19229468  0.05875713  1
  O  O9  1  0.10239573  0.85884797  0.25899327  1
  O  O10  1  0.25803420  0.23409101  0.32857358  1
  O  O11  1  0.12790058  0.48569101  0.64232984  1
  O  O12  1  0.52654851  0.88695400  0.13852576  1
  O  O13  1  0.36621461  0.83151918  0.57582876  1
  O  O14  1  0.64361729  0.46078084  0.09791360  1
  O  O15  1  0.35638271  0.53921916  0.90208640  1
  O  O16  1  0.63378539  0.16848082  0.42417124  1
  O  O17  1  0.47345149  0.11304600  0.86147424  1
  O  O18  1  0.87209942  0.51430899  0.35767016  1
  O  O19  1  0.74196580  0.76590899  0.67142642  1
  O  O20  1  0.89760427  0.14115203  0.74100673  1
  O  O21  1  0.94909766  0.80770532  0.94124287  1
