# generated using pymatgen
data_LiVOF3
_symmetry_space_group_name_H-M   'P 1'
_cell_length_a   5.54598824
_cell_length_b   5.54821405
_cell_length_c   9.75686197
_cell_angle_alpha   90.00134374
_cell_angle_beta   89.99976467
_cell_angle_gamma   90.01332188
_symmetry_Int_Tables_number   1
_chemical_formula_structural   LiVOF3
_chemical_formula_sum   'Li4 V4 O4 F12'
_cell_volume   300.22185298
_cell_formula_units_Z   4
loop_
 _symmetry_equiv_pos_site_id
 _symmetry_equiv_pos_as_xyz
  1  'x, y, z'
loop_
 _atom_site_type_symbol
 _atom_site_label
 _atom_site_symmetry_multiplicity
 _atom_site_fract_x
 _atom_site_fract_y
 _atom_site_fract_z
 _atom_site_occupancy
  Li  Li0  1  0.09335694  0.85288088  0.75272379  1
  Li  Li1  1  0.14718440  0.09360734  0.00268741  1
  Li  Li2  1  0.85281448  0.90639458  0.50268878  1
  Li  Li3  1  0.90663966  0.14711644  0.25272328  1
  V  V4  1  0.13709457  0.41576372  0.50305379  1
  V  V5  1  0.41573645  0.86305613  0.25302259  1
  V  V6  1  0.58425830  0.13694840  0.75302946  1
  V  V7  1  0.86290695  0.58422293  0.00306055  1
  O  O8  1  0.07895177  0.66810719  0.58452306  1
  O  O9  1  0.33143400  0.07906604  0.83435928  1
  O  O10  1  0.66855403  0.92094094  0.33435943  1
  O  O11  1  0.92105064  0.33189691  0.08452531  1
  F  F12  1  0.03891319  0.81887574  0.12019211  1
  F  F13  1  0.12806763  0.60212656  0.88322575  1
  F  F14  1  0.18127501  0.03887842  0.37029245  1
  F  F15  1  0.31488560  0.55983466  0.34400739  1
  F  F16  1  0.39769593  0.12836038  0.13338074  1
  F  F17  1  0.44053041  0.31457648  0.59387097  1
  F  F18  1  0.55947110  0.68540981  0.09386869  1
  F  F19  1  0.60230721  0.87163484  0.63338127  1
  F  F20  1  0.68511856  0.44016438  0.84401228  1
  F  F21  1  0.81872027  0.96112518  0.87029587  1
  F  F22  1  0.87193035  0.39786944  0.38322760  1
  F  F23  1  0.96108655  0.18113360  0.62019216  1
