# generated using pymatgen
data_CaY2O4
_symmetry_space_group_name_H-M   'P 1'
_cell_length_a   9.97618506
_cell_length_b   11.82911492
_cell_length_c   3.38335420
_cell_angle_alpha   90.00000000
_cell_angle_beta   90.00000000
_cell_angle_gamma   90.00000000
_symmetry_Int_Tables_number   1
_chemical_formula_structural   CaY2O4
_chemical_formula_sum   'Ca4 Y8 O16'
_cell_volume   399.26773290
_cell_formula_units_Z   4
loop_
 _symmetry_equiv_pos_site_id
 _symmetry_equiv_pos_as_xyz
  1  'x, y, z'
loop_
 _atom_site_type_symbol
 _atom_site_label
 _atom_site_symmetry_multiplicity
 _atom_site_fract_x
 _atom_site_fract_y
 _atom_site_fract_z
 _atom_site_occupancy
  Ca  Ca0  1  0.24915376  0.35118530  0.75000000  1
  Ca  Ca1  1  0.25084624  0.85118530  0.25000000  1
  Ca  Ca2  1  0.74915376  0.14881470  0.75000000  1
  Ca  Ca3  1  0.75084624  0.64881470  0.25000000  1
  Y  Y4  1  0.07900530  0.61110875  0.75000000  1
  Y  Y5  1  0.07717913  0.11392088  0.75000000  1
  Y  Y6  1  0.42282087  0.61392088  0.25000000  1
  Y  Y7  1  0.42099470  0.11110875  0.25000000  1
  Y  Y8  1  0.57900530  0.88889125  0.75000000  1
  Y  Y9  1  0.57717913  0.38607912  0.75000000  1
  Y  Y10  1  0.92282087  0.88607912  0.25000000  1
  Y  Y11  1  0.92099470  0.38889125  0.25000000  1
  O  O12  1  0.02114589  0.71737295  0.25000000  1
  O  O13  1  0.07941679  0.92134829  0.75000000  1
  O  O14  1  0.13193038  0.47608681  0.25000000  1
  O  O15  1  0.21042306  0.18626768  0.25000000  1
  O  O16  1  0.28957694  0.68626768  0.75000000  1
  O  O17  1  0.36806962  0.97608681  0.75000000  1
  O  O18  1  0.42058321  0.42134829  0.25000000  1
  O  O19  1  0.47885411  0.21737295  0.75000000  1
  O  O20  1  0.52114589  0.78262705  0.25000000  1
  O  O21  1  0.57941679  0.57865171  0.75000000  1
  O  O22  1  0.63193038  0.02391319  0.25000000  1
  O  O23  1  0.71042306  0.31373232  0.25000000  1
  O  O24  1  0.78957694  0.81373232  0.75000000  1
  O  O25  1  0.86806962  0.52391319  0.75000000  1
  O  O26  1  0.92058321  0.07865171  0.25000000  1
  O  O27  1  0.97885411  0.28262705  0.75000000  1
