# generated using pymatgen
data_Li2CrO3
_symmetry_space_group_name_H-M   'P 1'
_cell_length_a   5.64183411
_cell_length_b   5.57549348
_cell_length_c   4.92428649
_cell_angle_alpha   90.00000000
_cell_angle_beta   90.00000000
_cell_angle_gamma   59.60561035
_symmetry_Int_Tables_number   1
_chemical_formula_structural   Li2CrO3
_chemical_formula_sum   'Li4 Cr2 O6'
_cell_volume   133.60966325
_cell_formula_units_Z   2
loop_
 _symmetry_equiv_pos_site_id
 _symmetry_equiv_pos_as_xyz
  1  'x, y, z'
loop_
 _atom_site_type_symbol
 _atom_site_label
 _atom_site_symmetry_multiplicity
 _atom_site_fract_x
 _atom_site_fract_y
 _atom_site_fract_z
 _atom_site_occupancy
  Li  Li0  1  0.83726833  0.65985176  0.51805130  1
  Li  Li1  1  0.50287991  0.65985176  0.01805130  1
  Li  Li2  1  0.49712009  0.34014824  0.51805130  1
  Li  Li3  1  0.16273167  0.34014824  0.01805130  1
  Cr  Cr4  1  0.82035065  0.00000000  0.01728982  1
  Cr  Cr5  1  0.17964935  0.00000000  0.51728982  1
  O  O6  1  0.82580385  0.69414183  0.92404609  1
  O  O7  1  0.48005532  0.69414183  0.42404609  1
  O  O8  1  0.51994468  0.30585817  0.92404609  1
  O  O9  1  0.17419615  0.30585817  0.42404609  1
  O  O10  1  0.86582558  0.00000000  0.39551539  1
  O  O11  1  0.13417442  0.00000000  0.89551539  1
