# generated using pymatgen
data_LiAlVO4
_symmetry_space_group_name_H-M   'P 1'
_cell_length_a   8.72829016
_cell_length_b   8.72828969
_cell_length_c   8.72828971
_cell_angle_alpha   107.53585154
_cell_angle_beta   107.53585704
_cell_angle_gamma   107.53585672
_symmetry_Int_Tables_number   1
_chemical_formula_structural   LiAlVO4
_chemical_formula_sum   'Li6 Al6 V6 O24'
_cell_volume   545.47756467
_cell_formula_units_Z   6
loop_
 _symmetry_equiv_pos_site_id
 _symmetry_equiv_pos_as_xyz
  1  'x, y, z'
loop_
 _atom_site_type_symbol
 _atom_site_label
 _atom_site_symmetry_multiplicity
 _atom_site_fract_x
 _atom_site_fract_y
 _atom_site_fract_z
 _atom_site_occupancy
  Li  Li0  1  0.07009387  0.46833633  0.23793189  1
  Li  Li1  1  0.53166367  0.76206811  0.92990613  1
  Li  Li2  1  0.76206811  0.92990613  0.53166367  1
  Li  Li3  1  0.23793189  0.07009387  0.46833633  1
  Li  Li4  1  0.46833633  0.23793189  0.07009387  1
  Li  Li5  1  0.92990613  0.53166367  0.76206811  1
  Al  Al6  1  0.38240765  0.78422487  0.56122276  1
  Al  Al7  1  0.21577513  0.43877724  0.61759335  1
  Al  Al8  1  0.43877724  0.61759335  0.21577513  1
  Al  Al9  1  0.56122276  0.38240765  0.78422487  1
  Al  Al10  1  0.78422487  0.56122276  0.38240765  1
  Al  Al11  1  0.61759335  0.21577513  0.43877724  1
  V  V12  1  0.13323257  0.88887557  0.71940069  1
  V  V13  1  0.28059931  0.86676743  0.11112443  1
  V  V14  1  0.11112443  0.28059931  0.86676743  1
  V  V15  1  0.88887557  0.71940069  0.13323257  1
  V  V16  1  0.71940069  0.13323257  0.88887557  1
  V  V17  1  0.86676743  0.11112443  0.28059931  1
  O  O18  1  0.28229798  0.97455044  0.95485402  1
  O  O19  1  0.04514598  0.71770202  0.02544956  1
  O  O20  1  0.25236995  0.90796911  0.58359049  1
  O  O21  1  0.41640951  0.74763005  0.09203089  1
  O  O22  1  0.61101526  0.94996568  0.66934120  1
  O  O23  1  0.31473039  0.64963636  0.33741321  1
  O  O24  1  0.09203089  0.41640951  0.74763005  1
  O  O25  1  0.35036364  0.66258679  0.68526961  1
  O  O26  1  0.05003432  0.33065880  0.38898474  1
  O  O27  1  0.33065880  0.38898474  0.05003432  1
  O  O28  1  0.66258679  0.68526961  0.35036364  1
  O  O29  1  0.02544956  0.04514598  0.71770202  1
  O  O30  1  0.97455044  0.95485402  0.28229798  1
  O  O31  1  0.33741321  0.31473039  0.64963636  1
  O  O32  1  0.66934120  0.61101526  0.94996568  1
  O  O33  1  0.94996568  0.66934120  0.61101526  1
  O  O34  1  0.64963636  0.33741321  0.31473039  1
  O  O35  1  0.90796911  0.58359049  0.25236995  1
  O  O36  1  0.68526961  0.35036364  0.66258679  1
  O  O37  1  0.38898474  0.05003432  0.33065880  1
  O  O38  1  0.58359049  0.25236995  0.90796911  1
  O  O39  1  0.74763005  0.09203089  0.41640951  1
  O  O40  1  0.95485402  0.28229798  0.97455044  1
  O  O41  1  0.71770202  0.02544956  0.04514598  1
