# generated using pymatgen
data_DyWO4
_symmetry_space_group_name_H-M   'P 1'
_cell_length_a   5.27543098
_cell_length_b   6.69303186
_cell_length_c   5.27543098
_cell_angle_alpha   66.79022739
_cell_angle_beta   90.00000000
_cell_angle_gamma   113.20977261
_symmetry_Int_Tables_number   1
_chemical_formula_structural   DyWO4
_chemical_formula_sum   'Dy2 W2 O8'
_cell_volume   154.65563562
_cell_formula_units_Z   2
loop_
 _symmetry_equiv_pos_site_id
 _symmetry_equiv_pos_as_xyz
  1  'x, y, z'
loop_
 _atom_site_type_symbol
 _atom_site_label
 _atom_site_symmetry_multiplicity
 _atom_site_fract_x
 _atom_site_fract_y
 _atom_site_fract_z
 _atom_site_occupancy
  Dy  Dy0  1  0.87500000  0.25000000  0.37500000  1
  Dy  Dy1  1  0.12500000  0.75000000  0.62500000  1
  W  W2  1  0.62500000  0.75000000  0.12500000  1
  W  W3  1  0.37500000  0.25000000  0.87500000  1
  O  O4  1  0.47034046  0.07962171  0.21742568  1
  O  O5  1  0.79704740  0.57962171  0.02965954  1
  O  O6  1  0.28257432  0.57962171  0.39071875  1
  O  O7  1  0.89071875  0.92037829  0.29704740  1
  O  O8  1  0.10928125  0.07962171  0.70295260  1
  O  O9  1  0.71742568  0.42037829  0.60928125  1
  O  O10  1  0.20295260  0.42037829  0.97034046  1
  O  O11  1  0.52965954  0.92037829  0.78257432  1
