# generated using pymatgen
data_Li2Co(Si2O5)2
_symmetry_space_group_name_H-M   'P 1'
_cell_length_a   9.64708753
_cell_length_b   7.59024011
_cell_length_c   6.90727370
_cell_angle_alpha   63.37721893
_cell_angle_beta   76.80239253
_cell_angle_gamma   99.69732158
_symmetry_Int_Tables_number   1
_chemical_formula_structural   Li2Co(Si2O5)2
_chemical_formula_sum   'Li4 Co2 Si8 O20'
_cell_volume   418.36836411
_cell_formula_units_Z   2
loop_
 _symmetry_equiv_pos_site_id
 _symmetry_equiv_pos_as_xyz
  1  'x, y, z'
loop_
 _atom_site_type_symbol
 _atom_site_label
 _atom_site_symmetry_multiplicity
 _atom_site_fract_x
 _atom_site_fract_y
 _atom_site_fract_z
 _atom_site_occupancy
  Li  Li0  1  0.02143595  0.23511059  0.62158521  1
  Li  Li1  1  0.57186694  0.68583502  0.78667230  1
  Li  Li2  1  0.42813306  0.31416498  0.21332770  1
  Li  Li3  1  0.97856405  0.76488941  0.37841479  1
  Co  Co4  1  0.42819829  0.30804955  0.75546412  1
  Co  Co5  1  0.57180171  0.69195045  0.24453588  1
  Si  Si6  1  0.18999222  0.94983226  0.75676982  1
  Si  Si7  1  0.25513142  0.63494706  0.61591120  1
  Si  Si8  1  0.23502018  0.61036937  0.19671380  1
  Si  Si9  1  0.14095021  0.27172282  0.11049652  1
  Si  Si10  1  0.85904979  0.72827718  0.88950348  1
  Si  Si11  1  0.76497982  0.38963063  0.80328620  1
  Si  Si12  1  0.74486858  0.36505294  0.38408880  1
  Si  Si13  1  0.81000778  0.05016774  0.24323018  1
  O  O14  1  0.01158326  0.93091510  0.76777305  1
  O  O15  1  0.13423317  0.44800347  0.86663959  1
  O  O16  1  0.26124456  0.86005869  0.59451461  1
  O  O17  1  0.17471339  0.62284156  0.43264550  1
  O  O18  1  0.18226698  0.79435281  0.02094421  1
  O  O19  1  0.12231175  0.37739627  0.27777747  1
  O  O20  1  0.42045444  0.61255924  0.56800836  1
  O  O21  1  0.27131948  0.18923770  0.65307291  1
  O  O22  1  0.70822199  0.78844088  0.91826675  1
  O  O23  1  0.59296329  0.37830165  0.89032628  1
  O  O24  1  0.40703671  0.62169835  0.10967372  1
  O  O25  1  0.29177801  0.21155912  0.08173325  1
  O  O26  1  0.72868052  0.81076230  0.34692709  1
  O  O27  1  0.57954556  0.38744076  0.43199164  1
  O  O28  1  0.87768825  0.62260373  0.72222253  1
  O  O29  1  0.81773302  0.20564719  0.97905579  1
  O  O30  1  0.82528661  0.37715844  0.56735450  1
  O  O31  1  0.73875544  0.13994131  0.40548539  1
  O  O32  1  0.86576683  0.55199653  0.13336041  1
  O  O33  1  0.98841674  0.06908490  0.23222695  1
