# generated using pymatgen
data_Li2MnSiCO7
_symmetry_space_group_name_H-M   'P 1'
_cell_length_a   8.53499381
_cell_length_b   6.31612766
_cell_length_c   5.00718998
_cell_angle_alpha   90.00000000
_cell_angle_beta   87.00691093
_cell_angle_gamma   90.00000000
_symmetry_Int_Tables_number   1
_chemical_formula_structural   Li2MnSiCO7
_chemical_formula_sum   'Li4 Mn2 Si2 C2 O14'
_cell_volume   269.55992525
_cell_formula_units_Z   2
loop_
 _symmetry_equiv_pos_site_id
 _symmetry_equiv_pos_as_xyz
  1  'x, y, z'
loop_
 _atom_site_type_symbol
 _atom_site_label
 _atom_site_symmetry_multiplicity
 _atom_site_fract_x
 _atom_site_fract_y
 _atom_site_fract_z
 _atom_site_occupancy
  Li  Li0  1  0.23389985  0.49914672  0.21753030  1
  Li  Li1  1  0.23389985  0.00085328  0.21753030  1
  Li  Li2  1  0.76610015  0.50085328  0.78246970  1
  Li  Li3  1  0.76610015  0.99914672  0.78246970  1
  Mn  Mn4  1  0.34212659  0.75000000  0.79936197  1
  Mn  Mn5  1  0.65787341  0.25000000  0.20063803  1
  Si  Si6  1  0.42603818  0.25000000  0.71096905  1
  Si  Si7  1  0.57396182  0.75000000  0.28903095  1
  C  C8  1  0.05886793  0.75000000  0.72971390  1
  C  C9  1  0.94113207  0.25000000  0.27028610  1
  O  O10  1  0.08590811  0.25000000  0.30008241  1
  O  O11  1  0.12087787  0.75000000  0.96474312  1
  O  O12  1  0.16680846  0.75000000  0.53128820  1
  O  O13  1  0.32133643  0.04735131  0.81436572  1
  O  O14  1  0.32133643  0.45264869  0.81436572  1
  O  O15  1  0.39950560  0.75000000  0.16286336  1
  O  O16  1  0.45672259  0.25000000  0.38213397  1
  O  O17  1  0.54327741  0.75000000  0.61786603  1
  O  O18  1  0.60049440  0.25000000  0.83713664  1
  O  O19  1  0.67866357  0.54735131  0.18563428  1
  O  O20  1  0.67866357  0.95264869  0.18563428  1
  O  O21  1  0.83319154  0.25000000  0.46871180  1
  O  O22  1  0.87912213  0.25000000  0.03525688  1
  O  O23  1  0.91409189  0.75000000  0.69991759  1
