# generated using pymatgen
data_Li4Ti2Mn3V3O16
_symmetry_space_group_name_H-M   'P 1'
_cell_length_a   6.01595156
_cell_length_b   5.88400631
_cell_length_c   9.61469336
_cell_angle_alpha   89.66836387
_cell_angle_beta   92.80211103
_cell_angle_gamma   119.06002031
_symmetry_Int_Tables_number   1
_chemical_formula_structural   Li4Ti2Mn3V3O16
_chemical_formula_sum   'Li4 Ti2 Mn3 V3 O16'
_cell_volume   297.07643328
_cell_formula_units_Z   1
loop_
 _symmetry_equiv_pos_site_id
 _symmetry_equiv_pos_as_xyz
  1  'x, y, z'
loop_
 _atom_site_type_symbol
 _atom_site_label
 _atom_site_symmetry_multiplicity
 _atom_site_fract_x
 _atom_site_fract_y
 _atom_site_fract_z
 _atom_site_occupancy
  Li  Li0  1  0.31275674  0.65321456  0.90099974  1
  Li  Li1  1  0.00633579  0.00517014  0.99044938  1
  Li  Li2  1  0.00226681  0.00073462  0.49206321  1
  Li  Li3  1  0.67282450  0.33673951  0.40102190  1
  Ti  Ti4  1  0.31846535  0.65768296  0.49825816  1
  Ti  Ti5  1  0.67636970  0.34692372  0.99588326  1
  Mn  Mn6  1  0.66700372  0.83506100  0.20656707  1
  Mn  Mn7  1  0.81891027  0.65725108  0.71030975  1
  Mn  Mn8  1  0.82415209  0.16566232  0.70884143  1
  V  V9  1  0.19434359  0.84475352  0.22049606  1
  V  V10  1  0.19078033  0.34834884  0.21913482  1
  V  V11  1  0.34367582  0.16342154  0.72680152  1
  O  O12  1  0.18885103  0.84182114  0.59347031  1
  O  O13  1  0.04529975  0.52260867  0.34129569  1
  O  O14  1  0.29938697  0.65172750  0.10334325  1
  O  O15  1  0.02151729  0.01029257  0.30483724  1
  O  O16  1  0.00311396  0.00219567  0.80016926  1
  O  O17  1  0.19016993  0.34367215  0.59477929  1
  O  O18  1  0.46527162  0.96333996  0.34446839  1
  O  O19  1  0.46333305  0.50017626  0.34317056  1
  O  O20  1  0.34014841  0.17016819  0.10389374  1
  O  O21  1  0.67327570  0.83696539  0.58878955  1
  O  O22  1  0.49685837  0.46328609  0.85073512  1
  O  O23  1  0.49063902  0.02857128  0.84616260  1
  O  O24  1  0.64642209  0.32399333  0.60921919  1
  O  O25  1  0.85243543  0.66693352  0.08869247  1
  O  O26  1  0.94262070  0.47145077  0.83652651  1
  O  O27  1  0.85277099  0.18813369  0.08745850  1
