# generated using pymatgen
data_Li3MnAl2O6
_symmetry_space_group_name_H-M   'P 1'
_cell_length_a   5.92341408
_cell_length_b   10.33138294
_cell_length_c   7.98488960
_cell_angle_alpha   90.00000000
_cell_angle_beta   89.65994363
_cell_angle_gamma   90.00000000
_symmetry_Int_Tables_number   1
_chemical_formula_structural   Li3MnAl2O6
_chemical_formula_sum   'Li12 Mn4 Al8 O24'
_cell_volume   488.64315452
_cell_formula_units_Z   4
loop_
 _symmetry_equiv_pos_site_id
 _symmetry_equiv_pos_as_xyz
  1  'x, y, z'
loop_
 _atom_site_type_symbol
 _atom_site_label
 _atom_site_symmetry_multiplicity
 _atom_site_fract_x
 _atom_site_fract_y
 _atom_site_fract_z
 _atom_site_occupancy
  Li  Li0  1  0.15137319  0.99835368  0.63468143  1
  Li  Li1  1  0.18624935  0.65166721  0.62516645  1
  Li  Li2  1  0.14377371  0.00414432  0.11751087  1
  Li  Li3  1  0.31375065  0.15166721  0.87483355  1
  Li  Li4  1  0.35622629  0.50414432  0.38248913  1
  Li  Li5  1  0.34862681  0.49835368  0.86531857  1
  Li  Li6  1  0.65137319  0.50164632  0.13468143  1
  Li  Li7  1  0.64377371  0.49585568  0.61751087  1
  Li  Li8  1  0.68624935  0.84833279  0.12516645  1
  Li  Li9  1  0.85622629  0.99585568  0.88248913  1
  Li  Li10  1  0.81375065  0.34833279  0.37483355  1
  Li  Li11  1  0.84862681  0.00164632  0.36531857  1
  Mn  Mn12  1  0.16337754  0.33438166  0.12656719  1
  Mn  Mn13  1  0.33662246  0.83438166  0.37343281  1
  Mn  Mn14  1  0.66337754  0.16561834  0.62656719  1
  Mn  Mn15  1  0.83662246  0.66561834  0.87343281  1
  Al  Al16  1  0.16707218  0.33473655  0.61624836  1
  Al  Al17  1  0.17230124  0.65810852  0.12576505  1
  Al  Al18  1  0.33292782  0.83473655  0.88375164  1
  Al  Al19  1  0.32769876  0.15810852  0.37423495  1
  Al  Al20  1  0.67230124  0.84189148  0.62576505  1
  Al  Al21  1  0.66707218  0.16526345  0.11624836  1
  Al  Al22  1  0.82769876  0.34189148  0.87423495  1
  Al  Al23  1  0.83292782  0.66526345  0.38375164  1
  O  O24  1  0.13665713  0.32922730  0.88559648  1
  O  O25  1  0.13807481  0.67121683  0.36311509  1
  O  O26  1  0.18637237  0.97925777  0.87727171  1
  O  O27  1  0.19160512  0.00400094  0.37234225  1
  O  O28  1  0.16140354  0.30958622  0.36863065  1
  O  O29  1  0.18453729  0.68066833  0.88599840  1
  O  O30  1  0.31546371  0.18066833  0.61400160  1
  O  O31  1  0.33859646  0.80958622  0.13136935  1
  O  O32  1  0.30839488  0.50400094  0.12765775  1
  O  O33  1  0.31362763  0.47925777  0.62272829  1
  O  O34  1  0.36334287  0.82922730  0.61440352  1
  O  O35  1  0.36192519  0.17121683  0.13688491  1
  O  O36  1  0.63807481  0.82878317  0.86311509  1
  O  O37  1  0.63665713  0.17077270  0.38559648  1
  O  O38  1  0.68637237  0.52074223  0.37727171  1
  O  O39  1  0.69160512  0.49599906  0.87234225  1
  O  O40  1  0.66140354  0.19041378  0.86863065  1
  O  O41  1  0.68453629  0.81933167  0.38599840  1
  O  O42  1  0.81546371  0.31933167  0.11400160  1
  O  O43  1  0.83859646  0.69041378  0.63136935  1
  O  O44  1  0.80839488  0.99599906  0.62765775  1
  O  O45  1  0.81362763  0.02074223  0.12272829  1
  O  O46  1  0.86192519  0.32878317  0.63688491  1
  O  O47  1  0.86334287  0.67077270  0.11440352  1
