# generated using pymatgen
data_Li4Ni3WO8
_symmetry_space_group_name_H-M   'P 1'
_cell_length_a   10.28530325
_cell_length_b   10.28530010
_cell_length_c   14.52840068
_cell_angle_alpha   19.66154931
_cell_angle_beta   19.66149756
_cell_angle_gamma   33.88252929
_symmetry_Int_Tables_number   1
_chemical_formula_structural   Li4Ni3WO8
_chemical_formula_sum   'Li4 Ni3 W1 O8'
_cell_volume   150.67452009
_cell_formula_units_Z   1
loop_
 _symmetry_equiv_pos_site_id
 _symmetry_equiv_pos_as_xyz
  1  'x, y, z'
loop_
 _atom_site_type_symbol
 _atom_site_label
 _atom_site_symmetry_multiplicity
 _atom_site_fract_x
 _atom_site_fract_y
 _atom_site_fract_z
 _atom_site_occupancy
  Li  Li0  1  -0.00000002  0.00000082  0.49999930  1
  Li  Li1  1  0.99999809  0.50000012  0.50000098  1
  Li  Li2  1  0.50000149  0.00000389  0.49999606  1
  Li  Li3  1  0.49999732  0.50000113  0.50000065  1
  Ni  Ni4  1  0.00000796  0.50000171  0.00000048  1
  Ni  Ni5  1  0.49999731  0.99999543  0.00000015  1
  Ni  Ni6  1  0.49999911  0.49999306  0.00000530  1
  W  W7  1  0.00000208  0.00000083  0.99999769  1
  O  O8  1  0.00001848  0.00002507  0.26012064  1
  O  O9  1  0.99998910  0.53849498  0.22929161  1
  O  O10  1  0.53849692  0.99999128  0.22928939  1
  O  O11  1  0.99997653  0.99998176  0.73987812  1
  O  O12  1  0.46152056  0.46151754  0.30625191  1
  O  O13  1  0.00000717  0.46150199  0.77071188  1
  O  O14  1  0.46150555  0.00001049  0.77070791  1
  O  O15  1  0.53848335  0.53848089  0.69374693  1
