# generated using pymatgen
data_Be(FeO2)2
_symmetry_space_group_name_H-M   'P 1'
_cell_length_a   9.47654572
_cell_length_b   9.88509863
_cell_length_c   3.05906888
_cell_angle_alpha   90.00002772
_cell_angle_beta   90.00007501
_cell_angle_gamma   90.00472961
_symmetry_Int_Tables_number   1
_chemical_formula_structural   Be(FeO2)2
_chemical_formula_sum   'Be4 Fe8 O16'
_cell_volume   286.56313746
_cell_formula_units_Z   4
loop_
 _symmetry_equiv_pos_site_id
 _symmetry_equiv_pos_as_xyz
  1  'x, y, z'
loop_
 _atom_site_type_symbol
 _atom_site_label
 _atom_site_symmetry_multiplicity
 _atom_site_fract_x
 _atom_site_fract_y
 _atom_site_fract_z
 _atom_site_occupancy
  Be  Be0  1  0.16214019  0.37967674  0.74999889  1
  Be  Be1  1  0.33785139  0.87969116  0.25000088  1
  Be  Be2  1  0.66213627  0.12031190  0.75000038  1
  Be  Be3  1  0.83786095  0.62031337  0.25000143  1
  Fe  Fe4  1  0.11236713  0.69265591  0.74999875  1
  Fe  Fe5  1  0.12053959  0.07062495  0.74999668  1
  Fe  Fe6  1  0.37946000  0.57061839  0.25000214  1
  Fe  Fe7  1  0.38763586  0.19264991  0.25000295  1
  Fe  Fe8  1  0.61236852  0.80734033  0.74999645  1
  Fe  Fe9  1  0.62054223  0.42936846  0.75000284  1
  Fe  Fe10  1  0.87946568  0.92937802  0.25000630  1
  Fe  Fe11  1  0.88763391  0.30734660  0.24999232  1
  O  O12  1  0.01604534  0.88415304  0.75000138  1
  O  O13  1  0.00188847  0.36726749  0.74999872  1
  O  O14  1  0.25497821  0.74390276  0.25000076  1
  O  O15  1  0.24301344  0.51678239  0.74999896  1
  O  O16  1  0.25698366  0.01678074  0.25000043  1
  O  O17  1  0.24501371  0.24390752  0.74999974  1
  O  O18  1  0.49811254  0.86727476  0.25000109  1
  O  O19  1  0.48394745  0.38415078  0.24999945  1
  O  O20  1  0.51605014  0.61584323  0.75000043  1
  O  O21  1  0.50188648  0.13273832  0.75000050  1
  O  O22  1  0.75500157  0.75609526  0.25000108  1
  O  O23  1  0.74302409  0.98322712  0.74999898  1
  O  O24  1  0.75698291  0.48321775  0.24999969  1
  O  O25  1  0.74501412  0.25609791  0.74999997  1
  O  O26  1  0.99810822  0.63273349  0.24999878  1
  O  O27  1  0.98394792  0.11585170  0.25000003  1
