# generated using pymatgen
data_Li4Mn3Nb2Cu3O16
_symmetry_space_group_name_H-M   'P 1'
_cell_length_a   5.93680944
_cell_length_b   5.89346755
_cell_length_c   9.79279897
_cell_angle_alpha   90.28021735
_cell_angle_beta   87.58984942
_cell_angle_gamma   118.82839603
_symmetry_Int_Tables_number   1
_chemical_formula_structural   Li4Mn3Nb2Cu3O16
_chemical_formula_sum   'Li4 Mn3 Nb2 Cu3 O16'
_cell_volume   299.85901436
_cell_formula_units_Z   1
loop_
 _symmetry_equiv_pos_site_id
 _symmetry_equiv_pos_as_xyz
  1  'x, y, z'
loop_
 _atom_site_type_symbol
 _atom_site_label
 _atom_site_symmetry_multiplicity
 _atom_site_fract_x
 _atom_site_fract_y
 _atom_site_fract_z
 _atom_site_occupancy
  Li  Li0  1  0.34628258  0.67635853  0.90386049  1
  Li  Li1  1  0.98958659  0.99553377  0.99336941  1
  Li  Li2  1  0.99279038  0.99456850  0.48575454  1
  Li  Li3  1  0.67537546  0.33318662  0.40225131  1
  Mn  Mn4  1  0.65690998  0.83087060  0.22044641  1
  Mn  Mn5  1  0.82857666  0.66238166  0.71514984  1
  Mn  Mn6  1  0.82622900  0.16412312  0.71610398  1
  Nb  Nb7  1  0.30964801  0.64441256  0.48510492  1
  Nb  Nb8  1  0.65964715  0.33537121  0.99544672  1
  Cu  Cu9  1  0.16462318  0.83003269  0.21113012  1
  Cu  Cu10  1  0.16350344  0.33549922  0.20960163  1
  Cu  Cu11  1  0.33782887  0.16818268  0.71382176  1
  O  O12  1  0.14575769  0.81609042  0.58773705  1
  O  O13  1  0.04178575  0.49939879  0.35754922  1
  O  O14  1  0.34302231  0.67026876  0.12087413  1
  O  O15  1  0.99284663  0.99968387  0.29602528  1
  O  O16  1  0.99537898  0.99599607  0.80437248  1
  O  O17  1  0.15285501  0.32268761  0.59489523  1
  O  O18  1  0.50261159  0.96991733  0.34571640  1
  O  O19  1  0.53379224  0.55774369  0.35505029  1
  O  O20  1  0.32348586  0.18062608  0.07296640  1
  O  O21  1  0.67892286  0.84124940  0.60950306  1
  O  O22  1  0.54929392  0.51445888  0.84317432  1
  O  O23  1  0.53875954  0.04145023  0.84013673  1
  O  O24  1  0.67587549  0.33742496  0.61564248  1
  O  O25  1  0.81613817  0.66300632  0.09469065  1
  O  O26  1  0.96623810  0.48155278  0.82848766  1
  O  O27  1  0.79223256  0.13821966  0.08897550  1
