# generated using pymatgen
data_V4CrCoO12
_symmetry_space_group_name_H-M   'P 1'
_cell_length_a   6.75527019
_cell_length_b   6.75527043
_cell_length_c   5.81198377
_cell_angle_alpha   75.27768482
_cell_angle_beta   104.72231588
_cell_angle_gamma   95.51117878
_symmetry_Int_Tables_number   1
_chemical_formula_structural   V4CrCoO12
_chemical_formula_sum   'V4 Cr1 Co1 O12'
_cell_volume   247.95265653
_cell_formula_units_Z   1
loop_
 _symmetry_equiv_pos_site_id
 _symmetry_equiv_pos_as_xyz
  1  'x, y, z'
loop_
 _atom_site_type_symbol
 _atom_site_label
 _atom_site_symmetry_multiplicity
 _atom_site_fract_x
 _atom_site_fract_y
 _atom_site_fract_z
 _atom_site_occupancy
  V  V0  1  0.20669443  0.60764918  0.76570683  1
  V  V1  1  0.38963441  0.79991146  0.25686360  1
  V  V2  1  0.60764918  0.20669443  0.73429317  1
  V  V3  1  0.79991146  0.38963441  0.24313640  1
  Cr  Cr4  1  0.08345555  0.08345555  0.75000000  1
  Co  Co5  1  0.91517890  0.91517890  0.25000000  1
  O  O6  1  0.03611322  0.80701382  0.65416564  1
  O  O7  1  0.08950680  0.36952897  0.78701489  1
  O  O8  1  0.18766036  0.97151881  0.11991674  1
  O  O9  1  0.36448909  0.64673784  0.55698386  1
  O  O10  1  0.36952897  0.08950680  0.71298511  1
  O  O11  1  0.36139441  0.62715864  0.05531085  1
  O  O12  1  0.64673784  0.36448909  0.94301614  1
  O  O13  1  0.62636726  0.90998585  0.28285640  1
  O  O14  1  0.62715864  0.36139441  0.44468915  1
  O  O15  1  0.80701382  0.03611322  0.84583436  1
  O  O16  1  0.90998585  0.62636726  0.21714360  1
  O  O17  1  0.97151881  0.18766036  0.38008326  1
