# generated using pymatgen
data_Li5Co3(NiO5)2
_symmetry_space_group_name_H-M   'P 1'
_cell_length_a   4.89464035
_cell_length_b   5.01438213
_cell_length_c   7.55013629
_cell_angle_alpha   106.51936093
_cell_angle_beta   102.65287562
_cell_angle_gamma   101.60641576
_symmetry_Int_Tables_number   1
_chemical_formula_structural   Li5Co3(NiO5)2
_chemical_formula_sum   'Li5 Co3 Ni2 O10'
_cell_volume   166.32661815
_cell_formula_units_Z   1
loop_
 _symmetry_equiv_pos_site_id
 _symmetry_equiv_pos_as_xyz
  1  'x, y, z'
loop_
 _atom_site_type_symbol
 _atom_site_label
 _atom_site_symmetry_multiplicity
 _atom_site_fract_x
 _atom_site_fract_y
 _atom_site_fract_z
 _atom_site_occupancy
  Li  Li0  1  0.20918733  0.92212020  0.41453252  1
  Li  Li1  1  0.38911204  0.28415509  0.77657170  1
  Li  Li2  1  0.50000000  0.50000000  0.50000000  1
  Li  Li3  1  0.61088796  0.71584491  0.22342830  1
  Li  Li4  1  0.79081267  0.07787980  0.58546748  1
  Co  Co5  1  0.00000000  0.50000000  0.00000000  1
  Co  Co6  1  0.70016976  0.89754694  0.90004760  1
  Co  Co7  1  0.29983024  0.10245306  0.09995240  1
  Ni  Ni8  1  0.10061840  0.69542214  0.69326655  1
  Ni  Ni9  1  0.89938160  0.30457786  0.30673345  1
  O  O10  1  0.03971452  0.12141018  0.87166163  1
  O  O11  1  0.33236765  0.72850162  0.94968227  1
  O  O12  1  0.13224540  0.30554255  0.54226419  1
  O  O13  1  0.22963428  0.45947343  0.22926743  1
  O  O14  1  0.44652957  0.89772602  0.66768946  1
  O  O15  1  0.55347043  0.10227398  0.33231054  1
  O  O16  1  0.77036572  0.54052657  0.77073257  1
  O  O17  1  0.86775460  0.69445745  0.45773581  1
  O  O18  1  0.66763235  0.27149838  0.05031773  1
  O  O19  1  0.96028548  0.87858982  0.12833837  1
