# generated using pymatgen
data_Li2SnBO4
_symmetry_space_group_name_H-M   'P 1'
_cell_length_a   7.48739228
_cell_length_b   5.12016754
_cell_length_c   10.27098205
_cell_angle_alpha   90.00000000
_cell_angle_beta   98.34414999
_cell_angle_gamma   90.00000000
_symmetry_Int_Tables_number   1
_chemical_formula_structural   Li2SnBO4
_chemical_formula_sum   'Li8 Sn4 B4 O16'
_cell_volume   389.58739281
_cell_formula_units_Z   4
loop_
 _symmetry_equiv_pos_site_id
 _symmetry_equiv_pos_as_xyz
  1  'x, y, z'
loop_
 _atom_site_type_symbol
 _atom_site_label
 _atom_site_symmetry_multiplicity
 _atom_site_fract_x
 _atom_site_fract_y
 _atom_site_fract_z
 _atom_site_occupancy
  Li  Li0  1  0.09293281  0.34433284  0.79577252  1
  Li  Li1  1  0.09293281  0.15566716  0.29577252  1
  Li  Li2  1  0.19440865  0.17271882  0.57617781  1
  Li  Li3  1  0.19440865  0.32728118  0.07617781  1
  Li  Li4  1  0.80559135  0.67271882  0.92382219  1
  Li  Li5  1  0.80559135  0.82728118  0.42382219  1
  Li  Li6  1  0.90706719  0.84433284  0.70422748  1
  Li  Li7  1  0.90706719  0.65566716  0.20422748  1
  Sn  Sn8  1  0.49649317  0.12038694  0.87723053  1
  Sn  Sn9  1  0.50350683  0.62038694  0.62276947  1
  Sn  Sn10  1  0.49649317  0.37961306  0.37723053  1
  Sn  Sn11  1  0.50350683  0.87961306  0.12276947  1
  B  B12  1  0.16361588  0.81395980  0.93770130  1
  B  B13  1  0.16361588  0.68604020  0.43770130  1
  B  B14  1  0.83638412  0.31395980  0.56229870  1
  B  B15  1  0.83638412  0.18604020  0.06229870  1
  O  O16  1  0.03425666  0.68241358  0.85859559  1
  O  O17  1  0.03425666  0.81758642  0.35859559  1
  O  O18  1  0.19919651  0.08057615  0.92103560  1
  O  O19  1  0.19919651  0.41942385  0.42103560  1
  O  O20  1  0.27265065  0.82439280  0.54060473  1
  O  O21  1  0.38118861  0.34582321  0.72791989  1
  O  O22  1  0.27265065  0.67560720  0.04060473  1
  O  O23  1  0.38118861  0.15417679  0.22791989  1
  O  O24  1  0.61881139  0.84582321  0.77208011  1
  O  O25  1  0.72734935  0.32439280  0.95939527  1
  O  O26  1  0.61881139  0.65417679  0.27208011  1
  O  O27  1  0.72734935  0.17560720  0.45939527  1
  O  O28  1  0.80080349  0.58057615  0.57896440  1
  O  O29  1  0.80080349  0.91942385  0.07896440  1
  O  O30  1  0.96574334  0.18241358  0.64140441  1
  O  O31  1  0.96574334  0.31758642  0.14140441  1
