# generated using pymatgen
data_Li2V3BiO8
_symmetry_space_group_name_H-M   'P 1'
_cell_length_a   8.80335973
_cell_length_b   8.79877836
_cell_length_c   8.71214996
_cell_angle_alpha   90.22500110
_cell_angle_beta   89.94922961
_cell_angle_gamma   90.01018016
_symmetry_Int_Tables_number   1
_chemical_formula_structural   Li2V3BiO8
_chemical_formula_sum   'Li8 V12 Bi4 O32'
_cell_volume   674.82729969
_cell_formula_units_Z   4
loop_
 _symmetry_equiv_pos_site_id
 _symmetry_equiv_pos_as_xyz
  1  'x, y, z'
loop_
 _atom_site_type_symbol
 _atom_site_label
 _atom_site_symmetry_multiplicity
 _atom_site_fract_x
 _atom_site_fract_y
 _atom_site_fract_z
 _atom_site_occupancy
  Li  Li0  1  -0.00181356  -0.00034085  0.00256712  1
  Li  Li1  1  0.25021466  0.24989734  0.24857835  1
  Li  Li2  1  0.25429558  0.75304714  0.74733521  1
  Li  Li3  1  0.49863919  0.99938370  0.50259453  1
  Li  Li4  1  0.50756245  0.49703930  0.99678814  1
  Li  Li5  1  0.74688654  0.25281852  0.75074169  1
  Li  Li6  1  0.75445313  0.74499520  0.25370001  1
  Li  Li7  1  0.99273868  0.50390807  0.49814066  1
  V  V8  1  0.10384089  0.14249220  0.62622645  1
  V  V9  1  0.12594894  0.39762681  0.85266844  1
  V  V10  1  0.14533814  0.62749025  0.10694863  1
  V  V11  1  0.35315238  0.37485453  0.60938340  1
  V  V12  1  0.37546040  0.61254484  0.35663740  1
  V  V13  1  0.39578054  0.85248908  0.12449380  1
  V  V14  1  0.60678617  0.36110458  0.37128225  1
  V  V15  1  0.62138578  0.10352043  0.14621903  1
  V  V16  1  0.64542185  0.87434503  0.89886612  1
  V  V17  1  0.85667468  0.12630492  0.39359175  1
  V  V18  1  0.87302823  0.88910943  0.64173757  1
  V  V19  1  0.88826563  0.63871195  0.87999592  1
  Bi  Bi20  1  0.12103280  0.87908248  0.37423491  1
  Bi  Bi21  1  0.37696891  0.11896831  0.87640838  1
  Bi  Bi22  1  0.62147235  0.62380990  0.62906611  1
  Bi  Bi23  1  0.87998224  0.37065413  0.12547767  1
  O  O24  1  0.09609108  0.13879299  0.40484480  1
  O  O25  1  0.09581618  0.91626639  0.64269767  1
  O  O26  1  0.12229601  0.62347883  0.88570733  1
  O  O27  1  0.10952445  0.16522353  0.84477745  1
  O  O28  1  0.13651229  0.39254895  0.08587906  1
  O  O29  1  0.12980648  0.37332696  0.62397003  1
  O  O30  1  0.14494042  0.60958106  0.32645153  1
  O  O31  1  0.16406097  0.85096994  0.11136603  1
  O  O32  1  0.33360833  0.14912447  0.60949387  1
  O  O33  1  0.36757054  0.39372376  0.82025024  1
  O  O34  1  0.37001790  0.62380024  0.12588000  1
  O  O35  1  0.36023834  0.60789802  0.58598172  1
  O  O36  1  0.39145183  0.82233264  0.36730421  1
  O  O37  1  0.37484060  0.38775340  0.38285610  1
  O  O38  1  0.39551801  0.08263896  0.14002986  1
  O  O39  1  0.41681458  0.86648728  0.88223904  1
  O  O40  1  0.58702599  0.36016593  0.59326988  1
  O  O41  1  0.60135346  0.58262159  0.35726732  1
  O  O42  1  0.62238143  0.87795654  0.12714745  1
  O  O43  1  0.60582952  0.33660061  0.15504171  1
  O  O44  1  0.63707795  0.11672301  0.92743538  1
  O  O45  1  0.62190846  0.12766486  0.36350501  1
  O  O46  1  0.65905502  0.89145478  0.66167953  1
  O  O47  1  0.66403795  0.63571065  0.88977753  1
  O  O48  1  0.83212955  0.35640467  0.38740733  1
  O  O49  1  0.85476088  0.11045512  0.16380287  1
  O  O50  1  0.87348042  0.86210283  0.87429328  1
  O  O51  1  0.86624254  0.89199286  0.41442557  1
  O  O52  1  0.88887369  0.66684672  0.64565266  1
  O  O53  1  0.87892942  0.12072651  0.62414143  1
  O  O54  1  0.88855459  0.42601930  0.85675294  1
  O  O55  1  0.91573153  0.63888828  0.10512761  1
