# generated using pymatgen
data_Li5Mn3(SbO5)2
_symmetry_space_group_name_H-M   'P 1'
_cell_length_a   5.42661365
_cell_length_b   5.39597187
_cell_length_c   8.33041946
_cell_angle_alpha   108.38214601
_cell_angle_beta   101.69639515
_cell_angle_gamma   100.66936725
_symmetry_Int_Tables_number   1
_chemical_formula_structural   Li5Mn3(SbO5)2
_chemical_formula_sum   'Li5 Mn3 Sb2 O10'
_cell_volume   218.38287552
_cell_formula_units_Z   1
loop_
 _symmetry_equiv_pos_site_id
 _symmetry_equiv_pos_as_xyz
  1  'x, y, z'
loop_
 _atom_site_type_symbol
 _atom_site_label
 _atom_site_symmetry_multiplicity
 _atom_site_fract_x
 _atom_site_fract_y
 _atom_site_fract_z
 _atom_site_occupancy
  Li  Li0  1  0.24002313  0.88773694  0.40132872  1
  Li  Li1  1  0.38502420  0.29163657  0.77951101  1
  Li  Li2  1  0.50000000  0.50000000  0.50000000  1
  Li  Li3  1  0.61497580  0.70836343  0.22048899  1
  Li  Li4  1  0.75997687  0.11226306  0.59867128  1
  Mn  Mn5  1  0.00000000  0.50000000  0.00000000  1
  Mn  Mn6  1  0.69131416  0.89312811  0.89173478  1
  Mn  Mn7  1  0.30868584  0.10687189  0.10826522  1
  Sb  Sb8  1  0.09971304  0.71191706  0.69679107  1
  Sb  Sb9  1  0.90028696  0.28808294  0.30320893  1
  O  O10  1  0.05170409  0.08392993  0.84255174  1
  O  O11  1  0.32754425  0.69496812  0.92690823  1
  O  O12  1  0.13942363  0.33139983  0.54729951  1
  O  O13  1  0.22644901  0.48719531  0.24833092  1
  O  O14  1  0.42996112  0.90289957  0.65369747  1
  O  O15  1  0.57003888  0.09710143  0.34630253  1
  O  O16  1  0.77355099  0.51280469  0.75166908  1
  O  O17  1  0.86057637  0.66860017  0.45270049  1
  O  O18  1  0.67245575  0.30503188  0.07309177  1
  O  O19  1  0.94829591  0.91607007  0.15744826  1
