# generated using pymatgen
data_Li3Ti(CoO3)2
_symmetry_space_group_name_H-M   'P 1'
_cell_length_a   15.46854685
_cell_length_b   9.91980968
_cell_length_c   9.91980979
_cell_angle_alpha   17.24242627
_cell_angle_beta   16.56912369
_cell_angle_gamma   16.56912242
_symmetry_Int_Tables_number   1
_chemical_formula_structural   Li3Ti(CoO3)2
_chemical_formula_sum   'Li3 Ti1 Co2 O6'
_cell_volume   110.70688432
_cell_formula_units_Z   1
loop_
 _symmetry_equiv_pos_site_id
 _symmetry_equiv_pos_as_xyz
  1  'x, y, z'
loop_
 _atom_site_type_symbol
 _atom_site_label
 _atom_site_symmetry_multiplicity
 _atom_site_fract_x
 _atom_site_fract_y
 _atom_site_fract_z
 _atom_site_occupancy
  Li  Li0  1  0.16666700  0.50000000  0.50000000  1
  Li  Li1  1  0.49225554  0.50456238  0.50456238  1
  Li  Li2  1  0.84107746  0.49543762  0.49543762  1
  Ti  Ti3  1  0.66666700  0.00000000  0.00000000  1
  Co  Co4  1  0.97688359  0.01635027  0.01635027  1
  Co  Co5  1  0.35644941  0.98364973  0.98364973  1
  O  O6  1  0.26297609  0.24672849  0.24672849  1
  O  O7  1  0.57976729  0.25501626  0.25501626  1
  O  O8  1  0.07035791  0.75327151  0.75327151  1
  O  O9  1  0.89354651  0.27382982  0.27382982  1
  O  O10  1  0.43978749  0.72617018  0.72617018  1
  O  O11  1  0.75356671  0.74498374  0.74498374  1
