# generated using pymatgen
data_La4Al6O15
_symmetry_space_group_name_H-M   'P 1'
_cell_length_a   5.05526343
_cell_length_b   6.96415355
_cell_length_c   21.22022844
_cell_angle_alpha   86.62052854
_cell_angle_beta   90.10668877
_cell_angle_gamma   68.82732595
_symmetry_Int_Tables_number   1
_chemical_formula_structural   La4Al6O15
_chemical_formula_sum   'La8 Al12 O30'
_cell_volume   695.21473834
_cell_formula_units_Z   2
loop_
 _symmetry_equiv_pos_site_id
 _symmetry_equiv_pos_as_xyz
  1  'x, y, z'
loop_
 _atom_site_type_symbol
 _atom_site_label
 _atom_site_symmetry_multiplicity
 _atom_site_fract_x
 _atom_site_fract_y
 _atom_site_fract_z
 _atom_site_occupancy
  La  La0  1  0.33000060  0.72725131  0.79949612  1
  La  La1  1  0.35122662  0.71088725  0.60254497  1
  La  La2  1  0.95362697  0.72120880  0.29881175  1
  La  La3  1  0.93115940  0.71263647  0.10185214  1
  La  La4  1  0.06604011  0.29172563  0.89755036  1
  La  La5  1  0.05097670  0.27774816  0.70026510  1
  La  La6  1  0.64909189  0.28601662  0.39808430  1
  La  La7  1  0.67583270  0.27415390  0.20109751  1
  Al  Al8  1  0.78855081  0.83277940  0.91442470  1
  Al  Al9  1  0.80833460  0.84251888  0.69507259  1
  Al  Al10  1  0.34513553  0.67517024  0.97497302  1
  Al  Al11  1  0.38147624  0.82850224  0.41473380  1
  Al  Al12  1  0.35306766  0.84092615  0.19477408  1
  Al  Al13  1  0.98058371  0.67278695  0.47439173  1
  Al  Al14  1  0.01422466  0.32645380  0.52596654  1
  Al  Al15  1  0.65042840  0.15967732  0.80487228  1
  Al  Al16  1  0.61457152  0.17006031  0.58600393  1
  Al  Al17  1  0.65625425  0.32677456  0.02596548  1
  Al  Al18  1  0.19554681  0.15606975  0.30517898  1
  Al  Al19  1  0.21279423  0.17014283  0.08565112  1
  O  O20  1  0.86815503  0.94044842  0.61992794  1
  O  O21  1  0.43224996  0.84670434  0.92153638  1
  O  O22  1  0.45901708  0.84843167  0.69780617  1
  O  O23  1  0.97505259  0.76332632  0.98805614  1
  O  O24  1  0.19393490  0.93836754  0.11959716  1
  O  O25  1  0.72221935  0.84524010  0.42119594  1
  O  O26  1  0.97112040  0.64111866  0.86178665  1
  O  O27  1  0.69469867  0.85141335  0.19743163  1
  O  O28  1  0.26282593  0.76067246  0.48828326  1
  O  O29  1  0.08530447  0.60168351  0.70777872  1
  O  O30  1  0.90450421  0.58696687  0.55234779  1
  O  O31  1  0.48952237  0.41443423  0.94861074  1
  O  O32  1  0.38758079  0.63475287  0.36305433  1
  O  O33  1  0.31830318  0.59971395  0.20901063  1
  O  O34  1  0.68675226  0.40089611  0.79215892  1
  O  O35  1  0.60614376  0.36185235  0.63859570  1
  O  O36  1  0.50921498  0.58746402  0.05267590  1
  O  O37  1  0.08827968  0.41218002  0.44801831  1
  O  O38  1  0.91853215  0.39662118  0.29128101  1
  O  O39  1  0.73001411  0.24032309  0.51245030  1
  O  O40  1  0.30845132  0.15004151  0.80175654  1
  O  O41  1  0.02777381  0.36236409  0.13788220  1
  O  O42  1  0.27265694  0.15488257  0.57941179  1
  O  O43  1  0.80716240  0.06426483  0.88038767  1
  O  O44  1  0.87905272  0.00042492  0.75022293  1
  O  O45  1  0.02564844  0.24180950  0.01204233  1
  O  O46  1  0.54571361  0.14865785  0.30250780  1
  O  O47  1  0.57075593  0.15293664  0.07883118  1
  O  O48  1  0.13237205  0.05937516  0.38024010  1
  O  O49  1  0.12677148  0.99759030  0.25012733  1
