# generated using pymatgen
data_LiTiV3O10
_symmetry_space_group_name_H-M   'P 1'
_cell_length_a   6.63688484
_cell_length_b   6.63688484
_cell_length_c   4.65273267
_cell_angle_alpha   91.46471360
_cell_angle_beta   88.53528640
_cell_angle_gamma   89.27573299
_symmetry_Int_Tables_number   1
_chemical_formula_structural   LiTiV3O10
_chemical_formula_sum   'Li1 Ti1 V3 O10'
_cell_volume   204.79265802
_cell_formula_units_Z   1
loop_
 _symmetry_equiv_pos_site_id
 _symmetry_equiv_pos_as_xyz
  1  'x, y, z'
loop_
 _atom_site_type_symbol
 _atom_site_label
 _atom_site_symmetry_multiplicity
 _atom_site_fract_x
 _atom_site_fract_y
 _atom_site_fract_z
 _atom_site_occupancy
  Li  Li0  1  0.49975516  0.99975516  0.00000000  1
  Ti  Ti1  1  0.75004221  0.25004221  0.50000000  1
  V  V2  1  0.25076771  0.75076771  0.50000000  1
  V  V3  1  0.24996698  0.25022402  0.62115969  1
  V  V4  1  0.75022402  0.74996698  0.37884031  1
  O  O5  1  0.03436653  0.75710458  0.29833284  1
  O  O6  1  0.26512502  0.23500835  0.26950224  1
  O  O7  1  0.25710458  0.53436653  0.70166716  1
  O  O8  1  0.26015217  0.96308232  0.73071942  1
  O  O9  1  0.46308232  0.76015217  0.26928058  1
  O  O10  1  0.52262087  0.23590196  0.73259172  1
  O  O11  1  0.73590196  0.02262087  0.26740828  1
  O  O12  1  0.74524391  0.48064020  0.29216683  1
  O  O13  1  0.73500735  0.76512502  0.73049776  1
  O  O14  1  0.98064020  0.24524391  0.70783317  1
