# generated using pymatgen
data_Li3Mn2CuO6
_symmetry_space_group_name_H-M   'P 1'
_cell_length_a   16.29782537
_cell_length_b   10.05424996
_cell_length_c   10.05424987
_cell_angle_alpha   16.28034229
_cell_angle_beta   16.47679077
_cell_angle_gamma   16.47678926
_symmetry_Int_Tables_number   1
_chemical_formula_structural   Li3Mn2CuO6
_chemical_formula_sum   'Li3 Mn2 Cu1 O6'
_cell_volume   114.65905814
_cell_formula_units_Z   1
loop_
 _symmetry_equiv_pos_site_id
 _symmetry_equiv_pos_as_xyz
  1  'x, y, z'
loop_
 _atom_site_type_symbol
 _atom_site_label
 _atom_site_symmetry_multiplicity
 _atom_site_fract_x
 _atom_site_fract_y
 _atom_site_fract_z
 _atom_site_occupancy
  Li  Li0  1  0.16666700  0.50000000  0.50000000  1
  Li  Li1  1  0.49181040  0.50660003  0.50660003  1
  Li  Li2  1  0.84152260  0.49339997  0.49339997  1
  Mn  Mn3  1  0.00264494  0.99599269  0.99599269  1
  Mn  Mn4  1  0.33068806  0.00400731  0.00400731  1
  Cu  Cu5  1  0.66666700  0.00000000  0.00000000  1
  O  O6  1  0.20334581  0.28543856  0.28543856  1
  O  O7  1  0.55054302  0.27907187  0.27907187  1
  O  O8  1  0.12998719  0.71456144  0.71456144  1
  O  O9  1  0.90020860  0.27139990  0.27139990  1
  O  O10  1  0.43312440  0.72860010  0.72860010  1
  O  O11  1  0.78279098  0.72092813  0.72092813  1
