# generated using pymatgen
data_Sr2LaCl7
_symmetry_space_group_name_H-M   'P 1'
_cell_length_a   12.51469217
_cell_length_b   7.20691034
_cell_length_c   13.35307435
_cell_angle_alpha   90.00000000
_cell_angle_beta   90.00000000
_cell_angle_gamma   88.74568756
_symmetry_Int_Tables_number   1
_chemical_formula_structural   Sr2LaCl7
_chemical_formula_sum   'Sr8 La4 Cl28'
_cell_volume   1204.05543007
_cell_formula_units_Z   4
loop_
 _symmetry_equiv_pos_site_id
 _symmetry_equiv_pos_as_xyz
  1  'x, y, z'
loop_
 _atom_site_type_symbol
 _atom_site_label
 _atom_site_symmetry_multiplicity
 _atom_site_fract_x
 _atom_site_fract_y
 _atom_site_fract_z
 _atom_site_occupancy
  Sr  Sr0  1  0.22276762  0.30203332  0.54951217  1
  Sr  Sr1  1  0.22110791  0.20827321  0.85754751  1
  Sr  Sr2  1  0.27889209  0.79172679  0.35754751  1
  Sr  Sr3  1  0.27723238  0.69796668  0.04951217  1
  Sr  Sr4  1  0.72276762  0.30203332  0.95048783  1
  Sr  Sr5  1  0.72110791  0.20827321  0.64245249  1
  Sr  Sr6  1  0.77889209  0.79172679  0.14245249  1
  Sr  Sr7  1  0.77723238  0.69796668  0.45048783  1
  La  La8  1  0.02935423  0.21001016  0.23905678  1
  La  La9  1  0.47064577  0.78998984  0.73905678  1
  La  La10  1  0.52935423  0.21001016  0.26094322  1
  La  La11  1  0.97064577  0.78998984  0.76094322  1
  Cl  Cl12  1  0.10709454  0.84665389  0.18770886  1
  Cl  Cl13  1  0.11028566  0.04234078  0.41917462  1
  Cl  Cl14  1  0.11850956  0.49688443  0.38120909  1
  Cl  Cl15  1  0.10827053  0.87062161  0.92422999  1
  Cl  Cl16  1  0.14377469  0.35601968  0.06065092  1
  Cl  Cl17  1  0.13941077  0.00426433  0.68276379  1
  Cl  Cl18  1  0.13575431  0.51005650  0.73046055  1
  Cl  Cl19  1  0.36424569  0.48994350  0.23046055  1
  Cl  Cl20  1  0.36058923  0.99573567  0.18276379  1
  Cl  Cl21  1  0.35622531  0.64398032  0.56065092  1
  Cl  Cl22  1  0.39172947  0.12937839  0.42422999  1
  Cl  Cl23  1  0.38149044  0.50311557  0.88120909  1
  Cl  Cl24  1  0.38971434  0.95765922  0.91917462  1
  Cl  Cl25  1  0.39290546  0.15334611  0.68770886  1
  Cl  Cl26  1  0.60709454  0.84665389  0.31229114  1
  Cl  Cl27  1  0.61028566  0.04234078  0.08082538  1
  Cl  Cl28  1  0.61850956  0.49688443  0.11879091  1
  Cl  Cl29  1  0.60827053  0.87062161  0.57577001  1
  Cl  Cl30  1  0.64377469  0.35601968  0.43934908  1
  Cl  Cl31  1  0.63941077  0.00426433  0.81723621  1
  Cl  Cl32  1  0.63575431  0.51005650  0.76953945  1
  Cl  Cl33  1  0.86424569  0.48994350  0.26953945  1
  Cl  Cl34  1  0.86058923  0.99573567  0.31723621  1
  Cl  Cl35  1  0.85622531  0.64398032  0.93934908  1
  Cl  Cl36  1  0.89172947  0.12937839  0.07577001  1
  Cl  Cl37  1  0.88149044  0.50311557  0.61879091  1
  Cl  Cl38  1  0.88971434  0.95765922  0.58082538  1
  Cl  Cl39  1  0.89290546  0.15334611  0.81229114  1
