# generated using pymatgen
data_Li6Mn3Sb3O16
_symmetry_space_group_name_H-M   'P 1'
_cell_length_a   6.08609596
_cell_length_b   6.03135710
_cell_length_c   10.03026001
_cell_angle_alpha   90.00144757
_cell_angle_beta   89.78311628
_cell_angle_gamma   119.70308261
_symmetry_Int_Tables_number   1
_chemical_formula_structural   Li6Mn3Sb3O16
_chemical_formula_sum   'Li6 Mn3 Sb3 O16'
_cell_volume   319.80421684
_cell_formula_units_Z   1
loop_
 _symmetry_equiv_pos_site_id
 _symmetry_equiv_pos_as_xyz
  1  'x, y, z'
loop_
 _atom_site_type_symbol
 _atom_site_label
 _atom_site_symmetry_multiplicity
 _atom_site_fract_x
 _atom_site_fract_y
 _atom_site_fract_z
 _atom_site_occupancy
  Li  Li0  1  0.33774565  0.66888407  0.50640130  1
  Li  Li1  1  0.32777490  0.66389615  0.87419890  1
  Li  Li2  1  0.97311888  0.98655811  0.99769915  1
  Li  Li3  1  0.98647196  0.99324235  0.50661133  1
  Li  Li4  1  0.68335813  0.34169764  0.99425508  1
  Li  Li5  1  0.66164286  0.33083821  0.38221451  1
  Mn  Mn6  1  0.66808292  0.83406175  0.21877241  1
  Mn  Mn7  1  0.83287042  0.66425388  0.71618399  1
  Mn  Mn8  1  0.83287159  0.16862787  0.71619045  1
  Sb  Sb9  1  0.17183400  0.83341057  0.21451669  1
  Sb  Sb10  1  0.17184091  0.33845600  0.21451514  1
  Sb  Sb11  1  0.33919592  0.16960433  0.71687972  1
  O  O12  1  0.14978335  0.84358797  0.61199046  1
  O  O13  1  0.02787916  0.51395873  0.32888592  1
  O  O14  1  0.30729319  0.65365795  0.09454010  1
  O  O15  1  0.03268938  0.01636713  0.32769533  1
  O  O16  1  0.99002375  0.99501320  0.81624430  1
  O  O17  1  0.14979310  0.30620864  0.61199437  1
  O  O18  1  0.48522947  0.96960314  0.32043327  1
  O  O19  1  0.48523021  0.51566824  0.32043010  1
  O  O20  1  0.30680901  0.15341176  0.09927539  1
  O  O21  1  0.69753153  0.84876534  0.61743621  1
  O  O22  1  0.52142070  0.49090016  0.82257476  1
  O  O23  1  0.52140525  0.03053079  0.82257212  1
  O  O24  1  0.67859727  0.33931132  0.60891807  1
  O  O25  1  0.84906873  0.69581199  0.11465277  1
  O  O26  1  0.96136339  0.48069153  0.81711116  1
  O  O27  1  0.84907236  0.15328019  0.11464900  1
