# generated using pymatgen
data_Li4Mn3NbO8
_symmetry_space_group_name_H-M   'P 1'
_cell_length_a   10.49048896
_cell_length_b   10.48576824
_cell_length_c   14.77651755
_cell_angle_alpha   20.03401415
_cell_angle_beta   20.02948555
_cell_angle_gamma   34.52137898
_symmetry_Int_Tables_number   1
_chemical_formula_structural   Li4Mn3NbO8
_chemical_formula_sum   'Li4 Mn3 Nb1 O8'
_cell_volume   165.08821422
_cell_formula_units_Z   1
loop_
 _symmetry_equiv_pos_site_id
 _symmetry_equiv_pos_as_xyz
  1  'x, y, z'
loop_
 _atom_site_type_symbol
 _atom_site_label
 _atom_site_symmetry_multiplicity
 _atom_site_fract_x
 _atom_site_fract_y
 _atom_site_fract_z
 _atom_site_occupancy
  Li  Li0  1  0.98709303  0.99259290  0.51177580  1
  Li  Li1  1  0.99517609  0.48917375  0.50991546  1
  Li  Li2  1  0.49094210  0.99710035  0.50793244  1
  Li  Li3  1  0.49636125  0.49261646  0.50848953  1
  Mn  Mn4  1  0.99740034  0.50343671  0.99814535  1
  Mn  Mn5  1  0.49640422  0.00029348  0.00192548  1
  Mn  Mn6  1  0.49685628  0.50077725  -0.00014872  1
  Nb  Nb7  1  0.99665586  0.00125242  0.00215269  1
  O  O8  1  0.00485512  0.00820641  0.25527921  1
  O  O9  1  0.99307876  0.53647346  0.23366860  1
  O  O10  1  0.53563491  0.00186878  0.22814274  1
  O  O11  1  0.99238445  0.99762366  0.74126759  1
  O  O12  1  0.46076172  0.46413415  0.30278646  1
  O  O13  1  0.99840435  0.46645143  0.76987722  1
  O  O14  1  0.46261913  0.00158327  0.76974423  1
  O  O15  1  0.53168239  0.53793252  0.70020893  1
