# generated using pymatgen
data_Li3V4NiO12
_symmetry_space_group_name_H-M   'P 1'
_cell_length_a   6.83783867
_cell_length_b   6.83783831
_cell_length_c   5.82258423
_cell_angle_alpha   74.26650263
_cell_angle_beta   105.73348979
_cell_angle_gamma   96.97488835
_symmetry_Int_Tables_number   1
_chemical_formula_structural   Li3V4NiO12
_chemical_formula_sum   'Li3 V4 Ni1 O12'
_cell_volume   251.88582584
_cell_formula_units_Z   1
loop_
 _symmetry_equiv_pos_site_id
 _symmetry_equiv_pos_as_xyz
  1  'x, y, z'
loop_
 _atom_site_type_symbol
 _atom_site_label
 _atom_site_symmetry_multiplicity
 _atom_site_fract_x
 _atom_site_fract_y
 _atom_site_fract_z
 _atom_site_occupancy
  Li  Li0  1  0.09398939  0.09398939  0.75000000  1
  Li  Li1  1  0.24598945  0.24598945  0.25000000  1
  Li  Li2  1  0.75738664  0.75738664  0.75000000  1
  V  V3  1  0.20045646  0.61041121  0.76550974  1
  V  V4  1  0.39069304  0.80263666  0.26819727  1
  V  V5  1  0.61041121  0.20045646  0.73449026  1
  V  V6  1  0.80263666  0.39069304  0.23180273  1
  Ni  Ni7  1  0.91520130  0.91520130  0.25000000  1
  O  O8  1  0.01396677  0.78544070  0.63801735  1
  O  O9  1  0.09566810  0.37234737  0.82188586  1
  O  O10  1  0.20427465  0.97974792  0.16404033  1
  O  O11  1  0.36358907  0.63816787  0.56396214  1
  O  O12  1  0.37234737  0.09566810  0.67811414  1
  O  O13  1  0.35394372  0.63765509  0.05756137  1
  O  O14  1  0.63816787  0.36358907  0.93603786  1
  O  O15  1  0.63525721  0.90317638  0.32486970  1
  O  O16  1  0.63765509  0.35394372  0.44243863  1
  O  O17  1  0.78544070  0.01396677  0.86198265  1
  O  O18  1  0.90317638  0.63525721  0.17513030  1
  O  O19  1  0.97974792  0.20427465  0.33595967  1
