# generated using pymatgen
data_Li3FeSiBO7
_symmetry_space_group_name_H-M   'P 1'
_cell_length_a   8.45592153
_cell_length_b   6.36509447
_cell_length_c   5.07323561
_cell_angle_alpha   90.00000000
_cell_angle_beta   85.60817132
_cell_angle_gamma   90.00000000
_symmetry_Int_Tables_number   1
_chemical_formula_structural   Li3FeSiBO7
_chemical_formula_sum   'Li6 Fe2 Si2 B2 O14'
_cell_volume   272.25366068
_cell_formula_units_Z   2
loop_
 _symmetry_equiv_pos_site_id
 _symmetry_equiv_pos_as_xyz
  1  'x, y, z'
loop_
 _atom_site_type_symbol
 _atom_site_label
 _atom_site_symmetry_multiplicity
 _atom_site_fract_x
 _atom_site_fract_y
 _atom_site_fract_z
 _atom_site_occupancy
  Li  Li0  1  0.10665779  0.25000000  0.75031651  1
  Li  Li1  1  0.24137116  0.99670548  0.24386260  1
  Li  Li2  1  0.24137116  0.50329452  0.24386260  1
  Li  Li3  1  0.75862884  0.49670548  0.75613740  1
  Li  Li4  1  0.75862884  0.00329452  0.75613740  1
  Li  Li5  1  0.89334221  0.75000000  0.24968349  1
  Fe  Fe6  1  0.33023385  0.75000000  0.79806941  1
  Fe  Fe7  1  0.66976615  0.25000000  0.20193059  1
  Si  Si8  1  0.42529082  0.25000000  0.72425916  1
  Si  Si9  1  0.57470918  0.75000000  0.27574084  1
  B  B10  1  0.03814976  0.75000000  0.73553452  1
  B  B11  1  0.96185024  0.25000000  0.26446548  1
  O  O12  1  0.10886354  0.25000000  0.35217267  1
  O  O13  1  0.08011701  0.75000000  0.99236685  1
  O  O14  1  0.16840646  0.75000000  0.54329922  1
  O  O15  1  0.30575484  0.05674619  0.82466863  1
  O  O16  1  0.30575484  0.44325381  0.82466863  1
  O  O17  1  0.46476637  0.25000000  0.40265095  1
  O  O18  1  0.40216375  0.75000000  0.14894824  1
  O  O19  1  0.59783625  0.25000000  0.85105176  1
  O  O20  1  0.53523363  0.75000000  0.59734905  1
  O  O21  1  0.69424516  0.55674619  0.17533137  1
  O  O22  1  0.69424516  0.94325381  0.17533137  1
  O  O23  1  0.83159354  0.25000000  0.45670078  1
  O  O24  1  0.91988299  0.25000000  0.00763315  1
  O  O25  1  0.89113646  0.75000000  0.64782733  1
