# generated using pymatgen
data_Li2Cr3SnO8
_symmetry_space_group_name_H-M   'P 1'
_cell_length_a   5.94847085
_cell_length_b   5.94847128
_cell_length_c   5.94847146
_cell_angle_alpha   60.93848781
_cell_angle_beta   60.93848910
_cell_angle_gamma   60.93849014
_symmetry_Int_Tables_number   1
_chemical_formula_structural   Li2Cr3SnO8
_chemical_formula_sum   'Li2 Cr3 Sn1 O8'
_cell_volume   151.98118893
_cell_formula_units_Z   1
loop_
 _symmetry_equiv_pos_site_id
 _symmetry_equiv_pos_as_xyz
  1  'x, y, z'
loop_
 _atom_site_type_symbol
 _atom_site_label
 _atom_site_symmetry_multiplicity
 _atom_site_fract_x
 _atom_site_fract_y
 _atom_site_fract_z
 _atom_site_occupancy
  Li  Li0  1  0.12268212  0.12268212  0.12268212  1
  Li  Li1  1  0.49720166  0.49720166  0.49720166  1
  Cr  Cr2  1  0.01677623  0.49706153  0.49706153  1
  Cr  Cr3  1  0.49706153  0.01677623  0.49706153  1
  Cr  Cr4  1  0.49706153  0.49706153  0.01677623  1
  Sn  Sn5  1  0.88596079  0.88596079  0.88596079  1
  O  O6  1  0.26199027  0.26199027  0.26199027  1
  O  O7  1  0.24600853  0.24600853  0.71638878  1
  O  O8  1  0.24600853  0.71638878  0.24600853  1
  O  O9  1  0.71638878  0.24600853  0.24600853  1
  O  O10  1  0.28846247  0.73987791  0.73987791  1
  O  O11  1  0.73987791  0.28846247  0.73987791  1
  O  O12  1  0.73987791  0.73987791  0.28846247  1
  O  O13  1  0.74464373  0.74464373  0.74464373  1
