# generated using pymatgen
data_Ba5La2Cl16
_symmetry_space_group_name_H-M   'P 1'
_cell_length_a   9.56317258
_cell_length_b   9.56317258
_cell_length_c   19.33272002
_cell_angle_alpha   90.00000000
_cell_angle_beta   90.00000000
_cell_angle_gamma   64.53257722
_symmetry_Int_Tables_number   1
_chemical_formula_structural   Ba5La2Cl16
_chemical_formula_sum   'Ba10 La4 Cl32'
_cell_volume   1596.25727692
_cell_formula_units_Z   2
loop_
 _symmetry_equiv_pos_site_id
 _symmetry_equiv_pos_as_xyz
  1  'x, y, z'
loop_
 _atom_site_type_symbol
 _atom_site_label
 _atom_site_symmetry_multiplicity
 _atom_site_fract_x
 _atom_site_fract_y
 _atom_site_fract_z
 _atom_site_occupancy
  Ba  Ba0  1  0.25000000  0.75000000  0.38340659  1
  Ba  Ba1  1  0.25000000  0.75000000  0.88340659  1
  Ba  Ba2  1  0.25000000  0.25000000  0.47354912  1
  Ba  Ba3  1  0.25000000  0.25000000  0.02645088  1
  Ba  Ba4  1  0.75000000  0.75000000  0.52645088  1
  Ba  Ba5  1  0.75000000  0.75000000  0.25000000  1
  Ba  Ba6  1  0.25000000  0.25000000  0.75000000  1
  Ba  Ba7  1  0.75000000  0.75000000  0.97354912  1
  Ba  Ba8  1  0.75000000  0.25000000  0.11659341  1
  Ba  Ba9  1  0.75000000  0.25000000  0.61659341  1
  La  La10  1  0.25000000  0.75000000  0.13208317  1
  La  La11  1  0.25000000  0.75000000  0.63208317  1
  La  La12  1  0.75000000  0.25000000  0.36791683  1
  La  La13  1  0.75000000  0.25000000  0.86791683  1
  Cl  Cl14  1  0.05107760  0.77839411  0.02429376  1
  Cl  Cl15  1  0.22160689  0.94892240  0.52429376  1
  Cl  Cl16  1  0.26888662  0.92235598  0.74258341  1
  Cl  Cl17  1  0.07764402  0.73111338  0.24258341  1
  Cl  Cl18  1  0.02415407  0.37227597  0.59948584  1
  Cl  Cl19  1  0.12772403  0.47584593  0.90051416  1
  Cl  Cl20  1  0.62772403  0.97584593  0.09948584  1
  Cl  Cl21  1  0.52415407  0.87227597  0.40051416  1
  Cl  Cl22  1  0.42235598  0.76888662  0.24258341  1
  Cl  Cl23  1  0.23111338  0.57764402  0.74258341  1
  Cl  Cl24  1  0.44892240  0.72160589  0.02429376  1
  Cl  Cl25  1  0.27839411  0.55107760  0.52429376  1
  Cl  Cl26  1  0.07588274  0.12085825  0.36496347  1
  Cl  Cl27  1  0.57588274  0.62085825  0.63503653  1
  Cl  Cl28  1  0.37914175  0.42411726  0.13503653  1
  Cl  Cl29  1  0.87914175  0.92411726  0.86496347  1
  Cl  Cl30  1  0.12085825  0.07588274  0.13503653  1
  Cl  Cl31  1  0.42411726  0.37914175  0.36496347  1
  Cl  Cl32  1  0.92411726  0.87914175  0.63503653  1
  Cl  Cl33  1  0.62085825  0.57588274  0.86496347  1
  Cl  Cl34  1  0.55107760  0.27839411  0.97570624  1
  Cl  Cl35  1  0.72160589  0.44892240  0.47570624  1
  Cl  Cl36  1  0.57764402  0.23111338  0.75741659  1
  Cl  Cl37  1  0.76888662  0.42235598  0.25741659  1
  Cl  Cl38  1  0.37227597  0.02415407  0.90051416  1
  Cl  Cl39  1  0.47584593  0.12772403  0.59948584  1
  Cl  Cl40  1  0.97584593  0.62772403  0.40051416  1
  Cl  Cl41  1  0.87227597  0.52415407  0.09948584  1
  Cl  Cl42  1  0.92235598  0.26888662  0.75741659  1
  Cl  Cl43  1  0.73111338  0.07764402  0.25741659  1
  Cl  Cl44  1  0.77839411  0.05107760  0.47570624  1
  Cl  Cl45  1  0.94892240  0.22160689  0.97570624  1
