# generated using pymatgen
data_Li4Cr2C4SO16
_symmetry_space_group_name_H-M   'P 1'
_cell_length_a   9.55069872
_cell_length_b   9.25610893
_cell_length_c   9.55069841
_cell_angle_alpha   61.69129684
_cell_angle_beta   94.63517333
_cell_angle_gamma   61.69129910
_symmetry_Int_Tables_number   1
_chemical_formula_structural   Li4Cr2C4SO16
_chemical_formula_sum   'Li8 Cr4 C8 S2 O32'
_cell_volume   601.38509333
_cell_formula_units_Z   2
loop_
 _symmetry_equiv_pos_site_id
 _symmetry_equiv_pos_as_xyz
  1  'x, y, z'
loop_
 _atom_site_type_symbol
 _atom_site_label
 _atom_site_symmetry_multiplicity
 _atom_site_fract_x
 _atom_site_fract_y
 _atom_site_fract_z
 _atom_site_occupancy
  Li  Li0  1  0.07728492  0.84543016  0.82728492  1
  Li  Li1  1  0.07887205  0.25000000  0.82887205  1
  Li  Li2  1  0.32887205  0.75000000  0.57887205  1
  Li  Li3  1  0.32728492  0.34543016  0.57728492  1
  Li  Li4  1  0.67271508  0.65456984  0.42271508  1
  Li  Li5  1  0.67112795  0.25000000  0.42112795  1
  Li  Li6  1  0.92112795  0.75000000  0.17112795  1
  Li  Li7  1  0.92271508  0.15456984  0.17271508  1
  Cr  Cr8  1  0.00000000  0.50000000  0.00000000  1
  Cr  Cr9  1  0.50000000  0.00000000  0.50000000  1
  Cr  Cr10  1  0.50000000  0.50000000  0.00000000  1
  Cr  Cr11  1  0.50000000  0.00000000  0.00000000  1
  C  C12  1  0.34888777  0.93729857  0.77093634  1
  C  C13  1  0.27093634  0.43729857  0.84888777  1
  C  C14  1  0.71381366  0.93729857  0.79176509  1
  C  C15  1  0.70823491  0.56270143  0.78618634  1
  C  C16  1  0.29176509  0.43729857  0.21381366  1
  C  C17  1  0.28618634  0.06270143  0.20823491  1
  C  C18  1  0.72906366  0.56270143  0.15111223  1
  C  C19  1  0.65111223  0.06270143  0.22906366  1
  S  S20  1  0.12500000  0.75000000  0.37500000  1
  S  S21  1  0.87500000  0.25000000  0.62500000  1
  O  O22  1  0.34313632  0.79753442  0.89276743  1
  O  O23  1  0.06869180  0.88500142  0.43367933  1
  O  O24  1  0.35699564  0.94634156  0.63365520  1
  O  O25  1  0.13365520  0.44634156  0.85699564  1
  O  O26  1  0.69666280  0.94634156  0.92000225  1
  O  O27  1  0.28813865  0.57122594  0.84253582  1
  O  O28  1  0.04630678  0.88500142  0.18131925  1
  O  O29  1  0.06632067  0.61499858  0.43130820  1
  O  O30  1  0.41376176  0.92877406  0.35936459  1
  O  O31  1  0.57999775  0.55365844  0.80333720  1
  O  O32  1  0.39276743  0.29753442  0.84313632  1
  O  O33  1  0.31868075  0.61499858  0.45369322  1
  O  O34  1  0.85932926  0.79753442  0.80969815  1
  O  O35  1  0.69030185  0.70246558  0.64067074  1
  O  O36  1  0.34253582  0.07122594  0.78813865  1
  O  O37  1  0.14063541  0.57122594  0.08623824  1
  O  O38  1  0.85936459  0.42877406  0.91376176  1
  O  O39  1  0.65746418  0.92877406  0.21186135  1
  O  O40  1  0.30969815  0.29753442  0.35932926  1
  O  O41  1  0.14067074  0.20246558  0.19030185  1
  O  O42  1  0.68131925  0.38500142  0.54630678  1
  O  O43  1  0.60723257  0.70246558  0.15686368  1
  O  O44  1  0.42000225  0.44634156  0.19666280  1
  O  O45  1  0.58623824  0.07122594  0.64063541  1
  O  O46  1  0.93367933  0.38500142  0.56869180  1
  O  O47  1  0.95369322  0.11499858  0.81868075  1
  O  O48  1  0.71186135  0.42877406  0.15746418  1
  O  O49  1  0.30333720  0.05365844  0.07999775  1
  O  O50  1  0.86634480  0.55365844  0.14300436  1
  O  O51  1  0.64300436  0.05365844  0.36634480  1
  O  O52  1  0.93130820  0.11499858  0.56632067  1
  O  O53  1  0.65686368  0.20246558  0.10723257  1
