# generated using pymatgen
data_BaLaCl5
_symmetry_space_group_name_H-M   'P 1'
_cell_length_a   9.28484740
_cell_length_b   10.79013703
_cell_length_c   13.45005294
_cell_angle_alpha   78.29644202
_cell_angle_beta   76.87353579
_cell_angle_gamma   71.21904503
_symmetry_Int_Tables_number   1
_chemical_formula_structural   BaLaCl5
_chemical_formula_sum   'Ba6 La6 Cl30'
_cell_volume   1230.05142070
_cell_formula_units_Z   6
loop_
 _symmetry_equiv_pos_site_id
 _symmetry_equiv_pos_as_xyz
  1  'x, y, z'
loop_
 _atom_site_type_symbol
 _atom_site_label
 _atom_site_symmetry_multiplicity
 _atom_site_fract_x
 _atom_site_fract_y
 _atom_site_fract_z
 _atom_site_occupancy
  Ba  Ba0  1  0.22710794  0.19309178  0.55768178  1
  Ba  Ba1  1  0.27654476  0.49876023  0.23064898  1
  Ba  Ba2  1  0.74715974  0.15311252  0.06279347  1
  Ba  Ba3  1  0.25284026  0.84688648  0.93720653  1
  Ba  Ba4  1  0.72345524  0.50123977  0.76935102  1
  Ba  Ba5  1  0.77289206  0.80690822  0.44231822  1
  La  La6  1  0.21640569  0.34985792  0.92196197  1
  La  La7  1  0.25332304  0.66576290  0.57304067  1
  La  La8  1  0.28038745  0.97683473  0.25508008  1
  La  La9  1  0.71961255  0.02316527  0.74491992  1
  La  La10  1  0.74667696  0.33423710  0.42695933  1
  La  La11  1  0.78359431  0.65014208  0.07803803  1
  Cl  Cl12  1  0.01067372  0.10947566  0.39303939  1
  Cl  Cl13  1  0.01713720  0.39350857  0.11685596  1
  Cl  Cl14  1  0.34734493  0.11949651  0.05664474  1
  Cl  Cl15  1  0.34168771  0.19618829  0.29696004  1
  Cl  Cl16  1  0.97845622  0.28215131  0.87699065  1
  Cl  Cl17  1  0.99789991  0.56285051  0.60342235  1
  Cl  Cl18  1  0.03537676  0.00362108  0.15417483  1
  Cl  Cl19  1  0.14710085  0.75024350  0.36954689  1
  Cl  Cl20  1  0.36120877  0.09829455  0.78953142  1
  Cl  Cl21  1  0.38460377  0.42811571  0.45615725  1
  Cl  Cl22  1  0.40566466  0.75076764  0.13379974  1
  Cl  Cl23  1  0.33187371  0.43348759  0.71499136  1
  Cl  Cl24  1  0.66826755  0.47442833  0.01853946  1
  Cl  Cl25  1  0.68120000  0.24069757  0.27366011  1
  Cl  Cl26  1  0.61123813  0.10901631  0.54257895  1
  Cl  Cl27  1  0.38876187  0.89098369  0.45742105  1
  Cl  Cl28  1  0.31880000  0.75930243  0.72633989  1
  Cl  Cl29  1  0.33173245  0.52557167  0.98146054  1
  Cl  Cl30  1  0.66812629  0.56651241  0.28500864  1
  Cl  Cl31  1  0.59433534  0.24923236  0.86620026  1
  Cl  Cl32  1  0.61539623  0.57188429  0.54384275  1
  Cl  Cl33  1  0.63879123  0.90170545  0.21046858  1
  Cl  Cl34  1  0.85289915  0.24975650  0.63045311  1
  Cl  Cl35  1  0.96462324  0.99637892  0.84582517  1
  Cl  Cl36  1  0.00210009  0.43714949  0.39657765  1
  Cl  Cl37  1  0.02154378  0.71784869  0.12300935  1
  Cl  Cl38  1  0.65831229  0.80381171  0.70303996  1
  Cl  Cl39  1  0.65265507  0.88050349  0.94335526  1
  Cl  Cl40  1  0.98286280  0.60649143  0.88314404  1
  Cl  Cl41  1  0.98932628  0.89052434  0.60696061  1
