# generated using pymatgen
data_BaLaI5
_symmetry_space_group_name_H-M   'P 1'
_cell_length_a   8.20681770
_cell_length_b   14.55763592
_cell_length_c   11.22876727
_cell_angle_alpha   90.00000000
_cell_angle_beta   84.61120310
_cell_angle_gamma   90.00000000
_symmetry_Int_Tables_number   1
_chemical_formula_structural   BaLaI5
_chemical_formula_sum   'Ba4 La4 I20'
_cell_volume   1335.59269687
_cell_formula_units_Z   4
loop_
 _symmetry_equiv_pos_site_id
 _symmetry_equiv_pos_as_xyz
  1  'x, y, z'
loop_
 _atom_site_type_symbol
 _atom_site_label
 _atom_site_symmetry_multiplicity
 _atom_site_fract_x
 _atom_site_fract_y
 _atom_site_fract_z
 _atom_site_occupancy
  Ba  Ba0  1  0.05002685  0.04238952  0.81543039  1
  Ba  Ba1  1  0.41439142  0.37760550  0.62217529  1
  Ba  Ba2  1  0.58560858  0.87760550  0.37782471  1
  Ba  Ba3  1  0.94997315  0.54238952  0.18456961  1
  La  La4  1  0.96923320  0.61482002  0.61762938  1
  La  La5  1  0.51459926  0.23081659  0.11713471  1
  La  La6  1  0.48540074  0.73081659  0.88286529  1
  La  La7  1  0.03076680  0.11482002  0.38237062  1
  I  I8  1  0.94953400  0.75724737  0.40634344  1
  I  I9  1  0.13584880  0.50361250  0.82063211  1
  I  I10  1  0.13950075  0.29056129  0.21640409  1
  I  I11  1  0.22023542  0.51648594  0.42215753  1
  I  I12  1  0.33062470  0.22478223  0.87289635  1
  I  I13  1  0.27468270  0.00884445  0.54479194  1
  I  I14  1  0.18937083  0.72212233  0.07399856  1
  I  I15  1  0.34610097  0.73159697  0.62300967  1
  I  I16  1  0.34983404  0.03746828  0.20642127  1
  I  I17  1  0.42548174  0.94014701  0.87620359  1
  I  I18  1  0.57451826  0.44014701  0.12379641  1
  I  I19  1  0.65016596  0.53746828  0.79357873  1
  I  I20  1  0.65389903  0.23159697  0.37699033  1
  I  I21  1  0.81062917  0.22212233  0.92600144  1
  I  I22  1  0.72531730  0.50884445  0.45520806  1
  I  I23  1  0.66937530  0.72478223  0.12710365  1
  I  I24  1  0.77976458  0.01648594  0.57784247  1
  I  I25  1  0.86049925  0.79056129  0.78359591  1
  I  I26  1  0.86415120  0.00361250  0.17936789  1
  I  I27  1  0.05046600  0.25724737  0.59365656  1
