# generated using pymatgen
data_Li4Cr5WO12
_symmetry_space_group_name_H-M   'P 1'
_cell_length_a   5.26668582
_cell_length_b   5.26668607
_cell_length_c   10.35968581
_cell_angle_alpha   87.09625745
_cell_angle_beta   87.09625842
_cell_angle_gamma   120.70369559
_symmetry_Int_Tables_number   1
_chemical_formula_structural   Li4Cr5WO12
_chemical_formula_sum   'Li4 Cr5 W1 O12'
_cell_volume   245.77591680
_cell_formula_units_Z   1
loop_
 _symmetry_equiv_pos_site_id
 _symmetry_equiv_pos_as_xyz
  1  'x, y, z'
loop_
 _atom_site_type_symbol
 _atom_site_label
 _atom_site_symmetry_multiplicity
 _atom_site_fract_x
 _atom_site_fract_y
 _atom_site_fract_z
 _atom_site_occupancy
  Li  Li0  1  0.12331245  0.46028013  0.70922667  1
  Li  Li1  1  0.53971987  0.87668755  0.29077333  1
  Li  Li2  1  0.46028013  0.12331245  0.70922667  1
  Li  Li3  1  0.87668755  0.53971987  0.29077333  1
  Cr  Cr4  1  0.16355163  0.83644837  0.50000000  1
  Cr  Cr5  1  0.33326733  0.66673267  0.00000000  1
  Cr  Cr6  1  0.50000000  0.50000000  0.50000000  1
  Cr  Cr7  1  0.66673267  0.33326733  1.00000000  1
  Cr  Cr8  1  0.83644837  0.16355163  0.50000000  1
  W  W9  1  0.00000000  0.00000000  0.00000000  1
  O  O10  1  0.98476219  0.64679834  0.10020984  1
  O  O11  1  0.35320166  0.01523781  0.89979016  1
  O  O12  1  0.18798367  0.53308306  0.39632978  1
  O  O13  1  0.46691694  0.81201633  0.60367022  1
  O  O14  1  0.15609716  0.15609716  0.60456895  1
  O  O15  1  0.30429929  0.30429929  0.09493955  1
  O  O16  1  0.69570071  0.69570071  0.90506045  1
  O  O17  1  0.84390284  0.84390284  0.39543105  1
  O  O18  1  0.53308306  0.18798367  0.39632978  1
  O  O19  1  0.81201633  0.46691694  0.60367022  1
  O  O20  1  0.64679834  0.98476219  0.10020984  1
  O  O21  1  0.01523781  0.35320166  0.89979016  1
