# generated using pymatgen
data_Mn3Nb2Cr3O16
_symmetry_space_group_name_H-M   'P 1'
_cell_length_a   5.91273305
_cell_length_b   5.91408778
_cell_length_c   9.30526032
_cell_angle_alpha   89.98203710
_cell_angle_beta   89.52858118
_cell_angle_gamma   119.60387032
_symmetry_Int_Tables_number   1
_chemical_formula_structural   Mn3Nb2Cr3O16
_chemical_formula_sum   'Mn3 Nb2 Cr3 O16'
_cell_volume   282.90117158
_cell_formula_units_Z   1
loop_
 _symmetry_equiv_pos_site_id
 _symmetry_equiv_pos_as_xyz
  1  'x, y, z'
loop_
 _atom_site_type_symbol
 _atom_site_label
 _atom_site_symmetry_multiplicity
 _atom_site_fract_x
 _atom_site_fract_y
 _atom_site_fract_z
 _atom_site_occupancy
  Mn  Mn0  1  0.65814566  0.82869824  0.21134978  1
  Mn  Mn1  1  0.82952264  0.66174473  0.71438729  1
  Mn  Mn2  1  0.82932720  0.16742120  0.71435160  1
  Nb  Nb3  1  0.33279589  0.66444958  0.50038514  1
  Nb  Nb4  1  0.66138728  0.33017241  0.99898298  1
  Cr  Cr5  1  0.16316661  0.82433697  0.22066624  1
  Cr  Cr6  1  0.16806076  0.33760262  0.21144055  1
  Cr  Cr7  1  0.33665464  0.16805870  0.71423229  1
  O  O8  1  0.16482783  0.82945047  0.59856980  1
  O  O9  1  0.04759863  0.53204339  0.33815122  1
  O  O10  1  0.33748270  0.67787754  0.10904383  1
  O  O11  1  0.99525089  0.98865271  0.30217787  1
  O  O12  1  0.98899715  0.99426108  0.80964516  1
  O  O13  1  0.16408658  0.33502846  0.59780208  1
  O  O14  1  0.48088349  0.95646600  0.33305540  1
  O  O15  1  0.48481494  0.53122620  0.33353910  1
  O  O16  1  0.33557002  0.16393456  0.09731838  1
  O  O17  1  0.66546769  0.83350957  0.60064411  1
  O  O18  1  0.53070167  0.48616139  0.83517053  1
  O  O19  1  0.53145662  0.04505317  0.83522109  1
  O  O20  1  0.67723218  0.33894632  0.60971959  1
  O  O21  1  0.82999472  0.66065753  0.10031543  1
  O  O22  1  0.95852971  0.47854816  0.82990935  1
  O  O23  1  0.82804550  0.16589700  0.09964120  1
