# generated using pymatgen
data_LaMgI5
_symmetry_space_group_name_H-M   'P 1'
_cell_length_a   10.96242535
_cell_length_b   12.29427130
_cell_length_c   12.61272589
_cell_angle_alpha   90.00000000
_cell_angle_beta   77.86115413
_cell_angle_gamma   90.00000000
_symmetry_Int_Tables_number   1
_chemical_formula_structural   LaMgI5
_chemical_formula_sum   'La4 Mg4 I20'
_cell_volume   1661.87271716
_cell_formula_units_Z   4
loop_
 _symmetry_equiv_pos_site_id
 _symmetry_equiv_pos_as_xyz
  1  'x, y, z'
loop_
 _atom_site_type_symbol
 _atom_site_label
 _atom_site_symmetry_multiplicity
 _atom_site_fract_x
 _atom_site_fract_y
 _atom_site_fract_z
 _atom_site_occupancy
  La  La0  1  0.51095687  0.73861245  0.75275318  1
  La  La1  1  0.48904313  0.23861245  0.74724682  1
  La  La2  1  0.51095687  0.76138755  0.25275318  1
  La  La3  1  0.48904313  0.26138755  0.24724682  1
  Mg  Mg4  1  0.12457489  0.49582928  0.88519732  1
  Mg  Mg5  1  0.12457489  0.00417072  0.38519732  1
  Mg  Mg6  1  0.87542511  0.99582928  0.61480268  1
  Mg  Mg7  1  0.87542511  0.50417072  0.11480268  1
  I  I8  1  0.21832191  0.69139215  0.79484294  1
  I  I9  1  0.19853300  0.29692031  0.79204039  1
  I  I10  1  0.48116316  0.21689768  0.99999315  1
  I  I11  1  0.44508495  0.98688648  0.73167320  1
  I  I12  1  0.86946901  0.50636411  0.89826411  1
  I  I13  1  0.13053099  0.00636411  0.60173589  1
  I  I14  1  0.55491505  0.48688648  0.76832680  1
  I  I15  1  0.21832191  0.80860785  0.29484294  1
  I  I16  1  0.51883684  0.71689768  0.50000685  1
  I  I17  1  0.19853300  0.20307969  0.29204039  1
  I  I18  1  0.80146700  0.79692031  0.70795961  1
  I  I19  1  0.48116316  0.28310232  0.49999315  1
  I  I20  1  0.78167809  0.19139215  0.70515706  1
  I  I21  1  0.44508495  0.51311352  0.23167320  1
  I  I22  1  0.86946901  0.99363589  0.39826411  1
  I  I23  1  0.13053099  0.49363589  0.10173589  1
  I  I24  1  0.55491505  0.01311352  0.26832680  1
  I  I25  1  0.51883684  0.78310232  0.00000685  1
  I  I26  1  0.80146700  0.70307969  0.20795961  1
  I  I27  1  0.78167809  0.30860785  0.20515706  1
