# generated using pymatgen
data_Li4MnCu3O8
_symmetry_space_group_name_H-M   'P 1'
_cell_length_a   10.19519312
_cell_length_b   10.19984201
_cell_length_c   14.40890927
_cell_angle_alpha   19.50716347
_cell_angle_beta   19.51106880
_cell_angle_gamma   33.66641516
_symmetry_Int_Tables_number   1
_chemical_formula_structural   Li4MnCu3O8
_chemical_formula_sum   'Li4 Mn1 Cu3 O8'
_cell_volume   144.34698142
_cell_formula_units_Z   1
loop_
 _symmetry_equiv_pos_site_id
 _symmetry_equiv_pos_as_xyz
  1  'x, y, z'
loop_
 _atom_site_type_symbol
 _atom_site_label
 _atom_site_symmetry_multiplicity
 _atom_site_fract_x
 _atom_site_fract_y
 _atom_site_fract_z
 _atom_site_occupancy
  Li  Li0  1  0.99999747  0.99999875  0.50000270  1
  Li  Li1  1  0.99999888  0.49999896  0.50000127  1
  Li  Li2  1  0.49999906  -0.00000001  0.50000040  1
  Li  Li3  1  0.49999751  0.49999948  0.50000215  1
  Mn  Mn4  1  0.00001763  0.00000851  0.99998113  1
  Cu  Cu5  1  0.99999886  0.49999988  0.00000234  1
  Cu  Cu6  1  0.49999947  -0.00000237  0.00000340  1
  Cu  Cu7  1  0.50000025  0.50000364  0.99999812  1
  O  O8  1  -0.00000713  0.00021036  0.26061528  1
  O  O9  1  0.99737087  0.52993507  0.23842660  1
  O  O10  1  0.52973997  0.99733881  0.23853681  1
  O  O11  1  0.00000470  0.99978944  0.73938629  1
  O  O12  1  0.47013407  0.47021472  0.29505647  1
  O  O13  1  0.00262603  0.47006054  0.76157859  1
  O  O14  1  0.47025796  0.00266035  0.76146497  1
  O  O15  1  0.52986439  0.52978487  0.70494347  1
