# generated using pymatgen
data_Li3V(TeO3)4
_symmetry_space_group_name_H-M   'P 1'
_cell_length_a   6.22886320
_cell_length_b   12.15782662
_cell_length_c   10.64037805
_cell_angle_alpha   26.97315808
_cell_angle_beta   49.04623449
_cell_angle_gamma   51.61484237
_symmetry_Int_Tables_number   1
_chemical_formula_structural   Li3V(TeO3)4
_chemical_formula_sum   'Li3 V1 Te4 O12'
_cell_volume   274.43109120
_cell_formula_units_Z   1
loop_
 _symmetry_equiv_pos_site_id
 _symmetry_equiv_pos_as_xyz
  1  'x, y, z'
loop_
 _atom_site_type_symbol
 _atom_site_label
 _atom_site_symmetry_multiplicity
 _atom_site_fract_x
 _atom_site_fract_y
 _atom_site_fract_z
 _atom_site_occupancy
  Li  Li0  1  0.24085146  0.46730004  0.30639031  1
  Li  Li1  1  0.81335943  0.99203374  0.78569453  1
  Li  Li2  1  0.73212004  0.47715977  0.79773228  1
  V  V3  1  0.33518859  0.00491610  0.28858131  1
  Te  Te4  1  0.02898404  0.01226881  0.97743285  1
  Te  Te5  1  0.99725217  0.49399825  0.00954720  1
  Te  Te6  1  0.47789615  0.94856629  0.56889505  1
  Te  Te7  1  0.54552107  0.53730450  0.41199422  1
  O  O8  1  0.37305756  0.32547789  0.07326882  1
  O  O9  1  0.17419237  0.11558971  0.65620267  1
  O  O10  1  0.06011841  0.31530563  0.73211340  1
  O  O11  1  0.98756373  0.22850372  0.16568791  1
  O  O12  1  0.45154540  0.82503115  0.05034521  1
  O  O13  1  0.72020383  0.33855895  0.40679412  1
  O  O14  1  0.20753015  0.76080637  0.51075847  1
  O  O15  1  0.57670301  0.11443434  0.97724184  1
  O  O16  1  0.14378727  0.90805907  0.63726940  1
  O  O17  1  0.87928365  0.66011341  0.21255850  1
  O  O18  1  0.64286816  0.85241706  0.42398708  1
  O  O19  1  0.54157152  0.62215419  0.93710684  1
