# generated using pymatgen
data_LiVB2O5
_symmetry_space_group_name_H-M   'P 1'
_cell_length_a   7.33112952
_cell_length_b   7.33112952
_cell_length_c   9.82921664
_cell_angle_alpha   69.62785517
_cell_angle_beta   110.37214483
_cell_angle_gamma   89.12023890
_symmetry_Int_Tables_number   1
_chemical_formula_structural   LiVB2O5
_chemical_formula_sum   'Li4 V4 B8 O20'
_cell_volume   458.61910648
_cell_formula_units_Z   4
loop_
 _symmetry_equiv_pos_site_id
 _symmetry_equiv_pos_as_xyz
  1  'x, y, z'
loop_
 _atom_site_type_symbol
 _atom_site_label
 _atom_site_symmetry_multiplicity
 _atom_site_fract_x
 _atom_site_fract_y
 _atom_site_fract_z
 _atom_site_occupancy
  Li  Li0  1  0.16003979  0.16003979  0.75000000  1
  Li  Li1  1  0.62044513  0.62044513  0.75000000  1
  Li  Li2  1  0.37955487  0.37955487  0.25000000  1
  Li  Li3  1  0.83996021  0.83996021  0.25000000  1
  V  V4  1  0.04102083  0.64293220  0.65047616  1
  V  V5  1  0.35706780  0.95897917  0.15047616  1
  V  V6  1  0.64293220  0.04102083  0.84952384  1
  V  V7  1  0.95897917  0.35706780  0.34952384  1
  B  B8  1  0.23892343  0.77249345  0.90356766  1
  B  B9  1  0.26374185  0.40181404  0.97542211  1
  B  B10  1  0.22750655  0.76107657  0.40356766  1
  B  B11  1  0.59818596  0.73625815  0.47542211  1
  B  B12  1  0.40181404  0.26374185  0.52457789  1
  B  B13  1  0.77249345  0.23892343  0.59643234  1
  B  B14  1  0.73625815  0.59818596  0.02457789  1
  B  B15  1  0.76107657  0.22750655  0.09643234  1
  O  O16  1  0.29610542  0.91874476  0.95891381  1
  O  O17  1  0.14553916  0.82452956  0.74684986  1
  O  O18  1  0.08125524  0.70389458  0.45891381  1
  O  O19  1  0.18568264  0.40256624  0.82788434  1
  O  O20  1  0.66566650  0.76395031  0.89050982  1
  O  O21  1  0.17547044  0.85446084  0.24684986  1
  O  O22  1  0.42517086  0.71821453  0.51133313  1
  O  O23  1  0.71821453  0.42517086  0.98866687  1
  O  O24  1  0.59743376  0.81431736  0.32788434  1
  O  O25  1  0.23604969  0.33433350  0.39050982  1
  O  O26  1  0.76395031  0.66566650  0.60949018  1
  O  O27  1  0.40256624  0.18568264  0.67211566  1
  O  O28  1  0.28178547  0.57482914  0.01133313  1
  O  O29  1  0.57482914  0.28178547  0.48866687  1
  O  O30  1  0.82452956  0.14553916  0.75315014  1
  O  O31  1  0.33433350  0.23604969  0.10949018  1
  O  O32  1  0.81431736  0.59743376  0.17211566  1
  O  O33  1  0.91874476  0.29610542  0.54108619  1
  O  O34  1  0.85446084  0.17547044  0.25315014  1
  O  O35  1  0.70389458  0.08125524  0.04108619  1
