# generated using pymatgen
data_Li5Cu3(NiO5)2
_symmetry_space_group_name_H-M   'P 1'
_cell_length_a   4.97920575
_cell_length_b   5.25904150
_cell_length_c   7.48231460
_cell_angle_alpha   105.09079948
_cell_angle_beta   103.26647111
_cell_angle_gamma   103.99056144
_symmetry_Int_Tables_number   1
_chemical_formula_structural   Li5Cu3(NiO5)2
_chemical_formula_sum   'Li5 Cu3 Ni2 O10'
_cell_volume   174.39158188
_cell_formula_units_Z   1
loop_
 _symmetry_equiv_pos_site_id
 _symmetry_equiv_pos_as_xyz
  1  'x, y, z'
loop_
 _atom_site_type_symbol
 _atom_site_label
 _atom_site_symmetry_multiplicity
 _atom_site_fract_x
 _atom_site_fract_y
 _atom_site_fract_z
 _atom_site_occupancy
  Li  Li0  1  0.20837963  0.89714228  0.39894239  1
  Li  Li1  1  0.39629056  0.28065426  0.78580274  1
  Li  Li2  1  0.50000000  0.50000000  0.50000000  1
  Li  Li3  1  0.60370944  0.71934574  0.21419726  1
  Li  Li4  1  0.79162037  0.10285772  0.60105761  1
  Cu  Cu5  1  0.00000000  0.50000000  0.00000000  1
  Cu  Cu6  1  0.69634457  0.88761914  0.89724489  1
  Cu  Cu7  1  0.30365543  0.11238086  0.10275511  1
  Ni  Ni8  1  0.10054880  0.67558377  0.69243971  1
  Ni  Ni9  1  0.89945120  0.32441623  0.30756029  1
  O  O10  1  0.05824632  0.02149453  0.83601431  1
  O  O11  1  0.34048901  0.66843751  0.92425576  1
  O  O12  1  0.12915965  0.33262661  0.54474645  1
  O  O13  1  0.21442227  0.52328418  0.24754019  1
  O  O14  1  0.44363930  0.88024893  0.66317322  1
  O  O15  1  0.55636070  0.11975107  0.33682678  1
  O  O16  1  0.78557773  0.47671582  0.75245981  1
  O  O17  1  0.87084035  0.66737339  0.45525355  1
  O  O18  1  0.65951099  0.33156249  0.07574424  1
  O  O19  1  0.94175368  0.97850547  0.16398569  1
