# generated using pymatgen
data_Li2CoSiO4
_symmetry_space_group_name_H-M   'P 1'
_cell_length_a   10.25565187
_cell_length_b   5.23491298
_cell_length_c   13.39567177
_cell_angle_alpha   90.00000000
_cell_angle_beta   90.00000000
_cell_angle_gamma   90.00000000
_symmetry_Int_Tables_number   1
_chemical_formula_structural   Li2CoSiO4
_chemical_formula_sum   'Li16 Co8 Si8 O32'
_cell_volume   719.17939263
_cell_formula_units_Z   8
loop_
 _symmetry_equiv_pos_site_id
 _symmetry_equiv_pos_as_xyz
  1  'x, y, z'
loop_
 _atom_site_type_symbol
 _atom_site_label
 _atom_site_symmetry_multiplicity
 _atom_site_fract_x
 _atom_site_fract_y
 _atom_site_fract_z
 _atom_site_occupancy
  Li  Li0  1  0.98651547  -0.00000071  0.55325058  1
  Li  Li1  1  0.96890501  0.50044792  0.94686976  1
  Li  Li2  1  0.21358191  0.40676480  0.29922182  1
  Li  Li3  1  0.20681925  0.88666646  0.20540541  1
  Li  Li4  1  0.29318075  0.88666646  0.70540541  1
  Li  Li5  1  0.28641809  0.40676480  0.79922182  1
  Li  Li6  1  0.53109499  0.50044792  0.44686976  1
  Li  Li7  1  0.51348453  -0.00000071  0.05325058  1
  Li  Li8  1  0.46890501  0.49955208  0.94686976  1
  Li  Li9  1  0.48651547  0.00000071  0.55325058  1
  Li  Li10  1  0.71358191  0.59323520  0.29922182  1
  Li  Li11  1  0.70681925  0.11333354  0.20540541  1
  Li  Li12  1  0.79318075  0.11333354  0.70540541  1
  Li  Li13  1  0.78641809  0.59323520  0.79922182  1
  Li  Li14  1  0.03109499  0.49955208  0.44686976  1
  Li  Li15  1  0.01348453  0.00000071  0.05325058  1
  Co  Co16  1  0.03138969  0.99960499  0.81218025  1
  Co  Co17  1  0.21352082  0.50887903  0.06234198  1
  Co  Co18  1  0.28647918  0.50887903  0.56234198  1
  Co  Co19  1  0.46861031  0.99960499  0.31218025  1
  Co  Co20  1  0.53138969  0.00039501  0.81218025  1
  Co  Co21  1  0.71352082  0.49112097  0.06234198  1
  Co  Co22  1  0.78647918  0.49112097  0.56234198  1
  Co  Co23  1  0.96861031  0.00039501  0.31218025  1
  Si  Si24  1  0.03018773  0.50709193  0.69135459  1
  Si  Si25  1  0.21763239  0.00382208  0.43372055  1
  Si  Si26  1  0.28236761  0.00382208  0.93372055  1
  Si  Si27  1  0.46981227  0.50709193  0.19135459  1
  Si  Si28  1  0.53018773  0.49290807  0.69135459  1
  Si  Si29  1  0.71763239  0.99617792  0.43372055  1
  Si  Si30  1  0.78236761  0.99617792  0.93372055  1
  Si  Si31  1  0.96981227  0.49290807  0.19135459  1
  O  O32  1  0.02317619  0.36501966  0.29732591  1
  O  O33  1  0.01341355  0.79825533  0.18981747  1
  O  O34  1  0.07995239  0.84963346  0.41922619  1
  O  O35  1  0.03955727  0.36162859  0.09312608  1
  O  O36  1  0.18950589  0.56539009  0.68995021  1
  O  O37  1  0.22043478  0.06624291  0.82147836  1
  O  O38  1  0.17777754  0.27620161  0.48618447  1
  O  O39  1  0.17494806  0.84056439  0.99862739  1
  O  O40  1  0.32505194  0.84056439  0.49862739  1
  O  O41  1  0.32222246  0.27620161  0.98618447  1
  O  O42  1  0.27956522  0.06624291  0.32147836  1
  O  O43  1  0.31049411  0.56539009  0.18995021  1
  O  O44  1  0.46044273  0.36162859  0.59312608  1
  O  O45  1  0.42004761  0.84963346  0.91922619  1
  O  O46  1  0.48658645  0.79825533  0.68981747  1
  O  O47  1  0.47682381  0.36501966  0.79732591  1
  O  O48  1  0.52317619  0.63498034  0.29732591  1
  O  O49  1  0.51341355  0.20174467  0.18981747  1
  O  O50  1  0.57995239  0.15036654  0.41922619  1
  O  O51  1  0.53955727  0.63837141  0.09312608  1
  O  O52  1  0.68950589  0.43460991  0.68995021  1
  O  O53  1  0.72043478  0.93375709  0.82147836  1
  O  O54  1  0.67777754  0.72379839  0.48618447  1
  O  O55  1  0.67494806  0.15943561  0.99862739  1
  O  O56  1  0.82505194  0.15943561  0.49862739  1
  O  O57  1  0.82222246  0.72379839  0.98618447  1
  O  O58  1  0.77956522  0.93375709  0.32147836  1
  O  O59  1  0.81049411  0.43460991  0.18995021  1
  O  O60  1  0.96044273  0.63837141  0.59312608  1
  O  O61  1  0.92004761  0.15036654  0.91922619  1
  O  O62  1  0.98658645  0.20174467  0.68981747  1
  O  O63  1  0.97682381  0.63498034  0.79732591  1
