# generated using pymatgen
data_LiCr6O11
_symmetry_space_group_name_H-M   'P 1'
_cell_length_a   5.82113936
_cell_length_b   5.82114303
_cell_length_c   12.93740724
_cell_angle_alpha   89.86577191
_cell_angle_beta   89.83233489
_cell_angle_gamma   120.16920361
_symmetry_Int_Tables_number   1
_chemical_formula_structural   LiCr6O11
_chemical_formula_sum   'Li2 Cr12 O22'
_cell_volume   379.00510525
_cell_formula_units_Z   2
loop_
 _symmetry_equiv_pos_site_id
 _symmetry_equiv_pos_as_xyz
  1  'x, y, z'
loop_
 _atom_site_type_symbol
 _atom_site_label
 _atom_site_symmetry_multiplicity
 _atom_site_fract_x
 _atom_site_fract_y
 _atom_site_fract_z
 _atom_site_occupancy
  Li  Li0  1  0.33336460  0.66669492  0.25935390  1
  Li  Li1  1  0.66566005  0.33172180  0.75971218  1
  Cr  Cr2  1  0.99953460  0.49975749  0.99935031  1
  Cr  Cr3  1  0.33335256  0.66646319  0.74937109  1
  Cr  Cr4  1  0.00175332  0.00059603  0.14482265  1
  Cr  Cr5  1  0.99942032  0.99843133  0.35388132  1
  Cr  Cr6  1  0.00072426  0.00191955  0.64490129  1
  Cr  Cr7  1  0.99822793  0.99942138  0.85394903  1
  Cr  Cr8  1  0.49977023  -0.00022110  0.99966053  1
  Cr  Cr9  1  0.49978473  0.49994129  0.99953095  1
  Cr  Cr10  1  0.49989205  0.49977367  0.49964760  1
  Cr  Cr11  1  0.66664940  0.33373845  0.24920799  1
  Cr  Cr12  1  0.49977173  0.99950490  0.49929979  1
  Cr  Cr13  1  -0.00015561  0.49974231  0.49969020  1
  O  O14  1  0.15287916  0.84651546  0.74922275  1
  O  O15  1  0.16848697  0.81740701  0.42021089  1
  O  O16  1  0.18207374  0.83225044  0.07772604  1
  O  O17  1  0.33163737  0.66368021  0.58685250  1
  O  O18  1  0.33578371  0.66838857  0.91202257  1
  O  O19  1  0.17796208  0.35566846  0.41852212  1
  O  O20  1  0.15293070  0.30566562  0.74994056  1
  O  O21  1  0.18076332  0.34560903  0.07532343  1
  O  O22  1  0.30590372  0.15330367  0.24975138  1
  O  O23  1  0.64862637  0.82488416  0.07815036  1
  O  O24  1  0.64933712  0.81727564  0.42061705  1
  O  O25  1  0.35529504  0.17703623  0.91859008  1
  O  O26  1  0.34767505  0.18166383  0.57639161  1
  O  O27  1  0.69405965  0.84674125  0.74882361  1
  O  O28  1  0.81816036  0.65127212  0.92166922  1
  O  O29  1  0.66388355  0.33139983  0.08685338  1
  O  O30  1  0.66824507  0.33605296  0.41199726  1
  O  O31  1  0.84712695  0.69441042  0.24863282  1
  O  O32  1  0.82408084  0.64842780  0.57824710  1
  O  O33  1  0.83346266  0.18156079  0.57680417  1
  O  O34  1  0.81677899  0.16976745  0.91927860  1
  O  O35  1  0.84710743  0.15357483  0.24931070  1
