# generated using pymatgen
data_Li6Fe(BO3)3
_symmetry_space_group_name_H-M   'P 1'
_cell_length_a   7.03248992
_cell_length_b   16.50047500
_cell_length_c   6.43980872
_cell_angle_alpha   90.00000000
_cell_angle_beta   103.88013712
_cell_angle_gamma   90.00000000
_symmetry_Int_Tables_number   1
_chemical_formula_structural   Li6Fe(BO3)3
_chemical_formula_sum   'Li24 Fe4 B12 O36'
_cell_volume   725.45114054
_cell_formula_units_Z   4
loop_
 _symmetry_equiv_pos_site_id
 _symmetry_equiv_pos_as_xyz
  1  'x, y, z'
loop_
 _atom_site_type_symbol
 _atom_site_label
 _atom_site_symmetry_multiplicity
 _atom_site_fract_x
 _atom_site_fract_y
 _atom_site_fract_z
 _atom_site_occupancy
  Li  Li0  1  0.06919154  0.99554527  0.67914176  1
  Li  Li1  1  0.13637384  0.55447351  0.59434360  1
  Li  Li2  1  0.06919154  0.50445473  0.17914176  1
  Li  Li3  1  0.30429787  0.46189659  0.94543266  1
  Li  Li4  1  0.13637384  0.94552649  0.09434360  1
  Li  Li5  1  0.27122978  0.70664198  0.63416801  1
  Li  Li6  1  0.30429787  0.03810341  0.44543266  1
  Li  Li7  1  0.41180892  0.29361207  0.95040599  1
  Li  Li8  1  0.45758958  0.96904715  0.82889876  1
  Li  Li9  1  0.27122978  0.79335802  0.13416801  1
  Li  Li10  1  0.41180892  0.20638793  0.45040599  1
  Li  Li11  1  0.45758958  0.53095285  0.32889876  1
  Li  Li12  1  0.54241042  0.46904715  0.67110124  1
  Li  Li13  1  0.58819108  0.79361207  0.54959401  1
  Li  Li14  1  0.72877022  0.20664198  0.86583199  1
  Li  Li15  1  0.54241042  0.03095285  0.17110124  1
  Li  Li16  1  0.58819108  0.70638793  0.04959401  1
  Li  Li17  1  0.69570213  0.96189659  0.55456734  1
  Li  Li18  1  0.72877022  0.29335802  0.36583199  1
  Li  Li19  1  0.86362616  0.05447351  0.90565640  1
  Li  Li20  1  0.69570213  0.53810341  0.05456734  1
  Li  Li21  1  0.93080846  0.49554527  0.82085824  1
  Li  Li22  1  0.86362616  0.44552649  0.40565640  1
  Li  Li23  1  0.93080846  0.00445473  0.32085824  1
  Fe  Fe24  1  0.07494408  0.18333952  0.66869657  1
  Fe  Fe25  1  0.07494408  0.31666048  0.16869657  1
  Fe  Fe26  1  0.92505592  0.68333952  0.83130343  1
  Fe  Fe27  1  0.92505592  0.81666048  0.33130343  1
  B  B28  1  0.08199262  0.36304945  0.65589598  1
  B  B29  1  0.08199262  0.13695055  0.15589598  1
  B  B30  1  0.27957325  0.87546263  0.49931259  1
  B  B31  1  0.43100138  0.11762555  0.81094339  1
  B  B32  1  0.27957325  0.62453737  0.99931259  1
  B  B33  1  0.43100138  0.38237445  0.31094339  1
  B  B34  1  0.56899862  0.61762555  0.68905661  1
  B  B35  1  0.72042675  0.37546263  0.00068741  1
  B  B36  1  0.56899862  0.88237445  0.18905661  1
  B  B37  1  0.72042675  0.12453737  0.50068741  1
  B  B38  1  0.91800738  0.86304945  0.84410402  1
  B  B39  1  0.91800738  0.63695055  0.34410402  1
  O  O40  1  0.99089033  0.66620444  0.55124592  1
  O  O41  1  0.11350085  0.57616443  0.95657542  1
  O  O42  1  0.10154782  0.44549249  0.68026371  1
  O  O43  1  0.11841229  0.30855446  0.82535102  1
  O  O44  1  0.99089033  0.83379556  0.05124592  1
  O  O45  1  0.11350085  0.92383557  0.45657542  1
  O  O46  1  0.24158810  0.70502937  0.93943236  1
  O  O47  1  0.10154782  0.05450751  0.18026371  1
  O  O48  1  0.11841229  0.19144554  0.32535102  1
  O  O49  1  0.27185422  0.06761602  0.73250674  1
  O  O50  1  0.24158810  0.79497063  0.43943236  1
  O  O51  1  0.27185422  0.43238398  0.23250674  1
  O  O52  1  0.39588153  0.19933864  0.76427421  1
  O  O53  1  0.39495861  0.58484353  0.57606676  1
  O  O54  1  0.53687029  0.40605062  0.91604091  1
  O  O55  1  0.46312971  0.90605062  0.58395909  1
  O  O56  1  0.39588153  0.30066136  0.26427421  1
  O  O57  1  0.60504139  0.08484353  0.92393324  1
  O  O58  1  0.39495861  0.91515647  0.07606676  1
  O  O59  1  0.60411847  0.69933864  0.73572579  1
  O  O60  1  0.53687029  0.09394938  0.41604091  1
  O  O61  1  0.46312971  0.59394938  0.08395909  1
  O  O62  1  0.60504139  0.41515647  0.42393324  1
  O  O63  1  0.60411847  0.80066136  0.23572579  1
  O  O64  1  0.72814578  0.56761602  0.76749326  1
  O  O65  1  0.75841190  0.20502937  0.56056764  1
  O  O66  1  0.72814578  0.93238398  0.26749326  1
  O  O67  1  0.88158771  0.80855446  0.67464898  1
  O  O68  1  0.89845218  0.94549249  0.81973629  1
  O  O69  1  0.75841190  0.29497063  0.06056764  1
  O  O70  1  0.88649915  0.07616443  0.54342458  1
  O  O71  1  0.00910967  0.16620444  0.94875408  1
  O  O72  1  0.88158771  0.69144554  0.17464898  1
  O  O73  1  0.89845218  0.55450751  0.31973629  1
  O  O74  1  0.88649915  0.42383557  0.04342458  1
  O  O75  1  0.00910967  0.33379556  0.44875408  1
