# generated using pymatgen
data_Li2MnBPO7
_symmetry_space_group_name_H-M   'P 1'
_cell_length_a   8.64763739
_cell_length_b   6.21993538
_cell_length_c   5.09633845
_cell_angle_alpha   90.00000000
_cell_angle_beta   86.87356592
_cell_angle_gamma   90.00000000
_symmetry_Int_Tables_number   1
_chemical_formula_structural   Li2MnBPO7
_chemical_formula_sum   'Li4 Mn2 B2 P2 O14'
_cell_volume   273.71255961
_cell_formula_units_Z   2
loop_
 _symmetry_equiv_pos_site_id
 _symmetry_equiv_pos_as_xyz
  1  'x, y, z'
loop_
 _atom_site_type_symbol
 _atom_site_label
 _atom_site_symmetry_multiplicity
 _atom_site_fract_x
 _atom_site_fract_y
 _atom_site_fract_z
 _atom_site_occupancy
  Li  Li0  1  0.20397215  0.51578547  0.23306748  1
  Li  Li1  1  0.20397215  0.98421453  0.23306748  1
  Li  Li2  1  0.79602785  0.48421453  0.76693252  1
  Li  Li3  1  0.79602785  0.01578547  0.76693252  1
  Mn  Mn4  1  0.33521500  0.75000000  0.78496288  1
  Mn  Mn5  1  0.66478500  0.25000000  0.21503712  1
  B  B6  1  0.05947687  0.75000000  0.73396679  1
  B  B7  1  0.94052313  0.25000000  0.26603321  1
  P  P8  1  0.42955400  0.25000000  0.71936022  1
  P  P9  1  0.57044600  0.75000000  0.28063978  1
  O  O10  1  0.09155597  0.25000000  0.29290376  1
  O  O11  1  0.13483952  0.75000000  0.97317853  1
  O  O12  1  0.17818123  0.75000000  0.52956542  1
  O  O13  1  0.32634006  0.05712742  0.80527370  1
  O  O14  1  0.32634006  0.44287258  0.80527370  1
  O  O15  1  0.41492554  0.75000000  0.14529978  1
  O  O16  1  0.46597099  0.25000000  0.41797789  1
  O  O17  1  0.53402901  0.75000000  0.58202211  1
  O  O18  1  0.58507446  0.25000000  0.85470022  1
  O  O19  1  0.67365994  0.55712742  0.19472630  1
  O  O20  1  0.67365994  0.94287258  0.19472630  1
  O  O21  1  0.82181877  0.25000000  0.47043458  1
  O  O22  1  0.86516048  0.25000000  0.02682147  1
  O  O23  1  0.90844403  0.75000000  0.70709624  1
