# generated using pymatgen
data_Dy2W2O9
_symmetry_space_group_name_H-M   'P 1'
_cell_length_a   7.41321327
_cell_length_b   7.11878250
_cell_length_c   6.72517380
_cell_angle_alpha   97.05816104
_cell_angle_beta   95.20045606
_cell_angle_gamma   70.34764470
_symmetry_Int_Tables_number   1
_chemical_formula_structural   Dy2W2O9
_chemical_formula_sum   'Dy4 W4 O18'
_cell_volume   331.23981308
_cell_formula_units_Z   2
loop_
 _symmetry_equiv_pos_site_id
 _symmetry_equiv_pos_as_xyz
  1  'x, y, z'
loop_
 _atom_site_type_symbol
 _atom_site_label
 _atom_site_symmetry_multiplicity
 _atom_site_fract_x
 _atom_site_fract_y
 _atom_site_fract_z
 _atom_site_occupancy
  Dy  Dy0  1  0.15486071  0.25931589  0.84763871  1
  Dy  Dy1  1  0.37824754  0.28248673  0.38358723  1
  Dy  Dy2  1  0.62175246  0.71751327  0.61641277  1
  Dy  Dy3  1  0.84513929  0.74068411  0.15236129  1
  W  W4  1  0.05688855  0.73447665  0.72885879  1
  W  W5  1  0.36621970  0.79124708  0.15877946  1
  W  W6  1  0.63378030  0.20875292  0.84122054  1
  W  W7  1  0.94311145  0.26552335  0.27114121  1
  O  O8  1  0.09416335  0.23054513  0.50512783  1
  O  O9  1  0.20981674  0.06753230  0.14449739  1
  O  O10  1  0.09140860  0.42899708  0.18468055  1
  O  O11  1  0.24867981  0.49638455  0.66734575  1
  O  O12  1  0.14079004  0.73371706  0.03522083  1
  O  O13  1  0.16886351  0.92924755  0.73621310  1
  O  O14  1  0.46298906  0.08665789  0.68420191  1
  O  O15  1  0.37835844  0.63945455  0.36582304  1
  O  O16  1  0.46214362  0.30381886  0.04028738  1
  O  O17  1  0.53785638  0.69618114  0.95971262  1
  O  O18  1  0.62164156  0.36054545  0.63417696  1
  O  O19  1  0.53701094  0.91334211  0.31579809  1
  O  O20  1  0.83113649  0.07075245  0.26378690  1
  O  O21  1  0.85920996  0.26628294  0.96477917  1
  O  O22  1  0.75132019  0.50361545  0.33265425  1
  O  O23  1  0.90859140  0.57100292  0.81531945  1
  O  O24  1  0.79018326  0.93246770  0.85550261  1
  O  O25  1  0.90583665  0.76945487  0.49487217  1
