# generated using pymatgen
data_Li4Co5CuO12
_symmetry_space_group_name_H-M   'P 1'
_cell_length_a   4.93338354
_cell_length_b   4.92044452
_cell_length_c   9.92282363
_cell_angle_alpha   90.46992730
_cell_angle_beta   90.92771645
_cell_angle_gamma   59.92831250
_symmetry_Int_Tables_number   1
_chemical_formula_structural   Li4Co5CuO12
_chemical_formula_sum   'Li4 Co5 Cu1 O12'
_cell_volume   208.42221830
_cell_formula_units_Z   1
loop_
 _symmetry_equiv_pos_site_id
 _symmetry_equiv_pos_as_xyz
  1  'x, y, z'
loop_
 _atom_site_type_symbol
 _atom_site_label
 _atom_site_symmetry_multiplicity
 _atom_site_fract_x
 _atom_site_fract_y
 _atom_site_fract_z
 _atom_site_occupancy
  Li  Li0  1  0.16927094  0.49080360  0.74807134  1
  Li  Li1  1  0.33462284  0.50426995  0.25134210  1
  Li  Li2  1  0.66715594  0.49490704  0.74865948  1
  Li  Li3  1  0.83736342  0.49872875  0.25145854  1
  Co  Co4  1  0.16775258  0.66887423  0.50033794  1
  Co  Co5  1  0.66438005  0.67011940  0.99964882  1
  Co  Co6  1  0.33467656  0.32983553  0.99994750  1
  Co  Co7  1  0.83813076  0.32827499  0.49997341  1
  Co  Co8  1  0.50304767  0.99845900  0.49998065  1
  Cu  Cu9  1  0.99953488  0.99976964  0.99961030  1
  O  O10  1  0.00893148  0.65065933  0.10465637  1
  O  O11  1  0.34003917  0.64949389  0.89471967  1
  O  O12  1  0.16823133  0.33441444  0.39832563  1
  O  O13  1  0.50347084  0.66321493  0.39837573  1
  O  O14  1  0.50232594  0.33353606  0.60174650  1
  O  O15  1  0.17962234  0.99917904  0.59732540  1
  O  O16  1  0.83742894  0.66278949  0.60186888  1
  O  O17  1  0.65936425  0.34996458  0.10471229  1
  O  O18  1  0.33376530  0.99964001  0.09720237  1
  O  O19  1  0.99038574  0.34911865  0.89499040  1
  O  O20  1  0.66483390  0.00044725  0.90218210  1
  O  O21  1  0.82673414  0.99805519  0.40289857  1
