# generated using pymatgen
data_Li6MnV3(PO4)6
_symmetry_space_group_name_H-M   'P 1'
_cell_length_a   10.26447505
_cell_length_b   10.26447448
_cell_length_c   10.16819770
_cell_angle_alpha   109.28132844
_cell_angle_beta   109.28133168
_cell_angle_gamma   109.66044415
_symmetry_Int_Tables_number   1
_chemical_formula_structural   Li6MnV3(PO4)6
_chemical_formula_sum   'Li12 Mn2 V6 P12 O48'
_cell_volume   826.62388531
_cell_formula_units_Z   2
loop_
 _symmetry_equiv_pos_site_id
 _symmetry_equiv_pos_as_xyz
  1  'x, y, z'
loop_
 _atom_site_type_symbol
 _atom_site_label
 _atom_site_symmetry_multiplicity
 _atom_site_fract_x
 _atom_site_fract_y
 _atom_site_fract_z
 _atom_site_occupancy
  Li  Li0  1  0.25356527  0.87678264  0.62678264  1
  Li  Li1  1  0.12609628  0.37390372  0.75000000  1
  Li  Li2  1  0.12609628  0.25219256  0.37609628  1
  Li  Li3  1  0.62321736  0.87678264  0.75000000  1
  Li  Li4  1  0.37678264  0.75356527  0.12678264  1
  Li  Li5  1  0.24780744  0.37390372  0.12390372  1
  Li  Li6  1  0.75219256  0.62609628  0.87609628  1
  Li  Li7  1  0.62321736  0.24643473  0.87321736  1
  Li  Li8  1  0.37678264  0.12321736  0.25000000  1
  Li  Li9  1  0.87390372  0.74780744  0.62390372  1
  Li  Li10  1  0.87390372  0.62609628  0.25000000  1
  Li  Li11  1  0.74643473  0.12321736  0.37321736  1
  Mn  Mn12  1  0.50000000  0.00000000  0.50000000  1
  Mn  Mn13  1  0.50000000  0.00000000  0.00000000  1
  V  V14  1  0.00000000  0.50000000  0.50000000  1
  V  V15  1  0.00000000  0.00000000  0.50000000  1
  V  V16  1  0.00000000  0.50000000  0.00000000  1
  V  V17  1  0.00000000  0.00000000  0.00000000  1
  V  V18  1  0.50000000  0.50000000  0.50000000  1
  V  V19  1  0.50000000  0.50000000  0.00000000  1
  P  P20  1  0.12411511  0.75057012  0.87602653  1
  P  P21  1  0.12411511  0.87354498  0.24808758  1
  P  P22  1  0.37354498  0.62411511  0.74808758  1
  P  P23  1  0.25057012  0.62411511  0.37602653  1
  P  P24  1  0.25057012  0.12645502  0.87454260  1
  P  P25  1  0.37354498  0.24942988  0.62545740  1
  P  P26  1  0.62645502  0.75057012  0.37454260  1
  P  P27  1  0.74942988  0.37588489  0.62397347  1
  P  P28  1  0.74942988  0.87354498  0.12545740  1
  P  P29  1  0.62645502  0.37588489  0.25191242  1
  P  P30  1  0.87588489  0.12645502  0.75191242  1
  P  P31  1  0.87588489  0.24942988  0.12397347  1
  O  O32  1  0.10919424  0.99569937  0.70031503  1
  O  O33  1  0.11349487  0.60919424  0.90887921  1
  O  O34  1  0.00781654  0.29962895  0.89014711  1
  O  O35  1  0.08983629  0.70692253  0.70134174  1
  O  O36  1  0.08983629  0.88291376  0.38849455  1
  O  O37  1  0.10919424  0.61349487  0.40887921  1
  O  O38  1  0.20037105  0.49218346  0.60985289  1
  O  O39  1  0.40755115  0.79472681  0.78723092  1
  O  O40  1  0.38291376  0.58983629  0.88849455  1
  O  O41  1  0.29181241  0.29962895  0.90948084  1
  O  O42  1  0.29472681  0.90755115  0.28723092  1
  O  O43  1  0.00781654  0.20818759  0.11766843  1
  O  O44  1  0.20037105  0.20818759  0.59051916  1
  O  O45  1  0.20692253  0.58983629  0.20134174  1
  O  O46  1  0.38717566  0.79472681  0.50749588  1
  O  O47  1  0.29181241  0.49218346  0.38233157  1
  O  O48  1  0.29472681  0.88717566  0.00749588  1
  O  O49  1  0.11349487  0.00430063  0.20461567  1
  O  O50  1  0.50430063  0.61349487  0.70461567  1
  O  O51  1  0.38717566  0.09244885  0.87967977  1
  O  O52  1  0.50430063  0.39080576  0.79968497  1
  O  O53  1  0.38291376  0.29307747  0.49441921  1
  O  O54  1  0.59244885  0.88717566  0.37967977  1
  O  O55  1  0.20692253  0.11708624  0.00558079  1
  O  O56  1  0.79307747  0.88291376  0.99441921  1
  O  O57  1  0.40755115  0.11282434  0.62032023  1
  O  O58  1  0.61708624  0.70692253  0.50558079  1
  O  O59  1  0.49569937  0.60919424  0.20031503  1
  O  O60  1  0.61282434  0.90755115  0.12032023  1
  O  O61  1  0.49569937  0.38650513  0.29538433  1
  O  O62  1  0.88650513  0.99569937  0.79538433  1
  O  O63  1  0.70527319  0.11282434  0.99250412  1
  O  O64  1  0.70818759  0.50781654  0.61766843  1
  O  O65  1  0.61282434  0.20527319  0.49250412  1
  O  O66  1  0.79307747  0.41016371  0.79865826  1
  O  O67  1  0.79962895  0.79181241  0.40948084  1
  O  O68  1  0.99218346  0.79181241  0.88233157  1
  O  O69  1  0.70527319  0.09244885  0.71276908  1
  O  O70  1  0.70818759  0.70037105  0.09051916  1
  O  O71  1  0.61708624  0.41016371  0.11150545  1
  O  O72  1  0.59244885  0.20527319  0.21276908  1
  O  O73  1  0.79962895  0.50781654  0.39014711  1
  O  O74  1  0.89080576  0.38650513  0.59112079  1
  O  O75  1  0.91016371  0.11708624  0.61150545  1
  O  O76  1  0.91016371  0.29307747  0.29865826  1
  O  O77  1  0.99218346  0.70037105  0.10985289  1
  O  O78  1  0.88650513  0.39080576  0.09112079  1
  O  O79  1  0.89080576  0.00430063  0.29968497  1
