# generated using pymatgen
data_LiY3WO8
_symmetry_space_group_name_H-M   'P 1'
_cell_length_a   6.36047653
_cell_length_b   6.18732455
_cell_length_c   12.56059992
_cell_angle_alpha   140.51607989
_cell_angle_beta   141.07741397
_cell_angle_gamma   56.53863943
_symmetry_Int_Tables_number   1
_chemical_formula_structural   LiY3WO8
_chemical_formula_sum   'Li1 Y3 W1 O8'
_cell_volume   195.97856483
_cell_formula_units_Z   1
loop_
 _symmetry_equiv_pos_site_id
 _symmetry_equiv_pos_as_xyz
  1  'x, y, z'
loop_
 _atom_site_type_symbol
 _atom_site_label
 _atom_site_symmetry_multiplicity
 _atom_site_fract_x
 _atom_site_fract_y
 _atom_site_fract_z
 _atom_site_occupancy
  Li  Li0  1  0.25367684  0.75366899  0.25366004  1
  Y  Y1  1  0.00895504  0.00891849  0.50893629  1
  Y  Y2  1  0.74116792  0.24118035  0.74116204  1
  Y  Y3  1  0.74178398  0.24180669  0.24180617  1
  W  W4  1  0.00786160  0.00786751  0.00786691  1
  O  O5  1  0.58074276  0.03565770  0.77698695  1
  O  O6  1  0.19272366  0.14737664  0.47148212  1
  O  O7  1  0.97334032  0.51830471  0.77704375  1
  O  O8  1  0.49112148  0.03271181  0.22881379  1
  O  O9  1  0.17740768  0.23082990  0.02098449  1
  O  O10  1  0.75033719  0.79558963  0.47153154  1
  O  O11  1  0.96644257  0.42491283  0.22878404  1
  O  O12  1  0.86443797  0.81117475  0.02094187  1
