# generated using pymatgen
data_Li2V3O7
_symmetry_space_group_name_H-M   'P 1'
_cell_length_a   10.58557706
_cell_length_b   10.58557329
_cell_length_c   9.52925447
_cell_angle_alpha   90.00069613
_cell_angle_beta   89.99969148
_cell_angle_gamma   120.00024447
_symmetry_Int_Tables_number   1
_chemical_formula_structural   Li2V3O7
_chemical_formula_sum   'Li12 V18 O42'
_cell_volume   924.73523929
_cell_formula_units_Z   6
loop_
 _symmetry_equiv_pos_site_id
 _symmetry_equiv_pos_as_xyz
  1  'x, y, z'
loop_
 _atom_site_type_symbol
 _atom_site_label
 _atom_site_symmetry_multiplicity
 _atom_site_fract_x
 _atom_site_fract_y
 _atom_site_fract_z
 _atom_site_occupancy
  Li  Li0  1  0.05047016  0.52122447  0.33527711  1
  Li  Li1  1  0.47076612  0.94954662  0.33527236  1
  Li  Li2  1  0.33332380  0.66667820  0.67467393  1
  Li  Li3  1  0.33332028  0.66667635  0.03456416  1
  Li  Li4  1  0.00000025  0.00000618  0.10841213  1
  Li  Li5  1  0.00000103  0.00000717  0.60841144  1
  Li  Li6  1  0.47876797  0.52924394  0.33527937  1
  Li  Li7  1  0.52923225  0.47877686  0.83527329  1
  Li  Li8  1  0.52122790  0.05047478  0.83527811  1
  Li  Li9  1  0.66667708  0.33335377  0.17467388  1
  Li  Li10  1  0.66667919  0.33335517  0.53456385  1
  Li  Li11  1  0.94952955  0.47075430  0.83527626  1
  V  V12  1  0.12653096  0.79461895  0.19921877  1
  V  V13  1  0.16219423  0.83905406  0.85123466  1
  V  V14  1  0.20425620  0.87291485  0.50520559  1
  V  V15  1  0.12708637  0.33134874  0.50521062  1
  V  V16  1  0.16094849  0.32314423  0.85124110  1
  V  V17  1  0.20538046  0.33191210  0.19922444  1
  V  V18  1  0.33191331  0.20538396  0.69922007  1
  V  V19  1  0.32313885  0.16094616  0.35123782  1
  V  V20  1  0.66808603  0.87347096  0.19922043  1
  V  V21  1  0.33134819  0.12708999  0.00520683  1
  V  V22  1  0.67686285  0.83780815  0.85123522  1
  V  V23  1  0.66865413  0.79574239  0.50520545  1
  V  V24  1  0.79574446  0.66865938  0.00520570  1
  V  V25  1  0.83780606  0.67685988  0.35123312  1
  V  V26  1  0.87346753  0.66808648  0.69921691  1
  V  V27  1  0.79461859  0.12653025  0.69922383  1
  V  V28  1  0.83905157  0.16219542  0.35124045  1
  V  V29  1  0.87291431  0.20426306  0.00521052  1
  O  O30  1  0.06943499  0.83326656  0.67019721  1
  O  O31  1  0.04346706  0.72612683  0.39040494  1
  O  O32  1  0.17309089  0.92807933  0.03389861  1
  O  O33  1  0.27649956  0.95447030  0.31246127  1
  O  O34  1  0.15789995  0.65725227  0.16073118  1
  O  O35  1  0.25079726  0.74741662  0.85059197  1
  O  O36  1  0.04552853  0.32202891  0.31246465  1
  O  O37  1  0.33567329  0.83619977  0.54861812  1
  O  O38  1  0.16379312  0.49948272  0.54861389  1
  O  O39  1  0.07192104  0.24500860  0.03390356  1
  O  O40  1  0.25258843  0.50338534  0.85060100  1
  O  O41  1  0.16673746  0.23617882  0.67020108  1
  O  O42  1  0.34274656  0.50064906  0.16074409  1
  O  O43  1  0.49934837  0.84210030  0.16074009  1
  O  O44  1  0.27386895  0.31733898  0.39041164  1
  O  O45  1  0.49662128  0.74921090  0.85059028  1
  O  O46  1  0.23616681  0.16673017  0.17019934  1
  O  O47  1  0.31734365  0.27387653  0.89041081  1
  O  O48  1  0.50051714  0.66432199  0.54860561  1
  O  O49  1  0.24500386  0.07192199  0.53390054  1
  O  O50  1  0.68265844  0.95653342  0.39041054  1
  O  O51  1  0.32202675  0.04553152  0.81245954  1
  O  O52  1  0.76383317  0.93056270  0.67019917  1
  O  O53  1  0.50065033  0.34275068  0.66073981  1
  O  O54  1  0.67797410  0.72350512  0.31245869  1
  O  O55  1  0.75499476  0.82691701  0.03390044  1
  O  O56  1  0.50337930  0.25258938  0.35059149  1
  O  O57  1  0.72350106  0.67797122  0.81246076  1
  O  O58  1  0.49948425  0.16380511  0.04860710  1
  O  O59  1  0.66432581  0.50052593  0.04861775  1
  O  O60  1  0.82691044  0.75498959  0.53389789  1
  O  O61  1  0.74920129  0.49661860  0.35059204  1
  O  O62  1  0.93056453  0.76383238  0.17019681  1
  O  O63  1  0.84209911  0.49935038  0.66073091  1
  O  O64  1  0.65725384  0.15790141  0.66074370  1
  O  O65  1  0.95653179  0.68265899  0.89040477  1
  O  O66  1  0.74741284  0.25079639  0.35060008  1
  O  O67  1  0.83620580  0.33568777  0.04861371  1
  O  O68  1  0.72613368  0.04346969  0.89041162  1
  O  O69  1  0.83326302  0.06944133  0.17020038  1
  O  O70  1  0.95447302  0.27650102  0.81246444  1
  O  O71  1  0.92808030  0.17308756  0.53390310  1
