# generated using pymatgen
data_Li2Fe3CuO8
_symmetry_space_group_name_H-M   'P 1'
_cell_length_a   8.37760686
_cell_length_b   8.41644467
_cell_length_c   8.30721598
_cell_angle_alpha   89.84301368
_cell_angle_beta   90.05864758
_cell_angle_gamma   90.01071349
_symmetry_Int_Tables_number   1
_chemical_formula_structural   Li2Fe3CuO8
_chemical_formula_sum   'Li8 Fe12 Cu4 O32'
_cell_volume   585.73649672
_cell_formula_units_Z   4
loop_
 _symmetry_equiv_pos_site_id
 _symmetry_equiv_pos_as_xyz
  1  'x, y, z'
loop_
 _atom_site_type_symbol
 _atom_site_label
 _atom_site_symmetry_multiplicity
 _atom_site_fract_x
 _atom_site_fract_y
 _atom_site_fract_z
 _atom_site_occupancy
  Li  Li0  1  0.12114972  0.87623956  0.37639260  1
  Li  Li1  1  0.24934885  0.75295415  0.74768870  1
  Li  Li2  1  0.24915653  0.24999813  0.24699972  1
  Li  Li3  1  0.37799584  0.12174862  0.87856035  1
  Li  Li4  1  0.62390240  0.62313611  0.62170413  1
  Li  Li5  1  0.75087937  0.74894074  0.25018531  1
  Li  Li6  1  0.75152126  0.25212063  0.75079730  1
  Li  Li7  1  0.87698599  0.37872774  0.12299160  1
  Fe  Fe8  1  0.12216135  0.62423140  0.12227580  1
  Fe  Fe9  1  0.12161108  0.37639009  0.88002105  1
  Fe  Fe10  1  0.12362623  0.11964057  0.62421710  1
  Fe  Fe11  1  0.37551342  0.87918039  0.12192340  1
  Fe  Fe12  1  0.37594557  0.62259134  0.37828425  1
  Fe  Fe13  1  0.37901498  0.37626528  0.62393184  1
  Fe  Fe14  1  0.62068619  0.87540141  0.87767158  1
  Fe  Fe15  1  0.62254213  0.12376805  0.12049709  1
  Fe  Fe16  1  0.62540111  0.38089439  0.37658559  1
  Fe  Fe17  1  0.87798692  0.62160848  0.87760260  1
  Fe  Fe18  1  0.87809681  0.87540712  0.62087874  1
  Fe  Fe19  1  0.88019027  0.12365088  0.37556477  1
  Cu  Cu20  1  0.99682193  0.50216418  0.49911228  1
  Cu  Cu21  1  0.50544221  0.49730586  0.99564435  1
  Cu  Cu22  1  0.49493699  0.99603674  0.50420540  1
  Cu  Cu23  1  0.00278063  0.00093332  0.00348519  1
  O  O24  1  0.10357518  0.12613647  0.38607808  1
  O  O25  1  0.10685850  0.89318242  0.62864869  1
  O  O26  1  0.11282747  0.61630230  0.88382991  1
  O  O27  1  0.12598870  0.39780027  0.10672130  1
  O  O28  1  0.11987710  0.14501761  0.86963392  1
  O  O29  1  0.13275507  0.36439549  0.64012669  1
  O  O30  1  0.13857362  0.61945926  0.35616975  1
  O  O31  1  0.13884034  0.85488582  0.11850232  1
  O  O32  1  0.35732044  0.13648522  0.62007273  1
  O  O33  1  0.36153763  0.38228142  0.86124764  1
  O  O34  1  0.36154012  0.63289470  0.13772841  1
  O  O35  1  0.37836053  0.85284675  0.36366355  1
  O  O36  1  0.37166071  0.61181877  0.60063535  1
  O  O37  1  0.38214787  0.39030444  0.38289717  1
  O  O38  1  0.39316342  0.10630929  0.12960323  1
  O  O39  1  0.39527456  0.87108687  0.88779116  1
  O  O40  1  0.60903588  0.37434605  0.60423864  1
  O  O41  1  0.60348935  0.60883412  0.37161700  1
  O  O42  1  0.61586880  0.88280331  0.11329480  1
  O  O43  1  0.62700611  0.11207507  0.89652446  1
  O  O44  1  0.62390997  0.36157073  0.14101767  1
  O  O45  1  0.63850601  0.13380236  0.36192748  1
  O  O46  1  0.63982998  0.87901501  0.64295498  1
  O  O47  1  0.64768899  0.63306086  0.88226850  1
  O  O48  1  0.86064745  0.36334325  0.37757084  1
  O  O49  1  0.86079508  0.12133844  0.13916277  1
  O  O50  1  0.86385345  0.85954163  0.86481501  1
  O  O51  1  0.88004160  0.64090471  0.63994010  1
  O  O52  1  0.87276794  0.88850701  0.39643750  1
  O  O53  1  0.88537614  0.11338523  0.61656739  1
  O  O54  1  0.89012853  0.39966028  0.87345366  1
  O  O55  1  0.89705667  0.62735168  0.10771755  1
