# generated using pymatgen
data_Mn3TeO8
_symmetry_space_group_name_H-M   'P 1'
_cell_length_a   10.39015638
_cell_length_b   10.03834378
_cell_length_c   14.26286727
_cell_angle_alpha   20.37688072
_cell_angle_beta   20.90579252
_cell_angle_gamma   35.92239937
_symmetry_Int_Tables_number   1
_chemical_formula_structural   Mn3TeO8
_chemical_formula_sum   'Mn3 Te1 O8'
_cell_volume   156.69275380
_cell_formula_units_Z   1
loop_
 _symmetry_equiv_pos_site_id
 _symmetry_equiv_pos_as_xyz
  1  'x, y, z'
loop_
 _atom_site_type_symbol
 _atom_site_label
 _atom_site_symmetry_multiplicity
 _atom_site_fract_x
 _atom_site_fract_y
 _atom_site_fract_z
 _atom_site_occupancy
  Mn  Mn0  1  -0.00019508  0.49977863  0.00025641  1
  Mn  Mn1  1  0.50027112  0.00041533  0.99953906  1
  Mn  Mn2  1  0.50007869  0.50003711  -0.00003640  1
  Te  Te3  1  -0.00010994  -0.00005580  0.00009730  1
  O  O4  1  0.02824018  0.00005663  0.25972109  1
  O  O5  1  0.95166057  0.50483221  0.28583214  1
  O  O6  1  0.53143597  0.99980868  0.25122802  1
  O  O7  1  0.97173541  0.99981488  0.74036316  1
  O  O8  1  0.44653870  0.49533054  0.29557095  1
  O  O9  1  0.04837094  0.49524888  0.71404738  1
  O  O10  1  0.46840074  0.00003119  0.74901526  1
  O  O11  1  0.55357269  0.50470272  0.70436563  1
