# generated using pymatgen
data_Li4Mn3Ni2Sn3O16
_symmetry_space_group_name_H-M   'P 1'
_cell_length_a   6.04394036
_cell_length_b   6.04300898
_cell_length_c   9.69790648
_cell_angle_alpha   90.00034134
_cell_angle_beta   89.60833523
_cell_angle_gamma   119.99498199
_symmetry_Int_Tables_number   1
_chemical_formula_structural   Li4Mn3Ni2Sn3O16
_chemical_formula_sum   'Li4 Mn3 Ni2 Sn3 O16'
_cell_volume   306.75416958
_cell_formula_units_Z   1
loop_
 _symmetry_equiv_pos_site_id
 _symmetry_equiv_pos_as_xyz
  1  'x, y, z'
loop_
 _atom_site_type_symbol
 _atom_site_label
 _atom_site_symmetry_multiplicity
 _atom_site_fract_x
 _atom_site_fract_y
 _atom_site_fract_z
 _atom_site_occupancy
  Li  Li0  1  0.34668372  0.67335921  0.88203626  1
  Li  Li1  1  0.96869368  0.98436200  0.99555945  1
  Li  Li2  1  0.97648227  0.98823748  0.50257559  1
  Li  Li3  1  0.67692701  0.33847522  0.39182204  1
  Mn  Mn4  1  0.66316535  0.83160862  0.21674759  1
  Mn  Mn5  1  0.83254253  0.66245406  0.71511332  1
  Mn  Mn6  1  0.83250846  0.17008057  0.71510679  1
  Ni  Ni7  1  0.33496290  0.66745400  0.49222013  1
  Ni  Ni8  1  0.67124332  0.33562592  0.98589283  1
  Sn  Sn9  1  0.17135609  0.83263141  0.21439274  1
  Sn  Sn10  1  0.17136243  0.33874971  0.21440006  1
  Sn  Sn11  1  0.33931166  0.16966992  0.71397561  1
  O  O12  1  0.14636702  0.83238637  0.60250133  1
  O  O13  1  0.03688628  0.51845549  0.34239205  1
  O  O14  1  0.35830111  0.67916070  0.09936983  1
  O  O15  1  0.97963527  0.98983081  0.31874825  1
  O  O16  1  0.97911693  0.98957644  0.81186126  1
  O  O17  1  0.14635296  0.31398607  0.60249450  1
  O  O18  1  0.49724947  0.96760470  0.33629150  1
  O  O19  1  0.49725708  0.52967935  0.33629709  1
  O  O20  1  0.31262466  0.15632534  0.09190146  1
  O  O21  1  0.67935877  0.83968994  0.61287657  1
  O  O22  1  0.53386856  0.49483815  0.83416465  1
  O  O23  1  0.53386430  0.03906474  0.83416819  1
  O  O24  1  0.69157261  0.34579997  0.60639909  1
  O  O25  1  0.82831421  0.67960379  0.10536708  1
  O  O26  1  0.96567114  0.48284607  0.82779378  1
  O  O27  1  0.82831920  0.14874296  0.10537096  1
