# generated using pymatgen
data_Li7Cr2P7O24
_symmetry_space_group_name_H-M   'P 1'
_cell_length_a   15.07091398
_cell_length_b   5.05855550
_cell_length_c   12.13068117
_cell_angle_alpha   90.00000000
_cell_angle_beta   96.31941444
_cell_angle_gamma   90.00000000
_symmetry_Int_Tables_number   1
_chemical_formula_structural   Li7Cr2P7O24
_chemical_formula_sum   'Li14 Cr4 P14 O48'
_cell_volume   919.18801228
_cell_formula_units_Z   2
loop_
 _symmetry_equiv_pos_site_id
 _symmetry_equiv_pos_as_xyz
  1  'x, y, z'
loop_
 _atom_site_type_symbol
 _atom_site_label
 _atom_site_symmetry_multiplicity
 _atom_site_fract_x
 _atom_site_fract_y
 _atom_site_fract_z
 _atom_site_occupancy
  Li  Li0  1  0.05492997  0.73483732  0.51779495  1
  Li  Li1  1  0.13297193  0.82097820  0.89035322  1
  Li  Li2  1  0.05492997  0.26516268  0.01779495  1
  Li  Li3  1  0.13297193  0.17902180  0.39035322  1
  Li  Li4  1  0.40423057  0.16617505  0.56577290  1
  Li  Li5  1  0.40423057  0.83382495  0.06577290  1
  Li  Li6  1  0.50000000  0.71020157  0.75000000  1
  Li  Li7  1  0.50000000  0.28979843  0.25000000  1
  Li  Li8  1  0.59576943  0.16617505  0.93422710  1
  Li  Li9  1  0.59576943  0.83382495  0.43422710  1
  Li  Li10  1  0.86702807  0.82097820  0.60964678  1
  Li  Li11  1  0.94507003  0.73483732  0.98220505  1
  Li  Li12  1  0.86702807  0.17902180  0.10964678  1
  Li  Li13  1  0.94507003  0.26516268  0.48220505  1
  Cr  Cr14  1  0.28557439  0.62666777  0.70676448  1
  Cr  Cr15  1  0.28557439  0.37333223  0.20676448  1
  Cr  Cr16  1  0.71442561  0.62666777  0.79323552  1
  Cr  Cr17  1  0.71442561  0.37333223  0.29323552  1
  P  P18  1  0.00000000  0.43555674  0.75000000  1
  P  P19  1  0.00000000  0.56444326  0.25000000  1
  P  P20  1  0.14081666  0.12527084  0.65634860  1
  P  P21  1  0.14081666  0.87472916  0.15634860  1
  P  P22  1  0.26756601  0.37796425  0.94970830  1
  P  P23  1  0.26756601  0.62203575  0.44970830  1
  P  P24  1  0.39438701  0.13986561  0.80958543  1
  P  P25  1  0.39438701  0.86013439  0.30958543  1
  P  P26  1  0.60561299  0.13986561  0.69041457  1
  P  P27  1  0.60561299  0.86013439  0.19041457  1
  P  P28  1  0.73243399  0.37796425  0.55029170  1
  P  P29  1  0.73243399  0.62203575  0.05029170  1
  P  P30  1  0.85918334  0.12527084  0.84365140  1
  P  P31  1  0.85918334  0.87472916  0.34365140  1
  O  O32  1  0.01544182  0.58622320  0.85789741  1
  O  O33  1  0.01544182  0.41377680  0.35789741  1
  O  O34  1  0.08152806  0.22921961  0.75237683  1
  O  O35  1  0.08034234  0.12665625  0.54736041  1
  O  O36  1  0.08152806  0.77078039  0.25237683  1
  O  O37  1  0.08034234  0.87334375  0.04736041  1
  O  O38  1  0.17081764  0.85108579  0.70022349  1
  O  O39  1  0.18063518  0.26409475  0.97429138  1
  O  O40  1  0.21924191  0.31213927  0.65763642  1
  O  O41  1  0.17081764  0.14891421  0.20022349  1
  O  O42  1  0.18063518  0.73590525  0.47429138  1
  O  O43  1  0.25818543  0.61132084  0.86715497  1
  O  O44  1  0.21924191  0.68786073  0.15763642  1
  O  O45  1  0.25818543  0.38867916  0.36715497  1
  O  O46  1  0.31778708  0.13752192  0.89145051  1
  O  O47  1  0.31778708  0.86247808  0.39145051  1
  O  O48  1  0.36301422  0.94810578  0.71419718  1
  O  O49  1  0.33379876  0.55260110  0.55294280  1
  O  O50  1  0.40076628  0.42308384  0.76290676  1
  O  O51  1  0.36301422  0.05189422  0.21419718  1
  O  O52  1  0.33379876  0.44739890  0.05294280  1
  O  O53  1  0.40076628  0.57691616  0.26290676  1
  O  O54  1  0.47870325  0.03935720  0.87554388  1
  O  O55  1  0.47870325  0.96064280  0.37554388  1
  O  O56  1  0.52129675  0.03935720  0.62445612  1
  O  O57  1  0.52129675  0.96064280  0.12445612  1
  O  O58  1  0.59923372  0.42308384  0.73709324  1
  O  O59  1  0.66620124  0.55260110  0.94705720  1
  O  O60  1  0.63698578  0.94810578  0.78580282  1
  O  O61  1  0.59923372  0.57691616  0.23709324  1
  O  O62  1  0.66620124  0.44739890  0.44705720  1
  O  O63  1  0.63698578  0.05189422  0.28580282  1
  O  O64  1  0.68221292  0.13752192  0.60854949  1
  O  O65  1  0.68221292  0.86247808  0.10854949  1
  O  O66  1  0.74181457  0.61132084  0.63284503  1
  O  O67  1  0.78075809  0.31213927  0.84236358  1
  O  O68  1  0.74181457  0.38867916  0.13284503  1
  O  O69  1  0.81936482  0.26409475  0.52570862  1
  O  O70  1  0.82918236  0.85108579  0.79977651  1
  O  O71  1  0.78075809  0.68786073  0.34236358  1
  O  O72  1  0.81936482  0.73590525  0.02570862  1
  O  O73  1  0.82918236  0.14891421  0.29977651  1
  O  O74  1  0.91965766  0.12665625  0.95263959  1
  O  O75  1  0.91847194  0.22921961  0.74762317  1
  O  O76  1  0.91965766  0.87334375  0.45263959  1
  O  O77  1  0.91847194  0.77078039  0.24762317  1
  O  O78  1  0.98455818  0.58622320  0.64210259  1
  O  O79  1  0.98455818  0.41377680  0.14210259  1
