# generated using pymatgen
data_LiVP3HO10
_symmetry_space_group_name_H-M   'P 1'
_cell_length_a   7.31256841
_cell_length_b   7.31256841
_cell_length_c   9.59376729
_cell_angle_alpha   72.13366849
_cell_angle_beta   107.86633151
_cell_angle_gamma   111.36637175
_symmetry_Int_Tables_number   1
_chemical_formula_structural   LiVP3HO10
_chemical_formula_sum   'Li2 V2 P6 H2 O20'
_cell_volume   443.57130951
_cell_formula_units_Z   2
loop_
 _symmetry_equiv_pos_site_id
 _symmetry_equiv_pos_as_xyz
  1  'x, y, z'
loop_
 _atom_site_type_symbol
 _atom_site_label
 _atom_site_symmetry_multiplicity
 _atom_site_fract_x
 _atom_site_fract_y
 _atom_site_fract_z
 _atom_site_occupancy
  Li  Li0  1  0.57589726  0.57589726  0.75000000  1
  Li  Li1  1  0.42410274  0.42410274  0.25000000  1
  V  V2  1  0.00000000  0.50000000  0.50000000  1
  V  V3  1  0.50000000  0.00000000  0.00000000  1
  P  P4  1  0.13739030  0.71778019  0.79636763  1
  P  P5  1  0.28221981  0.86260970  0.29636763  1
  P  P6  1  0.13192973  0.13192973  0.75000000  1
  P  P7  1  0.86807027  0.86807027  0.25000000  1
  P  P8  1  0.71778019  0.13739030  0.70363237  1
  P  P9  1  0.86260970  0.28221981  0.20363237  1
  H  H10  1  0.00000000  0.50000000  0.00000000  1
  H  H11  1  0.50000000  0.00000000  0.50000000  1
  O  O12  1  0.09756559  0.93006443  0.70019753  1
  O  O13  1  0.06993557  0.90243441  0.20019753  1
  O  O14  1  0.34123509  0.76104181  0.90690578  1
  O  O15  1  0.14510282  0.61975807  0.68098318  1
  O  O16  1  0.60489288  0.95907321  0.62458329  1
  O  O17  1  0.23895819  0.65876491  0.40690578  1
  O  O18  1  0.38024193  0.85489718  0.18098318  1
  O  O19  1  0.15862653  0.29517661  0.61067700  1
  O  O20  1  0.04092679  0.39510712  0.12458329  1
  O  O21  1  0.29517661  0.15862653  0.88932300  1
  O  O22  1  0.70482339  0.84137347  0.11067700  1
  O  O23  1  0.95907321  0.60489288  0.87541671  1
  O  O24  1  0.84137347  0.70482339  0.38932300  1
  O  O25  1  0.61975807  0.14510282  0.81901682  1
  O  O26  1  0.76104181  0.34123509  0.59309422  1
  O  O27  1  0.39510712  0.04092679  0.37541671  1
  O  O28  1  0.85489718  0.38024193  0.31901682  1
  O  O29  1  0.65876491  0.23895819  0.09309422  1
  O  O30  1  0.93006443  0.09756559  0.79980247  1
  O  O31  1  0.90243441  0.06993557  0.29980247  1
