# generated using pymatgen
data_H8Se(NO2)2
_symmetry_space_group_name_H-M   'P 1'
_cell_length_a   6.63427659
_cell_length_b   6.86980758
_cell_length_c   7.85648521
_cell_angle_alpha   111.27932925
_cell_angle_beta   90.00000000
_cell_angle_gamma   118.87219853
_symmetry_Int_Tables_number   1
_chemical_formula_structural   H8Se(NO2)2
_chemical_formula_sum   'H16 Se2 N4 O8'
_cell_volume   285.36559090
_cell_formula_units_Z   2
loop_
 _symmetry_equiv_pos_site_id
 _symmetry_equiv_pos_as_xyz
  1  'x, y, z'
loop_
 _atom_site_type_symbol
 _atom_site_label
 _atom_site_symmetry_multiplicity
 _atom_site_fract_x
 _atom_site_fract_y
 _atom_site_fract_z
 _atom_site_occupancy
  H  H0  1  0.66070014  0.57332351  0.19546524  1
  H  H1  1  0.08737662  0.42667649  0.80453476  1
  H  H2  1  0.33929986  0.42667649  0.80453476  1
  H  H3  1  0.91262338  0.57332351  0.19546524  1
  H  H4  1  0.40420315  0.06199483  0.18385032  1
  H  H5  1  0.34220831  0.93800517  0.81614968  1
  H  H6  1  0.59579685  0.93800517  0.81614968  1
  H  H7  1  0.65779169  0.06199483  0.18385032  1
  H  H8  1  0.14669022  0.29338044  0.59742165  1
  H  H9  1  0.85330978  0.70661956  0.40257835  1
  H  H10  1  0.41001749  0.82003498  0.60978639  1
  H  H11  1  0.58998251  0.17996502  0.39021361  1
  H  H12  1  0.07756279  0.15512559  0.74605439  1
  H  H13  1  0.92243721  0.84487441  0.25394561  1
  H  H14  1  0.43748402  0.87496805  0.26485687  1
  H  H15  1  0.56251598  0.12503195  0.73514313  1
  N  N16  1  0.16184018  0.32368036  0.73870589  1
  N  N17  1  0.83815982  0.67631964  0.26129411  1
  N  N18  1  0.47884615  0.95769230  0.74675817  1
  N  N19  1  0.52115385  0.04230770  0.25324183  1
  O  O20  1  0.35622758  0.29349161  0.09497331  1
  O  O21  1  0.06273597  0.70650839  0.90502669  1
  O  O22  1  0.64377242  0.70650839  0.90502669  1
  O  O23  1  0.93726403  0.29349161  0.09497331  1
  O  O24  1  0.90571107  0.81142215  0.64761507  1
  O  O25  1  0.09428893  0.18857785  0.35238493  1
  O  O26  1  0.67202733  0.34405466  0.63297788  1
  O  O27  1  0.32797267  0.65594534  0.36702212  1
  Se  Se28  1  0.82264270  0.64528539  0.77464482  1
  Se  Se29  1  0.17735730  0.35471461  0.22535518  1
