# generated using pymatgen
data_Li9(NiO4)2
_symmetry_space_group_name_H-M   'P 1'
_cell_length_a   9.40897416
_cell_length_b   9.13947177
_cell_length_c   9.13822380
_cell_angle_alpha   90.00000000
_cell_angle_beta   90.00000000
_cell_angle_gamma   90.00000000
_symmetry_Int_Tables_number   1
_chemical_formula_structural   Li9(NiO4)2
_chemical_formula_sum   'Li36 Ni8 O32'
_cell_volume   785.82377014
_cell_formula_units_Z   4
loop_
 _symmetry_equiv_pos_site_id
 _symmetry_equiv_pos_as_xyz
  1  'x, y, z'
loop_
 _atom_site_type_symbol
 _atom_site_label
 _atom_site_symmetry_multiplicity
 _atom_site_fract_x
 _atom_site_fract_y
 _atom_site_fract_z
 _atom_site_occupancy
  Li  Li0  1  0.10544004  0.63324278  0.13600570  1
  Li  Li1  1  0.10544004  0.86675722  0.63600570  1
  Li  Li2  1  0.11652321  0.11159097  0.83563616  1
  Li  Li3  1  0.11652321  0.38840903  0.33563616  1
  Li  Li4  1  0.11655436  0.84609643  0.35766671  1
  Li  Li5  1  0.11655436  0.65390357  0.85766671  1
  Li  Li6  1  0.16151223  0.12134109  0.41882856  1
  Li  Li7  1  0.16151223  0.37865891  0.91882856  1
  Li  Li8  1  0.33848777  0.87865891  0.91882856  1
  Li  Li9  1  0.33848777  0.62134109  0.41882856  1
  Li  Li10  1  0.38344564  0.15390357  0.85766671  1
  Li  Li11  1  0.38344564  0.34609643  0.35766671  1
  Li  Li12  1  0.38347679  0.61159097  0.83563616  1
  Li  Li13  1  0.38347679  0.88840903  0.33563616  1
  Li  Li14  1  0.39455996  0.13324278  0.13600570  1
  Li  Li15  1  0.39455996  0.36675722  0.63600570  1
  Li  Li16  1  0.61197097  0.61690608  0.35984843  1
  Li  Li17  1  0.61197097  0.88309392  0.85984843  1
  Li  Li18  1  0.60791500  0.11124034  0.65232634  1
  Li  Li19  1  0.60791500  0.38875966  0.15232634  1
  Li  Li20  1  0.61951259  0.65245787  0.62831576  1
  Li  Li21  1  0.61951259  0.84754213  0.12831576  1
  Li  Li22  1  0.64793610  0.61916535  0.89729052  1
  Li  Li23  1  0.64793610  0.88083465  0.39729052  1
  Li  Li24  1  0.66068210  0.11488459  0.10450909  1
  Li  Li25  1  0.66068210  0.38511541  0.60450909  1
  Li  Li26  1  0.83931790  0.61488459  0.10450909  1
  Li  Li27  1  0.83931790  0.88511541  0.60450909  1
  Li  Li28  1  0.85206390  0.38083465  0.39729052  1
  Li  Li29  1  0.85206390  0.11916535  0.89729052  1
  Li  Li30  1  0.88048741  0.15245787  0.62831576  1
  Li  Li31  1  0.88048741  0.34754213  0.12831576  1
  Li  Li32  1  0.89208500  0.61124034  0.65232634  1
  Li  Li33  1  0.89208500  0.88875966  0.15232634  1
  Li  Li34  1  0.88802903  0.11690608  0.35984843  1
  Li  Li35  1  0.88802903  0.38309392  0.85984843  1
  Ni  Ni36  1  0.12186546  0.12928155  0.12237090  1
  Ni  Ni37  1  0.12186546  0.37071845  0.62237090  1
  Ni  Ni38  1  0.37813454  0.62928155  0.12237090  1
  Ni  Ni39  1  0.37813454  0.87071845  0.62237090  1
  Ni  Ni40  1  0.61983076  0.14971175  0.37779820  1
  Ni  Ni41  1  0.61983076  0.35028825  0.87779820  1
  Ni  Ni42  1  0.88016924  0.64971175  0.37779820  1
  Ni  Ni43  1  0.88016924  0.85028825  0.87779820  1
  O  O44  1  0.00539473  0.26508668  0.49561930  1
  O  O45  1  0.00539473  0.23491332  0.99561930  1
  O  O46  1  0.02799127  0.01603692  0.25335688  1
  O  O47  1  0.02799127  0.48396308  0.75335688  1
  O  O48  1  0.25190782  0.05875566  0.99310948  1
  O  O49  1  0.25190782  0.44124434  0.49310948  1
  O  O50  1  0.23827586  0.22787796  0.24841261  1
  O  O51  1  0.23827586  0.27212204  0.74841261  1
  O  O52  1  0.26172414  0.72787796  0.24841261  1
  O  O53  1  0.26172414  0.77212204  0.74841261  1
  O  O54  1  0.24809218  0.55875566  0.99310948  1
  O  O55  1  0.24809218  0.94124434  0.49310948  1
  O  O56  1  0.47200873  0.51603692  0.25335688  1
  O  O57  1  0.47200873  0.98396308  0.75335688  1
  O  O58  1  0.49460527  0.76508668  0.49561930  1
  O  O59  1  0.49460527  0.73491332  0.99561930  1
  O  O60  1  0.52060148  0.24001810  0.00350204  1
  O  O61  1  0.52060148  0.25998190  0.50350204  1
  O  O62  1  0.53576225  0.01156174  0.25313763  1
  O  O63  1  0.53576225  0.48843826  0.75313763  1
  O  O64  1  0.74470448  0.03959541  0.49822208  1
  O  O65  1  0.74470448  0.46040459  0.99822208  1
  O  O66  1  0.74694924  0.25016476  0.25942761  1
  O  O67  1  0.74694924  0.24983524  0.75942761  1
  O  O68  1  0.75305076  0.75016476  0.25942761  1
  O  O69  1  0.75305076  0.74983524  0.75942761  1
  O  O70  1  0.75529552  0.53959541  0.49822208  1
  O  O71  1  0.75529552  0.96040459  0.99822208  1
  O  O72  1  0.96423775  0.98843826  0.75313763  1
  O  O73  1  0.96423775  0.51156174  0.25313763  1
  O  O74  1  0.97939852  0.74001810  0.00350204  1
  O  O75  1  0.97939852  0.75998190  0.50350204  1
