# generated using pymatgen
data_La2Nb2N2O5
_symmetry_space_group_name_H-M   'P 1'
_cell_length_a   7.62723364
_cell_length_b   7.61987199
_cell_length_c   7.62723364
_cell_angle_alpha   120.07830312
_cell_angle_beta   89.98986255
_cell_angle_gamma   60.02606835
_symmetry_Int_Tables_number   1
_chemical_formula_structural   La2Nb2N2O5
_chemical_formula_sum   'La4 Nb4 N4 O10'
_cell_volume   313.17321469
_cell_formula_units_Z   2
loop_
 _symmetry_equiv_pos_site_id
 _symmetry_equiv_pos_as_xyz
  1  'x, y, z'
loop_
 _atom_site_type_symbol
 _atom_site_label
 _atom_site_symmetry_multiplicity
 _atom_site_fract_x
 _atom_site_fract_y
 _atom_site_fract_z
 _atom_site_occupancy
  La  La0  1  0.11976675  0.25070351  0.62514237  1
  La  La1  1  0.62948728  0.24985235  0.62308904  1
  La  La2  1  0.62676331  0.75014765  0.12066037  1
  La  La3  1  0.62556113  0.74929649  0.62952874  1
  Nb  Nb4  1  0.10897558  0.25874134  0.12748683  1
  Nb  Nb5  1  0.62380703  0.25773369  0.12051467  1
  Nb  Nb6  1  0.13721902  0.74226631  0.11845927  1
  Nb  Nb7  1  0.13125551  0.74125866  0.63228308  1
  N  N8  1  0.80950574  0.38545067  0.19501871  1
  N  N9  1  0.44312813  0.50000000  0.05687187  1
  N  N10  1  0.75131269  0.50000000  0.74868731  1
  N  N11  1  0.19043196  0.61454933  0.80504359  1
  O  O12  1  0.19789925  0.00390416  0.19987132  1
  O  O13  1  0.19855022  0.00000000  0.80144978  1
  O  O14  1  0.79706108  0.00000000  0.20293892  1
  O  O15  1  0.80403284  0.99609584  0.79819659  1
  O  O16  1  0.49829805  0.00000000  0.50170195  1
  O  O17  1  0.45099460  0.09888922  0.04905348  1
  O  O18  1  0.05426984  0.49823408  0.05275436  1
  O  O19  1  0.05636453  0.50000000  0.44363547  1
  O  O20  1  0.44547872  0.50176592  0.44749608  1
  O  O21  1  0.04983574  0.90111078  0.45011618  1
