# generated using pymatgen
data_LiFeF4
_symmetry_space_group_name_H-M   'P 1'
_cell_length_a   7.51602548
_cell_length_b   7.51602548
_cell_length_c   7.51602564
_cell_angle_alpha   114.06515625
_cell_angle_beta   114.06515625
_cell_angle_gamma   114.06515431
_symmetry_Int_Tables_number   1
_chemical_formula_structural   LiFeF4
_chemical_formula_sum   'Li3 Fe3 F12'
_cell_volume   256.70647139
_cell_formula_units_Z   3
loop_
 _symmetry_equiv_pos_site_id
 _symmetry_equiv_pos_as_xyz
  1  'x, y, z'
loop_
 _atom_site_type_symbol
 _atom_site_label
 _atom_site_symmetry_multiplicity
 _atom_site_fract_x
 _atom_site_fract_y
 _atom_site_fract_z
 _atom_site_occupancy
  Li  Li0  1  0.01839892  0.28513059  0.28513059  1
  Li  Li1  1  0.28513059  0.28513059  0.01839892  1
  Li  Li2  1  0.28513059  0.01839892  0.28513059  1
  Fe  Fe3  1  0.40117227  0.92639189  0.92639189  1
  Fe  Fe4  1  0.92639189  0.92639189  0.40117227  1
  Fe  Fe5  1  0.92639189  0.40117227  0.92639189  1
  F  F6  1  0.16947243  0.96910219  0.69275505  1
  F  F7  1  0.16947243  0.69275505  0.96910219  1
  F  F8  1  0.69275505  0.96910219  0.16947243  1
  F  F9  1  0.59651502  0.18495465  0.59651502  1
  F  F10  1  0.17621845  0.42578791  0.17621845  1
  F  F11  1  0.59651502  0.59651502  0.18495465  1
  F  F12  1  0.17621845  0.17621845  0.42578791  1
  F  F13  1  0.42578791  0.17621845  0.17621845  1
  F  F14  1  0.18495465  0.59651502  0.59651502  1
  F  F15  1  0.96910219  0.69275505  0.16947243  1
  F  F16  1  0.69275505  0.16947243  0.96910219  1
  F  F17  1  0.96910219  0.16947243  0.69275505  1
