# generated using pymatgen
data_V5CrO12
_symmetry_space_group_name_H-M   'P 1'
_cell_length_a   6.86336526
_cell_length_b   6.86336494
_cell_length_c   5.68672270
_cell_angle_alpha   75.13584472
_cell_angle_beta   104.86415782
_cell_angle_gamma   95.55879020
_symmetry_Int_Tables_number   1
_chemical_formula_structural   V5CrO12
_chemical_formula_sum   'V5 Cr1 O12'
_cell_volume   250.11101554
_cell_formula_units_Z   1
loop_
 _symmetry_equiv_pos_site_id
 _symmetry_equiv_pos_as_xyz
  1  'x, y, z'
loop_
 _atom_site_type_symbol
 _atom_site_label
 _atom_site_symmetry_multiplicity
 _atom_site_fract_x
 _atom_site_fract_y
 _atom_site_fract_z
 _atom_site_occupancy
  V  V0  1  0.91792449  0.91792449  0.25000000  1
  V  V1  1  0.20511496  0.60702463  0.75111131  1
  V  V2  1  0.39671690  0.80855496  0.24068286  1
  V  V3  1  0.60702463  0.20511496  0.74888869  1
  V  V4  1  0.80855496  0.39671690  0.25931714  1
  Cr  Cr5  1  0.08388412  0.08388412  0.75000000  1
  O  O6  1  0.04011249  0.81122989  0.64153595  1
  O  O7  1  0.08337174  0.37322766  0.75679150  1
  O  O8  1  0.17651177  0.96701781  0.12647774  1
  O  O9  1  0.36987523  0.65292973  0.55596617  1
  O  O10  1  0.37322766  0.08337174  0.74320850  1
  O  O11  1  0.34108507  0.61669553  0.05276396  1
  O  O12  1  0.65292973  0.36987523  0.94403383  1
  O  O13  1  0.64038486  0.90833817  0.28626935  1
  O  O14  1  0.61669553  0.34108507  0.44723604  1
  O  O15  1  0.81122989  0.04011249  0.85846405  1
  O  O16  1  0.90833817  0.64038486  0.21373065  1
  O  O17  1  0.96701781  0.17651177  0.37352226  1
