# generated using pymatgen
data_Li4Ti2Co3Sb3O16
_symmetry_space_group_name_H-M   'P 1'
_cell_length_a   6.15391752
_cell_length_b   6.11879054
_cell_length_c   9.71665356
_cell_angle_alpha   89.99982236
_cell_angle_beta   90.99416588
_cell_angle_gamma   119.81123158
_symmetry_Int_Tables_number   1
_chemical_formula_structural   Li4Ti2Co3Sb3O16
_chemical_formula_sum   'Li4 Ti2 Co3 Sb3 O16'
_cell_volume   317.39547570
_cell_formula_units_Z   1
loop_
 _symmetry_equiv_pos_site_id
 _symmetry_equiv_pos_as_xyz
  1  'x, y, z'
loop_
 _atom_site_type_symbol
 _atom_site_label
 _atom_site_symmetry_multiplicity
 _atom_site_fract_x
 _atom_site_fract_y
 _atom_site_fract_z
 _atom_site_occupancy
  Li  Li0  1  0.35202323  0.67602237  0.89282068  1
  Li  Li1  1  0.96346156  0.98174953  0.98331871  1
  Li  Li2  1  0.98189639  0.99093298  0.50600512  1
  Li  Li3  1  0.64821888  0.32412521  0.40099523  1
  Ti  Ti4  1  0.35498401  0.67749815  0.50341982  1
  Ti  Ti5  1  0.72186199  0.36094603  0.97146874  1
  Co  Co6  1  0.65370809  0.82686538  0.21456721  1
  Co  Co7  1  0.83980486  0.66299120  0.71124744  1
  Co  Co8  1  0.83983505  0.17687476  0.71125643  1
  Sb  Sb9  1  0.16071579  0.82746865  0.21581692  1
  Sb  Sb10  1  0.16071450  0.33327119  0.21581842  1
  Sb  Sb11  1  0.35228973  0.17615201  0.71576716  1
  O  O12  1  0.19130469  0.84694513  0.59319838  1
  O  O13  1  0.01925958  0.50963702  0.33770857  1
  O  O14  1  0.31428859  0.65715762  0.10193831  1
  O  O15  1  0.99876366  0.99938906  0.31847620  1
  O  O16  1  0.01574875  0.00789555  0.79891254  1
  O  O17  1  0.19128693  0.34435084  0.59318214  1
  O  O18  1  0.46218479  0.95136199  0.34227485  1
  O  O19  1  0.46218387  0.51084507  0.34227416  1
  O  O20  1  0.30077412  0.15040497  0.10195674  1
  O  O21  1  0.65475930  0.82737639  0.58870504  1
  O  O22  1  0.52119208  0.47370346  0.84913751  1
  O  O23  1  0.52120920  0.04752584  0.84914748  1
  O  O24  1  0.66467549  0.33233570  0.60672368  1
  O  O25  1  0.83802674  0.66824673  0.09451082  1
  O  O26  1  0.97678968  0.48841494  0.85268052  1
  O  O27  1  0.83803744  0.16981423  0.09451017  1
