# generated using pymatgen
data_Li4Sb(TeO4)3
_symmetry_space_group_name_H-M   'P 1'
_cell_length_a   5.23523203
_cell_length_b   5.13337145
_cell_length_c   9.11554059
_cell_angle_alpha   90.00000000
_cell_angle_beta   90.00000000
_cell_angle_gamma   94.22167642
_symmetry_Int_Tables_number   1
_chemical_formula_structural   Li4Sb(TeO4)3
_chemical_formula_sum   'Li4 Sb1 Te3 O12'
_cell_volume   244.30990870
_cell_formula_units_Z   1
loop_
 _symmetry_equiv_pos_site_id
 _symmetry_equiv_pos_as_xyz
  1  'x, y, z'
loop_
 _atom_site_type_symbol
 _atom_site_label
 _atom_site_symmetry_multiplicity
 _atom_site_fract_x
 _atom_site_fract_y
 _atom_site_fract_z
 _atom_site_occupancy
  Li  Li0  1  0.00000000  0.00000000  0.68249421  1
  Li  Li1  1  0.00000000  0.50000000  0.84911304  1
  Li  Li2  1  0.50000000  0.00000000  0.32255857  1
  Li  Li3  1  0.50000000  0.50000000  0.16741833  1
  Sb  Sb4  1  0.00000000  0.00000000  0.10325460  1
  Te  Te5  1  0.00000000  0.50000000  0.40541050  1
  Te  Te6  1  0.50000000  0.00000000  0.91499806  1
  Te  Te7  1  0.50000000  0.50000000  0.60004344  1
  O  O8  1  0.17979514  0.23573274  0.24903369  1
  O  O9  1  0.14910012  0.28827406  0.56435862  1
  O  O10  1  0.20404330  0.21791011  0.94179376  1
  O  O11  1  0.34619778  0.70957725  0.43768792  1
  O  O12  1  0.31432669  0.79464400  0.07970044  1
  O  O13  1  0.30440665  0.79204442  0.77532069  1
  O  O14  1  0.69559335  0.20795558  0.77532069  1
  O  O15  1  0.68567331  0.20535600  0.07970044  1
  O  O16  1  0.65380222  0.29042275  0.43768792  1
  O  O17  1  0.79595670  0.78208989  0.94179376  1
  O  O18  1  0.85089988  0.71172594  0.56435862  1
  O  O19  1  0.82020486  0.76426726  0.24903369  1
