# generated using pymatgen
data_Zr2N2O
_symmetry_space_group_name_H-M   'P 1'
_cell_length_a   3.32938350
_cell_length_b   7.10033866
_cell_length_c   16.64631452
_cell_angle_alpha   80.02158847
_cell_angle_beta   90.00013914
_cell_angle_gamma   76.44069728
_symmetry_Int_Tables_number   1
_chemical_formula_structural   Zr2N2O
_chemical_formula_sum   'Zr12 N12 O6'
_cell_volume   376.42048781
_cell_formula_units_Z   6
loop_
 _symmetry_equiv_pos_site_id
 _symmetry_equiv_pos_as_xyz
  1  'x, y, z'
loop_
 _atom_site_type_symbol
 _atom_site_label
 _atom_site_symmetry_multiplicity
 _atom_site_fract_x
 _atom_site_fract_y
 _atom_site_fract_z
 _atom_site_occupancy
  Zr  Zr0  1  0.02906722  0.94185515  0.90072485  1
  Zr  Zr1  1  0.03064180  0.93873066  0.40415181  1
  Zr  Zr2  1  0.63496982  0.73009587  0.73790774  1
  Zr  Zr3  1  0.69728968  0.60542634  0.56814743  1
  Zr  Zr4  1  0.62974922  0.74051006  0.23639828  1
  Zr  Zr5  1  0.30769255  0.38463404  0.93631857  1
  Zr  Zr6  1  0.69417871  0.61161781  0.06445427  1
  Zr  Zr7  1  0.36415653  0.27167404  0.76048840  1
  Zr  Zr8  1  0.30181688  0.39633814  0.43171793  1
  Zr  Zr9  1  0.37095227  0.25808479  0.26226241  1
  Zr  Zr10  1  0.96244077  0.07508248  0.59473245  1
  Zr  Zr11  1  0.97044692  0.05911673  0.09578319  1
  N  N12  1  0.53288685  0.93423695  0.82352018  1
  N  N13  1  0.17111043  0.65778629  0.98111736  1
  N  N14  1  0.53477125  0.93047563  0.32962422  1
  N  N15  1  0.12176596  0.75648760  0.64532883  1
  N  N16  1  0.17145482  0.65709239  0.48463140  1
  N  N17  1  0.12785460  0.74429966  0.14381406  1
  N  N18  1  0.80030496  0.39939279  0.68628789  1
  N  N19  1  0.87269718  0.25459386  0.86275742  1
  N  N20  1  0.82797918  0.34403100  0.51379024  1
  N  N21  1  0.87341444  0.25316896  0.35638140  1
  N  N22  1  0.82784413  0.34430041  0.02097075  1
  N  N23  1  0.46714446  0.06570835  0.17232536  1
  O  O24  1  0.21364038  0.57271788  0.80870219  1
  O  O25  1  0.20831080  0.58334958  0.31006840  1
  O  O26  1  0.78982525  0.42035919  0.19206190  1
  O  O27  1  0.46841126  0.06319823  0.67003605  1
  O  O28  1  0.49714134  0.00570566  0.50562069  1
  O  O29  1  0.50003835  0.99993044  0.99987432  1
