# generated using pymatgen
data_Mg4Cu11O15
_symmetry_space_group_name_H-M   'P 1'
_cell_length_a   4.03442962
_cell_length_b   9.56379204
_cell_length_c   16.28640271
_cell_angle_alpha   90.00000000
_cell_angle_beta   90.00000000
_cell_angle_gamma   90.00000000
_symmetry_Int_Tables_number   1
_chemical_formula_structural   Mg4Cu11O15
_chemical_formula_sum   'Mg8 Cu22 O30'
_cell_volume   628.40182404
_cell_formula_units_Z   2
loop_
 _symmetry_equiv_pos_site_id
 _symmetry_equiv_pos_as_xyz
  1  'x, y, z'
loop_
 _atom_site_type_symbol
 _atom_site_label
 _atom_site_symmetry_multiplicity
 _atom_site_fract_x
 _atom_site_fract_y
 _atom_site_fract_z
 _atom_site_occupancy
  Mg  Mg0  1  0.25000000  0.75000000  0.28067413  1
  Mg  Mg1  1  0.25000000  0.75000000  0.48079776  1
  Mg  Mg2  1  0.25000000  0.75000000  0.68046364  1
  Mg  Mg3  1  0.25000000  0.75000000  0.88042757  1
  Mg  Mg4  1  0.25000000  0.75000000  0.08056327  1
  Mg  Mg5  1  0.75000000  0.25000000  0.11873179  1
  Mg  Mg6  1  0.75000000  0.25000000  0.31925145  1
  Mg  Mg7  1  0.75000000  0.25000000  0.52035656  1
  Cu  Cu8  1  0.25000000  0.08569304  0.03071938  1
  Cu  Cu9  1  0.25000000  0.08673703  0.22979171  1
  Cu  Cu10  1  0.25000000  0.41430696  0.03071938  1
  Cu  Cu11  1  0.25000000  0.08670844  0.43013127  1
  Cu  Cu12  1  0.25000000  0.41326297  0.22979171  1
  Cu  Cu13  1  0.25000000  0.08639074  0.63088267  1
  Cu  Cu14  1  0.25000000  0.41329156  0.43013127  1
  Cu  Cu15  1  0.25000000  0.08588241  0.83156186  1
  Cu  Cu16  1  0.25000000  0.41360926  0.63088267  1
  Cu  Cu17  1  0.25000000  0.41411759  0.83156186  1
  Cu  Cu18  1  0.75000000  0.58640300  0.16972285  1
  Cu  Cu19  1  0.75000000  0.91359700  0.16972285  1
  Cu  Cu20  1  0.75000000  0.25000000  0.92120889  1
  Cu  Cu21  1  0.75000000  0.25000000  0.72169252  1
  Cu  Cu22  1  0.75000000  0.58671488  0.37010583  1
  Cu  Cu23  1  0.75000000  0.58666292  0.56828984  1
  Cu  Cu24  1  0.75000000  0.91333708  0.56828984  1
  Cu  Cu25  1  0.75000000  0.91328512  0.37010583  1
  Cu  Cu26  1  0.75000000  0.58700862  0.76867654  1
  Cu  Cu27  1  0.75000000  0.58718666  0.96965888  1
  Cu  Cu28  1  0.75000000  0.91299138  0.76867654  1
  Cu  Cu29  1  0.75000000  0.91281334  0.96965888  1
  O  O30  1  0.25000000  0.25000000  0.09667955  1
  O  O31  1  0.25000000  0.25000000  0.29665704  1
  O  O32  1  0.25000000  0.25000000  0.49666624  1
  O  O33  1  0.25000000  0.25000000  0.69607303  1
  O  O34  1  0.25000000  0.59886230  0.18222092  1
  O  O35  1  0.25000000  0.59857637  0.38232581  1
  O  O36  1  0.25000000  0.25000000  0.89628905  1
  O  O37  1  0.25000000  0.59823666  0.58256573  1
  O  O38  1  0.25000000  0.59816676  0.78286204  1
  O  O39  1  0.25000000  0.59895384  0.98222578  1
  O  O40  1  0.25000000  0.90142363  0.38232581  1
  O  O41  1  0.25000000  0.90176334  0.58256573  1
  O  O42  1  0.25000000  0.90113770  0.18222092  1
  O  O43  1  0.25000000  0.90183324  0.78286204  1
  O  O44  1  0.25000000  0.90104616  0.98222578  1
  O  O45  1  0.75000000  0.09625482  0.01912621  1
  O  O46  1  0.75000000  0.09896913  0.21766668  1
  O  O47  1  0.75000000  0.09884615  0.41775204  1
  O  O48  1  0.75000000  0.09632997  0.61691706  1
  O  O49  1  0.75000000  0.40374518  0.01912621  1
  O  O50  1  0.75000000  0.40103087  0.21766668  1
  O  O51  1  0.75000000  0.75000000  0.10298829  1
  O  O52  1  0.75000000  0.09540685  0.81788808  1
  O  O53  1  0.75000000  0.40115385  0.41775204  1
  O  O54  1  0.75000000  0.40367003  0.61691706  1
  O  O55  1  0.75000000  0.75000000  0.30315501  1
  O  O56  1  0.75000000  0.75000000  0.50140134  1
  O  O57  1  0.75000000  0.40459315  0.81788808  1
  O  O58  1  0.75000000  0.75000000  0.70140170  1
  O  O59  1  0.75000000  0.75000000  0.90233881  1
