# generated using pymatgen
data_Li4Cr3Ni3(SnO8)2
_symmetry_space_group_name_H-M   'P 1'
_cell_length_a   5.90309920
_cell_length_b   5.91291563
_cell_length_c   9.64011893
_cell_angle_alpha   90.01618108
_cell_angle_beta   90.68690279
_cell_angle_gamma   120.04573900
_symmetry_Int_Tables_number   1
_chemical_formula_structural   Li4Cr3Ni3(SnO8)2
_chemical_formula_sum   'Li4 Cr3 Ni3 Sn2 O16'
_cell_volume   291.24050645
_cell_formula_units_Z   1
loop_
 _symmetry_equiv_pos_site_id
 _symmetry_equiv_pos_as_xyz
  1  'x, y, z'
loop_
 _atom_site_type_symbol
 _atom_site_label
 _atom_site_symmetry_multiplicity
 _atom_site_fract_x
 _atom_site_fract_y
 _atom_site_fract_z
 _atom_site_occupancy
  Li  Li0  1  0.33223751  0.66614529  0.89078349  1
  Li  Li1  1  0.99807837  0.99904281  0.99398457  1
  Li  Li2  1  0.99552203  0.99772329  0.49536708  1
  Li  Li3  1  0.66887637  0.33440253  0.39483277  1
  Cr  Cr4  1  0.17650588  0.83432670  0.21688977  1
  Cr  Cr5  1  0.17639319  0.34218325  0.21683035  1
  Cr  Cr6  1  0.34175136  0.17109889  0.71853401  1
  Ni  Ni7  1  0.66215077  0.83104979  0.21251757  1
  Ni  Ni8  1  0.82931561  0.66066605  0.71369871  1
  Ni  Ni9  1  0.82931943  0.16871644  0.71371039  1
  Sn  Sn10  1  0.33355834  0.66683858  0.49559830  1
  Sn  Sn11  1  0.67452479  0.33728940  0.99216553  1
  O  O12  1  0.16622694  0.84746889  0.59959781  1
  O  O13  1  0.03323989  0.51670961  0.33785195  1
  O  O14  1  0.30179007  0.65090509  0.10691269  1
  O  O15  1  0.02040584  0.01019476  0.30689739  1
  O  O16  1  0.01322765  0.00683566  0.80547140  1
  O  O17  1  0.16571628  0.31872220  0.59964758  1
  O  O18  1  0.47216466  0.96616211  0.33687219  1
  O  O19  1  0.47208837  0.50589983  0.33693591  1
  O  O20  1  0.32506757  0.16249495  0.10064669  1
  O  O21  1  0.68338578  0.84180801  0.60120952  1
  O  O22  1  0.50686642  0.47512433  0.83940380  1
  O  O23  1  0.50760420  0.03180375  0.83932493  1
  O  O24  1  0.64640930  0.32293053  0.60841457  1
  O  O25  1  0.85132033  0.68399383  0.10007533  1
  O  O26  1  0.96493179  0.48236863  0.83357353  1
  O  O27  1  0.85132127  0.16739181  0.10009219  1
