# generated using pymatgen
data_Li5Mn7O15
_symmetry_space_group_name_H-M   'P 1'
_cell_length_a   5.90039587
_cell_length_b   5.91584967
_cell_length_c   10.15363538
_cell_angle_alpha   108.36502335
_cell_angle_beta   90.14025593
_cell_angle_gamma   61.89224240
_symmetry_Int_Tables_number   1
_chemical_formula_structural   Li5Mn7O15
_chemical_formula_sum   'Li5 Mn7 O15'
_cell_volume   292.15306710
_cell_formula_units_Z   1
loop_
 _symmetry_equiv_pos_site_id
 _symmetry_equiv_pos_as_xyz
  1  'x, y, z'
loop_
 _atom_site_type_symbol
 _atom_site_label
 _atom_site_symmetry_multiplicity
 _atom_site_fract_x
 _atom_site_fract_y
 _atom_site_fract_z
 _atom_site_occupancy
  Li  Li0  1  0.81994955  0.88391148  0.06790144  1
  Li  Li1  1  0.24520652  0.47932920  0.23584421  1
  Li  Li2  1  0.30441820  0.89652756  0.59187376  1
  Li  Li3  1  0.68212494  0.12089547  0.43476918  1
  Li  Li4  1  0.18930257  0.12229540  0.93485892  1
  Mn  Mn5  1  0.49512222  0.50094280  0.00799457  1
  Mn  Mn6  1  0.77431801  0.48720440  0.24029335  1
  Mn  Mn7  1  0.24699656  0.01516298  0.24028707  1
  Mn  Mn8  1  0.00135157  0.49854238  0.49450352  1
  Mn  Mn9  1  0.24973288  0.50109136  0.75076642  1
  Mn  Mn10  1  0.74902661  0.50073983  0.75162416  1
  Mn  Mn11  1  0.75002110  0.00102990  0.75076690  1
  O  O12  1  0.60410996  0.74365560  0.14066678  1
  O  O13  1  0.17169705  0.74015027  0.13070104  1
  O  O14  1  0.61158491  0.30032170  0.12991788  1
  O  O15  1  0.87525239  0.71193567  0.37963573  1
  O  O16  1  0.11999957  0.24990805  0.12906823  1
  O  O17  1  0.33048001  0.25949140  0.37861601  1
  O  O18  1  0.89277241  0.26086483  0.36683299  1
  O  O19  1  0.10498280  0.73811829  0.62569705  1
  O  O20  1  0.66044099  0.73076570  0.63422791  1
  O  O21  1  0.87959982  0.73423446  0.85934847  1
  O  O22  1  0.09711342  0.29499731  0.63304688  1
  O  O23  1  0.40326792  0.70411864  0.86859143  1
  O  O24  1  0.62000954  0.26790443  0.64231693  1
  O  O25  1  0.83710237  0.27129580  0.86760294  1
  O  O26  1  0.39610612  0.26364709  0.87431023  1
