# generated using pymatgen
data_YNb2NO5
_symmetry_space_group_name_H-M   'P 1'
_cell_length_a   14.99668636
_cell_length_b   5.92416288
_cell_length_c   5.28343091
_cell_angle_alpha   90.19558980
_cell_angle_beta   89.77930972
_cell_angle_gamma   90.17855123
_symmetry_Int_Tables_number   1
_chemical_formula_structural   YNb2NO5
_chemical_formula_sum   'Y4 Nb8 N4 O20'
_cell_volume   469.38638585
_cell_formula_units_Z   4
loop_
 _symmetry_equiv_pos_site_id
 _symmetry_equiv_pos_as_xyz
  1  'x, y, z'
loop_
 _atom_site_type_symbol
 _atom_site_label
 _atom_site_symmetry_multiplicity
 _atom_site_fract_x
 _atom_site_fract_y
 _atom_site_fract_z
 _atom_site_occupancy
  Y  Y0  1  0.00200837  0.30041082  0.25261334  1
  Y  Y1  1  0.00027391  0.70467438  0.75417141  1
  Y  Y2  1  0.49837512  0.20436043  0.75496884  1
  Y  Y3  1  0.50143056  0.79006087  0.24997022  1
  Nb  Nb4  1  0.16856963  0.17190170  0.72571013  1
  Nb  Nb5  1  0.17229000  0.81934940  0.21951898  1
  Nb  Nb6  1  0.33881343  0.32790699  0.21777475  1
  Nb  Nb7  1  0.33153256  0.68676866  0.74238439  1
  Nb  Nb8  1  0.66571030  0.32193046  0.26915618  1
  Nb  Nb9  1  0.67296007  0.69301836  0.77013828  1
  Nb  Nb10  1  0.83159349  0.17509333  0.76406237  1
  Nb  Nb11  1  0.83571200  0.81019943  0.28501358  1
  N  N12  1  0.24469148  0.87870419  0.90567286  1
  N  N13  1  0.40041736  0.57365002  0.03195564  1
  N  N14  1  0.75642161  0.87910057  0.60415174  1
  N  N15  1  0.91816860  0.61034628  0.39866155  1
  O  O16  1  0.08588571  0.61027013  0.10174915  1
  O  O17  1  0.08317608  0.38413464  0.60975954  1
  O  O18  1  0.09592858  0.08105903  0.02866747  1
  O  O19  1  0.09744340  0.91624905  0.52989338  1
  O  O20  1  0.23999659  0.13160750  0.39808164  1
  O  O21  1  0.25449214  0.62792133  0.40560318  1
  O  O22  1  0.25324778  0.36813959  0.89989058  1
  O  O23  1  0.39943822  0.40398555  0.53100609  1
  O  O24  1  0.41837633  0.10224565  0.10436938  1
  O  O25  1  0.41849673  0.88587017  0.59961591  1
  O  O26  1  0.58197268  0.11422749  0.39910341  1
  O  O27  1  0.58272605  0.89071125  0.89897348  1
  O  O28  1  0.59600328  0.41302318  0.97723532  1
  O  O29  1  0.59969884  0.58380743  0.47045685  1
  O  O30  1  0.74257821  0.37446663  0.59865202  1
  O  O31  1  0.74179586  0.62712384  0.09536596  1
  O  O32  1  0.75262044  0.14598297  0.08829178  1
  O  O33  1  0.90114890  0.09297452  0.46017218  1
  O  O34  1  0.89859152  0.91911689  0.96220617  1
  O  O35  1  0.91741216  0.37960928  0.89498224  1
