# generated using pymatgen
data_LiV2F7
_symmetry_space_group_name_H-M   'P 1'
_cell_length_a   7.31995788
_cell_length_b   7.87190970
_cell_length_c   5.22515746
_cell_angle_alpha   75.58155887
_cell_angle_beta   90.00000006
_cell_angle_gamma   62.29355600
_symmetry_Int_Tables_number   1
_chemical_formula_structural   LiV2F7
_chemical_formula_sum   'Li2 V4 F14'
_cell_volume   255.80249391
_cell_formula_units_Z   2
loop_
 _symmetry_equiv_pos_site_id
 _symmetry_equiv_pos_as_xyz
  1  'x, y, z'
loop_
 _atom_site_type_symbol
 _atom_site_label
 _atom_site_symmetry_multiplicity
 _atom_site_fract_x
 _atom_site_fract_y
 _atom_site_fract_z
 _atom_site_occupancy
  Li  Li0  1  0.47981293  1.00000000  0.25000000  1
  Li  Li1  1  0.52018707  0.00000000  0.75000000  1
  V  V2  1  0.34862281  0.66503868  0.74169082  1
  V  V3  1  0.98633751  0.66503868  0.24169082  1
  V  V4  1  0.65137719  0.33496132  0.25830918  1
  V  V5  1  0.01366249  0.33496132  0.75830918  1
  F  F6  1  0.38611196  0.89136101  0.55457070  1
  F  F7  1  0.72252704  0.89136101  0.05457070  1
  F  F8  1  0.08817879  0.76071385  0.49075898  1
  F  F9  1  0.15110836  0.76071385  0.99075898  1
  F  F10  1  0.58234998  0.60593724  0.00834098  1
  F  F11  1  0.81171278  0.60593724  0.50834098  1
  F  F12  1  0.50000000  0.50000000  0.50000000  1
  F  F13  1  0.00000000  0.50000000  0.00000000  1
  F  F14  1  0.18828722  0.39406276  0.49165902  1
  F  F15  1  0.41765002  0.39406276  0.99165902  1
  F  F16  1  0.91182121  0.23928615  0.50924102  1
  F  F17  1  0.84889164  0.23928615  0.00924102  1
  F  F18  1  0.61388804  0.10863899  0.44542930  1
  F  F19  1  0.27747296  0.10863899  0.94542930  1
