# generated using pymatgen
data_Li2V5NiO12
_symmetry_space_group_name_H-M   'P 1'
_cell_length_a   6.94170977
_cell_length_b   6.94170902
_cell_length_c   5.60124804
_cell_angle_alpha   72.31609026
_cell_angle_beta   107.68390525
_cell_angle_gamma   103.33960528
_symmetry_Int_Tables_number   1
_chemical_formula_structural   Li2V5NiO12
_chemical_formula_sum   'Li2 V5 Ni1 O12'
_cell_volume   242.13717617
_cell_formula_units_Z   1
loop_
 _symmetry_equiv_pos_site_id
 _symmetry_equiv_pos_as_xyz
  1  'x, y, z'
loop_
 _atom_site_type_symbol
 _atom_site_label
 _atom_site_symmetry_multiplicity
 _atom_site_fract_x
 _atom_site_fract_y
 _atom_site_fract_z
 _atom_site_occupancy
  Li  Li0  1  0.26979276  0.26979276  0.25000000  1
  Li  Li1  1  0.72820144  0.72820144  0.75000000  1
  V  V2  1  0.08501232  0.08501232  0.75000000  1
  V  V3  1  0.16480573  0.61858233  0.70324335  1
  V  V4  1  0.38179944  0.80880248  0.24107666  1
  V  V5  1  0.61858233  0.16480573  0.79675665  1
  V  V6  1  0.80880248  0.38179944  0.25892334  1
  Ni  Ni7  1  0.91255929  0.91255929  0.25000000  1
  O  O8  1  0.99413473  0.81515241  0.64733281  1
  O  O9  1  0.09519940  0.33332605  0.81133830  1
  O  O10  1  0.20065448  0.97940332  0.14619583  1
  O  O11  1  0.41615779  0.70018261  0.57569008  1
  O  O12  1  0.33332605  0.09519940  0.68866170  1
  O  O13  1  0.31134964  0.61846818  0.07808628  1
  O  O14  1  0.70018261  0.41615779  0.92430992  1
  O  O15  1  0.61182989  0.95458373  0.18865893  1
  O  O16  1  0.61846818  0.31134964  0.42191372  1
  O  O17  1  0.81515241  0.99413473  0.85266719  1
  O  O18  1  0.95458373  0.61182989  0.31134107  1
  O  O19  1  0.97940332  0.20065448  0.35380417  1
