# generated using pymatgen
data_Cr2P4H3O16
_symmetry_space_group_name_H-M   'P 1'
_cell_length_a   4.92660280
_cell_length_b   7.98963477
_cell_length_c   7.38825918
_cell_angle_alpha   89.60042338
_cell_angle_beta   102.02774912
_cell_angle_gamma   89.53776891
_symmetry_Int_Tables_number   1
_chemical_formula_structural   Cr2P4H3O16
_chemical_formula_sum   'Cr2 P4 H3 O16'
_cell_volume   284.41014979
_cell_formula_units_Z   1
loop_
 _symmetry_equiv_pos_site_id
 _symmetry_equiv_pos_as_xyz
  1  'x, y, z'
loop_
 _atom_site_type_symbol
 _atom_site_label
 _atom_site_symmetry_multiplicity
 _atom_site_fract_x
 _atom_site_fract_y
 _atom_site_fract_z
 _atom_site_occupancy
  Cr  Cr0  1  0.00618637  0.00105939  0.50140607  1
  Cr  Cr1  1  0.50137527  0.49935354  0.99815644  1
  P  P2  1  0.10498454  0.33250277  0.24233578  1
  P  P3  1  0.38958522  0.84243001  0.24697132  1
  P  P4  1  0.60890002  0.16102120  0.75011466  1
  P  P5  1  0.89662235  0.66737193  0.75716018  1
  H  H6  1  0.92784532  0.02028363  0.96609703  1
  H  H7  1  0.35237081  0.52556776  0.39221610  1
  H  H8  1  0.66257137  0.46681255  0.62158804  1
  O  O9  1  0.16285828  0.56939234  0.84238524  1
  O  O10  1  0.03807146  0.15721577  0.30106546  1
  O  O11  1  0.20136795  0.83289426  0.39407617  1
  O  O12  1  0.25406923  0.42527166  0.42286195  1
  O  O13  1  0.33548186  0.07768497  0.66092833  1
  O  O14  1  0.55871667  0.34528810  0.79844008  1
  O  O15  1  0.24786765  0.94128743  0.07475283  1
  O  O16  1  0.30153435  0.32769875  0.10368568  1
  O  O17  1  0.70095575  0.67246843  0.89743100  1
  O  O18  1  0.73338562  0.06413321  0.93200781  1
  O  O19  1  0.43645234  0.65893900  0.19347342  1
  O  O20  1  0.66517057  0.92211206  0.34053390  1
  O  O21  1  0.74304597  0.57096085  0.57995794  1
  O  O22  1  0.80171473  0.16687543  0.60920730  1
  O  O23  1  0.96056057  0.84226925  0.69835310  1
  O  O24  1  0.83718573  0.42900373  0.15669418  1
