# generated using pymatgen
data_Li4TiMn2Ni3(PO4)6
_symmetry_space_group_name_H-M   'P 1'
_cell_length_a   8.50646851
_cell_length_b   8.59847196
_cell_length_c   8.58803482
_cell_angle_alpha   61.75785966
_cell_angle_beta   61.98712753
_cell_angle_gamma   62.09886432
_symmetry_Int_Tables_number   1
_chemical_formula_structural   Li4TiMn2Ni3(PO4)6
_chemical_formula_sum   'Li4 Ti1 Mn2 Ni3 P6 O24'
_cell_volume   463.52230268
_cell_formula_units_Z   1
loop_
 _symmetry_equiv_pos_site_id
 _symmetry_equiv_pos_as_xyz
  1  'x, y, z'
loop_
 _atom_site_type_symbol
 _atom_site_label
 _atom_site_symmetry_multiplicity
 _atom_site_fract_x
 _atom_site_fract_y
 _atom_site_fract_z
 _atom_site_occupancy
  Li  Li0  1  0.74788991  0.15179977  0.35314215  1
  Li  Li1  1  0.29197798  0.84965590  0.64994001  1
  Li  Li2  1  0.64822165  0.29159093  0.85161842  1
  Li  Li3  1  0.85131396  0.64829013  0.29394123  1
  Ti  Ti4  1  0.85207948  0.84537282  0.85096088  1
  Mn  Mn5  1  0.01678619  0.00224218  0.99712192  1
  Mn  Mn6  1  0.48786529  0.50499136  0.50072128  1
  Ni  Ni7  1  0.14432493  0.14898910  0.14669775  1
  Ni  Ni8  1  0.35626010  0.35614528  0.35210164  1
  Ni  Ni9  1  0.64476723  0.64654269  0.65000900  1
  P  P10  1  0.24547850  0.54474103  0.95795853  1
  P  P11  1  0.55277520  0.95909329  0.24761728  1
  P  P12  1  0.94937983  0.24444399  0.54322464  1
  P  P13  1  0.04655278  0.74477156  0.44743210  1
  P  P14  1  0.44753016  0.04588918  0.74838899  1
  P  P15  1  0.74742163  0.44576433  0.04653207  1
  O  O16  1  0.11764721  0.29045443  0.50375172  1
  O  O17  1  0.30153881  0.52217084  0.11181551  1
  O  O18  1  0.05068306  0.91364115  0.26655545  1
  O  O19  1  0.55096123  0.10795315  0.29895956  1
  O  O20  1  0.98811912  0.80868949  0.61793039  1
  O  O21  1  0.23804309  0.59412972  0.44187852  1
  O  O22  1  0.25934770  0.07500315  0.90345186  1
  O  O23  1  0.46768759  0.22726467  0.58365433  1
  O  O24  1  0.17467274  0.39716494  0.99305507  1
  O  O25  1  0.59835528  0.43831227  0.24154502  1
  O  O26  1  0.09227916  0.74923808  0.91921050  1
  O  O27  1  0.39124216  0.01095213  0.18668345  1
  O  O28  1  0.61672601  0.98104041  0.81900993  1
  O  O29  1  0.90072126  0.25327405  0.07400822  1
  O  O30  1  0.40367362  0.56649354  0.76034132  1
  O  O31  1  0.81532630  0.61223413  0.98869434  1
  O  O32  1  0.56512783  0.76348586  0.40726504  1
  O  O33  1  0.75308224  0.91492186  0.09139859  1
  O  O34  1  0.75527130  0.40486288  0.57184214  1
  O  O35  1  0.96007535  0.18357663  0.39750490  1
  O  O36  1  0.47022304  0.89348532  0.68806275  1
  O  O37  1  0.92128113  0.08832764  0.74582952  1
  O  O38  1  0.68269951  0.47309427  0.89538987  1
  O  O39  1  0.89458743  0.67690483  0.47775407  1
