# generated using pymatgen
data_Ti2O3
_symmetry_space_group_name_H-M   'P 1'
_cell_length_a   13.33235886
_cell_length_b   3.00369070
_cell_length_c   7.66365959
_cell_angle_alpha   90.00000000
_cell_angle_beta   98.96210450
_cell_angle_gamma   90.00000000
_symmetry_Int_Tables_number   1
_chemical_formula_structural   Ti2O3
_chemical_formula_sum   'Ti12 O18'
_cell_volume   303.15430156
_cell_formula_units_Z   6
loop_
 _symmetry_equiv_pos_site_id
 _symmetry_equiv_pos_as_xyz
  1  'x, y, z'
loop_
 _atom_site_type_symbol
 _atom_site_label
 _atom_site_symmetry_multiplicity
 _atom_site_fract_x
 _atom_site_fract_y
 _atom_site_fract_z
 _atom_site_occupancy
  Ti  Ti0  1  0.01868426  0.25000000  0.19331464  1
  Ti  Ti1  1  0.11747651  0.25000000  0.54281804  1
  Ti  Ti2  1  0.21949203  0.75000000  0.15908621  1
  Ti  Ti3  1  0.27516617  0.75000000  0.82020355  1
  Ti  Ti4  1  0.39902823  0.25000000  0.48925787  1
  Ti  Ti5  1  0.43582721  0.25000000  0.13408170  1
  Ti  Ti6  1  0.56417279  0.75000000  0.86591830  1
  Ti  Ti7  1  0.60097177  0.75000000  0.51074213  1
  Ti  Ti8  1  0.72483383  0.25000000  0.17979645  1
  Ti  Ti9  1  0.78050797  0.25000000  0.84091379  1
  Ti  Ti10  1  0.88252349  0.75000000  0.45718196  1
  Ti  Ti11  1  0.98131574  0.75000000  0.80668536  1
  O  O12  1  0.03316336  0.75000000  0.38515100  1
  O  O13  1  0.12511857  0.75000000  0.73020141  1
  O  O14  1  0.07591435  0.75000000  0.05003394  1
  O  O15  1  0.17584286  0.25000000  0.31006405  1
  O  O16  1  0.28457423  0.25000000  0.63972926  1
  O  O17  1  0.26604239  0.25000000  0.00772680  1
  O  O18  1  0.42193740  0.75000000  0.94692396  1
  O  O19  1  0.36731584  0.75000000  0.28547743  1
  O  O20  1  0.47172876  0.75000000  0.63195467  1
  O  O21  1  0.52827124  0.25000000  0.36804533  1
  O  O22  1  0.63268416  0.25000000  0.71452257  1
  O  O23  1  0.57806260  0.25000000  0.05307604  1
  O  O24  1  0.73395761  0.75000000  0.99227320  1
  O  O25  1  0.71542577  0.75000000  0.36027074  1
  O  O26  1  0.82415714  0.75000000  0.68993595  1
  O  O27  1  0.92408565  0.25000000  0.94996606  1
  O  O28  1  0.87488143  0.25000000  0.26979859  1
  O  O29  1  0.96683664  0.25000000  0.61484900  1
