# generated using pymatgen
data_LiV4O5F7
_symmetry_space_group_name_H-M   'P 1'
_cell_length_a   5.16063044
_cell_length_b   5.41227605
_cell_length_c   7.51796388
_cell_angle_alpha   87.00638005
_cell_angle_beta   89.97015345
_cell_angle_gamma   93.16213260
_symmetry_Int_Tables_number   1
_chemical_formula_structural   LiV4O5F7
_chemical_formula_sum   'Li1 V4 O5 F7'
_cell_volume   209.37537459
_cell_formula_units_Z   1
loop_
 _symmetry_equiv_pos_site_id
 _symmetry_equiv_pos_as_xyz
  1  'x, y, z'
loop_
 _atom_site_type_symbol
 _atom_site_label
 _atom_site_symmetry_multiplicity
 _atom_site_fract_x
 _atom_site_fract_y
 _atom_site_fract_z
 _atom_site_occupancy
  Li  Li0  1  0.48451326  0.92613103  0.19139548  1
  V  V1  1  0.01458305  0.02978601  0.49407368  1
  V  V2  1  0.50223717  0.47973824  0.02183918  1
  V  V3  1  0.52986163  0.51810315  0.50311448  1
  V  V4  1  0.99183691  0.99401178  0.98882619  1
  O  O5  1  0.20826393  0.29066237  0.46212445  1
  O  O6  1  0.28482680  0.18122659  0.04720290  1
  O  O7  1  0.57859749  0.49642478  0.24659453  1
  O  O8  1  0.71421616  0.79169734  0.97007217  1
  O  O9  1  0.78878416  0.71707461  0.53670681  1
  F  F10  1  0.11059924  0.97640136  0.74240141  1
  F  F11  1  0.20585619  0.69683391  0.05811949  1
  F  F12  1  0.30098367  0.80720858  0.42679312  1
  F  F13  1  0.40972654  0.50232005  0.75396906  1
  F  F14  1  0.70395430  0.20669460  0.55626915  1
  F  F15  1  0.79697837  0.29620978  0.94237332  1
  F  F16  1  0.86574913  0.01577379  0.25084257  1
