# generated using pymatgen
data_LiVF4
_symmetry_space_group_name_H-M   'P 1'
_cell_length_a   6.67092766
_cell_length_b   6.07269358
_cell_length_c   10.11883200
_cell_angle_alpha   90.00000000
_cell_angle_beta   143.58795449
_cell_angle_gamma   117.07530034
_symmetry_Int_Tables_number   1
_chemical_formula_structural   LiVF4
_chemical_formula_sum   'Li2 V2 F8'
_cell_volume   156.18674955
_cell_formula_units_Z   2
loop_
 _symmetry_equiv_pos_site_id
 _symmetry_equiv_pos_as_xyz
  1  'x, y, z'
loop_
 _atom_site_type_symbol
 _atom_site_label
 _atom_site_symmetry_multiplicity
 _atom_site_fract_x
 _atom_site_fract_y
 _atom_site_fract_z
 _atom_site_occupancy
  Li  Li0  1  0.00260910  0.50252696  0.50222062  1
  Li  Li1  1  0.00260910  0.50008214  0.00222062  1
  V  V2  1  0.99884375  0.09760660  0.74922669  1
  V  V3  1  0.99884375  0.90123715  0.24922669  1
  F  F4  1  0.35956565  0.53709364  0.03295657  1
  F  F5  1  0.37984083  0.10532083  0.06675745  1
  F  F6  1  0.35956565  0.82247200  0.53295657  1
  F  F7  1  0.37984083  0.27451900  0.56675745  1
  F  F8  1  0.62726277  0.90486570  0.93832377  1
  F  F9  1  0.63102489  0.46310475  0.95998290  1
  F  F10  1  0.62726277  0.72239708  0.43832377  1
  F  F11  1  0.63102489  0.16792014  0.45998290  1
