# generated using pymatgen
data_K2WO8
_symmetry_space_group_name_H-M   'P 1'
_cell_length_a   11.16735086
_cell_length_b   11.16735086
_cell_length_c   11.16735086
_cell_angle_alpha   64.27701956
_cell_angle_beta   64.27701956
_cell_angle_gamma   64.27701956
_symmetry_Int_Tables_number   1
_chemical_formula_structural   K2WO8
_chemical_formula_sum   'K12 W6 O48'
_cell_volume   1077.31922434
_cell_formula_units_Z   6
loop_
 _symmetry_equiv_pos_site_id
 _symmetry_equiv_pos_as_xyz
  1  'x, y, z'
loop_
 _atom_site_type_symbol
 _atom_site_label
 _atom_site_symmetry_multiplicity
 _atom_site_fract_x
 _atom_site_fract_y
 _atom_site_fract_z
 _atom_site_occupancy
  O  O0  1  0.42340080  0.21801743  0.56946261  1
  O  O1  1  0.21801743  0.56946261  0.42340080  1
  O  O2  1  0.56946261  0.42340080  0.21801743  1
  O  O3  1  0.93053739  0.28198257  0.07659920  1
  O  O4  1  0.28198257  0.07659920  0.93053739  1
  O  O5  1  0.07659920  0.93053739  0.28198257  1
  O  O6  1  0.57659920  0.78198257  0.43053739  1
  O  O7  1  0.78198257  0.43053739  0.57659920  1
  O  O8  1  0.43053739  0.57659920  0.78198257  1
  O  O9  1  0.06946261  0.71801743  0.92340080  1
  O  O10  1  0.71801743  0.92340080  0.06946261  1
  O  O11  1  0.92340080  0.06946261  0.71801743  1
  O  O12  1  0.39826765  0.27548925  0.68088029  1
  O  O13  1  0.27548925  0.68088029  0.39826765  1
  O  O14  1  0.68088029  0.39826765  0.27548925  1
  O  O15  1  0.81911971  0.22451075  0.10173235  1
  O  O16  1  0.22451075  0.10173235  0.81911971  1
  O  O17  1  0.10173235  0.81911971  0.22451075  1
  O  O18  1  0.96566478  0.30638678  0.36131450  1
  O  O19  1  0.36131450  0.96566478  0.30638678  1
  O  O20  1  0.30638678  0.36131450  0.96566478  1
  O  O21  1  0.19361322  0.53433522  0.13868550  1
  O  O22  1  0.13868550  0.19361322  0.53433522  1
  O  O23  1  0.53433522  0.13868550  0.19361322  1
  O  O24  1  0.03433522  0.69361322  0.63868550  1
  O  O25  1  0.63868550  0.03433522  0.69361322  1
  O  O26  1  0.69361322  0.63868550  0.03433522  1
  O  O27  1  0.80638678  0.46566478  0.86131450  1
  O  O28  1  0.86131450  0.80638678  0.46566478  1
  O  O29  1  0.46566478  0.86131450  0.80638678  1
  O  O30  1  0.96245731  0.15789544  0.43382302  1
  O  O31  1  0.43382302  0.96245731  0.15789544  1
  O  O32  1  0.15789544  0.43382302  0.96245731  1
  O  O33  1  0.34210456  0.53754269  0.06617698  1
  O  O34  1  0.06617698  0.34210456  0.53754269  1
  O  O35  1  0.53754269  0.06617698  0.34210456  1
  O  O36  1  0.03754269  0.84210456  0.56617698  1
  O  O37  1  0.56617698  0.03754269  0.84210456  1
  O  O38  1  0.84210456  0.56617698  0.03754269  1
  O  O39  1  0.65789544  0.46245731  0.93382302  1
  O  O40  1  0.93382302  0.65789544  0.46245731  1
  O  O41  1  0.46245731  0.93382302  0.65789544  1
  O  O42  1  0.89826765  0.18088029  0.77548925  1
  O  O43  1  0.77548925  0.89826765  0.18088029  1
  O  O44  1  0.18088029  0.77548925  0.89826765  1
  O  O45  1  0.31911971  0.60173235  0.72451075  1
  O  O46  1  0.72451075  0.31911971  0.60173235  1
  O  O47  1  0.60173235  0.72451075  0.31911971  1
  K  K48  1  0.75000000  0.10649578  0.39350422  1
  K  K49  1  0.10649578  0.39350422  0.75000000  1
  K  K50  1  0.39350422  0.75000000  0.10649578  1
  K  K51  1  0.25000000  0.89350422  0.60649578  1
  K  K52  1  0.89350422  0.60649578  0.25000000  1
  K  K53  1  0.60649578  0.25000000  0.89350422  1
  K  K54  1  0.50000000  0.50000000  0.50000000  1
  K  K55  1  0.00000000  0.00000000  0.00000000  1
  K  K56  1  0.83257283  0.83257283  0.83257283  1
  K  K57  1  0.66742717  0.66742717  0.66742717  1
  K  K58  1  0.16742717  0.16742717  0.16742717  1
  K  K59  1  0.33257283  0.33257283  0.33257283  1
  W  W60  1  0.75000000  0.43255801  0.06744199  1
  W  W61  1  0.43255801  0.06744199  0.75000000  1
  W  W62  1  0.06744199  0.75000000  0.43255801  1
  W  W63  1  0.25000000  0.56744199  0.93255801  1
  W  W64  1  0.56744199  0.93255801  0.25000000  1
  W  W65  1  0.93255801  0.25000000  0.56744199  1
