# generated using pymatgen
data_Li3V4F19
_symmetry_space_group_name_H-M   'P 1'
_cell_length_a   5.29212066
_cell_length_b   10.43199049
_cell_length_c   12.32622795
_cell_angle_alpha   108.54936312
_cell_angle_beta   92.55789634
_cell_angle_gamma   102.96051955
_symmetry_Int_Tables_number   1
_chemical_formula_structural   Li3V4F19
_chemical_formula_sum   'Li6 V8 F38'
_cell_volume   623.73803251
_cell_formula_units_Z   2
loop_
 _symmetry_equiv_pos_site_id
 _symmetry_equiv_pos_as_xyz
  1  'x, y, z'
loop_
 _atom_site_type_symbol
 _atom_site_label
 _atom_site_symmetry_multiplicity
 _atom_site_fract_x
 _atom_site_fract_y
 _atom_site_fract_z
 _atom_site_occupancy
  Li  Li0  1  0.52392883  0.83151179  0.93563317  1
  Li  Li1  1  0.27649765  0.25506352  0.50653219  1
  Li  Li2  1  0.39830245  0.51432023  0.20513928  1
  Li  Li3  1  0.60169755  0.48567977  0.79486072  1
  Li  Li4  1  0.72350235  0.74493648  0.49346781  1
  Li  Li5  1  0.47607117  0.16848821  0.06436683  1
  V  V6  1  0.10833098  0.95154622  0.78825459  1
  V  V7  1  0.13142264  0.61810489  0.63158721  1
  V  V8  1  0.05472268  0.33741223  0.94362124  1
  V  V9  1  0.33959577  0.88419883  0.36582829  1
  V  V10  1  0.66040423  0.11580117  0.63417171  1
  V  V11  1  0.94527732  0.66258777  0.05637876  1
  V  V12  1  0.86857736  0.38189511  0.36841279  1
  V  V13  1  0.89166902  0.04845378  0.21174541  1
  F  F14  1  0.06437308  0.81457819  0.43159013  1
  F  F15  1  0.12063081  0.99142898  0.31195258  1
  F  F16  1  0.33686937  0.99567612  0.91911943  1
  F  F17  1  0.16786651  0.75300496  0.21213872  1
  F  F18  1  0.23716732  0.73830020  0.99755458  1
  F  F19  1  0.26209090  0.78076509  0.77942792  1
  F  F20  1  0.12526075  0.52387575  0.08306952  1
  F  F21  1  0.12013964  0.42512079  0.51004035  1
  F  F22  1  0.03133982  0.21335022  0.35507500  1
  F  F23  1  0.14977882  0.45547076  0.30260978  1
  F  F24  1  0.12703129  0.14850769  0.87439638  1
  F  F25  1  0.39978798  0.69532737  0.56100853  1
  F  F26  1  0.34601753  0.55040751  0.70427133  1
  F  F27  1  0.32030034  0.40917781  0.87008668  1
  F  F28  1  0.48619184  0.73557244  0.34335655  1
  F  F29  1  0.61217071  0.98102964  0.29538088  1
  F  F30  1  0.17850056  0.11011234  0.14791246  1
  F  F31  1  0.28281614  0.32666240  0.05667485  1
  F  F32  1  0.62545720  0.93135473  0.50800881  1
  F  F33  1  0.37454280  0.06864527  0.49199119  1
  F  F34  1  0.71718386  0.67333760  0.94332515  1
  F  F35  1  0.82149944  0.88988766  0.85208754  1
  F  F36  1  0.38782929  0.01897036  0.70461912  1
  F  F37  1  0.51380816  0.26442756  0.65664345  1
  F  F38  1  0.67969966  0.59082219  0.12991332  1
  F  F39  1  0.65398247  0.44959249  0.29572867  1
  F  F40  1  0.60021202  0.30467163  0.43899147  1
  F  F41  1  0.87296871  0.85149231  0.12560362  1
  F  F42  1  0.85022118  0.54452924  0.69739022  1
  F  F43  1  0.96866018  0.78664978  0.64492500  1
  F  F44  1  0.87986036  0.57487921  0.48995965  1
  F  F45  1  0.87473925  0.47612425  0.91693048  1
  F  F46  1  0.73790910  0.21923491  0.22057208  1
  F  F47  1  0.76283268  0.26169980  0.00244542  1
  F  F48  1  0.83213349  0.24699504  0.78786128  1
  F  F49  1  0.66313063  0.00432388  0.08088057  1
  F  F50  1  0.87936919  0.00857102  0.68804742  1
  F  F51  1  0.93562692  0.18542181  0.56840987  1
