# generated using pymatgen
data_Li2Mn3(BO3)3
_symmetry_space_group_name_H-M   'P 1'
_cell_length_a   8.25125115
_cell_length_b   8.25149025
_cell_length_c   9.46723059
_cell_angle_alpha   89.95178604
_cell_angle_beta   89.98463458
_cell_angle_gamma   60.00286250
_symmetry_Int_Tables_number   1
_chemical_formula_structural   Li2Mn3(BO3)3
_chemical_formula_sum   'Li6 Mn9 B9 O27'
_cell_volume   558.23639845
_cell_formula_units_Z   3
loop_
 _symmetry_equiv_pos_site_id
 _symmetry_equiv_pos_as_xyz
  1  'x, y, z'
loop_
 _atom_site_type_symbol
 _atom_site_label
 _atom_site_symmetry_multiplicity
 _atom_site_fract_x
 _atom_site_fract_y
 _atom_site_fract_z
 _atom_site_occupancy
  Li  Li0  1  0.01009025  0.28750327  0.83405930  1
  Li  Li1  1  0.02621230  0.26780174  0.16606923  1
  Li  Li2  1  0.26802728  0.70567755  0.49888329  1
  Li  Li3  1  0.28720488  0.70289492  0.16727599  1
  Li  Li4  1  0.70556431  0.02668750  0.83245221  1
  Li  Li5  1  0.70288320  0.00972155  0.50045939  1
  Mn  Mn6  1  0.63512118  0.37078809  0.00218018  1
  Mn  Mn7  1  0.62022608  0.39608189  0.66839513  1
  Mn  Mn8  1  0.65756925  0.34616574  0.33681922  1
  Mn  Mn9  1  0.34637807  0.99554526  0.67038991  1
  Mn  Mn10  1  0.37040114  0.99459762  0.33573592  1
  Mn  Mn11  1  0.39631028  0.98381150  0.00194939  1
  Mn  Mn12  1  0.98369616  0.61968932  0.33531458  1
  Mn  Mn13  1  0.99460931  0.63492626  0.66894277  1
  Mn  Mn14  1  0.99577468  0.65817399  0.00372634  1
  B  B15  1  0.01790126  0.00571622  0.99416964  1
  B  B16  1  0.32803481  0.33359355  0.16561789  1
  B  B17  1  0.33838843  0.32826921  0.83246190  1
  B  B18  1  0.00525542  0.97636009  0.32741382  1
  B  B19  1  0.33340478  0.33819080  0.49912345  1
  B  B20  1  0.97671299  0.01784030  0.66080304  1
  B  B21  1  0.65783922  0.66377741  0.50449412  1
  B  B22  1  0.67824537  0.65776285  0.17130890  1
  B  B23  1  0.66426883  0.67848702  0.83785266  1
  O  O24  1  0.06667372  0.11784996  0.68102625  1
  O  O25  1  0.09720740  0.07583909  0.30736362  1
  O  O26  1  0.10881177  0.11178809  0.99551147  1
  O  O27  1  0.13375908  0.44380482  0.17610677  1
  O  O28  1  0.14737164  0.44063431  0.83576854  1
  O  O29  1  0.14123850  0.45717632  0.48749785  1
  O  O30  1  0.40093587  0.14152504  0.15381599  1
  O  O31  1  0.42192859  0.13397913  0.84236363  1
  O  O32  1  0.41259354  0.14707359  0.50227724  1
  O  O33  1  0.07613573  0.82663029  0.63998922  1
  O  O34  1  0.11805296  0.81559151  0.01384806  1
  O  O35  1  0.11134646  0.77937937  0.32855601  1
  O  O36  1  0.43997961  0.41274297  0.16832639  1
  O  O37  1  0.45794979  0.40074624  0.82049127  1
  O  O38  1  0.44369169  0.42224398  0.50884780  1
  O  O39  1  0.77968718  0.10879355  0.66171324  1
  O  O40  1  0.81506424  0.06639982  0.34668789  1
  O  O41  1  0.82660659  0.09748620  0.97358151  1
  O  O42  1  0.46638219  0.78401049  0.50661910  1
  O  O43  1  0.48638670  0.78024053  0.15511535  1
  O  O44  1  0.47219552  0.79534607  0.85237783  1
  O  O45  1  0.73286484  0.47164670  0.51842495  1
  O  O46  1  0.74941273  0.46630978  0.17320006  1
  O  O47  1  0.73375657  0.48670992  0.82134839  1
  O  O48  1  0.78014636  0.73335346  0.48819724  1
  O  O49  1  0.79541660  0.73265080  0.18542182  1
  O  O50  1  0.78434666  0.74992134  0.83962526  1
