# generated using pymatgen
data_Li2Mn3(BO3)3
_symmetry_space_group_name_H-M   'P 1'
_cell_length_a   8.25796981
_cell_length_b   9.49823289
_cell_length_c   8.84039294
_cell_angle_alpha   68.52961190
_cell_angle_beta   117.68392253
_cell_angle_gamma   90.48021580
_symmetry_Int_Tables_number   1
_chemical_formula_structural   Li2Mn3(BO3)3
_chemical_formula_sum   'Li6 Mn9 B9 O27'
_cell_volume   560.31426835
_cell_formula_units_Z   3
loop_
 _symmetry_equiv_pos_site_id
 _symmetry_equiv_pos_as_xyz
  1  'x, y, z'
loop_
 _atom_site_type_symbol
 _atom_site_label
 _atom_site_symmetry_multiplicity
 _atom_site_fract_x
 _atom_site_fract_y
 _atom_site_fract_z
 _atom_site_occupancy
  Li  Li0  1  0.29163428  0.41367098  0.28071346  1
  Li  Li1  1  0.30309787  0.73976859  0.27343758  1
  Li  Li2  1  0.98172909  0.92271227  0.69987620  1
  Li  Li3  1  0.97854242  0.26123715  0.69688733  1
  Li  Li4  1  0.72575887  0.50229531  0.02136470  1
  Li  Li5  1  0.71074191  0.16395412  0.01748337  1
  Mn  Mn6  1  0.00975686  0.54384354  0.37962414  1
  Mn  Mn7  1  0.01189308  0.88332835  0.35355680  1
  Mn  Mn8  1  0.01313834  0.21318974  0.36281858  1
  Mn  Mn9  1  0.33951517  0.33761459  0.99417302  1
  Mn  Mn10  1  0.36132618  0.00482018  0.99668159  1
  Mn  Mn11  1  0.38208410  0.67361697  0.98388604  1
  Mn  Mn12  1  0.62585975  0.11173890  0.64677384  1
  Mn  Mn13  1  0.62218938  0.78992956  0.63129038  1
  Mn  Mn14  1  0.63752236  0.44914830  0.64450324  1
  B  B15  1  0.99459284  0.00294261  0.98793733  1
  B  B16  1  0.33185074  0.93371612  0.66421925  1
  B  B17  1  0.32833643  0.27990672  0.66933095  1
  B  B18  1  0.01126592  0.66250915  0.00415807  1
  B  B19  1  0.34690948  0.62079190  0.66917064  1
  B  B20  1  0.66767570  0.72338852  0.33152361  1
  B  B21  1  0.66284449  0.39362426  0.33445800  1
  B  B22  1  0.67285100  0.04892511  0.33973678  1
  B  B23  1  0.98811638  0.33305936  0.99882134  1
  O  O24  1  0.26283358  0.88847058  0.79121856  1
  O  O25  1  0.24882620  0.23930639  0.78402260  1
  O  O26  1  0.27879661  0.58536687  0.79271363  1
  O  O27  1  0.21326750  0.01244034  0.47836883  1
  O  O28  1  0.21438265  0.35474387  0.47570803  1
  O  O29  1  0.23023366  0.67569023  0.47877050  1
  O  O30  1  0.17665751  0.31578423  0.11319887  1
  O  O31  1  0.18454934  0.94901513  0.09798567  1
  O  O32  1  0.20639454  0.63440388  0.09909774  1
  O  O33  1  0.52381630  0.89487266  0.73847391  1
  O  O34  1  0.52009133  0.24625087  0.74696119  1
  O  O35  1  0.54273920  0.59780521  0.74477326  1
  O  O36  1  0.57374297  0.35421644  0.43857274  1
  O  O37  1  0.59943197  0.69214055  0.45638268  1
  O  O38  1  0.60398954  0.99870067  0.46412760  1
  O  O39  1  0.53264315  0.77844788  0.14332776  1
  O  O40  1  0.55244168  0.12291800  0.14850792  1
  O  O41  1  0.55548466  0.46913532  0.13792315  1
  O  O42  1  0.90501317  0.73692768  0.81287271  1
  O  O43  1  0.91459327  0.36988500  0.81067236  1
  O  O44  1  0.91356017  0.06269604  0.79318112  1
  O  O45  1  0.85419861  0.35955893  0.41629113  1
  O  O46  1  0.85338618  0.70231636  0.38910878  1
  O  O47  1  0.86297802  0.02515840  0.41260655  1
  O  O48  1  0.86808999  0.31328080  0.07388807  1
  O  O49  1  0.88710211  0.99698844  0.07039197  1
  O  O50  1  0.92146046  0.61375095  0.10842745  1
