# generated using pymatgen
data_LiFe2OF5
_symmetry_space_group_name_H-M   'P 1'
_cell_length_a   8.82321912
_cell_length_b   8.82168371
_cell_length_c   4.70059949
_cell_angle_alpha   90.66520698
_cell_angle_beta   89.88190650
_cell_angle_gamma   119.89086647
_symmetry_Int_Tables_number   1
_chemical_formula_structural   LiFe2OF5
_chemical_formula_sum   'Li3 Fe6 O3 F15'
_cell_volume   317.17992648
_cell_formula_units_Z   3
loop_
 _symmetry_equiv_pos_site_id
 _symmetry_equiv_pos_as_xyz
  1  'x, y, z'
loop_
 _atom_site_type_symbol
 _atom_site_label
 _atom_site_symmetry_multiplicity
 _atom_site_fract_x
 _atom_site_fract_y
 _atom_site_fract_z
 _atom_site_occupancy
  Li  Li0  1  0.00769018  0.63495975  0.98839813  1
  Li  Li1  1  0.35466744  0.35304497  0.01474960  1
  Li  Li2  1  0.64209870  0.99138046  0.98921634  1
  Fe  Fe3  1  0.00960621  0.32044275  0.51645473  1
  Fe  Fe4  1  0.32384255  0.66259010  0.52932607  1
  Fe  Fe5  1  0.99936126  0.99849163  0.00559530  1
  Fe  Fe6  1  0.29526287  0.00344335  0.47228325  1
  Fe  Fe7  1  0.70088573  0.71223377  0.52795848  1
  Fe  Fe8  1  0.66460483  0.33470719  0.48445826  1
  O  O9  1  0.11287641  0.53236553  0.72364946  1
  O  O10  1  0.20915058  0.10329712  0.23098931  1
  O  O11  1  0.79092783  0.89832305  0.77597698  1
  F  F12  1  0.10670628  0.88217166  0.75912391  1
  F  F13  1  0.22611952  0.77572298  0.27111565  1
  F  F14  1  0.42230857  0.89226862  0.72352606  1
  F  F15  1  0.22656664  0.44542706  0.27396912  1
  F  F16  1  0.11523443  0.21722778  0.76158796  1
  F  F17  1  0.54978836  0.77343673  0.29122017  1
  F  F18  1  0.46579014  0.57736202  0.73462025  1
  F  F19  1  0.44939770  0.22442296  0.71367330  1
  F  F20  1  0.57920795  0.46395073  0.27220712  1
  F  F21  1  0.53807920  0.11656407  0.26331646  1
  F  F22  1  0.77402370  0.54989666  0.71909705  1
  F  F23  1  0.88998685  0.77469450  0.24209679  1
  F  F24  1  0.77373846  0.22591382  0.71158141  1
  F  F25  1  0.87843141  0.41746650  0.26198117  1
  F  F26  1  0.89354718  0.11819125  0.24182765  1
