# generated using pymatgen
data_Mn8O13F3
_symmetry_space_group_name_H-M   'P 1'
_cell_length_a   7.14792283
_cell_length_b   7.08952673
_cell_length_c   4.99747795
_cell_angle_alpha   89.93074078
_cell_angle_beta   89.85453017
_cell_angle_gamma   101.68209227
_symmetry_Int_Tables_number   1
_chemical_formula_structural   Mn8O13F3
_chemical_formula_sum   'Mn8 O13 F3'
_cell_volume   248.00219453
_cell_formula_units_Z   1
loop_
 _symmetry_equiv_pos_site_id
 _symmetry_equiv_pos_as_xyz
  1  'x, y, z'
loop_
 _atom_site_type_symbol
 _atom_site_label
 _atom_site_symmetry_multiplicity
 _atom_site_fract_x
 _atom_site_fract_y
 _atom_site_fract_z
 _atom_site_occupancy
  Mn  Mn0  1  0.43621462  0.07196030  0.28938378  1
  Mn  Mn1  1  0.07094963  0.42708421  0.74084830  1
  Mn  Mn2  1  0.93822854  0.08065361  0.22500009  1
  Mn  Mn3  1  0.57843037  0.43423515  0.73673059  1
  Mn  Mn4  1  0.41611590  0.58332478  0.25725238  1
  Mn  Mn5  1  0.07746285  0.91748373  0.74089750  1
  Mn  Mn6  1  0.58176336  0.92270512  0.77351679  1
  Mn  Mn7  1  0.92500819  0.57118328  0.24061527  1
  O  O8  1  0.05986988  0.17309521  0.90571465  1
  O  O9  1  0.17521840  0.06086248  0.41800155  1
  O  O10  1  0.67534698  0.06291475  0.09605787  1
  O  O11  1  0.06078380  0.66723311  0.56290094  1
  O  O12  1  0.16663302  0.56158914  0.06562592  1
  O  O13  1  0.55880682  0.17420450  0.60099906  1
  O  O14  1  0.32689345  0.43700531  0.57610024  1
  O  O15  1  0.55600302  0.66636958  0.92985342  1
  O  O16  1  0.67159538  0.56092282  0.41800481  1
  O  O17  1  0.43808644  0.83368491  0.45132505  1
  O  O18  1  0.93837272  0.32652158  0.40945122  1
  O  O19  1  0.82666963  0.43913837  0.91099886  1
  O  O20  1  0.93286166  0.82765940  0.06482371  1
  F  F21  1  0.44052460  0.31446363  0.07551438  1
  F  F22  1  0.32359589  0.94083106  0.96647293  1
  F  F23  1  0.82456485  0.94487393  0.54391268  1
