# generated using pymatgen
data_Li2MnPO4F
_symmetry_space_group_name_H-M   'P 1'
_cell_length_a   7.40265890
_cell_length_b   7.85191877
_cell_length_c   7.99345247
_cell_angle_alpha   91.35129341
_cell_angle_beta   91.67690703
_cell_angle_gamma   60.37924933
_symmetry_Int_Tables_number   1
_chemical_formula_structural   Li2MnPO4F
_chemical_formula_sum   'Li8 Mn4 P4 O16 F4'
_cell_volume   403.70641490
_cell_formula_units_Z   4
loop_
 _symmetry_equiv_pos_site_id
 _symmetry_equiv_pos_as_xyz
  1  'x, y, z'
loop_
 _atom_site_type_symbol
 _atom_site_label
 _atom_site_symmetry_multiplicity
 _atom_site_fract_x
 _atom_site_fract_y
 _atom_site_fract_z
 _atom_site_occupancy
  Li  Li0  1  0.55250116  0.16629502  0.84824692  1
  Li  Li1  1  0.09160903  0.58400544  0.94200807  1
  Li  Li2  1  0.22652156  0.83777397  0.67004745  1
  Li  Li3  1  0.21319949  0.17478968  0.82037865  1
  Li  Li4  1  0.72762552  0.85598450  0.17479536  1
  Li  Li5  1  0.75369388  0.49604978  0.25389387  1
  Li  Li6  1  0.42089486  0.40480693  0.55326473  1
  Li  Li7  1  0.77621300  0.13855923  0.32530703  1
  Mn  Mn8  1  0.49757814  0.98402804  0.49275453  1
  Mn  Mn9  1  0.99947131  0.50749214  0.50832041  1
  Mn  Mn10  1  0.50179872  0.51675522  0.99688149  1
  Mn  Mn11  1  0.00828073  0.00754584  0.00958007  1
  P  P12  1  0.70830892  0.76794299  0.85563717  1
  P  P13  1  0.79709795  0.23076315  0.64323819  1
  P  P14  1  0.22165134  0.76022892  0.34874921  1
  P  P15  1  0.28273241  0.23650290  0.15061191  1
  O  O16  1  0.76386867  0.92143175  0.93878837  1
  O  O17  1  0.67623244  0.66616965  0.00777104  1
  O  O18  1  0.89795111  0.61515693  0.75725681  1
  O  O19  1  0.99600884  0.11945730  0.75466367  1
  O  O20  1  0.50855342  0.88063236  0.74529562  1
  O  O21  1  0.60817437  0.36864832  0.75618950  1
  O  O22  1  0.82275726  0.34677084  0.50086356  1
  O  O23  1  0.73011646  0.08920171  0.55810914  1
  O  O24  1  0.26042727  0.91613448  0.43916876  1
  O  O25  1  0.18938873  0.64803739  0.49531539  1
  O  O26  1  0.40947026  0.61397421  0.24500351  1
  O  O27  1  0.48505828  0.13147164  0.26235214  1
  O  O28  1  0.01740268  0.86332132  0.23776451  1
  O  O29  1  0.09590844  0.39055263  0.24907625  1
  O  O30  1  0.32835412  0.33778439  0.99882669  1
  O  O31  1  0.23803324  0.08414262  0.05932877  1
  F  F32  1  0.21756428  0.72925982  0.88101822  1
  F  F33  1  0.73291606  0.72504697  0.37224038  1
  F  F34  1  0.28703228  0.26875568  0.62805827  1
  F  F35  1  0.76651078  0.27210527  0.12581036  1
