# generated using pymatgen
data_Li2Mn3(BO3)3
_symmetry_space_group_name_H-M   'P 1'
_cell_length_a   8.28207034
_cell_length_b   8.71972520
_cell_length_c   6.30606630
_cell_angle_alpha   69.79376928
_cell_angle_beta   88.93821125
_cell_angle_gamma   117.36793280
_symmetry_Int_Tables_number   1
_chemical_formula_structural   Li2Mn3(BO3)3
_chemical_formula_sum   'Li4 Mn6 B6 O18'
_cell_volume   370.85501020
_cell_formula_units_Z   2
loop_
 _symmetry_equiv_pos_site_id
 _symmetry_equiv_pos_as_xyz
  1  'x, y, z'
loop_
 _atom_site_type_symbol
 _atom_site_label
 _atom_site_symmetry_multiplicity
 _atom_site_fract_x
 _atom_site_fract_y
 _atom_site_fract_z
 _atom_site_occupancy
  Li  Li0  1  0.70287485  0.71907424  0.40640536  1
  Li  Li1  1  0.02549667  0.31066630  0.10890633  1
  Li  Li2  1  0.01142653  0.30533965  0.58718232  1
  Li  Li3  1  0.27908854  0.97942104  0.28286977  1
  Mn  Mn4  1  0.99682240  0.66900644  0.15678396  1
  Mn  Mn5  1  0.98805541  0.62964214  0.68811886  1
  Mn  Mn6  1  0.64713198  0.99402947  0.99661586  1
  Mn  Mn7  1  0.62334016  0.00285569  0.50183793  1
  Mn  Mn8  1  0.39606090  0.37749343  0.30382420  1
  Mn  Mn9  1  0.34134897  0.30011285  0.84431526  1
  B  B10  1  0.99924306  0.01201750  0.00538660  1
  B  B11  1  0.00103900  0.01257820  0.48968978  1
  B  B12  1  0.67180327  0.32473874  0.10835110  1
  B  B13  1  0.66779882  0.34101944  0.57199758  1
  B  B14  1  0.33277900  0.64918227  0.91505523  1
  B  B15  1  0.32793973  0.66528799  0.40235303  1
  O  O16  1  0.74305930  0.20077927  0.18354433  1
  O  O17  1  0.73243645  0.21384173  0.64776093  1
  O  O18  1  0.78766063  0.51232261  0.99762285  1
  O  O19  1  0.78503824  0.53212799  0.48473218  1
  O  O20  1  0.81518378  0.87801553  0.08210998  1
  O  O21  1  0.80728965  0.91776001  0.52979105  1
  O  O22  1  0.47692609  0.24671647  0.15314597  1
  O  O23  1  0.47562169  0.26828606  0.58472011  1
  O  O24  1  0.41647264  0.55869009  0.43737111  1
  O  O25  1  0.38356467  0.51026282  0.98788280  1
  O  O26  1  0.46824592  0.83831672  0.81151940  1
  O  O27  1  0.44044183  0.86052083  0.32304517  1
  O  O28  1  0.10104325  0.20900772  0.39924960  1
  O  O29  1  0.05613874  0.20388556  0.89260926  1
  O  O30  1  0.13806182  0.58615361  0.44368974  1
  O  O31  1  0.14744276  0.59595916  0.95071006  1
  O  O32  1  0.13874323  0.96449747  0.03918612  1
  O  O33  1  0.09076001  0.91034296  0.53164015  1
