# generated using pymatgen
data_PuH18C3S3(O2F)9
_symmetry_space_group_name_H-M   'P 1'
_cell_length_a   14.07100357
_cell_length_b   14.07100390
_cell_length_c   7.38538183
_cell_angle_alpha   90.00000000
_cell_angle_beta   90.00000000
_cell_angle_gamma   119.99999924
_symmetry_Int_Tables_number   1
_chemical_formula_structural   PuH18C3S3(O2F)9
_chemical_formula_sum   'Pu2 H36 C6 S6 O36 F18'
_cell_volume   1266.34997218
_cell_formula_units_Z   2
loop_
 _symmetry_equiv_pos_site_id
 _symmetry_equiv_pos_as_xyz
  1  'x, y, z'
loop_
 _atom_site_type_symbol
 _atom_site_label
 _atom_site_symmetry_multiplicity
 _atom_site_fract_x
 _atom_site_fract_y
 _atom_site_fract_z
 _atom_site_occupancy
  Pu  Pu0  1  0.33333300  0.66666700  0.75000000  1
  Pu  Pu1  1  0.66666700  0.33333300  0.25000000  1
  S  S2  1  0.05846001  0.38036431  0.25000000  1
  S  S3  1  0.67809570  0.05846001  0.75000000  1
  S  S4  1  0.38036431  0.32190430  0.75000000  1
  S  S5  1  0.61963569  0.67809570  0.25000000  1
  S  S6  1  0.32190430  0.94153999  0.25000000  1
  S  S7  1  0.94153999  0.61963569  0.75000000  1
  O  O8  1  0.14264274  0.49132563  0.75000000  1
  O  O9  1  0.65131711  0.14264274  0.25000000  1
  O  O10  1  0.49132563  0.34868289  0.25000000  1
  O  O11  1  0.50867437  0.65131711  0.75000000  1
  O  O12  1  0.34868289  0.85735726  0.75000000  1
  O  O13  1  0.85735726  0.50867437  0.25000000  1
  O  O14  1  0.33689321  0.54451135  0.50737232  1
  O  O15  1  0.79238186  0.33689321  0.00737232  1
  O  O16  1  0.54451135  0.20761814  0.00737232  1
  O  O17  1  0.45548865  0.79238186  0.50737232  1
  O  O18  1  0.20761814  0.66310679  0.50737232  1
  O  O19  1  0.66310679  0.45548865  0.00737232  1
  O  O20  1  0.66310679  0.45548865  0.49262768  1
  O  O21  1  0.20761814  0.66310679  0.99262768  1
  O  O22  1  0.45548865  0.79238186  0.99262768  1
  O  O23  1  0.54451135  0.20761814  0.49262768  1
  O  O24  1  0.79238186  0.33689321  0.49262768  1
  O  O25  1  0.33689321  0.54451135  0.99262768  1
  O  O26  1  0.01465164  0.39937518  0.41750344  1
  O  O27  1  0.61527646  0.01465164  0.91750344  1
  O  O28  1  0.39937518  0.38472354  0.91750344  1
  O  O29  1  0.60062482  0.61527646  0.41750344  1
  O  O30  1  0.38472354  0.98534836  0.41750344  1
  O  O31  1  0.98534836  0.60062482  0.91750344  1
  O  O32  1  0.98534836  0.60062482  0.58249656  1
  O  O33  1  0.38472354  0.98534836  0.08249656  1
  O  O34  1  0.60062482  0.61527646  0.08249656  1
  O  O35  1  0.39937518  0.38472354  0.58249656  1
  O  O36  1  0.61527646  0.01465164  0.58249656  1
  O  O37  1  0.01465164  0.39937518  0.08249656  1
  O  O38  1  0.17814718  0.42919081  0.25000000  1
  O  O39  1  0.74895637  0.17814718  0.75000000  1
  O  O40  1  0.42919081  0.25104363  0.75000000  1
  O  O41  1  0.57080919  0.74895637  0.25000000  1
  O  O42  1  0.25104363  0.82185282  0.25000000  1
  O  O43  1  0.82185282  0.57080919  0.75000000  1
  C  C44  1  0.00587806  0.22912814  0.25000000  1
  C  C45  1  0.77674992  0.00587806  0.75000000  1
  C  C46  1  0.22912814  0.22325008  0.75000000  1
  C  C47  1  0.77087186  0.77674992  0.25000000  1
  C  C48  1  0.22325008  0.99412194  0.25000000  1
  C  C49  1  0.99412194  0.77087186  0.75000000  1
  F  F50  1  0.04131644  0.20027208  0.39875006  1
  F  F51  1  0.84104436  0.04131644  0.89875006  1
  F  F52  1  0.20027208  0.15895564  0.89875006  1
  F  F53  1  0.79972792  0.84104436  0.39875006  1
  F  F54  1  0.15895564  0.95868356  0.39875006  1
  F  F55  1  0.95868356  0.79972792  0.89875006  1
  F  F56  1  0.95868356  0.79972792  0.60124994  1
  F  F57  1  0.15895564  0.95868356  0.10124994  1
  F  F58  1  0.79972792  0.84104436  0.10124994  1
  F  F59  1  0.20027208  0.15895564  0.60124994  1
  F  F60  1  0.84104436  0.04131644  0.60124994  1
  F  F61  1  0.04131644  0.20027208  0.10124994  1
  F  F62  1  0.89476615  0.17462626  0.25000000  1
  F  F63  1  0.72013989  0.89476615  0.75000000  1
  F  F64  1  0.17462626  0.27986011  0.75000000  1
  F  F65  1  0.82537374  0.72013989  0.25000000  1
  F  F66  1  0.27986011  0.10523385  0.25000000  1
  F  F67  1  0.10523385  0.82537374  0.75000000  1
  H  H68  1  0.09799236  0.45519617  0.64248726  1
  H  H69  1  0.64279619  0.09799236  0.14248726  1
  H  H70  1  0.45519617  0.35720381  0.14248726  1
  H  H71  1  0.54480383  0.64279619  0.64248726  1
  H  H72  1  0.35720381  0.90200764  0.64248726  1
  H  H73  1  0.90200764  0.54480383  0.14248726  1
  H  H74  1  0.90200764  0.54480383  0.35751274  1
  H  H75  1  0.35720381  0.90200764  0.85751274  1
  H  H76  1  0.54480383  0.64279619  0.85751274  1
  H  H77  1  0.45519617  0.35720381  0.35751274  1
  H  H78  1  0.64279619  0.09799236  0.35751274  1
  H  H79  1  0.09799236  0.45519617  0.85751274  1
  H  H80  1  0.27557757  0.50646391  0.42133528  1
  H  H81  1  0.76911367  0.27557757  0.92133528  1
  H  H82  1  0.50646391  0.23088633  0.92133528  1
  H  H83  1  0.49353609  0.76911367  0.42133528  1
  H  H84  1  0.23088633  0.72442243  0.42133528  1
  H  H85  1  0.72442243  0.49353609  0.92133528  1
  H  H86  1  0.72442243  0.49353609  0.57866472  1
  H  H87  1  0.23088633  0.72442243  0.07866472  1
  H  H88  1  0.49353609  0.76911367  0.07866472  1
  H  H89  1  0.50646391  0.23088633  0.57866472  1
  H  H90  1  0.76911367  0.27557757  0.57866472  1
  H  H91  1  0.27557757  0.50646391  0.07866472  1
  H  H92  1  0.36292781  0.49286501  0.53507618  1
  H  H93  1  0.87006280  0.36292781  0.03507618  1
  H  H94  1  0.49286501  0.12993720  0.03507618  1
  H  H95  1  0.50713499  0.87006280  0.53507618  1
  H  H96  1  0.12993720  0.63707219  0.53507618  1
  H  H97  1  0.63707219  0.50713499  0.03507618  1
  H  H98  1  0.63707219  0.50713499  0.46492382  1
  H  H99  1  0.12993720  0.63707219  0.96492382  1
  H  H100  1  0.50713499  0.87006280  0.96492382  1
  H  H101  1  0.49286501  0.12993720  0.46492382  1
  H  H102  1  0.87006280  0.36292781  0.46492382  1
  H  H103  1  0.36292781  0.49286501  0.96492382  1
