# generated using pymatgen
data_Li2Mn3(BO3)3
_symmetry_space_group_name_H-M   'P 1'
_cell_length_a   8.16399267
_cell_length_b   8.72027543
_cell_length_c   6.30120894
_cell_angle_alpha   71.11057335
_cell_angle_beta   90.89181903
_cell_angle_gamma   62.46765581
_symmetry_Int_Tables_number   1
_chemical_formula_structural   Li2Mn3(BO3)3
_chemical_formula_sum   'Li4 Mn6 B6 O18'
_cell_volume   369.00109340
_cell_formula_units_Z   2
loop_
 _symmetry_equiv_pos_site_id
 _symmetry_equiv_pos_as_xyz
  1  'x, y, z'
loop_
 _atom_site_type_symbol
 _atom_site_label
 _atom_site_symmetry_multiplicity
 _atom_site_fract_x
 _atom_site_fract_y
 _atom_site_fract_z
 _atom_site_occupancy
  Li  Li0  1  0.97998695  0.71959099  0.41237989  1
  Li  Li1  1  0.72016758  0.30151080  0.12102193  1
  Li  Li2  1  0.30833087  0.98236343  0.25970968  1
  Li  Li3  1  0.30739705  0.97896520  0.74584753  1
  Mn  Mn4  1  0.30587479  0.65484392  0.14158661  1
  Mn  Mn5  1  0.38176624  0.59722665  0.67356766  1
  Mn  Mn6  1  0.63333534  0.01790568  0.50932895  1
  Mn  Mn7  1  0.66461796  0.00300426  0.00522524  1
  Mn  Mn8  1  0.00201792  0.37680489  0.32255526  1
  Mn  Mn9  1  0.99679277  0.35481069  0.83107301  1
  B  B10  1  0.65650668  0.67950761  0.41215952  1
  B  B11  1  0.65638774  0.66390918  0.92041280  1
  B  B12  1  0.00885672  0.00069221  0.00918785  1
  B  B13  1  0.01754439  0.99485209  0.49650574  1
  B  B14  1  0.33841634  0.33093835  0.07399038  1
  B  B15  1  0.32478528  0.33029220  0.58484160  1
  O  O16  1  0.95759865  0.86403629  0.09078856  1
  O  O17  1  0.91502900  0.90482662  0.54226069  1
  O  O18  1  0.85186053  0.55990879  0.48371220  1
  O  O19  1  0.84436726  0.53445786  0.01986108  1
  O  O20  1  0.58981550  0.86842622  0.31282732  1
  O  O21  1  0.59207637  0.85052658  0.82227661  1
  O  O22  1  0.87834540  0.18651865  0.92948747  1
  O  O23  1  0.92146352  0.18897749  0.39550243  1
  O  O24  1  0.53604341  0.58923131  0.92766636  1
  O  O25  1  0.53094056  0.61173387  0.43610672  1
  O  O26  1  0.20156592  0.94049453  0.01633636  1
  O  O27  1  0.21374504  0.89512460  0.54092665  1
  O  O28  1  0.52762104  0.22534289  0.16811161  1
  O  O29  1  0.50905110  0.21426406  0.68169676  1
  O  O30  1  0.26059289  0.51741203  0.92211288  1
  O  O31  1  0.25294060  0.52330000  0.47414129  1
  O  O32  1  0.21453639  0.26246297  0.12819590  1
  O  O33  1  0.19963218  0.25940508  0.59675747  1
