# generated using pymatgen
data_Mn8O13F3
_symmetry_space_group_name_H-M   'P 1'
_cell_length_a   6.71595745
_cell_length_b   5.53527878
_cell_length_c   6.74128101
_cell_angle_alpha   89.14401076
_cell_angle_beta   95.90525375
_cell_angle_gamma   89.67333635
_symmetry_Int_Tables_number   1
_chemical_formula_structural   Mn8O13F3
_chemical_formula_sum   'Mn8 O13 F3'
_cell_volume   249.24079385
_cell_formula_units_Z   1
loop_
 _symmetry_equiv_pos_site_id
 _symmetry_equiv_pos_as_xyz
  1  'x, y, z'
loop_
 _atom_site_type_symbol
 _atom_site_label
 _atom_site_symmetry_multiplicity
 _atom_site_fract_x
 _atom_site_fract_y
 _atom_site_fract_z
 _atom_site_occupancy
  Mn  Mn0  1  0.37123488  0.35009600  0.11745127  1
  Mn  Mn1  1  0.12726160  0.68661296  0.37843461  1
  Mn  Mn2  1  0.86897092  0.15524642  0.12083089  1
  Mn  Mn3  1  0.38566418  0.13631620  0.63504762  1
  Mn  Mn4  1  0.13458384  0.85062734  0.87613290  1
  Mn  Mn5  1  0.62574599  0.85647328  0.37240086  1
  Mn  Mn6  1  0.61474963  0.63077925  0.86759436  1
  Mn  Mn7  1  0.87875955  0.35533388  0.63710053  1
  O  O8  1  0.15245422  0.10959468  0.07423744  1
  O  O9  1  0.17169102  0.61499625  0.09924012  1
  O  O10  1  0.57556467  0.60336579  0.15046504  1
  O  O11  1  0.08023161  0.62013062  0.65546698  1
  O  O12  1  0.35341880  0.89639338  0.42969234  1
  O  O13  1  0.09905802  0.11021943  0.67552361  1
  O  O14  1  0.58890894  0.11377623  0.16940009  1
  O  O15  1  0.41145930  0.88476890  0.83249737  1
  O  O16  1  0.66045904  0.11184689  0.57857030  1
  O  O17  1  0.89676811  0.89379414  0.31745237  1
  O  O18  1  0.41694627  0.38725631  0.84222477  1
  O  O19  1  0.66916018  0.60522899  0.59159038  1
  O  O20  1  0.82493984  0.38888396  0.90309095  1
  F  F21  1  0.32774519  0.37936226  0.41095987  1
  F  F22  1  0.92776468  0.39223470  0.35621143  1
  F  F23  1  0.83646151  0.86666312  0.90838690  1
