# generated using pymatgen
data_LiMn2(BO3)2
_symmetry_space_group_name_H-M   'P 1'
_cell_length_a   5.29937995
_cell_length_b   13.98104392
_cell_length_c   10.38423583
_cell_angle_alpha   89.71890448
_cell_angle_beta   91.69827990
_cell_angle_gamma   79.52774415
_symmetry_Int_Tables_number   1
_chemical_formula_structural   LiMn2(BO3)2
_chemical_formula_sum   'Li6 Mn12 B12 O36'
_cell_volume   756.18773505
_cell_formula_units_Z   6
loop_
 _symmetry_equiv_pos_site_id
 _symmetry_equiv_pos_as_xyz
  1  'x, y, z'
loop_
 _atom_site_type_symbol
 _atom_site_label
 _atom_site_symmetry_multiplicity
 _atom_site_fract_x
 _atom_site_fract_y
 _atom_site_fract_z
 _atom_site_occupancy
  Li  Li0  1  0.83867435  0.99849302  0.34228046  1
  Li  Li1  1  0.53229282  0.66178364  0.31927273  1
  Li  Li2  1  0.53523777  0.67316915  0.83165942  1
  Li  Li3  1  0.20727112  0.33140097  0.33772651  1
  Li  Li4  1  0.17488553  0.33863224  0.82579802  1
  Li  Li5  1  0.14159313  0.00928790  0.65780643  1
  Mn  Mn6  1  0.95917657  0.78555891  0.36331974  1
  Mn  Mn7  1  0.93957336  0.43297595  0.11444662  1
  Mn  Mn8  1  0.72050441  0.88771152  0.61762001  1
  Mn  Mn9  1  0.63682417  0.45420250  0.36976530  1
  Mn  Mn10  1  0.71264711  0.22696203  0.87651458  1
  Mn  Mn11  1  0.41116360  0.88891558  0.86576831  1
  Mn  Mn12  1  0.56897527  0.12757473  0.13470200  1
  Mn  Mn13  1  0.25861057  0.77478863  0.10690776  1
  Mn  Mn14  1  0.38124962  0.56644943  0.61223335  1
  Mn  Mn15  1  0.28365147  0.09880351  0.38441180  1
  Mn  Mn16  1  0.09437810  0.54305270  0.86835340  1
  Mn  Mn17  1  0.03381315  0.21833256  0.62495355  1
  B  B18  1  0.95649742  0.76792846  0.86326502  1
  B  B19  1  0.70139638  0.89366393  0.12915500  1
  B  B20  1  0.94108212  0.44888975  0.62480226  1
  B  B21  1  0.72642169  0.22845722  0.38019842  1
  B  B22  1  0.38421665  0.88036667  0.36985791  1
  B  B23  1  0.61305782  0.44683515  0.86554134  1
  B  B24  1  0.39309128  0.54535936  0.12488733  1
  B  B25  1  0.60688061  0.11038175  0.62291771  1
  B  B26  1  0.27270834  0.78842789  0.62428545  1
  B  B27  1  0.06639276  0.55879634  0.36373475  1
  B  B28  1  0.26847713  0.11813371  0.87195642  1
  B  B29  1  0.05610551  0.20760202  0.14075744  1
  O  O30  1  0.87401726  0.81036959  0.17790715  1
  O  O31  1  0.72573591  0.98349082  0.16479142  1
  O  O32  1  0.00138188  0.46840261  0.32859451  1
  O  O33  1  0.89386420  0.64281037  0.36089314  1
  O  O34  1  0.88645317  0.67967282  0.87338318  1
  O  O35  1  0.78523556  0.84935126  0.81586905  1
  O  O36  1  0.97834927  0.21708858  0.43581144  1
  O  O37  1  0.63882149  0.87945165  0.41118860  1
  O  O38  1  0.87240731  0.44105653  0.90514615  1
  O  O39  1  0.83373020  0.19632308  0.07360648  1
  O  O40  1  0.50149355  0.87247192  0.04796120  1
  O  O41  1  0.71320786  0.47259920  0.55164269  1
  O  O42  1  0.78403753  0.02857501  0.60318495  1
  O  O43  1  0.55678414  0.46425681  0.18389307  1
  O  O44  1  0.43602559  0.63584006  0.14258766  1
  O  O45  1  0.67703462  0.19397129  0.67208931  1
  O  O46  1  0.43083758  0.70393752  0.65030280  1
  O  O47  1  0.65532561  0.14350429  0.32760329  1
  O  O48  1  0.32993742  0.87697589  0.67615765  1
  O  O49  1  0.56679591  0.31508300  0.37755645  1
  O  O50  1  0.32460396  0.79353570  0.32026210  1
  O  O51  1  0.47077529  0.53800582  0.82756830  1
  O  O52  1  0.20176517  0.96097265  0.38214329  1
  O  O53  1  0.50520642  0.36650453  0.86729904  1
  O  O54  1  0.32296812  0.55736704  0.40502291  1
  O  O55  1  0.20629193  0.77920371  0.90271723  1
  O  O56  1  0.46085100  0.14100009  0.95253499  1
  O  O57  1  0.18765569  0.52280159  0.05051691  1
  O  O58  1  0.04723281  0.79760217  0.54892120  1
  O  O59  1  0.34593869  0.11198138  0.58714085  1
  O  O60  1  0.21996226  0.12274672  0.18564794  1
  O  O61  1  0.11687078  0.29580024  0.16390184  1
  O  O62  1  0.03573867  0.52749210  0.68148313  1
  O  O63  1  0.06790405  0.35702447  0.64453090  1
  O  O64  1  0.11060295  0.20232930  0.81377118  1
  O  O65  1  0.23367335  0.02797499  0.84160397  1
