# generated using pymatgen
data_Dy5Ti5O17
_symmetry_space_group_name_H-M   'P 1'
_cell_length_a   3.85870504
_cell_length_b   5.44235860
_cell_length_c   31.64887761
_cell_angle_alpha   90.00000000
_cell_angle_beta   90.00178224
_cell_angle_gamma   90.00000000
_symmetry_Int_Tables_number   1
_chemical_formula_structural   Dy5Ti5O17
_chemical_formula_sum   'Dy10 Ti10 O34'
_cell_volume   664.64087978
_cell_formula_units_Z   2
loop_
 _symmetry_equiv_pos_site_id
 _symmetry_equiv_pos_as_xyz
  1  'x, y, z'
loop_
 _atom_site_type_symbol
 _atom_site_label
 _atom_site_symmetry_multiplicity
 _atom_site_fract_x
 _atom_site_fract_y
 _atom_site_fract_z
 _atom_site_occupancy
  Dy  Dy0  1  0.01570370  0.17311611  0.01696117  1
  Dy  Dy1  1  0.01556727  0.71785561  0.69856707  1
  Dy  Dy2  1  0.01445094  0.26578689  0.79338138  1
  Dy  Dy3  1  0.01602460  0.32662066  0.57135854  1
  Dy  Dy4  1  0.01500506  0.79811280  0.89114197  1
  Dy  Dy5  1  0.51556727  0.28214439  0.19856707  1
  Dy  Dy6  1  0.51570370  0.82688389  0.51696117  1
  Dy  Dy7  1  0.51445094  0.73421311  0.29338138  1
  Dy  Dy8  1  0.51602460  0.67337934  0.07135854  1
  Dy  Dy9  1  0.51500506  0.20188720  0.39114197  1
  Ti  Ti10  1  0.01496047  0.75938236  0.20576715  1
  Ti  Ti11  1  0.01492026  0.25842966  0.29627241  1
  Ti  Ti12  1  0.01492155  0.75408905  0.38265896  1
  Ti  Ti13  1  0.01536008  0.28132955  0.46946254  1
  Ti  Ti14  1  0.51513323  0.77223926  0.61909911  1
  Ti  Ti15  1  0.51496047  0.24061764  0.70576715  1
  Ti  Ti16  1  0.51492026  0.74157034  0.79627241  1
  Ti  Ti17  1  0.51492155  0.24591095  0.88265896  1
  Ti  Ti18  1  0.51536008  0.71867045  0.96946254  1
  Ti  Ti19  1  0.01513323  0.22776074  0.11909911  1
  O  O20  1  0.01492749  0.21074027  0.71665445  1
  O  O21  1  0.01490825  0.69903326  0.79751940  1
  O  O22  1  0.01493257  0.21652594  0.87200275  1
  O  O23  1  0.01574217  0.45120117  0.06967156  1
  O  O24  1  0.01575909  0.95749005  0.08218715  1
  O  O25  1  0.01545355  0.76441376  0.96447256  1
  O  O26  1  0.01441577  0.55091756  0.16069590  1
  O  O27  1  0.01509029  0.07808220  0.17677152  1
  O  O28  1  0.01496530  0.95781156  0.26662526  1
  O  O29  1  0.01470210  0.45077787  0.24138500  1
  O  O30  1  0.51475151  0.89784782  0.85051008  1
  O  O31  1  0.51481981  0.40134903  0.82490105  1
  O  O32  1  0.51565812  0.44865807  0.00735154  1
  O  O33  1  0.51555597  0.94582869  0.01888899  1
  O  O34  1  0.51542484  0.02575394  0.92846377  1
  O  O35  1  0.51481530  0.54619575  0.91281751  1
  O  O36  1  0.51498071  0.28025338  0.12545820  1
  O  O37  1  0.51492749  0.78925973  0.21665445  1
  O  O38  1  0.51490825  0.30096674  0.29751940  1
  O  O39  1  0.51493257  0.78347406  0.37200275  1
  O  O40  1  0.51545355  0.23558624  0.46447256  1
  O  O41  1  0.51574217  0.54879883  0.56967156  1
  O  O42  1  0.51575909  0.04250995  0.58218715  1
  O  O43  1  0.51441577  0.44908244  0.66069590  1
  O  O44  1  0.51509029  0.92191780  0.67677152  1
  O  O45  1  0.51470210  0.54922213  0.74138500  1
  O  O46  1  0.51496530  0.04218844  0.76662526  1
  O  O47  1  0.01475151  0.10215218  0.35051008  1
  O  O48  1  0.01481981  0.59865097  0.32490105  1
  O  O49  1  0.01542484  0.97424606  0.42846377  1
  O  O50  1  0.01481530  0.45380425  0.41281751  1
  O  O51  1  0.01565812  0.55134293  0.50735154  1
  O  O52  1  0.01555597  0.05417131  0.51888899  1
  O  O53  1  0.01498071  0.71974662  0.62545820  1
