# generated using pymatgen
data_Li4FeF8
_symmetry_space_group_name_H-M   'P 1'
_cell_length_a   9.62650857
_cell_length_b   9.87156909
_cell_length_c   5.65480211
_cell_angle_alpha   90.00000000
_cell_angle_beta   90.00000000
_cell_angle_gamma   90.00000000
_symmetry_Int_Tables_number   1
_chemical_formula_structural   Li4FeF8
_chemical_formula_sum   'Li16 Fe4 F32'
_cell_volume   537.36874459
_cell_formula_units_Z   4
loop_
 _symmetry_equiv_pos_site_id
 _symmetry_equiv_pos_as_xyz
  1  'x, y, z'
loop_
 _atom_site_type_symbol
 _atom_site_label
 _atom_site_symmetry_multiplicity
 _atom_site_fract_x
 _atom_site_fract_y
 _atom_site_fract_z
 _atom_site_occupancy
  Li  Li0  1  0.11719688  0.92372455  0.12331636  1
  Li  Li1  1  0.11719688  0.57627545  0.12331636  1
  Li  Li2  1  0.13057419  0.94480934  0.62473497  1
  Li  Li3  1  0.13057419  0.55519066  0.62473497  1
  Li  Li4  1  0.36942581  0.05519066  0.12473497  1
  Li  Li5  1  0.36942581  0.44480934  0.12473497  1
  Li  Li6  1  0.38280312  0.07627545  0.62331636  1
  Li  Li7  1  0.38280312  0.42372455  0.62331636  1
  Li  Li8  1  0.61719688  0.92372455  0.37668364  1
  Li  Li9  1  0.61719688  0.57627545  0.37668364  1
  Li  Li10  1  0.63057419  0.55519066  0.87526503  1
  Li  Li11  1  0.63057419  0.94480934  0.87526503  1
  Li  Li12  1  0.86942581  0.05519066  0.37526503  1
  Li  Li13  1  0.86942581  0.44480934  0.37526503  1
  Li  Li14  1  0.88280312  0.07627545  0.87668364  1
  Li  Li15  1  0.88280312  0.42372455  0.87668364  1
  Fe  Fe16  1  0.10881428  0.25000000  0.36492820  1
  Fe  Fe17  1  0.39118572  0.75000000  0.86492820  1
  Fe  Fe18  1  0.60881428  0.25000000  0.13507180  1
  Fe  Fe19  1  0.89118572  0.75000000  0.63507180  1
  F  F20  1  0.01707993  0.11692491  0.15005860  1
  F  F21  1  0.01707993  0.38307509  0.15005860  1
  F  F22  1  0.01665643  0.12396598  0.59669270  1
  F  F23  1  0.01665643  0.37603402  0.59669270  1
  F  F24  1  0.23174663  0.75000000  0.08696738  1
  F  F25  1  0.23389915  0.75000000  0.64599776  1
  F  F26  1  0.24413596  0.00758814  0.37201907  1
  F  F27  1  0.24413596  0.49241186  0.37201907  1
  F  F28  1  0.25586404  0.50758814  0.87201907  1
  F  F29  1  0.25586404  0.99241186  0.87201907  1
  F  F30  1  0.26610085  0.25000000  0.14599776  1
  F  F31  1  0.26825337  0.25000000  0.58696738  1
  F  F32  1  0.48334357  0.62396598  0.09669270  1
  F  F33  1  0.48334357  0.87603402  0.09669270  1
  F  F34  1  0.48292007  0.61692491  0.65005860  1
  F  F35  1  0.48292007  0.88307509  0.65005860  1
  F  F36  1  0.51707993  0.11692491  0.34994140  1
  F  F37  1  0.51707993  0.38307509  0.34994140  1
  F  F38  1  0.51665643  0.12396598  0.90330730  1
  F  F39  1  0.51665643  0.37603402  0.90330730  1
  F  F40  1  0.73174663  0.75000000  0.41303262  1
  F  F41  1  0.73389915  0.75000000  0.85400224  1
  F  F42  1  0.74413596  0.00758814  0.12798093  1
  F  F43  1  0.74413596  0.49241186  0.12798093  1
  F  F44  1  0.75586404  0.50758814  0.62798093  1
  F  F45  1  0.75586404  0.99241186  0.62798093  1
  F  F46  1  0.76610085  0.25000000  0.35400224  1
  F  F47  1  0.76825337  0.25000000  0.91303262  1
  F  F48  1  0.98334357  0.62396598  0.40330730  1
  F  F49  1  0.98334357  0.87603402  0.40330730  1
  F  F50  1  0.98292007  0.61692491  0.84994140  1
  F  F51  1  0.98292007  0.88307509  0.84994140  1
