# generated using pymatgen
data_Mn6O7F5
_symmetry_space_group_name_H-M   'P 1'
_cell_length_a   7.32999858
_cell_length_b   5.58187997
_cell_length_c   5.58187997
_cell_angle_alpha   71.35577763
_cell_angle_beta   72.55314243
_cell_angle_gamma   72.55314243
_symmetry_Int_Tables_number   1
_chemical_formula_structural   Mn6O7F5
_chemical_formula_sum   'Mn6 O7 F5'
_cell_volume   201.11870772
_cell_formula_units_Z   1
loop_
 _symmetry_equiv_pos_site_id
 _symmetry_equiv_pos_as_xyz
  1  'x, y, z'
loop_
 _atom_site_type_symbol
 _atom_site_label
 _atom_site_symmetry_multiplicity
 _atom_site_fract_x
 _atom_site_fract_y
 _atom_site_fract_z
 _atom_site_occupancy
  Mn  Mn0  1  0.82709404  0.69835922  0.69835922  1
  Mn  Mn1  1  0.67316134  0.33766603  0.33766603  1
  Mn  Mn2  1  0.31737628  0.64817356  0.64817356  1
  Mn  Mn3  1  0.18050283  0.31450811  0.31450811  1
  Mn  Mn4  1  0.49467996  0.99750318  0.99750318  1
  Mn  Mn5  1  0.00059588  0.00544267  0.00544267  1
  O  O6  1  0.66547270  0.03479501  0.64720040  1
  O  O7  1  0.33281016  0.35021656  0.95529867  1
  O  O8  1  0.96687351  0.22924279  0.22924279  1
  O  O9  1  0.02337634  0.78297033  0.78297033  1
  O  O10  1  0.37886291  0.42233967  0.42233967  1
  O  O11  1  0.33281016  0.95529867  0.35021656  1
  O  O12  1  0.66547270  0.64720040  0.03479501  1
  F  F13  1  0.29473633  0.88071845  0.88071845  1
  F  F14  1  0.64002804  0.57779269  0.57779269  1
  F  F15  1  0.70775638  0.10125552  0.10125552  1
  F  F16  1  0.99919473  0.32327773  0.69323940  1
  F  F17  1  0.99919473  0.69323940  0.32327773  1
