# generated using pymatgen
data_Ni3OF5
_symmetry_space_group_name_H-M   'P 1'
_cell_length_a   7.37012098
_cell_length_b   5.60578396
_cell_length_c   5.61880038
_cell_angle_alpha   71.59610525
_cell_angle_beta   71.87203982
_cell_angle_gamma   71.90181596
_symmetry_Int_Tables_number   1
_chemical_formula_structural   Ni3OF5
_chemical_formula_sum   'Ni6 O2 F10'
_cell_volume   203.44553468
_cell_formula_units_Z   2
loop_
 _symmetry_equiv_pos_site_id
 _symmetry_equiv_pos_as_xyz
  1  'x, y, z'
loop_
 _atom_site_type_symbol
 _atom_site_label
 _atom_site_symmetry_multiplicity
 _atom_site_fract_x
 _atom_site_fract_y
 _atom_site_fract_z
 _atom_site_occupancy
  Ni  Ni0  1  0.83333300  0.66666700  0.66666700  1
  Ni  Ni1  1  0.33333300  0.66666700  0.66666700  1
  Ni  Ni2  1  0.66580996  0.34734085  0.31742583  1
  Ni  Ni3  1  0.16205635  0.34126861  0.33546122  1
  Ni  Ni4  1  0.50461065  0.99206439  0.99787178  1
  Ni  Ni5  1  0.00085604  0.98599315  0.01590717  1
  O  O6  1  0.66820684  0.64038270  0.02193664  1
  O  O7  1  0.99846016  0.69295130  0.31139636  1
  F  F8  1  0.33701665  0.35938360  0.97104595  1
  F  F9  1  0.66637590  0.03969884  0.62564581  1
  F  F10  1  0.96430169  0.23331276  0.23392732  1
  F  F11  1  0.63047791  0.56781181  0.56195360  1
  F  F12  1  0.29877701  0.89718060  0.89982310  1
  F  F13  1  0.03618809  0.76552119  0.77138040  1
  F  F14  1  0.36788999  0.43615240  0.43350990  1
  F  F15  1  0.70236531  0.10002024  0.09940668  1
  F  F16  1  0.00029110  0.29363416  0.70768719  1
  F  F17  1  0.32965035  0.97394940  0.36228705  1
