# generated using pymatgen
data_Tm2Sb2O7
_symmetry_space_group_name_H-M   'P 1'
_cell_length_a   7.50580358
_cell_length_b   7.50593073
_cell_length_c   18.32047344
_cell_angle_alpha   90.00934897
_cell_angle_beta   89.99217923
_cell_angle_gamma   119.99885257
_symmetry_Int_Tables_number   1
_chemical_formula_structural   Tm2Sb2O7
_chemical_formula_sum   'Tm12 Sb12 O42'
_cell_volume   893.86943267
_cell_formula_units_Z   6
loop_
 _symmetry_equiv_pos_site_id
 _symmetry_equiv_pos_as_xyz
  1  'x, y, z'
loop_
 _atom_site_type_symbol
 _atom_site_label
 _atom_site_symmetry_multiplicity
 _atom_site_fract_x
 _atom_site_fract_y
 _atom_site_fract_z
 _atom_site_occupancy
  Tm  Tm0  1  0.00020998  0.84032616  0.66675912  1
  Tm  Tm1  1  0.00018391  0.83264388  0.16667567  1
  Tm  Tm2  1  0.17705810  0.68168178  0.01142725  1
  Tm  Tm3  1  0.15936861  0.15944949  0.99999230  1
  Tm  Tm4  1  0.50463090  0.82239414  0.67808059  1
  Tm  Tm5  1  0.16774998  0.16682737  0.49995473  1
  Tm  Tm6  1  0.31798044  0.49551418  0.34475153  1
  Tm  Tm7  1  0.49555864  0.31802624  0.65529605  1
  Tm  Tm8  1  0.68177441  0.17708477  0.98860089  1
  Tm  Tm9  1  0.82228585  0.50464010  0.32191955  1
  Tm  Tm10  1  0.83268085  0.00012825  0.83333253  1
  Tm  Tm11  1  0.84018437  0.00011972  0.33332165  1
  Sb  Sb12  1  0.99967014  0.32317220  0.16669997  1
  Sb  Sb13  1  0.99989345  0.31002561  0.66663325  1
  Sb  Sb14  1  0.16883709  0.66956401  0.50152848  1
  Sb  Sb15  1  0.50081105  0.83133986  0.16824857  1
  Sb  Sb16  1  0.33048616  0.49931590  0.83486491  1
  Sb  Sb17  1  0.31002099  0.99983112  0.33327762  1
  Sb  Sb18  1  0.67646168  0.67655395  0.50011730  1
  Sb  Sb19  1  0.32351020  0.99991938  0.83337773  1
  Sb  Sb20  1  0.68960932  0.68957790  -0.00000136  1
  Sb  Sb21  1  0.49928051  0.33055456  0.16518407  1
  Sb  Sb22  1  0.66970374  0.16883033  0.49838789  1
  Sb  Sb23  1  0.83129552  0.50085580  0.83176284  1
  O  O24  1  0.02190722  0.85252705  0.28426044  1
  O  O25  1  0.98047706  0.80241854  0.80274350  1
  O  O26  1  0.10293984  0.65505879  0.39416253  1
  O  O27  1  0.06355725  0.46348168  0.80230600  1
  O  O28  1  0.32511698  0.99215761  0.95698463  1
  O  O29  1  0.23949339  0.69135305  0.60689660  1
  O  O30  1  0.00789651  0.33309197  0.29000532  1
  O  O31  1  0.19971456  0.68834733  0.13926022  1
  O  O32  1  0.39899983  0.93716188  0.46897585  1
  O  O33  1  0.45185776  0.76074137  0.27355615  1
  O  O34  1  0.48891266  0.80039341  0.80588328  1
  O  O35  1  0.34482497  0.44779061  0.72751785  1
  O  O36  1  0.14753227  0.16937818  0.61757154  1
  O  O37  1  0.31157997  0.51122710  0.47261447  1
  O  O38  1  0.19766941  0.17849218  0.13615566  1
  O  O39  1  0.16936361  0.14749748  0.38233725  1
  O  O40  1  0.30910391  0.54884864  0.94016772  1
  O  O41  1  0.17835368  0.19775127  0.86391489  1
  O  O42  1  0.55258377  0.89708965  0.06087259  1
  O  O43  1  0.53649102  0.60013060  0.13553907  1
  O  O44  1  0.82180184  0.01938742  0.46948815  1
  O  O45  1  0.66721991  0.67456464  0.62370178  1
  O  O46  1  0.44790875  0.34498563  0.27250600  1
  O  O47  1  0.60008320  0.53657781  0.86441981  1
  O  O48  1  0.33314646  0.00780319  0.70987741  1
  O  O49  1  0.83039895  0.97762094  0.95090497  1
  O  O50  1  0.54873536  0.30890750  0.05986802  1
  O  O51  1  0.67466481  0.66708850  0.37646999  1
  O  O52  1  0.51176452  0.31207069  0.52740816  1
  O  O53  1  0.46326980  0.06354364  0.19773922  1
  O  O54  1  0.69136402  0.23912569  0.39298836  1
  O  O55  1  0.68831473  0.19970229  0.86075916  1
  O  O56  1  0.89695877  0.55259977  0.93914877  1
  O  O57  1  0.97773912  0.83048537  0.04909248  1
  O  O58  1  0.80033896  0.48905223  0.19414353  1
  O  O59  1  0.01897543  0.82136370  0.53051881  1
  O  O60  1  0.76069912  0.45151867  0.72647319  1
  O  O61  1  0.65519001  0.10271859  0.60574875  1
  O  O62  1  0.93637998  0.39975483  0.53110404  1
  O  O63  1  0.80242826  0.98054867  0.19722921  1
  O  O64  1  0.99231560  0.32515298  0.04287762  1
  O  O65  1  0.85268179  0.02211916  0.71574284  1
