# generated using pymatgen
data_Li2FeF4
_symmetry_space_group_name_H-M   'P 1'
_cell_length_a   10.21522378
_cell_length_b   7.12972724
_cell_length_c   10.05541863
_cell_angle_alpha   90.00000000
_cell_angle_beta   62.18278264
_cell_angle_gamma   90.00000000
_symmetry_Int_Tables_number   1
_chemical_formula_structural   Li2FeF4
_chemical_formula_sum   'Li16 Fe8 F32'
_cell_volume   647.72359569
_cell_formula_units_Z   8
loop_
 _symmetry_equiv_pos_site_id
 _symmetry_equiv_pos_as_xyz
  1  'x, y, z'
loop_
 _atom_site_type_symbol
 _atom_site_label
 _atom_site_symmetry_multiplicity
 _atom_site_fract_x
 _atom_site_fract_y
 _atom_site_fract_z
 _atom_site_occupancy
  Li  Li0  1  0.34351928  0.99307345  0.07382356  1
  Li  Li1  1  0.12582838  0.62693248  0.43079618  1
  Li  Li2  1  0.35552840  0.58990743  0.07048704  1
  Li  Li3  1  0.15442313  0.02236001  0.42624401  1
  Li  Li4  1  0.34351928  0.50692655  0.57382356  1
  Li  Li5  1  0.12582838  0.87306752  0.93079618  1
  Li  Li6  1  0.35552840  0.91009257  0.57048704  1
  Li  Li7  1  0.15442313  0.47763999  0.92624401  1
  Li  Li8  1  0.84557687  0.52236001  0.07375599  1
  Li  Li9  1  0.64447160  0.08990743  0.42951296  1
  Li  Li10  1  0.87417162  0.12693248  0.06920382  1
  Li  Li11  1  0.65648072  0.49307345  0.42617644  1
  Li  Li12  1  0.84557687  0.97763999  0.57375599  1
  Li  Li13  1  0.64447160  0.41009257  0.92951296  1
  Li  Li14  1  0.87417162  0.37306752  0.56920382  1
  Li  Li15  1  0.65648072  0.00692655  0.92617644  1
  Fe  Fe16  1  0.02084301  0.28808875  0.23955654  1
  Fe  Fe17  1  0.02084301  0.21191125  0.73955654  1
  Fe  Fe18  1  0.48315285  0.21250736  0.25263162  1
  Fe  Fe19  1  0.51684715  0.71250736  0.24736838  1
  Fe  Fe20  1  0.48315285  0.28749264  0.75263162  1
  Fe  Fe21  1  0.51684715  0.78749264  0.74736838  1
  Fe  Fe22  1  0.97915699  0.78808875  0.26044346  1
  Fe  Fe23  1  0.97915699  0.71191125  0.76044346  1
  F  F24  1  0.03676656  0.03340165  0.11951244  1
  F  F25  1  0.98743688  0.16444262  0.43898543  1
  F  F26  1  0.20268233  0.40462888  0.08372792  1
  F  F27  1  0.18502457  0.77835265  0.24259373  1
  F  F28  1  0.03676656  0.46659835  0.61951244  1
  F  F29  1  0.98743688  0.33555738  0.93898543  1
  F  F30  1  0.29966052  0.13670941  0.25314287  1
  F  F31  1  0.20268233  0.09537112  0.58372792  1
  F  F32  1  0.49512986  0.83447503  0.07617975  1
  F  F33  1  0.18502457  0.72164735  0.74259373  1
  F  F34  1  0.31395277  0.65168763  0.42553164  1
  F  F35  1  0.49184421  0.46568024  0.14041374  1
  F  F36  1  0.50815579  0.96568024  0.35958626  1
  F  F37  1  0.29966052  0.36329059  0.75314287  1
  F  F38  1  0.68604723  0.15168763  0.07446836  1
  F  F39  1  0.50487014  0.33447503  0.42382025  1
  F  F40  1  0.49512986  0.66552497  0.57617975  1
  F  F41  1  0.31395277  0.84831237  0.92553164  1
  F  F42  1  0.70033948  0.63670941  0.24685713  1
  F  F43  1  0.49184421  0.03431976  0.64041374  1
  F  F44  1  0.50815579  0.53431976  0.85958626  1
  F  F45  1  0.68604723  0.34831237  0.57446836  1
  F  F46  1  0.81497543  0.27835265  0.25740627  1
  F  F47  1  0.50487014  0.16552497  0.92382025  1
  F  F48  1  0.79731767  0.90462888  0.41627208  1
  F  F49  1  0.70033948  0.86329059  0.74685713  1
  F  F50  1  0.01256312  0.66444262  0.06101457  1
  F  F51  1  0.96323344  0.53340165  0.38048756  1
  F  F52  1  0.81497543  0.22164735  0.75740627  1
  F  F53  1  0.79731767  0.59537112  0.91627208  1
  F  F54  1  0.01256312  0.83555738  0.56101457  1
  F  F55  1  0.96323344  0.96659835  0.88048756  1
