# generated using pymatgen
data_Li5Mn3Cu2(PO4)6
_symmetry_space_group_name_H-M   'P 1'
_cell_length_a   8.22794353
_cell_length_b   9.16489367
_cell_length_c   8.39505410
_cell_angle_alpha   60.30391255
_cell_angle_beta   63.16341099
_cell_angle_gamma   61.09175258
_symmetry_Int_Tables_number   1
_chemical_formula_structural   Li5Mn3Cu2(PO4)6
_chemical_formula_sum   'Li5 Mn3 Cu2 P6 O24'
_cell_volume   462.31153152
_cell_formula_units_Z   1
loop_
 _symmetry_equiv_pos_site_id
 _symmetry_equiv_pos_as_xyz
  1  'x, y, z'
loop_
 _atom_site_type_symbol
 _atom_site_label
 _atom_site_symmetry_multiplicity
 _atom_site_fract_x
 _atom_site_fract_y
 _atom_site_fract_z
 _atom_site_occupancy
  Li  Li0  1  0.76877950  0.13108135  0.35247638  1
  Li  Li1  1  0.18928976  0.85828201  0.66943525  1
  Li  Li2  1  0.67558630  0.16335130  0.84495387  1
  Li  Li3  1  0.86163248  0.67438018  0.19888269  1
  Li  Li4  1  0.84574062  0.82208880  0.85126556  1
  Mn  Mn5  1  0.14530668  0.16106832  0.13470133  1
  Mn  Mn6  1  0.35434419  0.35346868  0.35715441  1
  Mn  Mn7  1  0.63957233  0.66129461  0.64958832  1
  Cu  Cu8  1  0.01639317  0.98358953  0.99976804  1
  Cu  Cu9  1  0.49227197  0.50274699  0.50175546  1
  P  P10  1  0.74892145  0.46435799  0.06438833  1
  P  P11  1  0.05188620  0.74942417  0.45399361  1
  P  P12  1  0.43268908  0.04442900  0.75930272  1
  P  P13  1  0.25668829  0.54031197  0.94784036  1
  P  P14  1  0.56511566  0.97048418  0.25402641  1
  P  P15  1  0.95046244  0.24952724  0.53601751  1
  O  O16  1  0.09501859  0.34541224  0.45077590  1
  O  O17  1  0.35390284  0.47909223  0.09920974  1
  O  O18  1  0.03243961  0.91686071  0.26248687  1
  O  O19  1  0.55532433  0.10076824  0.32317413  1
  O  O20  1  0.02205159  0.81162222  0.60473986  1
  O  O21  1  0.25472218  0.60176359  0.42413115  1
  O  O22  1  0.23718950  0.06251784  0.92637881  1
  O  O23  1  0.40669535  0.23487811  0.59876443  1
  O  O24  1  0.20852878  0.39156010  0.96599484  1
  O  O25  1  0.59691858  0.41366877  0.26957512  1
  O  O26  1  0.09009848  0.71767597  0.95375567  1
  O  O27  1  0.38157317  0.02427792  0.20421112  1
  O  O28  1  0.60221271  0.00979677  0.81654440  1
  O  O29  1  0.90613390  0.27480143  0.07174823  1
  O  O30  1  0.40251950  0.59222428  0.73740402  1
  O  O31  1  0.80328795  0.60295077  0.05598243  1
  O  O32  1  0.58795719  0.77354334  0.40175781  1
  O  O33  1  0.75093849  0.95322512  0.08145136  1
  O  O34  1  0.73766640  0.38142941  0.58335779  1
  O  O35  1  0.96957101  0.18021002  0.39198446  1
  O  O36  1  0.45257055  0.90032241  0.70265093  1
  O  O37  1  0.97551943  0.08967446  0.72683068  1
  O  O38  1  0.68544064  0.51583580  0.89302643  1
  O  O39  1  0.89704008  0.67300092  0.50151357  1
