# generated using pymatgen
data_Mn3NiO8
_symmetry_space_group_name_H-M   'P 1'
_cell_length_a   8.14196987
_cell_length_b   8.14196987
_cell_length_c   8.14196987
_cell_angle_alpha   90.00000000
_cell_angle_beta   90.00000000
_cell_angle_gamma   90.00000000
_symmetry_Int_Tables_number   1
_chemical_formula_structural   Mn3NiO8
_chemical_formula_sum   'Mn12 Ni4 O32'
_cell_volume   539.74480716
_cell_formula_units_Z   4
loop_
 _symmetry_equiv_pos_site_id
 _symmetry_equiv_pos_as_xyz
  1  'x, y, z'
loop_
 _atom_site_type_symbol
 _atom_site_label
 _atom_site_symmetry_multiplicity
 _atom_site_fract_x
 _atom_site_fract_y
 _atom_site_fract_z
 _atom_site_occupancy
  Mn  Mn0  1  0.12807969  0.12192031  0.62500000  1
  Mn  Mn1  1  0.12500000  0.37192031  0.87807969  1
  Mn  Mn2  1  0.12192031  0.62500000  0.12807969  1
  Mn  Mn3  1  0.37807969  0.37500000  0.62807969  1
  Mn  Mn4  1  0.37500000  0.62807969  0.37807969  1
  Mn  Mn5  1  0.37192031  0.87807969  0.12500000  1
  Mn  Mn6  1  0.62807969  0.37807969  0.37500000  1
  Mn  Mn7  1  0.62500000  0.12807969  0.12192031  1
  Mn  Mn8  1  0.62192031  0.87500000  0.87192031  1
  Mn  Mn9  1  0.87807969  0.12500000  0.37192031  1
  Mn  Mn10  1  0.87500000  0.87192031  0.62192031  1
  Mn  Mn11  1  0.87192031  0.62192031  0.87500000  1
  Ni  Ni12  1  0.12500000  0.87500000  0.37500000  1
  Ni  Ni13  1  0.37500000  0.12500000  0.87500000  1
  Ni  Ni14  1  0.62500000  0.62500000  0.62500000  1
  Ni  Ni15  1  0.87500000  0.37500000  0.12500000  1
  O  O16  1  0.11452535  0.10773758  0.38795247  1
  O  O17  1  0.11204753  0.88547465  0.60773758  1
  O  O18  1  0.10964679  0.60964679  0.89035321  1
  O  O19  1  0.10773758  0.38795247  0.11452535  1
  O  O20  1  0.14226242  0.13547465  0.86204753  1
  O  O21  1  0.14035321  0.35964679  0.64035321  1
  O  O22  1  0.13795247  0.64226242  0.36452535  1
  O  O23  1  0.13547465  0.86204753  0.14226242  1
  O  O24  1  0.36452535  0.13795247  0.64226242  1
  O  O25  1  0.36204753  0.35773758  0.86452535  1
  O  O26  1  0.35964679  0.64035321  0.14035321  1
  O  O27  1  0.35773758  0.86452535  0.36204753  1
  O  O28  1  0.39226242  0.61204753  0.61452535  1
  O  O29  1  0.39035321  0.39035321  0.39035321  1
  O  O30  1  0.38795247  0.11452535  0.10773758  1
  O  O31  1  0.38547465  0.89226242  0.88795247  1
  O  O32  1  0.61452535  0.39226242  0.61204753  1
  O  O33  1  0.61204753  0.61452535  0.39226242  1
  O  O34  1  0.60964679  0.89035321  0.10964679  1
  O  O35  1  0.60773758  0.11204753  0.88547465  1
  O  O36  1  0.64226242  0.36452535  0.13795247  1
  O  O37  1  0.64035321  0.14035321  0.35964679  1
  O  O38  1  0.63795247  0.85773758  0.63547465  1
  O  O39  1  0.63547465  0.63795247  0.85773758  1
  O  O40  1  0.86452535  0.36204753  0.35773758  1
  O  O41  1  0.86204753  0.14226242  0.13547465  1
  O  O42  1  0.85964679  0.85964679  0.85964679  1
  O  O43  1  0.85773758  0.63547465  0.63795247  1
  O  O44  1  0.89226242  0.88795247  0.38547465  1
  O  O45  1  0.89035321  0.10964679  0.60964679  1
  O  O46  1  0.88795247  0.38547465  0.89226242  1
  O  O47  1  0.88547465  0.60773758  0.11204753  1
