# generated using pymatgen
data_Li3Fe8(BO3)8
_symmetry_space_group_name_H-M   'P 1'
_cell_length_a   5.21989885
_cell_length_b   9.11484648
_cell_length_c   10.19454836
_cell_angle_alpha   90.68652939
_cell_angle_beta   90.55139260
_cell_angle_gamma   89.42141171
_symmetry_Int_Tables_number   1
_chemical_formula_structural   Li3Fe8(BO3)8
_chemical_formula_sum   'Li3 Fe8 B8 O24'
_cell_volume   484.96065050
_cell_formula_units_Z   1
loop_
 _symmetry_equiv_pos_site_id
 _symmetry_equiv_pos_as_xyz
  1  'x, y, z'
loop_
 _atom_site_type_symbol
 _atom_site_label
 _atom_site_symmetry_multiplicity
 _atom_site_fract_x
 _atom_site_fract_y
 _atom_site_fract_z
 _atom_site_occupancy
  Li  Li0  1  0.85069507  0.82700196  0.65824683  1
  Li  Li1  1  0.81321532  0.83027057  0.16974939  1
  Li  Li2  1  0.66599911  0.67406697  0.90543133  1
  Fe  Fe3  1  0.83414039  0.17314157  0.63214425  1
  Fe  Fe4  1  0.81106605  0.49172035  0.13150185  1
  Fe  Fe5  1  0.67957632  0.01109012  0.87926694  1
  Fe  Fe6  1  0.66280772  0.33713045  0.37684819  1
  Fe  Fe7  1  0.34719676  0.64781396  0.62127425  1
  Fe  Fe8  1  0.32869444  0.00475388  0.12367593  1
  Fe  Fe9  1  0.18537744  0.83776775  0.38396747  1
  Fe  Fe10  1  0.16674985  0.49827421  0.87899045  1
  B  B11  1  0.84992642  0.50220172  0.63000254  1
  B  B12  1  0.83310503  0.16061390  0.13549146  1
  B  B13  1  0.67069953  0.00604680  0.37752261  1
  B  B14  1  0.66079903  0.34058211  0.87235195  1
  B  B15  1  0.33344825  0.99785649  0.62888474  1
  B  B16  1  0.32395784  0.67812995  0.11860521  1
  B  B17  1  0.15831226  0.49972509  0.37399587  1
  B  B18  1  0.17517361  0.82542812  0.87949280  1
  O  O19  1  0.90199661  0.49310231  0.33587364  1
  O  O20  1  0.91278510  0.83153308  0.86194029  1
  O  O21  1  0.78589629  0.21615195  0.82428281  1
  O  O22  1  0.75297766  0.13625796  0.43460391  1
  O  O23  1  0.83234322  0.88809626  0.36026124  1
  O  O24  1  0.80328113  0.46217191  0.91582231  1
  O  O25  1  0.71975461  0.63221398  0.63134153  1
  O  O26  1  0.69521603  0.03500399  0.09337397  1
  O  O27  1  0.74378148  0.37336177  0.57696708  1
  O  O28  1  0.69950370  0.28212477  0.18082081  1
  O  O29  1  0.58657843  0.67754558  0.10845118  1
  O  O30  1  0.59715254  0.99741032  0.66027408  1
  O  O31  1  0.41798327  0.99472077  0.33173436  1
  O  O32  1  0.40233167  0.34492616  0.88088816  1
  O  O33  1  0.31201130  0.69815313  0.84199039  1
  O  O34  1  0.25362907  0.63539703  0.41594626  1
  O  O35  1  0.31339346  0.37980185  0.37319437  1
  O  O36  1  0.31343665  0.94101220  0.93351176  1
  O  O37  1  0.17313624  0.56478972  0.07405775  1
  O  O38  1  0.18161621  0.11785268  0.64047319  1
  O  O39  1  0.22253072  0.86545290  0.58186693  1
  O  O40  1  0.19491140  0.80400335  0.17279522  1
  O  O41  1  0.09182013  0.15611532  0.13022718  1
  O  O42  1  0.09525660  0.49470202  0.68326151  1
