# generated using pymatgen
data_Li3MnV(PO4)3
_symmetry_space_group_name_H-M   'P 1'
_cell_length_a   9.84587524
_cell_length_b   9.82232159
_cell_length_c   9.72486585
_cell_angle_alpha   87.32484389
_cell_angle_beta   93.75685117
_cell_angle_gamma   95.32460671
_symmetry_Int_Tables_number   1
_chemical_formula_structural   Li3MnV(PO4)3
_chemical_formula_sum   'Li12 Mn4 V4 P12 O48'
_cell_volume   933.63471689
_cell_formula_units_Z   4
loop_
 _symmetry_equiv_pos_site_id
 _symmetry_equiv_pos_as_xyz
  1  'x, y, z'
loop_
 _atom_site_type_symbol
 _atom_site_label
 _atom_site_symmetry_multiplicity
 _atom_site_fract_x
 _atom_site_fract_y
 _atom_site_fract_z
 _atom_site_occupancy
  Li  Li0  1  0.01315501  0.50675063  0.23399981  1
  Li  Li1  1  0.00201716  0.25873204  0.39396056  1
  Li  Li2  1  0.21479471  0.55570180  0.47834959  1
  Li  Li3  1  0.23938163  0.72969718  0.17984969  1
  Li  Li4  1  0.25659330  0.00115359  0.60628104  1
  Li  Li5  1  0.37042544  0.74376136  0.79835614  1
  Li  Li6  1  0.50464124  0.01177324  0.76244788  1
  Li  Li7  1  0.55379470  0.21492405  0.52635710  1
  Li  Li8  1  0.71150317  0.93534416  0.96223336  1
  Li  Li9  1  0.73174680  0.24086855  0.81888871  1
  Li  Li10  1  0.74978579  0.37706025  0.20099697  1
  Li  Li11  1  0.93427638  0.70699313  0.03524002  1
  Mn  Mn12  1  0.24342789  0.24286091  0.00071337  1
  Mn  Mn13  1  0.53170157  0.53280059  0.50390516  1
  Mn  Mn14  1  0.75108964  0.75728564  0.49727226  1
  Mn  Mn15  1  0.96732681  0.73853151  0.72063110  1
  V  V16  1  0.02905699  0.25141229  0.78495674  1
  V  V17  1  0.25106971  0.02844129  0.21646654  1
  V  V18  1  0.46719465  0.46461455  0.00204279  1
  V  V19  1  0.74576475  0.96795697  0.27983729  1
  P  P20  1  0.05037985  0.82150866  0.40418323  1
  P  P21  1  0.17280247  0.94407303  0.90058623  1
  P  P22  1  0.16096793  0.55361451  0.92710589  1
  P  P23  1  0.31864850  0.33902431  0.30377998  1
  P  P24  1  0.33569136  0.31725214  0.69805117  1
  P  P25  1  0.44158131  0.83659452  0.42790873  1
  P  P26  1  0.55349392  0.15584820  0.07294498  1
  P  P27  1  0.65331886  0.67945381  0.80309081  1
  P  P28  1  0.68507948  0.65456690  0.19681155  1
  P  P29  1  0.83717651  0.44316165  0.57315905  1
  P  P30  1  0.81668827  0.05302067  0.59433567  1
  P  P31  1  0.94557443  0.17443286  0.09657832  1
  O  O32  1  0.02907024  0.87145144  0.86079975  1
  O  O33  1  0.08231069  0.81863056  0.56277386  1
  O  O34  1  0.11557108  0.62004858  0.78775890  1
  O  O35  1  0.11391641  0.96056496  0.34579787  1
  O  O36  1  0.09707819  0.69736864  0.33670533  1
  O  O37  1  0.11919975  0.39513559  0.92098316  1
  O  O38  1  0.10071800  0.60545896  0.05513895  1
  O  O39  1  0.10701491  0.16398226  0.12244154  1
  O  O40  1  0.16077277  0.10472292  0.87594920  1
  O  O41  1  0.17759605  0.30425426  0.66486070  1
  O  O42  1  0.20003450  0.90683592  0.05662388  1
  O  O43  1  0.19389181  0.40195832  0.35061931  1
  O  O44  1  0.28628978  0.91228929  0.81227663  1
  O  O45  1  0.31962254  0.58653411  0.93902577  1
  O  O46  1  0.31097740  0.18204237  0.33426454  1
  O  O47  1  0.32508264  0.37169508  0.14118286  1
  O  O48  1  0.36627459  0.87603904  0.28871832  1
  O  O49  1  0.40037234  0.90431312  0.55340935  1
  O  O50  1  0.36954149  0.32141341  0.86286136  1
  O  O51  1  0.38565037  0.45801105  0.63696422  1
  O  O52  1  0.40865712  0.67486301  0.44255408  1
  O  O53  1  0.40022961  0.19309489  0.65046945  1
  O  O54  1  0.39578135  0.11702387  0.08052117  1
  O  O55  1  0.45942785  0.39246980  0.37095792  1
  O  O56  1  0.58460904  0.80455992  0.84274098  1
  O  O57  1  0.54537979  0.59330877  0.13926373  1
  O  O58  1  0.59280181  0.54236050  0.86312336  1
  O  O59  1  0.59892539  0.87634382  0.41272534  1
  O  O60  1  0.62630422  0.66935354  0.63887056  1
  O  O61  1  0.60399593  0.09934845  0.94236849  1
  O  O62  1  0.58831828  0.31441862  0.07113988  1
  O  O63  1  0.61992178  0.09933177  0.20930562  1
  O  O64  1  0.67754012  0.63113744  0.35973438  1
  O  O65  1  0.70295226  0.81020708  0.15346020  1
  O  O66  1  0.67626745  0.41020036  0.55758045  1
  O  O67  1  0.69468945  0.10625276  0.65812851  1
  O  O68  1  0.81038590  0.69429135  0.84409773  1
  O  O69  1  0.81648437  0.89282364  0.62606538  1
  O  O70  1  0.80682885  0.58196806  0.15563904  1
  O  O71  1  0.81888016  0.08632410  0.43614076  1
  O  O72  1  0.87694171  0.60358827  0.58815165  1
  O  O73  1  0.88989481  0.83008656  0.37068780  1
  O  O74  1  0.87977432  0.37024170  0.71171395  1
  O  O75  1  0.90638147  0.20385144  0.94012275  1
  O  O76  1  0.90315095  0.40202687  0.44732138  1
  O  O77  1  0.87570669  0.03199562  0.13147793  1
  O  O78  1  0.91431044  0.28822095  0.18745713  1
  O  O79  1  0.95712408  0.11113799  0.65770317  1
