# generated using pymatgen
data_Li4Mn3Ni3(PO4)6
_symmetry_space_group_name_H-M   'P 1'
_cell_length_a   8.33421571
_cell_length_b   8.97195143
_cell_length_c   8.89941850
_cell_angle_alpha   59.21054894
_cell_angle_beta   58.49849931
_cell_angle_gamma   58.12406331
_symmetry_Int_Tables_number   1
_chemical_formula_structural   Li4Mn3Ni3(PO4)6
_chemical_formula_sum   'Li4 Mn3 Ni3 P6 O24'
_cell_volume   455.51184010
_cell_formula_units_Z   1
loop_
 _symmetry_equiv_pos_site_id
 _symmetry_equiv_pos_as_xyz
  1  'x, y, z'
loop_
 _atom_site_type_symbol
 _atom_site_label
 _atom_site_symmetry_multiplicity
 _atom_site_fract_x
 _atom_site_fract_y
 _atom_site_fract_z
 _atom_site_occupancy
  Li  Li0  1  0.24656887  0.86121812  0.64468162  1
  Li  Li1  1  0.74453209  0.15278844  0.34061378  1
  Li  Li2  1  0.74458025  0.75619802  0.15121596  1
  Li  Li3  1  0.74447840  0.35136625  0.75932460  1
  Mn  Mn4  1  0.06764758  0.64372334  0.64518810  1
  Mn  Mn5  1  0.43591171  0.85737448  0.85274618  1
  Mn  Mn6  1  0.96354643  0.34032378  0.34876415  1
  Ni  Ni7  1  0.00190853  0.99737322  0.00408098  1
  Ni  Ni8  1  0.55362831  0.14847337  0.14709815  1
  Ni  Ni9  1  0.50195126  0.49243171  0.49952080  1
  P  P10  1  0.25977617  0.24948597  0.55543962  1
  P  P11  1  0.24644737  0.93933559  0.24769782  1
  P  P12  1  0.24502971  0.55784503  0.94401083  1
  P  P13  1  0.74919143  0.45690569  0.04145834  1
  P  P14  1  0.76192577  0.05035167  0.75076044  1
  P  P15  1  0.73958667  0.75254269  0.45566724  1
  O  O16  1  0.05008817  0.09342017  0.30971648  1
  O  O17  1  0.05063190  0.52952959  0.09537267  1
  O  O18  1  0.05703107  0.31788961  0.53712519  1
  O  O19  1  0.23610187  0.08153430  0.74851318  1
  O  O20  1  0.44273100  0.18465763  0.39484528  1
  O  O21  1  0.29131225  0.39066393  0.57746745  1
  O  O22  1  0.22838113  0.91942507  0.09391989  1
  O  O23  1  0.26888678  0.74541519  0.41217882  1
  O  O24  1  0.56278222  0.61264015  0.99404553  1
  O  O25  1  0.27561401  0.58047213  0.74118665  1
  O  O26  1  0.77823227  0.26172137  0.05773798  1
  O  O27  1  0.58945211  0.99226526  0.81627163  1
  O  O28  1  0.43821126  0.96905031  0.19147387  1
  O  O29  1  0.21513514  0.75610055  0.91896881  1
  O  O30  1  0.71655902  0.43615427  0.24047065  1
  O  O31  1  0.43763275  0.40029284  0.97530947  1
  O  O32  1  0.72263918  0.25097336  0.60278125  1
  O  O33  1  0.77470085  0.07216644  0.90956031  1
  O  O34  1  0.72052546  0.60388126  0.42863585  1
  O  O35  1  0.54032463  0.81899224  0.60604500  1
  O  O36  1  0.77459903  0.90703866  0.25868920  1
  O  O37  1  0.91769763  0.68480946  0.51142521  1
  O  O38  1  0.93825644  0.49865093  0.88744150  1
  O  O39  1  0.96576529  0.90751690  0.67954851  1
