# generated using pymatgen
data_B13N2
_symmetry_space_group_name_H-M   'P 1'
_cell_length_a   5.21221980
_cell_length_b   5.21221980
_cell_length_c   5.21221981
_cell_angle_alpha   63.57530134
_cell_angle_beta   63.57530134
_cell_angle_gamma   63.57530133
_symmetry_Int_Tables_number   1
_chemical_formula_structural   B13N2
_chemical_formula_sum   'B13 N2'
_cell_volume   108.03893697
_cell_formula_units_Z   1
loop_
 _symmetry_equiv_pos_site_id
 _symmetry_equiv_pos_as_xyz
  1  'x, y, z'
loop_
 _atom_site_type_symbol
 _atom_site_label
 _atom_site_symmetry_multiplicity
 _atom_site_fract_x
 _atom_site_fract_y
 _atom_site_fract_z
 _atom_site_occupancy
  B  B0  1  0.19677473  0.68025870  0.19677473  1
  B  B1  1  0.19677473  0.19677473  0.68025870  1
  B  B2  1  0.68025870  0.19677473  0.19677473  1
  B  B3  1  0.31974130  0.80322527  0.80322527  1
  B  B4  1  0.80322527  0.31974130  0.80322527  1
  B  B5  1  0.80322527  0.80322527  0.31974130  1
  B  B6  1  0.99541759  0.66910802  0.99541759  1
  B  B7  1  0.99541759  0.99541759  0.66910802  1
  B  B8  1  0.66910802  0.99541759  0.99541759  1
  B  B9  1  0.33089198  0.00458241  0.00458241  1
  B  B10  1  0.00458241  0.33089198  0.00458241  1
  B  B11  1  0.00458241  0.00458241  0.33089198  1
  B  B12  1  0.50000000  0.50000000  0.50000000  1
  N  N13  1  0.61514541  0.61514541  0.61514541  1
  N  N14  1  0.38485459  0.38485459  0.38485459  1
