# generated using pymatgen
data_Li3Fe(BO3)2
_symmetry_space_group_name_H-M   'P 1'
_cell_length_a   5.92590553
_cell_length_b   7.80786046
_cell_length_c   9.80310004
_cell_angle_alpha   90.00000000
_cell_angle_beta   84.62135723
_cell_angle_gamma   90.00000000
_symmetry_Int_Tables_number   1
_chemical_formula_structural   Li3Fe(BO3)2
_chemical_formula_sum   'Li12 Fe4 B8 O24'
_cell_volume   451.57903318
_cell_formula_units_Z   4
loop_
 _symmetry_equiv_pos_site_id
 _symmetry_equiv_pos_as_xyz
  1  'x, y, z'
loop_
 _atom_site_type_symbol
 _atom_site_label
 _atom_site_symmetry_multiplicity
 _atom_site_fract_x
 _atom_site_fract_y
 _atom_site_fract_z
 _atom_site_occupancy
  Li  Li0  1  0.00239182  0.78388554  0.37755557  1
  Li  Li1  1  0.01873580  0.70257217  0.92391618  1
  Li  Li2  1  0.15602667  0.94687598  0.11521892  1
  Li  Li3  1  0.34397333  0.44687598  0.38478108  1
  Li  Li4  1  0.49760818  0.28388554  0.12244443  1
  Li  Li5  1  0.51873580  0.79742783  0.42391618  1
  Li  Li6  1  0.48126420  0.20257217  0.57608382  1
  Li  Li7  1  0.50239182  0.71611446  0.87755557  1
  Li  Li8  1  0.65602667  0.55312402  0.61521892  1
  Li  Li9  1  0.84397333  0.05312402  0.88478108  1
  Li  Li10  1  0.98126420  0.29742783  0.07608382  1
  Li  Li11  1  0.99760818  0.21611446  0.62244443  1
  Fe  Fe12  1  0.23231016  0.87681199  0.66612708  1
  Fe  Fe13  1  0.26768984  0.37681199  0.83387292  1
  Fe  Fe14  1  0.73231016  0.62318801  0.16612708  1
  Fe  Fe15  1  0.76768984  0.12318801  0.33387292  1
  B  B16  1  0.23690075  0.59306377  0.12799168  1
  B  B17  1  0.19818192  0.56013508  0.60794073  1
  B  B18  1  0.26309925  0.09306377  0.37200832  1
  B  B19  1  0.30181808  0.06013508  0.89205927  1
  B  B20  1  0.69818192  0.93986492  0.10794073  1
  B  B21  1  0.73690075  0.90693623  0.62799168  1
  B  B22  1  0.80181808  0.43986492  0.39205927  1
  B  B23  1  0.76309925  0.40693623  0.87200832  1
  O  O24  1  0.06148713  0.70296856  0.17659329  1
  O  O25  1  0.08896071  0.05250824  0.29220096  1
  O  O26  1  0.23476941  0.52829856  0.99708504  1
  O  O27  1  0.21412324  0.68384334  0.50591561  1
  O  O28  1  0.13927301  0.61715749  0.74119403  1
  O  O29  1  0.26523059  0.02829856  0.50291496  1
  O  O30  1  0.26247753  0.39329120  0.58701569  1
  O  O31  1  0.23752247  0.89329120  0.91298431  1
  O  O32  1  0.36072699  0.11715749  0.75880597  1
  O  O33  1  0.28587676  0.18384334  0.99408439  1
  O  O34  1  0.41103929  0.55250824  0.20779904  1
  O  O35  1  0.43851287  0.20296856  0.32340671  1
  O  O36  1  0.56148713  0.79703144  0.67659329  1
  O  O37  1  0.58896071  0.44749176  0.79220096  1
  O  O38  1  0.71412324  0.81615666  0.00591561  1
  O  O39  1  0.63927301  0.88284251  0.24119403  1
  O  O40  1  0.76247753  0.10670880  0.08701569  1
  O  O41  1  0.73752247  0.60670880  0.41298431  1
  O  O42  1  0.73476941  0.97170144  0.49708504  1
  O  O43  1  0.86072699  0.38284251  0.25880597  1
  O  O44  1  0.78587676  0.31615666  0.49408439  1
  O  O45  1  0.76523059  0.47170144  0.00291496  1
  O  O46  1  0.91103929  0.94749176  0.70779904  1
  O  O47  1  0.93851287  0.29703144  0.82340671  1
