# generated using pymatgen
data_LiVF3
_symmetry_space_group_name_H-M   'P 1'
_cell_length_a   6.17580257
_cell_length_b   6.17580257
_cell_length_c   6.17580257
_cell_angle_alpha   90.00000000
_cell_angle_beta   90.00000000
_cell_angle_gamma   90.00000000
_symmetry_Int_Tables_number   1
_chemical_formula_structural   LiVF3
_chemical_formula_sum   'Li4 V4 F12'
_cell_volume   235.54842879
_cell_formula_units_Z   4
loop_
 _symmetry_equiv_pos_site_id
 _symmetry_equiv_pos_as_xyz
  1  'x, y, z'
loop_
 _atom_site_type_symbol
 _atom_site_label
 _atom_site_symmetry_multiplicity
 _atom_site_fract_x
 _atom_site_fract_y
 _atom_site_fract_z
 _atom_site_occupancy
  Li  Li0  1  0.08610225  0.08610225  0.08610225  1
  Li  Li1  1  0.41389775  0.91389775  0.58610225  1
  Li  Li2  1  0.58610225  0.41389775  0.91389775  1
  Li  Li3  1  0.91389775  0.58610225  0.41389775  1
  V  V4  1  0.15067338  0.65067338  0.84932662  1
  V  V5  1  0.34932662  0.34932662  0.34932662  1
  V  V6  1  0.65067338  0.84932662  0.15067338  1
  V  V7  1  0.84932662  0.15067338  0.65067338  1
  F  F8  1  0.01539026  0.25656833  0.37060641  1
  F  F9  1  0.12939359  0.98460974  0.75656833  1
  F  F10  1  0.25656833  0.37060641  0.01539026  1
  F  F11  1  0.24343167  0.62939359  0.51539026  1
  F  F12  1  0.37060641  0.01539026  0.25656833  1
  F  F13  1  0.48460974  0.74343167  0.87060641  1
  F  F14  1  0.51539026  0.24343167  0.62939359  1
  F  F15  1  0.62939359  0.51539026  0.24343167  1
  F  F16  1  0.75656833  0.12939359  0.98460974  1
  F  F17  1  0.74343167  0.87060641  0.48460974  1
  F  F18  1  0.87060641  0.48460974  0.74343167  1
  F  F19  1  0.98460974  0.75656833  0.12939359  1
