# generated using pymatgen
data_LiCr(PO3)3
_symmetry_space_group_name_H-M   'P 1'
_cell_length_a   10.72532234
_cell_length_b   11.66929648
_cell_length_c   5.53219171
_cell_angle_alpha   90.00000000
_cell_angle_beta   90.00000000
_cell_angle_gamma   90.00000000
_symmetry_Int_Tables_number   1
_chemical_formula_structural   LiCr(PO3)3
_chemical_formula_sum   'Li4 Cr4 P12 O36'
_cell_volume   692.39233102
_cell_formula_units_Z   4
loop_
 _symmetry_equiv_pos_site_id
 _symmetry_equiv_pos_as_xyz
  1  'x, y, z'
loop_
 _atom_site_type_symbol
 _atom_site_label
 _atom_site_symmetry_multiplicity
 _atom_site_fract_x
 _atom_site_fract_y
 _atom_site_fract_z
 _atom_site_occupancy
  Li  Li0  1  0.11674387  0.07686330  0.08366919  1
  Li  Li1  1  0.38325613  0.92313670  0.58366919  1
  Li  Li2  1  0.61674387  0.42313670  0.91633081  1
  Li  Li3  1  0.88325613  0.57686330  0.41633081  1
  Cr  Cr4  1  0.03104051  0.85915341  0.58921662  1
  Cr  Cr5  1  0.46895949  0.14084659  0.08921662  1
  Cr  Cr6  1  0.53104051  0.64084659  0.41078338  1
  Cr  Cr7  1  0.96895949  0.35915341  0.91078338  1
  P  P8  1  0.07527538  0.62291709  0.87785417  1
  P  P9  1  0.15019023  0.36569022  0.37354639  1
  P  P10  1  0.19832213  0.82066307  0.06472113  1
  P  P11  1  0.30167787  0.17933693  0.56472113  1
  P  P12  1  0.34980977  0.63430978  0.87354639  1
  P  P13  1  0.42472462  0.37708291  0.37785417  1
  P  P14  1  0.57527538  0.87708291  0.12214583  1
  P  P15  1  0.65019023  0.13430978  0.62645361  1
  P  P16  1  0.69832213  0.67933693  0.93527887  1
  P  P17  1  0.80167787  0.32066307  0.43527887  1
  P  P18  1  0.84980977  0.86569022  0.12645361  1
  P  P19  1  0.92472462  0.12291709  0.62214583  1
  O  O20  1  0.00902897  0.03444885  0.51354758  1
  O  O21  1  0.03487332  0.67982949  0.64460670  1
  O  O22  1  0.05946806  0.44111516  0.50019861  1
  O  O23  1  0.09191681  0.72139684  0.08327212  1
  O  O24  1  0.12031674  0.31808401  0.12598109  1
  O  O25  1  0.18447336  0.88348773  0.82587637  1
  O  O26  1  0.19880337  0.88810591  0.29403280  1
  O  O27  1  0.17804295  0.25731791  0.55181301  1
  O  O28  1  0.21447058  0.57195099  0.86046091  1
  O  O29  1  0.28552942  0.42804901  0.36046091  1
  O  O30  1  0.32195705  0.74268209  0.05181301  1
  O  O31  1  0.30119663  0.11189409  0.79403280  1
  O  O32  1  0.31552664  0.11651227  0.32587637  1
  O  O33  1  0.37968326  0.68191599  0.62598109  1
  O  O34  1  0.40808319  0.27860316  0.58327212  1
  O  O35  1  0.44053194  0.55888484  0.00019861  1
  O  O36  1  0.46512668  0.32017051  0.14460670  1
  O  O37  1  0.49097103  0.96555115  0.01354758  1
  O  O38  1  0.50902897  0.46555115  0.48645242  1
  O  O39  1  0.53487332  0.82017051  0.35539330  1
  O  O40  1  0.55946806  0.05888484  0.49980139  1
  O  O41  1  0.59191681  0.77860316  0.91672788  1
  O  O42  1  0.62031674  0.18191599  0.87401891  1
  O  O43  1  0.68447336  0.61651227  0.17412363  1
  O  O44  1  0.69880337  0.61189409  0.70596720  1
  O  O45  1  0.67804295  0.24268209  0.44818699  1
  O  O46  1  0.71447058  0.92804901  0.13953909  1
  O  O47  1  0.78552942  0.07195099  0.63953909  1
  O  O48  1  0.82195705  0.75731791  0.94818699  1
  O  O49  1  0.80119663  0.38810591  0.20596720  1
  O  O50  1  0.81552664  0.38348773  0.67412363  1
  O  O51  1  0.87968326  0.81808401  0.37401891  1
  O  O52  1  0.90808319  0.22139684  0.41672788  1
  O  O53  1  0.94053194  0.94111516  -0.00019861  1
  O  O54  1  0.96512668  0.17982949  0.85539330  1
  O  O55  1  0.99097103  0.53444885  0.98645242  1
