# generated using pymatgen
data_Li3FeBO4
_symmetry_space_group_name_H-M   'P 1'
_cell_length_a   9.65792334
_cell_length_b   9.65792334
_cell_length_c   9.65792334
_cell_angle_alpha   116.50313543
_cell_angle_beta   116.50313543
_cell_angle_gamma   96.17159188
_symmetry_Int_Tables_number   1
_chemical_formula_structural   Li3FeBO4
_chemical_formula_sum   'Li24 Fe8 B8 O32'
_cell_volume   666.47684770
_cell_formula_units_Z   8
loop_
 _symmetry_equiv_pos_site_id
 _symmetry_equiv_pos_as_xyz
  1  'x, y, z'
loop_
 _atom_site_type_symbol
 _atom_site_label
 _atom_site_symmetry_multiplicity
 _atom_site_fract_x
 _atom_site_fract_y
 _atom_site_fract_z
 _atom_site_occupancy
  Li  Li0  1  0.92256658  0.09393216  0.13995797  1
  Li  Li1  1  0.82743342  0.15606784  0.36004203  1
  Li  Li2  1  0.90606784  0.04602580  0.82863441  1
  Li  Li3  1  0.53260861  0.17256658  0.32863441  1
  Li  Li4  1  0.41349950  0.26714669  0.10223566  1
  Li  Li5  1  0.71475874  0.56086516  0.13262342  1
  Li  Li6  1  0.21739139  0.07743342  0.17136559  1
  Li  Li7  1  0.84393216  0.20397420  0.67136559  1
  Li  Li8  1  0.73285331  0.83508897  0.14635281  1
  Li  Li9  1  0.43913484  0.57175826  0.15389358  1
  Li  Li10  1  0.79602580  0.46739139  0.63995797  1
  Li  Li11  1  0.95397420  0.78260861  0.86004203  1
  Li  Li12  1  0.31086516  0.67824174  0.34610642  1
  Li  Li13  1  0.41786468  0.28524126  0.84610642  1
  Li  Li14  1  0.01714669  0.41491103  0.35364719  1
  Li  Li15  1  0.68873516  0.58650050  0.85364719  1
  Li  Li16  1  0.03524126  0.68913484  0.36737658  1
  Li  Li17  1  0.42824174  0.58213532  0.86737658  1
  Li  Li18  1  0.58508897  0.93873516  0.60223566  1
  Li  Li19  1  0.33650050  0.98285331  0.39776434  1
  Li  Li20  1  0.16491103  0.31126484  0.89776434  1
  Li  Li21  1  0.32175826  0.66786468  0.63262342  1
  Li  Li22  1  0.06126484  0.66349950  0.64635281  1
  Li  Li23  1  0.33213532  0.96475874  0.65389358  1
  Fe  Fe24  1  0.46138037  0.91921274  0.99411449  1
  Fe  Fe25  1  0.53273312  0.53861963  0.45783138  1
  Fe  Fe26  1  0.66921274  0.17509825  0.95783138  1
  Fe  Fe27  1  0.82490175  0.78273312  0.49411449  1
  Fe  Fe28  1  0.28861963  0.33078726  0.50588551  1
  Fe  Fe29  1  0.08078726  0.07490175  0.54216862  1
  Fe  Fe30  1  0.21726688  0.71138037  0.04216862  1
  Fe  Fe31  1  0.92509825  0.46726688  0.00588551  1
  B  B32  1  0.72652251  0.39677585  0.27669400  1
  B  B33  1  0.55017150  0.27347749  0.67025335  1
  B  B34  1  0.14677585  0.37008185  0.17025335  1
  B  B35  1  0.60322415  0.87991815  0.32974665  1
  B  B36  1  0.62991815  0.80017150  0.77669400  1
  B  B37  1  0.02347749  0.85322415  0.22330600  1
  B  B38  1  0.12008185  0.44982850  0.72330600  1
  B  B39  1  0.19982850  0.97652251  0.82974665  1
  O  O40  1  0.79854029  0.26326823  0.23006153  1
  O  O41  1  0.31847876  0.04854029  0.03527306  1
  O  O42  1  0.59427048  0.36007630  0.08986389  1
  O  O43  1  0.88542211  0.68072922  0.11301723  1
  O  O44  1  0.86457789  0.56927078  0.38698277  1
  O  O45  1  0.64841368  0.38537765  0.37559066  1
  O  O46  1  0.43152124  0.20145971  0.46472694  1
  O  O47  1  0.31927078  0.43228701  0.20469289  1
  O  O48  1  0.52240588  0.13542211  0.70469289  1
  O  O49  1  0.95145971  0.98673177  0.26993847  1
  O  O50  1  0.13537765  0.25978699  0.23696397  1
  O  O51  1  0.72717698  0.35158632  0.73696397  1
  O  O52  1  0.63992370  0.72978759  0.23419418  1
  O  O53  1  0.11007630  0.52021241  0.26580582  1
  O  O54  1  0.49559341  0.40572952  0.76580582  1
  O  O55  1  0.61462235  0.99021301  0.26303603  1
  O  O56  1  0.71679430  0.68152124  0.73006153  1
  O  O57  1  0.22759412  0.11457789  0.79530711  1
  O  O58  1  0.43072922  0.81771299  0.29530711  1
  O  O59  1  0.73673177  0.96679430  0.53527306  1
  O  O60  1  0.47978759  0.74559341  0.58986389  1
  O  O61  1  0.10158632  0.86462235  0.12440934  1
  O  O62  1  0.00978699  0.27282302  0.62440934  1
  O  O63  1  0.18228701  0.47759412  0.61301723  1
  O  O64  1  0.56771299  0.77240588  0.88698277  1
  O  O65  1  0.74021301  0.97717698  0.87559066  1
  O  O66  1  0.27021241  0.50440659  0.91013611  1
  O  O67  1  0.15572952  0.88992370  0.41013611  1
  O  O68  1  0.01326823  0.28320570  0.96472694  1
  O  O69  1  0.03320570  0.56847876  0.76993847  1
  O  O70  1  0.25440659  0.84427048  0.73419418  1
  O  O71  1  0.02282302  0.89841368  0.76303603  1
