# generated using pymatgen
data_Ni3OF5
_symmetry_space_group_name_H-M   'P 1'
_cell_length_a   4.70737083
_cell_length_b   7.78142846
_cell_length_c   5.63291568
_cell_angle_alpha   93.89364976
_cell_angle_beta   90.87716735
_cell_angle_gamma   89.37565805
_symmetry_Int_Tables_number   1
_chemical_formula_structural   Ni3OF5
_chemical_formula_sum   'Ni6 O2 F10'
_cell_volume   205.82366138
_cell_formula_units_Z   2
loop_
 _symmetry_equiv_pos_site_id
 _symmetry_equiv_pos_as_xyz
  1  'x, y, z'
loop_
 _atom_site_type_symbol
 _atom_site_label
 _atom_site_symmetry_multiplicity
 _atom_site_fract_x
 _atom_site_fract_y
 _atom_site_fract_z
 _atom_site_occupancy
  Ni  Ni0  1  0.50000000  0.00000000  0.50000000  1
  Ni  Ni1  1  0.50735095  0.66663252  0.17441652  1
  Ni  Ni2  1  0.49264905  0.33336748  0.82558348  1
  Ni  Ni3  1  0.98726670  0.67072968  0.66026931  1
  Ni  Ni4  1  0.01273330  0.32927032  0.33973069  1
  Ni  Ni5  1  0.00000000  0.00000000  0.00000000  1
  O  O6  1  0.69361736  0.77009272  0.46439171  1
  O  O7  1  0.30638264  0.22990728  0.53560829  1
  F  F8  1  0.80389667  0.43434202  0.63147375  1
  F  F9  1  0.80247952  0.76757523  0.96548852  1
  F  F10  1  0.80421364  0.10137761  0.29705479  1
  F  F11  1  0.70012149  0.10229337  0.79969303  1
  F  F12  1  0.69815021  0.42993860  0.13131314  1
  F  F13  1  0.30184979  0.57006140  0.86868686  1
  F  F14  1  0.29987851  0.89770663  0.20030697  1
  F  F15  1  0.19752048  0.23242477  0.03451148  1
  F  F16  1  0.19578636  0.89862239  0.70294521  1
  F  F17  1  0.19610333  0.56565798  0.36852625  1
