# generated using pymatgen
data_LiMn2(BO3)2
_symmetry_space_group_name_H-M   'P 1'
_cell_length_a   5.32549801
_cell_length_b   9.09815083
_cell_length_c   10.33022664
_cell_angle_alpha   91.39267269
_cell_angle_beta   92.08416404
_cell_angle_gamma   89.21671916
_symmetry_Int_Tables_number   1
_chemical_formula_structural   LiMn2(BO3)2
_chemical_formula_sum   'Li4 Mn8 B8 O24'
_cell_volume   500.00222958
_cell_formula_units_Z   4
loop_
 _symmetry_equiv_pos_site_id
 _symmetry_equiv_pos_as_xyz
  1  'x, y, z'
loop_
 _atom_site_type_symbol
 _atom_site_label
 _atom_site_symmetry_multiplicity
 _atom_site_fract_x
 _atom_site_fract_y
 _atom_site_fract_z
 _atom_site_occupancy
  Li  Li0  1  0.16025175  0.99929965  0.66039093  1
  Li  Li1  1  0.64040556  0.48655345  0.67244495  1
  Li  Li2  1  0.63883912  0.50763063  0.16166648  1
  Li  Li3  1  0.84666599  0.02043691  0.34414018  1
  Mn  Mn4  1  0.14489393  0.68219150  0.63469473  1
  Mn  Mn5  1  0.14692635  0.31004977  0.12478041  1
  Mn  Mn6  1  0.36189729  0.18874224  0.87270906  1
  Mn  Mn7  1  0.33223516  0.83554760  0.38262299  1
  Mn  Mn8  1  0.66397965  0.15307236  0.62050589  1
  Mn  Mn9  1  0.64194889  0.83094698  0.13449564  1
  Mn  Mn10  1  0.84971585  0.65942498  0.89051368  1
  Mn  Mn11  1  0.84666391  0.34778540  0.38492940  1
  B  B12  1  0.15735224  0.34431549  0.63600865  1
  B  B13  1  0.16495750  0.65127911  0.13431381  1
  B  B14  1  0.34515437  0.83804900  0.87245442  1
  B  B15  1  0.33361668  0.16625251  0.37189005  1
  B  B16  1  0.67316949  0.82208320  0.63132624  1
  B  B17  1  0.66704426  0.17074232  0.12425150  1
  B  B18  1  0.83063527  0.31699039  0.87519192  1
  B  B19  1  0.83314620  0.68303768  0.37342848  1
  O  O20  1  0.07151169  0.30250445  0.93526887  1
  O  O21  1  0.05356819  0.69875665  0.44917503  1
  O  O22  1  0.19287888  0.04741399  0.39805844  1
  O  O23  1  0.21495820  0.71275135  0.82165441  1
  O  O24  1  0.21558032  0.28699655  0.30923104  1
  O  O25  1  0.27165252  0.97364739  0.83973865  1
  O  O26  1  0.27708232  0.21310801  0.68382752  1
  O  O27  1  0.28770710  0.47005684  0.63244199  1
  O  O28  1  0.28361726  0.51947127  0.12426764  1
  O  O29  1  0.29098989  0.77698988  0.18181225  1
  O  O30  1  0.41880966  0.82329873  0.59128448  1
  O  O31  1  0.42834385  0.18227635  0.06268332  1
  O  O32  1  0.55904259  0.80625589  0.95127533  1
  O  O33  1  0.58611722  0.17499998  0.41217319  1
  O  O34  1  0.71423216  0.18637827  0.83479320  1
  O  O35  1  0.72582377  0.44968155  0.85571225  1
  O  O36  1  0.72346602  0.55405208  0.34479507  1
  O  O37  1  0.72753929  0.81686096  0.32418740  1
  O  O38  1  0.77695128  0.68870712  0.67613533  1
  O  O39  1  0.76765879  0.03921555  0.15516931  1
  O  O40  1  0.78495565  0.30432658  0.15693622  1
  O  O41  1  0.81551982  0.94343086  0.62224152  1
  O  O42  1  0.90735181  0.33335890  0.59152838  1
  O  O43  1  0.90899225  0.66679763  0.09576078  1
