# generated using pymatgen
data_LiCoSiO4
_symmetry_space_group_name_H-M   'P 1'
_cell_length_a   6.34547703
_cell_length_b   10.75497622
_cell_length_c   5.07610900
_cell_angle_alpha   90.00000000
_cell_angle_beta   90.00000000
_cell_angle_gamma   90.00000000
_symmetry_Int_Tables_number   1
_chemical_formula_structural   LiCoSiO4
_chemical_formula_sum   'Li4 Co4 Si4 O16'
_cell_volume   346.42136611
_cell_formula_units_Z   4
loop_
 _symmetry_equiv_pos_site_id
 _symmetry_equiv_pos_as_xyz
  1  'x, y, z'
loop_
 _atom_site_type_symbol
 _atom_site_label
 _atom_site_symmetry_multiplicity
 _atom_site_fract_x
 _atom_site_fract_y
 _atom_site_fract_z
 _atom_site_occupancy
  Li  Li0  1  0.00739199  0.83219100  0.75956497  1
  Li  Li1  1  0.49260801  0.33219100  0.75956497  1
  Li  Li2  1  0.50739199  0.66780900  0.25956497  1
  Li  Li3  1  0.99260801  0.16780900  0.25956497  1
  Co  Co4  1  0.23550466  0.41330566  0.25941783  1
  Co  Co5  1  0.26449534  0.91330566  0.25941783  1
  Co  Co6  1  0.73550466  0.08669434  0.75941783  1
  Co  Co7  1  0.76449534  0.58669434  0.75941783  1
  Si  Si8  1  0.00931301  0.66780681  0.26314497  1
  Si  Si9  1  0.49068699  0.16780681  0.26314497  1
  Si  Si10  1  0.50931301  0.83219319  0.76314497  1
  Si  Si11  1  0.99068699  0.33219319  0.76314497  1
  O  O12  1  0.04337438  0.81084185  0.15169129  1
  O  O13  1  0.97860231  0.67144182  0.58455980  1
  O  O14  1  0.20649673  0.38774518  0.62578686  1
  O  O15  1  0.22282970  0.58358684  0.20217428  1
  O  O16  1  0.27717030  0.08358684  0.20217428  1
  O  O17  1  0.29350327  0.88774518  0.62578686  1
  O  O18  1  0.52139769  0.17144182  0.58455980  1
  O  O19  1  0.45662562  0.31084185  0.15169129  1
  O  O20  1  0.54337438  0.68915815  0.65169129  1
  O  O21  1  0.47860231  0.82855818  0.08455980  1
  O  O22  1  0.70649673  0.11225482  0.12578686  1
  O  O23  1  0.72282970  0.91641316  0.70217428  1
  O  O24  1  0.77717030  0.41641316  0.70217428  1
  O  O25  1  0.79350327  0.61225482  0.12578686  1
  O  O26  1  0.02139769  0.32855818  0.08455980  1
  O  O27  1  0.95662562  0.18915815  0.65169129  1
