# generated using pymatgen
data_Li3MnV(PO4)3
_symmetry_space_group_name_H-M   'P 1'
_cell_length_a   9.90138749
_cell_length_b   9.86079204
_cell_length_c   9.84767854
_cell_angle_alpha   88.03088483
_cell_angle_beta   87.77395846
_cell_angle_gamma   85.79115395
_symmetry_Int_Tables_number   1
_chemical_formula_structural   Li3MnV(PO4)3
_chemical_formula_sum   'Li12 Mn4 V4 P12 O48'
_cell_volume   957.68757099
_cell_formula_units_Z   4
loop_
 _symmetry_equiv_pos_site_id
 _symmetry_equiv_pos_as_xyz
  1  'x, y, z'
loop_
 _atom_site_type_symbol
 _atom_site_label
 _atom_site_symmetry_multiplicity
 _atom_site_fract_x
 _atom_site_fract_y
 _atom_site_fract_z
 _atom_site_occupancy
  Li  Li0  1  0.99904091  0.05127063  0.97734083  1
  Li  Li1  1  0.05934315  0.74211259  0.13624849  1
  Li  Li2  1  0.13010851  0.08553085  0.73452983  1
  Li  Li3  1  0.23353715  0.55891057  0.64145996  1
  Li  Li4  1  0.27252255  0.85849957  0.94136714  1
  Li  Li5  1  0.36875527  0.76651022  0.42246928  1
  Li  Li6  1  0.44161151  0.35637840  0.76884901  1
  Li  Li7  1  0.50084595  0.51540831  0.45229244  1
  Li  Li8  1  0.64742593  0.23215776  0.55456001  1
  Li  Li9  1  0.76413090  0.45895144  0.35641240  1
  Li  Li10  1  0.72339027  0.15667355  0.04041158  1
  Li  Li11  1  0.85182614  0.94208155  0.26639886  1
  Mn  Mn12  1  0.02562982  0.25357863  0.47588742  1
  Mn  Mn13  1  0.73878524  0.52576952  0.97251207  1
  Mn  Mn14  1  0.75734931  0.74067477  0.75195406  1
  Mn  Mn15  1  0.97360401  0.76085442  0.53035328  1
  V  V16  1  0.24596623  0.25102022  0.25282233  1
  V  V17  1  0.24757340  0.46564289  0.03638159  1
  V  V18  1  0.46400000  0.02682781  0.24641237  1
  V  V19  1  0.53765362  0.95831057  0.74890537  1
  P  P20  1  0.05374266  0.67583027  0.85347373  1
  P  P21  1  0.14550179  0.95579508  0.33530574  1
  P  P22  1  0.17406538  0.55131938  0.35555795  1
  P  P23  1  0.32713508  0.14607307  0.94955072  1
  P  P24  1  0.36039339  0.16623752  0.55040533  1
  P  P25  1  0.44794093  0.64275025  0.83759034  1
  P  P26  1  0.54637052  0.33936408  0.17846463  1
  P  P27  1  0.64741506  0.81563884  0.45024294  1
  P  P28  1  0.67441123  0.84967244  0.04813897  1
  P  P29  1  0.82632377  0.44837221  0.65227110  1
  P  P30  1  0.85198872  0.04913626  0.67125507  1
  P  P31  1  0.94733615  0.32700063  0.14732665  1
  O  O32  1  0.03591965  0.62077771  0.40725794  1
  O  O33  1  0.05249327  0.90962267  0.22829213  1
  O  O34  1  0.10872955  0.33014501  0.12028289  1
  O  O35  1  0.11793503  0.11782331  0.33826674  1
  O  O36  1  0.09331955  0.69488891  0.70007353  1
  O  O37  1  0.11452957  0.89519920  0.47868102  1
  O  O38  1  0.09765249  0.78796369  0.94276246  1
  O  O39  1  0.11757571  0.53541365  0.90057898  1
  O  O40  1  0.17014345  0.39297130  0.38239820  1
  O  O41  1  0.18484786  0.58853706  0.20130642  1
  O  O42  1  0.20828103  0.19347514  0.59088822  1
  O  O43  1  0.21129434  0.06198933  0.90581699  1
  O  O44  1  0.32714031  0.12122560  0.11024779  1
  O  O45  1  0.29113018  0.59361051  0.43940643  1
  O  O46  1  0.29878195  0.91590264  0.30194457  1
  O  O47  1  0.30899643  0.30113618  0.91367226  1
  O  O48  1  0.37743346  0.16422599  0.38846467  1
  O  O49  1  0.38551596  0.37479640  0.17345763  1
  O  O50  1  0.40937371  0.02409677  0.60763113  1
  O  O51  1  0.37643681  0.60574670  0.97419035  1
  O  O52  1  0.40484200  0.55511310  0.72328704  1
  O  O53  1  0.45006061  0.27587867  0.59441404  1
  O  O54  1  0.41657510  0.79907694  0.81014180  1
  O  O55  1  0.46420223  0.09554658  0.88548819  1
  O  O56  1  0.53220377  0.89787871  0.10435627  1
  O  O57  1  0.57995179  0.18147029  0.19276893  1
  O  O58  1  0.59213533  0.41257920  0.29951513  1
  O  O59  1  0.56276717  0.70066221  0.41414436  1
  O  O60  1  0.61252568  0.37775114  0.03935002  1
  O  O61  1  0.59422650  0.95379732  0.38713390  1
  O  O62  1  0.60629971  0.61432126  0.84715671  1
  O  O63  1  0.63060953  0.82304667  0.61388673  1
  O  O64  1  0.69574044  0.08140107  0.69570074  1
  O  O65  1  0.70754749  0.69837093  0.08430155  1
  O  O66  1  0.72056216  0.40687195  0.55484216  1
  O  O67  1  0.67166540  0.86972906  0.88387126  1
  O  O68  1  0.78059744  0.94485743  0.08875173  1
  O  O69  1  0.79632936  0.41363932  0.80273944  1
  O  O70  1  0.80113565  0.79893456  0.40962903  1
  O  O71  1  0.83355713  0.60890694  0.62641445  1
  O  O72  1  0.88266209  0.46462766  0.08889696  1
  O  O73  1  0.90432523  0.20168512  0.08061581  1
  O  O74  1  0.88687951  0.12179518  0.53342632  1
  O  O75  1  0.91468589  0.32912793  0.30239398  1
  O  O76  1  0.88147656  0.88980046  0.65575908  1
  O  O77  1  0.93779082  0.08818788  0.78673000  1
  O  O78  1  0.89500527  0.67288850  0.87480868  1
  O  O79  1  0.97038727  0.38489186  0.60995886  1
