# generated using pymatgen
data_LiMnPO4
_symmetry_space_group_name_H-M   'P 1'
_cell_length_a   10.66784836
_cell_length_b   5.67875723
_cell_length_c   5.54885327
_cell_angle_alpha   90.00000000
_cell_angle_beta   90.00000000
_cell_angle_gamma   90.00000000
_symmetry_Int_Tables_number   1
_chemical_formula_structural   LiMnPO4
_chemical_formula_sum   'Li4 Mn4 P4 O16'
_cell_volume   336.15020252
_cell_formula_units_Z   4
loop_
 _symmetry_equiv_pos_site_id
 _symmetry_equiv_pos_as_xyz
  1  'x, y, z'
loop_
 _atom_site_type_symbol
 _atom_site_label
 _atom_site_symmetry_multiplicity
 _atom_site_fract_x
 _atom_site_fract_y
 _atom_site_fract_z
 _atom_site_occupancy
  Li  Li0  1  0.04464653  0.36925331  0.92805095  1
  Li  Li1  1  0.45535347  0.86925331  0.42805095  1
  Li  Li2  1  0.54464653  0.13074669  0.92805095  1
  Li  Li3  1  0.95535347  0.63074669  0.42805095  1
  Mn  Mn4  1  0.17184274  0.91723343  0.02206308  1
  Mn  Mn5  1  0.32815726  0.41723343  0.52206308  1
  Mn  Mn6  1  0.67184274  0.58276657  0.02206308  1
  Mn  Mn7  1  0.82815726  0.08276657  0.52206308  1
  P  P8  1  0.10069795  0.14665474  0.51879159  1
  P  P9  1  0.39930205  0.64665474  0.01879159  1
  P  P10  1  0.60069795  0.35334526  0.51879159  1
  P  P11  1  0.89930205  0.85334526  0.01879159  1
  O  O12  1  0.98695200  0.32140265  0.53285506  1
  O  O13  1  0.04818171  0.89656009  0.52130324  1
  O  O14  1  0.31192446  0.69740930  0.79924955  1
  O  O15  1  0.31526275  0.69950717  0.24666653  1
  O  O16  1  0.18473725  0.19950717  0.74666653  1
  O  O17  1  0.18807554  0.19740930  0.29924955  1
  O  O18  1  0.45181829  0.39656009  0.02130324  1
  O  O19  1  0.51304800  0.82140265  0.03285506  1
  O  O20  1  0.48695200  0.17859735  0.53285506  1
  O  O21  1  0.54818171  0.60343991  0.52130324  1
  O  O22  1  0.81192446  0.80259070  0.79924955  1
  O  O23  1  0.81526275  0.80049283  0.24666653  1
  O  O24  1  0.68473725  0.30049283  0.74666653  1
  O  O25  1  0.68807554  0.30259070  0.29924955  1
  O  O26  1  0.95181829  0.10343991  0.02130324  1
  O  O27  1  0.01304800  0.67859735  0.03285506  1
