# generated using pymatgen
data_Na2BiO3
_symmetry_space_group_name_H-M   'P 1'
_cell_length_a   4.83684197
_cell_length_b   10.03647428
_cell_length_c   6.77374031
_cell_angle_alpha   90.00000000
_cell_angle_beta   89.81744200
_cell_angle_gamma   90.00000000
_symmetry_Int_Tables_number   1
_chemical_formula_structural   Na2BiO3
_chemical_formula_sum   'Na8 Bi4 O12'
_cell_volume   328.82847093
_cell_formula_units_Z   4
loop_
 _symmetry_equiv_pos_site_id
 _symmetry_equiv_pos_as_xyz
  1  'x, y, z'
loop_
 _atom_site_type_symbol
 _atom_site_label
 _atom_site_symmetry_multiplicity
 _atom_site_fract_x
 _atom_site_fract_y
 _atom_site_fract_z
 _atom_site_occupancy
  Na  Na0  1  0.25552226  0.74544733  0.88750058  1
  Na  Na1  1  0.25552226  0.75455267  0.38750058  1
  Na  Na2  1  0.25120708  0.41862710  0.87423730  1
  Na  Na3  1  0.25120708  0.08137290  0.37423730  1
  Na  Na4  1  0.74879292  0.91862710  0.62576270  1
  Na  Na5  1  0.74879292  0.58137290  0.12576270  1
  Na  Na6  1  0.74447774  0.24544733  0.61249942  1
  Na  Na7  1  0.74447774  0.25455267  0.11249942  1
  Bi  Bi8  1  0.24097536  0.08951122  0.85998619  1
  Bi  Bi9  1  0.24097536  0.41048878  0.35998619  1
  Bi  Bi10  1  0.75902464  0.58951122  0.64001381  1
  Bi  Bi11  1  0.75902464  0.91048878  0.14001381  1
  O  O12  1  0.24006242  0.57062113  0.60689963  1
  O  O13  1  0.24006242  0.92937887  0.10689963  1
  O  O14  1  0.25090418  0.93489473  0.65597534  1
  O  O15  1  0.25090418  0.56510527  0.15597534  1
  O  O16  1  0.24716288  0.24845429  0.62026585  1
  O  O17  1  0.24716288  0.25154571  0.12026585  1
  O  O18  1  0.75283712  0.74845429  0.87973415  1
  O  O19  1  0.75283712  0.75154571  0.37973415  1
  O  O20  1  0.74909582  0.43489473  0.84402466  1
  O  O21  1  0.74909582  0.06510527  0.34402466  1
  O  O22  1  0.75993758  0.07062113  0.89310037  1
  O  O23  1  0.75993758  0.42937887  0.39310037  1
