# generated using pymatgen
data_Li3MnV(PO4)3
_symmetry_space_group_name_H-M   'P 1'
_cell_length_a   9.92081024
_cell_length_b   9.83178093
_cell_length_c   9.87281942
_cell_angle_alpha   87.57706243
_cell_angle_beta   85.77918687
_cell_angle_gamma   87.70494055
_symmetry_Int_Tables_number   1
_chemical_formula_structural   Li3MnV(PO4)3
_chemical_formula_sum   'Li12 Mn4 V4 P12 O48'
_cell_volume   958.85741469
_cell_formula_units_Z   4
loop_
 _symmetry_equiv_pos_site_id
 _symmetry_equiv_pos_as_xyz
  1  'x, y, z'
loop_
 _atom_site_type_symbol
 _atom_site_label
 _atom_site_symmetry_multiplicity
 _atom_site_fract_x
 _atom_site_fract_y
 _atom_site_fract_z
 _atom_site_occupancy
  Li  Li0  1  0.99697587  0.04875872  0.98334330  1
  Li  Li1  1  0.05847966  0.73158148  0.14710736  1
  Li  Li2  1  0.13086769  0.07765254  0.73765034  1
  Li  Li3  1  0.22979414  0.56485235  0.63982311  1
  Li  Li4  1  0.26712789  0.85522833  0.94292678  1
  Li  Li5  1  0.36674769  0.76745496  0.41496864  1
  Li  Li6  1  0.43623531  0.36654061  0.75802766  1
  Li  Li7  1  0.49878200  0.52030529  0.44736495  1
  Li  Li8  1  0.64563509  0.23557009  0.55619583  1
  Li  Li9  1  0.77708957  0.46050271  0.34332497  1
  Li  Li10  1  0.73678505  0.14475022  0.04726330  1
  Li  Li11  1  0.85055878  0.93910775  0.26198139  1
  Mn  Mn12  1  0.47212101  0.02477060  0.24310564  1
  Mn  Mn13  1  0.76373403  0.52706589  0.97471758  1
  Mn  Mn14  1  0.74514536  0.74488548  0.75378559  1
  Mn  Mn15  1  0.96898787  0.75078813  0.53385307  1
  V  V16  1  0.03760224  0.25250150  0.47461342  1
  V  V17  1  0.25550629  0.24783350  0.25170531  1
  V  V18  1  0.25511781  0.46483357  0.03683619  1
  V  V19  1  0.53347308  0.96295890  0.74434388  1
  P  P20  1  0.05363766  0.66232587  0.86412675  1
  P  P21  1  0.13954748  0.94982005  0.33365799  1
  P  P22  1  0.17448021  0.55037823  0.35462191  1
  P  P23  1  0.32767160  0.14414241  0.95248587  1
  P  P24  1  0.35649695  0.16649470  0.54623476  1
  P  P25  1  0.44656721  0.64865285  0.82412605  1
  P  P26  1  0.55335372  0.35403420  0.17340859  1
  P  P27  1  0.64160923  0.82433030  0.44630309  1
  P  P28  1  0.67224869  0.84915149  0.04579687  1
  P  P29  1  0.82881817  0.45147995  0.64886823  1
  P  P30  1  0.85167724  0.04598054  0.67889373  1
  P  P31  1  0.95550562  0.32151211  0.16184090  1
  O  O32  1  0.03487380  0.61698499  0.40194756  1
  O  O33  1  0.04709907  0.90624804  0.22749340  1
  O  O34  1  0.11585754  0.32647121  0.12812139  1
  O  O35  1  0.12296557  0.11190250  0.33794578  1
  O  O36  1  0.09052095  0.68771539  0.71078239  1
  O  O37  1  0.09484478  0.88831791  0.47772398  1
  O  O38  1  0.09379832  0.77721703  0.95266605  1
  O  O39  1  0.11962523  0.52531923  0.91081267  1
  O  O40  1  0.17389996  0.39014606  0.38106854  1
  O  O41  1  0.19411233  0.58686730  0.20019265  1
  O  O42  1  0.20152937  0.19214273  0.58461919  1
  O  O43  1  0.20667305  0.06426732  0.91323810  1
  O  O44  1  0.33300427  0.11822847  0.11258265  1
  O  O45  1  0.28604113  0.59706210  0.43970394  1
  O  O46  1  0.28948834  0.90922139  0.30335732  1
  O  O47  1  0.31973743  0.29962753  0.91606011  1
  O  O48  1  0.38098482  0.16146618  0.38430451  1
  O  O49  1  0.39214762  0.38084274  0.17143603  1
  O  O50  1  0.39663746  0.02824273  0.61062108  1
  O  O51  1  0.37908958  0.60703139  0.96471092  1
  O  O52  1  0.39915219  0.55957474  0.71445712  1
  O  O53  1  0.44409774  0.28061484  0.58829096  1
  O  O54  1  0.40955983  0.80386910  0.80181854  1
  O  O55  1  0.46044505  0.08599661  0.88530091  1
  O  O56  1  0.52909220  0.89362537  0.10925859  1
  O  O57  1  0.58551706  0.19906683  0.17183294  1
  O  O58  1  0.59663069  0.41964976  0.29924497  1
  O  O59  1  0.55314628  0.70935678  0.41237992  1
  O  O60  1  0.61793444  0.41397481  0.03657209  1
  O  O61  1  0.59593222  0.96327238  0.37521506  1
  O  O62  1  0.60485192  0.62513175  0.82521352  1
  O  O63  1  0.62020803  0.84062799  0.60551549  1
  O  O64  1  0.69631463  0.08555149  0.69397216  1
  O  O65  1  0.70168465  0.69893390  0.07989313  1
  O  O66  1  0.72261853  0.40907951  0.55487640  1
  O  O67  1  0.66623059  0.87273742  0.88323882  1
  O  O68  1  0.77826892  0.94646775  0.08616782  1
  O  O69  1  0.79668751  0.41668081  0.80065657  1
  O  O70  1  0.79402721  0.80515755  0.40654114  1
  O  O71  1  0.83717108  0.61580543  0.62538724  1
  O  O72  1  0.88602481  0.45964081  0.12319738  1
  O  O73  1  0.90852633  0.20065632  0.08887179  1
  O  O74  1  0.90304712  0.11444497  0.54313718  1
  O  O75  1  0.92284885  0.30700894  0.31969565  1
  O  O76  1  0.87108877  0.88281932  0.66664505  1
  O  O77  1  0.93372362  0.08202573  0.79618640  1
  O  O78  1  0.89379911  0.65240331  0.88637801  1
  O  O79  1  0.97006176  0.39099823  0.60062582  1
