# generated using pymatgen
data_Li8Mn(O2F)2
_symmetry_space_group_name_H-M   'P 1'
_cell_length_a   5.52805410
_cell_length_b   6.30743597
_cell_length_c   5.59141797
_cell_angle_alpha   116.68985020
_cell_angle_beta   60.52742201
_cell_angle_gamma   118.20617348
_symmetry_Int_Tables_number   1
_chemical_formula_structural   Li8Mn(O2F)2
_chemical_formula_sum   'Li8 Mn1 O4 F2'
_cell_volume   143.49028210
_cell_formula_units_Z   1
loop_
 _symmetry_equiv_pos_site_id
 _symmetry_equiv_pos_as_xyz
  1  'x, y, z'
loop_
 _atom_site_type_symbol
 _atom_site_label
 _atom_site_symmetry_multiplicity
 _atom_site_fract_x
 _atom_site_fract_y
 _atom_site_fract_z
 _atom_site_occupancy
  Li  Li0  1  0.11635913  0.35297087  0.47157358  1
  Li  Li1  1  0.54470145  0.64122797  0.20983304  1
  Li  Li2  1  0.22719730  0.63824372  0.90243730  1
  Li  Li3  1  0.28868669  0.02264370  0.31510426  1
  Li  Li4  1  0.71131331  0.97735630  0.68489574  1
  Li  Li5  1  0.77280270  0.36175628  0.09756270  1
  Li  Li6  1  0.45529855  0.35877203  0.79016696  1
  Li  Li7  1  0.88364087  0.64702913  0.52842642  1
  Mn  Mn8  1  0.00000000  0.00000000  0.00000000  1
  O  O9  1  0.38872419  0.24777141  0.09366577  1
  O  O10  1  0.07806381  0.24245891  0.75594618  1
  O  O11  1  0.92193619  0.75754109  0.24405382  1
  O  O12  1  0.61127581  0.75222859  0.90633423  1
  F  F13  1  0.24555652  0.71734391  0.57882965  1
  F  F14  1  0.75444348  0.28265609  0.42117035  1
