# generated using pymatgen
data_Fe6O7F5
_symmetry_space_group_name_H-M   'P 1'
_cell_length_a   4.75285030
_cell_length_b   4.75376634
_cell_length_c   9.18157648
_cell_angle_alpha   90.00000000
_cell_angle_beta   90.00000000
_cell_angle_gamma   93.83276280
_symmetry_Int_Tables_number   1
_chemical_formula_structural   Fe6O7F5
_chemical_formula_sum   'Fe6 O7 F5'
_cell_volume   206.98400925
_cell_formula_units_Z   1
loop_
 _symmetry_equiv_pos_site_id
 _symmetry_equiv_pos_as_xyz
  1  'x, y, z'
loop_
 _atom_site_type_symbol
 _atom_site_label
 _atom_site_symmetry_multiplicity
 _atom_site_fract_x
 _atom_site_fract_y
 _atom_site_fract_z
 _atom_site_occupancy
  Fe  Fe0  1  0.00454909  0.98479485  0.99391108  1
  Fe  Fe1  1  0.00454909  0.98479485  0.33942292  1
  Fe  Fe2  1  0.04459484  0.00570129  0.66666700  1
  Fe  Fe3  1  0.50698798  0.48886921  0.16666700  1
  Fe  Fe4  1  0.46292129  0.51697916  0.84189854  1
  Fe  Fe5  1  0.46292129  0.51697916  0.49143446  1
  O  O6  1  0.19199369  0.81400715  0.49795617  1
  O  O7  1  0.19199369  0.81400715  0.83537683  1
  O  O8  1  0.30475689  0.29838231  0.01054392  1
  O  O9  1  0.30475689  0.29838231  0.32279008  1
  O  O10  1  0.31453303  0.32427343  0.66666700  1
  O  O11  1  0.69274217  0.68734618  0.00773136  1
  O  O12  1  0.69274217  0.68734618  0.32560264  1
  F  F13  1  0.18885101  0.79764277  0.16666700  1
  F  F14  1  0.70214140  0.71010842  0.66666700  1
  F  F15  1  0.81227991  0.17905763  0.16666700  1
  F  F16  1  0.80834228  0.19566298  0.83205024  1
  F  F17  1  0.80834228  0.19566298  0.50128276  1
