# generated using pymatgen
data_Ni3OF5
_symmetry_space_group_name_H-M   'P 1'
_cell_length_a   7.27361807
_cell_length_b   5.62510562
_cell_length_c   5.62510562
_cell_angle_alpha   73.32117241
_cell_angle_beta   72.81612091
_cell_angle_gamma   72.81612091
_symmetry_Int_Tables_number   1
_chemical_formula_structural   Ni3OF5
_chemical_formula_sum   'Ni6 O2 F10'
_cell_volume   204.97103823
_cell_formula_units_Z   2
loop_
 _symmetry_equiv_pos_site_id
 _symmetry_equiv_pos_as_xyz
  1  'x, y, z'
loop_
 _atom_site_type_symbol
 _atom_site_label
 _atom_site_symmetry_multiplicity
 _atom_site_fract_x
 _atom_site_fract_y
 _atom_site_fract_z
 _atom_site_occupancy
  Ni  Ni0  1  0.83891389  0.67187273  0.67187273  1
  Ni  Ni1  1  0.32562106  0.66622674  0.66622674  1
  Ni  Ni2  1  0.67437894  0.33377326  0.33377326  1
  Ni  Ni3  1  0.16108611  0.32812727  0.32812727  1
  Ni  Ni4  1  0.50000000  0.00000000  0.00000000  1
  Ni  Ni5  1  0.00000000  0.00000000  0.00000000  1
  O  O6  1  0.96475762  0.22899607  0.22899607  1
  O  O7  1  0.03524238  0.77100393  0.77100393  1
  F  F8  1  0.66652220  0.03151480  0.63621294  1
  F  F9  1  0.33347780  0.36378706  0.96848520  1
  F  F10  1  0.29952076  0.89860936  0.89860936  1
  F  F11  1  0.62996981  0.57005861  0.57005861  1
  F  F12  1  0.70047924  0.10139064  0.10139064  1
  F  F13  1  0.37003019  0.42994139  0.42994139  1
  F  F14  1  0.00000000  0.30510097  0.69489903  1
  F  F15  1  0.33347780  0.96848520  0.36378706  1
  F  F16  1  0.66652220  0.63621294  0.03151480  1
  F  F17  1  0.00000000  0.69489903  0.30510097  1
