# generated using pymatgen
data_Mn12O17F7
_symmetry_space_group_name_H-M   'P 1'
_cell_length_a   4.54354535
_cell_length_b   5.57343055
_cell_length_c   15.09533387
_cell_angle_alpha   89.84793520
_cell_angle_beta   89.17586418
_cell_angle_gamma   90.23346739
_symmetry_Int_Tables_number   1
_chemical_formula_structural   Mn12O17F7
_chemical_formula_sum   'Mn12 O17 F7'
_cell_volume   382.21704623
_cell_formula_units_Z   1
loop_
 _symmetry_equiv_pos_site_id
 _symmetry_equiv_pos_as_xyz
  1  'x, y, z'
loop_
 _atom_site_type_symbol
 _atom_site_label
 _atom_site_symmetry_multiplicity
 _atom_site_fract_x
 _atom_site_fract_y
 _atom_site_fract_z
 _atom_site_occupancy
  Mn  Mn0  1  0.02026751  0.16468201  0.41294439  1
  Mn  Mn1  1  0.02602707  0.83735423  0.24632387  1
  Mn  Mn2  1  0.01410172  0.16330052  0.07902829  1
  Mn  Mn3  1  0.02641614  0.16222224  0.74150724  1
  Mn  Mn4  1  0.02212976  0.83283577  0.57789682  1
  Mn  Mn5  1  0.00345287  0.84414366  0.90815934  1
  Mn  Mn6  1  0.49635490  0.35035233  0.91907918  1
  Mn  Mn7  1  0.49751793  0.36561843  0.58783140  1
  Mn  Mn8  1  0.49304736  0.36115327  0.25650844  1
  Mn  Mn9  1  0.50152564  0.63532485  0.09306108  1
  Mn  Mn10  1  0.49507731  0.63545434  0.42143778  1
  Mn  Mn11  1  0.49491925  0.63492237  0.75408050  1
  O  O12  1  0.23185709  0.11153486  0.30194992  1
  O  O13  1  0.23327605  0.11147541  0.63297387  1
  O  O14  1  0.21304603  0.11069127  0.96709079  1
  O  O15  1  0.22934070  0.88835134  0.13626402  1
  O  O16  1  0.22982925  0.88892451  0.46711671  1
  O  O17  1  0.23530924  0.88902935  0.79940969  1
  O  O18  1  0.27606981  0.40109388  0.48114084  1
  O  O19  1  0.27723346  0.39886181  0.14915772  1
  O  O20  1  0.27671950  0.59816006  0.31487827  1
  O  O21  1  0.27814502  0.59891760  0.64660875  1
  O  O22  1  0.27192625  0.40037815  0.81236311  1
  O  O23  1  0.72163141  0.38656951  0.02897210  1
  O  O24  1  0.72886248  0.61286995  0.19586241  1
  O  O25  1  0.72792892  0.38515572  0.36180160  1
  O  O26  1  0.72904002  0.61441750  0.52704051  1
  O  O27  1  0.71762885  0.62130875  0.86155343  1
  O  O28  1  0.73049466  0.38674689  0.69307803  1
  F  F29  1  0.25152542  0.61914901  0.98828103  1
  F  F30  1  0.75776747  0.12771885  0.19233507  1
  F  F31  1  0.75727993  0.12777554  0.52500274  1
  F  F32  1  0.75914619  0.87167099  0.35789438  1
  F  F33  1  0.74513383  0.87226508  0.02482343  1
  F  F34  1  0.76983174  0.11973018  0.84717189  1
  F  F35  1  0.76014321  0.86984079  0.68937043  1
