# generated using pymatgen
data_Co3(PO4)4
_symmetry_space_group_name_H-M   'P 1'
_cell_length_a   7.96920903
_cell_length_b   7.80445589
_cell_length_c   5.14717295
_cell_angle_alpha   91.31955336
_cell_angle_beta   94.42606144
_cell_angle_gamma   85.58086542
_symmetry_Int_Tables_number   1
_chemical_formula_structural   Co3(PO4)4
_chemical_formula_sum   'Co3 P4 O16'
_cell_volume   318.17959113
_cell_formula_units_Z   1
loop_
 _symmetry_equiv_pos_site_id
 _symmetry_equiv_pos_as_xyz
  1  'x, y, z'
loop_
 _atom_site_type_symbol
 _atom_site_label
 _atom_site_symmetry_multiplicity
 _atom_site_fract_x
 _atom_site_fract_y
 _atom_site_fract_z
 _atom_site_occupancy
  O  O0  1  0.56852038  0.34850434  0.28729168  1
  O  O1  1  0.92928463  0.85843190  0.21323965  1
  O  O2  1  0.90240292  0.79490509  0.71422717  1
  O  O3  1  0.08022527  0.10615844  0.83124175  1
  O  O4  1  0.10601113  0.19961289  0.29199939  1
  O  O5  1  0.12973294  0.57790119  0.41715781  1
  O  O6  1  0.26415330  0.34620615  0.95099155  1
  O  O7  1  0.23146570  0.87924094  0.48051439  1
  O  O8  1  0.35611904  0.04500496  0.11522650  1
  O  O9  1  0.76272018  0.63870211  0.08029999  1
  O  O10  1  0.39113748  0.65435369  0.21359582  1
  O  O11  1  0.82667969  0.46821507  0.55425992  1
  O  O12  1  0.60641348  0.33632388  0.77198650  1
  O  O13  1  0.65417556  0.94716871  0.92208643  1
  O  O14  1  0.79394102  0.14721472  0.49439416  1
  O  O15  1  0.40115582  0.62960797  0.69524991  1
  P  P16  1  0.20562390  0.17797349  0.04547787  1
  P  P17  1  0.28872910  0.68741246  0.45500079  1
  P  P18  1  0.69890284  0.32418148  0.51822005  1
  P  P19  1  0.80126082  0.81879165  0.96251024  1
  Co  Co20  1  0.90426279  0.64815762  0.39040771  1
  Co  Co21  1  0.46557278  0.47239618  0.98542922  1
  Co  Co22  1  0.01954823  0.03081709  0.50255849  1
