# generated using pymatgen
data_LiCr(CoO3)2
_symmetry_space_group_name_H-M   'P 1'
_cell_length_a   6.50663175
_cell_length_b   2.88692479
_cell_length_c   5.97076243
_cell_angle_alpha   90.03350948
_cell_angle_beta   104.83544443
_cell_angle_gamma   102.78355400
_symmetry_Int_Tables_number   1
_chemical_formula_structural   LiCr(CoO3)2
_chemical_formula_sum   'Li1 Cr1 Co2 O6'
_cell_volume   105.53462457
_cell_formula_units_Z   1
loop_
 _symmetry_equiv_pos_site_id
 _symmetry_equiv_pos_as_xyz
  1  'x, y, z'
loop_
 _atom_site_type_symbol
 _atom_site_label
 _atom_site_symmetry_multiplicity
 _atom_site_fract_x
 _atom_site_fract_y
 _atom_site_fract_z
 _atom_site_occupancy
  Li  Li0  1  0.33329581  0.66666413  0.83333708  1
  Cr  Cr1  1  0.33353196  0.66671215  0.33321696  1
  Co  Co2  1  0.67641282  0.33814612  0.66227758  1
  Co  Co3  1  0.99016335  0.99514591  0.00453886  1
  O  O4  1  0.00895388  0.50486373  0.21102288  1
  O  O5  1  0.36602216  0.18322511  0.57497671  1
  O  O6  1  0.30061885  0.15011481  0.09161073  1
  O  O7  1  0.68372565  0.84210701  0.87632486  1
  O  O8  1  0.65778885  0.82852133  0.45567052  1
  O  O9  1  0.98282068  0.49116570  0.79035581  1
