# generated using pymatgen
data_Li9Cu2(HO2)4
_symmetry_space_group_name_H-M   'P 1'
_cell_length_a   5.48216185
_cell_length_b   7.51679524
_cell_length_c   10.83688914
_cell_angle_alpha   90.00002126
_cell_angle_beta   90.03410438
_cell_angle_gamma   90.00004207
_symmetry_Int_Tables_number   1
_chemical_formula_structural   Li9Cu2(HO2)4
_chemical_formula_sum   'Li18 Cu4 H8 O16'
_cell_volume   446.56957089
_cell_formula_units_Z   2
loop_
 _symmetry_equiv_pos_site_id
 _symmetry_equiv_pos_as_xyz
  1  'x, y, z'
loop_
 _atom_site_type_symbol
 _atom_site_label
 _atom_site_symmetry_multiplicity
 _atom_site_fract_x
 _atom_site_fract_y
 _atom_site_fract_z
 _atom_site_occupancy
  Li  Li0  1  0.05522592  0.74999999  0.04982372  1
  Li  Li1  1  0.06248422  0.24999997  0.72388643  1
  Li  Li2  1  0.22264973  0.99974005  0.83854952  1
  Li  Li3  1  0.22264971  0.50025988  0.83854948  1
  Li  Li4  1  0.27739757  0.50000039  0.33847593  1
  Li  Li5  1  0.27739754  -0.00000041  0.33847589  1
  Li  Li6  1  0.43772556  0.74999997  0.22371151  1
  Li  Li7  1  0.44473512  0.24999997  0.54995033  1
  Li  Li8  1  0.55177258  0.74999999  0.45582847  1
  Li  Li9  1  0.54904814  0.24999996  0.77180164  1
  Li  Li10  1  0.56965027  0.24999998  0.28079953  1
  Li  Li11  1  0.69842905  0.99594425  0.65996468  1
  Li  Li12  1  0.69842915  0.50405572  0.65996472  1
  Li  Li13  1  0.80148553  0.49613752  0.15989216  1
  Li  Li14  1  0.80148551  0.00386243  0.15989216  1
  Li  Li15  1  0.93052149  0.75000000  0.78089930  1
  Li  Li16  1  0.95085268  0.75000000  0.27171569  1
  Li  Li17  1  0.94823600  0.24999998  0.95583120  1
  Cu  Cu18  1  0.00483016  0.25000009  0.47621236  1
  Cu  Cu19  1  0.49524200  0.75000012  0.97616185  1
  Cu  Cu20  1  0.49038969  0.24999991  0.01921692  1
  Cu  Cu21  1  0.00953934  0.75000016  0.51918900  1
  H  H22  1  0.23470646  0.02683330  0.11738812  1
  H  H23  1  0.23470639  0.47316667  0.11738812  1
  H  H24  1  0.26529494  0.52681664  0.61739100  1
  H  H25  1  0.26529494  0.97318333  0.61739100  1
  H  H26  1  0.74983381  0.01229905  0.39099641  1
  H  H27  1  0.74983382  0.48770085  0.39099643  1
  H  H28  1  0.75015729  0.51229790  0.89100162  1
  H  H29  1  0.75015732  0.98770206  0.89100162  1
  O  O30  1  0.15918867  0.56250666  0.17073445  1
  O  O31  1  0.15918842  0.93749320  0.17073442  1
  O  O32  1  0.22472481  0.75000001  0.39751228  1
  O  O33  1  0.22329335  0.75000015  0.88572856  1
  O  O34  1  0.27619309  0.24999995  0.38583048  1
  O  O35  1  0.27520968  0.25000025  0.89748832  1
  O  O36  1  0.34082266  0.43751079  0.67075242  1
  O  O37  1  0.34082271  0.06248902  0.67075251  1
  O  O38  1  0.65109052  0.95782786  0.32536297  1
  O  O39  1  0.65109025  0.54217229  0.32536289  1
  O  O40  1  0.71754747  0.74999982  0.09508449  1
  O  O41  1  0.75508797  0.75000009  0.62064563  1
  O  O42  1  0.74492640  0.25000012  0.12064384  1
  O  O43  1  0.78283954  0.25000005  0.59488738  1
  O  O44  1  0.84890638  0.04217581  0.82537228  1
  O  O45  1  0.84890616  0.45782419  0.82537225  1
