# generated using pymatgen
data_Fe10O11F9
_symmetry_space_group_name_H-M   'P 1'
_cell_length_a   4.72703536
_cell_length_b   4.72590281
_cell_length_c   15.42406875
_cell_angle_alpha   90.36884812
_cell_angle_beta   89.69269559
_cell_angle_gamma   92.40351890
_symmetry_Int_Tables_number   1
_chemical_formula_structural   Fe10O11F9
_chemical_formula_sum   'Fe10 O11 F9'
_cell_volume   344.25139574
_cell_formula_units_Z   1
loop_
 _symmetry_equiv_pos_site_id
 _symmetry_equiv_pos_as_xyz
  1  'x, y, z'
loop_
 _atom_site_type_symbol
 _atom_site_label
 _atom_site_symmetry_multiplicity
 _atom_site_fract_x
 _atom_site_fract_y
 _atom_site_fract_z
 _atom_site_occupancy
  Fe  Fe0  1  0.98961970  0.99130683  0.99850492  1
  Fe  Fe1  1  0.02020433  0.03280749  0.19433206  1
  Fe  Fe2  1  0.00042062  0.98058416  0.40581409  1
  Fe  Fe3  1  0.04120784  0.99816942  0.60149446  1
  Fe  Fe4  1  0.03837668  0.99994900  0.80066160  1
  Fe  Fe5  1  0.52101684  0.45834997  0.09555142  1
  Fe  Fe6  1  0.46657413  0.51026619  0.49402871  1
  Fe  Fe7  1  0.49172602  0.48851072  0.30467133  1
  Fe  Fe8  1  0.45996241  0.50020063  0.69991757  1
  Fe  Fe9  1  0.46059597  0.51557063  0.90601455  1
  O  O10  1  0.18781166  0.80718506  0.49970437  1
  O  O11  1  0.19933473  0.81380045  0.70083573  1
  O  O12  1  0.17961056  0.81202932  0.90350612  1
  O  O13  1  0.29547418  0.29019867  0.00133614  1
  O  O14  1  0.32606005  0.30799764  0.20087274  1
  O  O15  1  0.29063197  0.29393867  0.39687302  1
  O  O16  1  0.30755842  0.31687182  0.59761691  1
  O  O17  1  0.30402866  0.32114213  0.80299155  1
  O  O18  1  0.69218279  0.68964297  0.00112721  1
  O  O19  1  0.69176121  0.69404432  0.39699415  1
  O  O20  1  0.81813152  0.17789005  0.09809094  1
  F  F21  1  0.20372241  0.79273526  0.10363491  1
  F  F22  1  0.19260902  0.80708604  0.29612970  1
  F  F23  1  0.71598738  0.69804194  0.20270517  1
  F  F24  1  0.69805003  0.70717906  0.60013538  1
  F  F25  1  0.69528832  0.70908839  0.79940372  1
  F  F26  1  0.79880606  0.19637967  0.50148785  1
  F  F27  1  0.81209471  0.18921576  0.29843401  1
  F  F28  1  0.79633293  0.19740745  0.89726830  1
  F  F29  1  0.80481884  0.20241025  0.69986238  1
