# generated using pymatgen
data_Mn8O13F3
_symmetry_space_group_name_H-M   'P 1'
_cell_length_a   4.50393961
_cell_length_b   5.52638630
_cell_length_c   9.96264383
_cell_angle_alpha   89.86930609
_cell_angle_beta   89.69159866
_cell_angle_gamma   87.85910936
_symmetry_Int_Tables_number   1
_chemical_formula_structural   Mn8O13F3
_chemical_formula_sum   'Mn8 O13 F3'
_cell_volume   247.79807083
_cell_formula_units_Z   1
loop_
 _symmetry_equiv_pos_site_id
 _symmetry_equiv_pos_as_xyz
  1  'x, y, z'
loop_
 _atom_site_type_symbol
 _atom_site_label
 _atom_site_symmetry_multiplicity
 _atom_site_fract_x
 _atom_site_fract_y
 _atom_site_fract_z
 _atom_site_occupancy
  Mn  Mn0  1  0.99118289  0.15585669  0.62251571  1
  Mn  Mn1  1  0.01704629  0.85727117  0.36561881  1
  Mn  Mn2  1  0.01475411  0.16525826  0.12673775  1
  Mn  Mn3  1  0.00783417  0.85527389  0.86909517  1
  Mn  Mn4  1  0.51375033  0.35630471  0.88421895  1
  Mn  Mn5  1  0.50439578  0.35791548  0.37729082  1
  Mn  Mn6  1  0.49183573  0.63869358  0.13021618  1
  Mn  Mn7  1  0.49518319  0.65238816  0.62619043  1
  O  O8  1  0.23408975  0.10864814  0.45772216  1
  O  O9  1  0.23206329  0.11188335  0.96109293  1
  O  O10  1  0.23755563  0.88589149  0.20781433  1
  O  O11  1  0.21928452  0.88606576  0.70806807  1
  O  O12  1  0.28011835  0.39593610  0.21519467  1
  O  O13  1  0.25768164  0.61010897  0.46048285  1
  O  O14  1  0.26518739  0.61093217  0.96384847  1
  O  O15  1  0.73344727  0.39050655  0.04096769  1
  O  O16  1  0.73364801  0.60964205  0.28830429  1
  O  O17  1  0.71793568  0.38444672  0.54136615  1
  O  O18  1  0.73260838  0.60970091  0.79108820  1
  O  O19  1  0.77152876  0.11404147  0.28606582  1
  O  O20  1  0.75755492  0.10905172  0.79022983  1
  F  F21  1  0.26504205  0.37923821  0.72601764  1
  F  F22  1  0.76028212  0.87561028  0.03657089  1
  F  F23  1  0.76599076  0.87933319  0.52328120  1
