# generated using pymatgen
data_Mn8O13F3
_symmetry_space_group_name_H-M   'P 1'
_cell_length_a   4.49138358
_cell_length_b   5.49872250
_cell_length_c   9.95609784
_cell_angle_alpha   89.96912062
_cell_angle_beta   90.05798718
_cell_angle_gamma   89.06989109
_symmetry_Int_Tables_number   1
_chemical_formula_structural   Mn8O13F3
_chemical_formula_sum   'Mn8 O13 F3'
_cell_volume   245.85191187
_cell_formula_units_Z   1
loop_
 _symmetry_equiv_pos_site_id
 _symmetry_equiv_pos_as_xyz
  1  'x, y, z'
loop_
 _atom_site_type_symbol
 _atom_site_label
 _atom_site_symmetry_multiplicity
 _atom_site_fract_x
 _atom_site_fract_y
 _atom_site_fract_z
 _atom_site_occupancy
  Mn  Mn0  1  0.00342257  0.16003362  0.62760451  1
  Mn  Mn1  1  0.99373593  0.85052296  0.37492040  1
  Mn  Mn2  1  0.99360807  0.16149882  0.12563307  1
  Mn  Mn3  1  0.01644038  0.86218676  0.87926698  1
  Mn  Mn4  1  0.49405907  0.33846139  0.87737367  1
  Mn  Mn5  1  0.49828369  0.35123817  0.37355739  1
  Mn  Mn6  1  0.52135555  0.63749230  0.12006444  1
  Mn  Mn7  1  0.46824724  0.63680577  0.62258091  1
  O  O8  1  0.22424667  0.11069572  0.46135407  1
  O  O9  1  0.23016212  0.11277757  0.96520506  1
  O  O10  1  0.22708872  0.88523786  0.70976064  1
  O  O11  1  0.27354114  0.39161358  0.20822311  1
  O  O12  1  0.25839447  0.60534281  0.46078695  1
  O  O13  1  0.26728269  0.38780881  0.71324336  1
  O  O14  1  0.28047891  0.61447995  0.95916160  1
  O  O15  1  0.73974549  0.38798918  0.03495768  1
  O  O16  1  0.72977130  0.60787352  0.28794774  1
  O  O17  1  0.72298498  0.39092475  0.53992796  1
  O  O18  1  0.76679876  0.11379148  0.28788572  1
  O  O19  1  0.78162853  0.88471592  0.04157837  1
  O  O20  1  0.77322277  0.11422355  0.79155977  1
  F  F21  1  0.26054647  0.88707134  0.20254573  1
  F  F22  1  0.73888295  0.62151773  0.78582321  1
  F  F23  1  0.73607052  0.88569543  0.54903766  1
