# generated using pymatgen
data_LiFeOF2
_symmetry_space_group_name_H-M   'P 1'
_cell_length_a   10.48423875
_cell_length_b   8.95536070
_cell_length_c   5.29702861
_cell_angle_alpha   89.89808555
_cell_angle_beta   111.47124876
_cell_angle_gamma   89.78758556
_symmetry_Int_Tables_number   1
_chemical_formula_structural   LiFeOF2
_chemical_formula_sum   'Li8 Fe8 O8 F16'
_cell_volume   462.81831594
_cell_formula_units_Z   8
loop_
 _symmetry_equiv_pos_site_id
 _symmetry_equiv_pos_as_xyz
  1  'x, y, z'
loop_
 _atom_site_type_symbol
 _atom_site_label
 _atom_site_symmetry_multiplicity
 _atom_site_fract_x
 _atom_site_fract_y
 _atom_site_fract_z
 _atom_site_occupancy
  Li  Li0  1  0.19742821  0.40225251  0.39461769  1
  Li  Li1  1  0.30564069  0.10028160  0.11444076  1
  Li  Li2  1  0.19477901  0.59094836  0.89549314  1
  Li  Li3  1  0.30311273  0.91602119  0.61186122  1
  Li  Li4  1  0.68184547  0.09068795  0.36428169  1
  Li  Li5  1  0.80980557  0.40598511  0.13373905  1
  Li  Li6  1  0.68346759  0.91389125  0.85896557  1
  Li  Li7  1  0.82160639  0.58930791  0.64408135  1
  Fe  Fe8  1  0.01624544  0.73013110  0.25423537  1
  Fe  Fe9  1  0.01714678  0.09324918  0.25940718  1
  Fe  Fe10  1  0.01917158  0.90615694  0.76045075  1
  Fe  Fe11  1  0.01383652  0.26648564  0.75347832  1
  Fe  Fe12  1  0.49240043  0.76597240  0.23300519  1
  Fe  Fe13  1  0.48843663  0.40168421  0.22879973  1
  Fe  Fe14  1  0.49723409  0.57056055  0.76104671  1
  Fe  Fe15  1  0.49103624  0.24145728  0.75735378  1
  O  O16  1  0.09961767  0.08611642  0.97927121  1
  O  O17  1  0.09686291  0.90990207  0.47523565  1
  O  O18  1  0.10063210  0.24640118  0.50038504  1
  O  O19  1  0.10129615  0.75281787  0.00300868  1
  O  O20  1  0.38996526  0.25373730  0.98983212  1
  O  O21  1  0.40013311  0.59390368  0.02041554  1
  O  O22  1  0.40059886  0.41563828  0.50698397  1
  O  O23  1  0.60801449  0.41536990  0.99842233  1
  F  F24  1  0.12440086  0.41606940  0.00166706  1
  F  F25  1  0.13452036  0.58601597  0.50540658  1
  F  F26  1  0.37467946  0.08716835  0.50420958  1
  F  F27  1  0.40036439  0.74970616  0.50443500  1
  F  F28  1  0.36959099  0.91327119  0.00604108  1
  F  F29  1  0.62211113  0.08687904  0.97857256  1
  F  F30  1  0.61555176  0.59746139  0.50614493  1
  F  F31  1  0.61089474  0.25123193  0.50730875  1
  F  F32  1  0.62220866  0.90688271  0.47055142  1
  F  F33  1  0.60670110  0.75117464  0.99674671  1
  F  F34  1  0.88934152  0.24309839  0.99104576  1
  F  F35  1  0.88129112  0.91924203  0.98505777  1
  F  F36  1  0.87179001  0.40637382  0.52883215  1
  F  F37  1  0.89062958  0.75285332  0.49318065  1
  F  F38  1  0.88218524  0.08239264  0.49020654  1
  F  F39  1  0.87342419  0.59121717  0.03178341  1
