# generated using pymatgen
data_Li2CoOF3
_symmetry_space_group_name_H-M   'P 1'
_cell_length_a   5.81268243
_cell_length_b   5.96093668
_cell_length_c   5.87163762
_cell_angle_alpha   120.44127442
_cell_angle_beta   90.00000000
_cell_angle_gamma   60.81937026
_symmetry_Int_Tables_number   1
_chemical_formula_structural   Li2CoOF3
_chemical_formula_sum   'Li4 Co2 O2 F6'
_cell_volume   144.65917135
_cell_formula_units_Z   2
loop_
 _symmetry_equiv_pos_site_id
 _symmetry_equiv_pos_as_xyz
  1  'x, y, z'
loop_
 _atom_site_type_symbol
 _atom_site_label
 _atom_site_symmetry_multiplicity
 _atom_site_fract_x
 _atom_site_fract_y
 _atom_site_fract_z
 _atom_site_occupancy
  Li  Li0  1  0.38119527  0.73760947  0.84380424  1
  Li  Li1  1  0.00000000  0.50000000  0.50000000  1
  Li  Li2  1  0.00000000  0.50000000  0.00000000  1
  Li  Li3  1  0.61880473  0.26239053  0.15619576  1
  Co  Co4  1  0.50000000  0.00000000  0.50000000  1
  Co  Co5  1  0.00000000  0.00000000  0.50000000  1
  O  O6  1  0.74928527  0.00142946  0.31014235  1
  O  O7  1  0.25071473  0.99857054  0.68985765  1
  F  F8  1  0.75985416  0.98029167  0.75032172  1
  F  F9  1  0.21835921  0.53605648  0.26890116  1
  F  F10  1  0.74558430  0.53605648  0.26890116  1
  F  F11  1  0.25441570  0.46394352  0.73109884  1
  F  F12  1  0.78164079  0.46394352  0.73109884  1
  F  F13  1  0.24014584  0.01970833  0.24967828  1
