# generated using pymatgen
data_NiPO4
_symmetry_space_group_name_H-M   'P 1'
_cell_length_a   5.05174160
_cell_length_b   10.02987406
_cell_length_c   7.15489115
_cell_angle_alpha   90.00000000
_cell_angle_beta   90.70182480
_cell_angle_gamma   90.00000000
_symmetry_Int_Tables_number   1
_chemical_formula_structural   NiPO4
_chemical_formula_sum   'Ni4 P4 O16'
_cell_volume   362.49920349
_cell_formula_units_Z   4
loop_
 _symmetry_equiv_pos_site_id
 _symmetry_equiv_pos_as_xyz
  1  'x, y, z'
loop_
 _atom_site_type_symbol
 _atom_site_label
 _atom_site_symmetry_multiplicity
 _atom_site_fract_x
 _atom_site_fract_y
 _atom_site_fract_z
 _atom_site_occupancy
  Ni  Ni0  1  0.19561581  0.17274030  0.02692009  1
  Ni  Ni1  1  0.30438419  0.67274030  0.47307991  1
  Ni  Ni2  1  0.69561581  0.32725970  0.52692009  1
  Ni  Ni3  1  0.80438419  0.82725970  0.97307991  1
  O  O4  1  0.10884267  0.63067829  0.68204669  1
  O  O5  1  0.15529856  0.84944723  0.04068746  1
  O  O6  1  0.22445115  0.84475170  0.39850140  1
  O  O7  1  0.27636557  0.05893201  0.22451598  1
  O  O8  1  0.22363443  0.55893201  0.27548402  1
  O  O9  1  0.27554885  0.34475170  0.10149860  1
  O  O10  1  0.34470144  0.34944723  0.45931254  1
  O  O11  1  0.39115733  0.13067929  0.81795331  1
  O  O12  1  0.60884267  0.86932171  0.18204669  1
  O  O13  1  0.65529856  0.65055277  0.54068746  1
  O  O14  1  0.72445115  0.65524830  0.89850140  1
  O  O15  1  0.77636557  0.44106799  0.72451598  1
  O  O16  1  0.72363443  0.94106799  0.77548402  1
  O  O17  1  0.77554885  0.15524830  0.60149860  1
  O  O18  1  0.84470144  0.15055277  0.95931254  1
  O  O19  1  0.89115733  0.36932171  0.31795331  1
  P  P20  1  0.18653906  0.40567527  0.28969868  1
  P  P21  1  0.31346094  0.90567527  0.21030132  1
  P  P22  1  0.68653906  0.09432473  0.78969868  1
  P  P23  1  0.81346094  0.59432473  0.71030132  1
