# generated using pymatgen
data_V5Co(PO4)6
_symmetry_space_group_name_H-M   'P 1'
_cell_length_a   8.53241127
_cell_length_b   8.65444010
_cell_length_c   8.65444073
_cell_angle_alpha   59.99999590
_cell_angle_beta   59.52575937
_cell_angle_gamma   59.52575625
_symmetry_Int_Tables_number   1
_chemical_formula_structural   V5Co(PO4)6
_chemical_formula_sum   'V5 Co1 P6 O24'
_cell_volume   448.62573050
_cell_formula_units_Z   1
loop_
 _symmetry_equiv_pos_site_id
 _symmetry_equiv_pos_as_xyz
  1  'x, y, z'
loop_
 _atom_site_type_symbol
 _atom_site_label
 _atom_site_symmetry_multiplicity
 _atom_site_fract_x
 _atom_site_fract_y
 _atom_site_fract_z
 _atom_site_occupancy
  V  V0  1  0.99238537  0.00253821  0.00253821  1
  V  V1  1  0.06520700  0.64493100  0.64493100  1
  V  V2  1  0.49866733  0.50044422  0.50044422  1
  V  V3  1  0.42675107  0.85774964  0.85774964  1
  V  V4  1  0.93445083  0.35518306  0.35518306  1
  Co  Co5  1  0.56260400  0.14579900  0.14579900  1
  P  P6  1  0.25008818  0.24962641  0.54481054  1
  P  P7  1  0.25008818  0.95547386  0.24962641  1
  P  P8  1  0.25008818  0.54481054  0.95547386  1
  P  P9  1  0.75247884  0.45479853  0.04354378  1
  P  P10  1  0.75247884  0.04354378  0.74917785  1
  P  P11  1  0.75247884  0.74917785  0.45479853  1
  O  O12  1  0.06678594  0.11595666  0.32014507  1
  O  O13  1  0.06678594  0.49711233  0.11595666  1
  O  O14  1  0.06678594  0.32014507  0.49711233  1
  O  O15  1  0.21371764  0.09505049  0.74597575  1
  O  O16  1  0.43542722  0.18429310  0.39528775  1
  O  O17  1  0.26215266  0.41344206  0.56738055  1
  O  O18  1  0.21371764  0.94525612  0.09505049  1
  O  O19  1  0.26215266  0.75702473  0.41344206  1
  O  O20  1  0.56955292  0.61111069  0.00633584  1
  O  O21  1  0.26215266  0.56738055  0.75702473  1
  O  O22  1  0.78832012  0.25781133  0.05114093  1
  O  O23  1  0.56955292  0.00633584  0.81300055  1
  O  O24  1  0.43542722  0.98499193  0.18429310  1
  O  O25  1  0.21371764  0.74597575  0.94525612  1
  O  O26  1  0.73440984  0.43803700  0.24195982  1
  O  O27  1  0.43542722  0.39528775  0.98499193  1
  O  O28  1  0.73440984  0.24195982  0.58559334  1
  O  O29  1  0.78832012  0.05114093  0.90272661  1
  O  O30  1  0.73440984  0.58559334  0.43803700  1
  O  O31  1  0.56955292  0.81300055  0.61111069  1
  O  O32  1  0.78832012  0.90272661  0.25781133  1
  O  O33  1  0.93371078  0.67275794  0.50696068  1
  O  O34  1  0.93371078  0.50696068  0.88657160  1
  O  O35  1  0.93371078  0.88657160  0.67275794  1
