# generated using pymatgen
data_Li2Mn3(BO3)3
_symmetry_space_group_name_H-M   'P 1'
_cell_length_a   8.27542796
_cell_length_b   12.63806690
_cell_length_c   8.84913113
_cell_angle_alpha   69.81589038
_cell_angle_beta   62.37671969
_cell_angle_gamma   71.03982711
_symmetry_Int_Tables_number   1
_chemical_formula_structural   Li2Mn3(BO3)3
_chemical_formula_sum   'Li8 Mn12 B12 O36'
_cell_volume   754.35249849
_cell_formula_units_Z   4
loop_
 _symmetry_equiv_pos_site_id
 _symmetry_equiv_pos_as_xyz
  1  'x, y, z'
loop_
 _atom_site_type_symbol
 _atom_site_label
 _atom_site_symmetry_multiplicity
 _atom_site_fract_x
 _atom_site_fract_y
 _atom_site_fract_z
 _atom_site_occupancy
  Li  Li0  1  0.98556420  0.80401764  0.91550025  1
  Li  Li1  1  0.72128615  0.70175481  0.58849001  1
  Li  Li2  1  0.98505925  0.30766609  0.41128200  1
  Li  Li3  1  0.97233153  0.55937747  0.16033847  1
  Li  Li4  1  0.72332194  0.19717482  0.10340406  1
  Li  Li5  1  0.30233065  0.36805836  0.61422721  1
  Li  Li6  1  0.30556567  0.11696863  0.86432185  1
  Li  Li7  1  0.29235648  0.87044115  0.11144240  1
  Mn  Mn8  1  0.36207538  0.65519467  0.97714429  1
  Mn  Mn9  1  0.37771630  0.90439339  0.70373030  1
  Mn  Mn10  1  0.64023827  0.25470951  0.76193317  1
  Mn  Mn11  1  0.62767071  0.50245684  0.51686486  1
  Mn  Mn12  1  0.60641581  0.75218777  0.26146172  1
  Mn  Mn13  1  0.00149309  0.84166571  0.51908814  1
  Mn  Mn14  1  0.00732707  0.58764573  0.75896765  1
  Mn  Mn15  1  0.36513609  0.40787394  0.22059716  1
  Mn  Mn16  1  0.35162347  0.15658932  0.47650174  1
  Mn  Mn17  1  0.64579271  0.00211720  0.01048681  1
  Mn  Mn18  1  0.00586195  0.09023543  0.27644385  1
  Mn  Mn19  1  0.00391225  0.34231568  0.02492444  1
  B  B20  1  0.66538772  0.78997394  0.87683100  1
  B  B21  1  0.98874049  0.75383508  0.24483009  1
  B  B22  1  -0.00002398  0.49696021  0.49275283  1
  B  B23  1  0.66642600  0.54654323  0.12831992  1
  B  B24  1  0.66670679  0.29110995  0.37629520  1
  B  B25  1  0.32775029  0.71842445  0.62195896  1
  B  B26  1  0.34017667  0.94809265  0.37240883  1
  B  B27  1  0.66175466  0.03914496  0.63488897  1
  B  B28  1  0.32456232  0.45917143  0.87535413  1
  B  B29  1  0.01769960  0.99775090  0.99243800  1
  B  B30  1  0.00658249  0.25203064  0.75256493  1
  B  B31  1  0.33506412  0.20646474  0.12857548  1
  O  O32  1  0.92400777  0.96065361  0.93252789  1
  O  O33  1  0.85541305  0.76467808  0.79823383  1
  O  O34  1  0.89400986  0.79199049  0.39730913  1
  O  O35  1  0.89938945  0.29007335  0.90544216  1
  O  O36  1  0.89393458  0.55659654  0.62279149  1
  O  O37  1  0.92170253  0.23937927  0.65954581  1
  O  O38  1  0.91508105  0.47436278  0.40529294  1
  O  O39  1  0.89459149  0.72341939  0.17318682  1
  O  O40  1  0.55759581  0.77748291  0.80224845  1
  O  O41  1  0.21276425  0.97531412  0.92223732  1
  O  O42  1  0.86069556  0.26798837  0.29083656  1
  O  O43  1  0.85586309  0.51622596  0.03608725  1
  O  O44  1  0.52146551  0.69295796  0.52783334  1
  O  O45  1  0.53229753  0.91169567  0.28498051  1
  O  O46  1  0.51443399  0.43143972  0.78840073  1
  O  O47  1  0.84752228  0.01087615  0.53280295  1
  O  O48  1  0.60684586  0.59666331  0.26934118  1
  O  O49  1  0.26192390  0.77013408  0.76390294  1
  O  O50  1  0.59640565  0.08737633  0.77621815  1
  O  O51  1  0.57453576  0.82853653  0.03163959  1
  O  O52  1  0.58421058  0.33869857  0.52054232  1
  O  O53  1  0.91749573  0.05793338  0.12351856  1
  O  O54  1  0.53751913  0.52843954  0.08850657  1
  O  O55  1  0.56043718  0.26562576  0.31491037  1
  O  O56  1  0.20728380  0.69590356  0.57858175  1
  O  O57  1  0.21727706  0.93760818  0.31584043  1
  O  O58  1  0.20827948  0.43526097  0.82073130  1
  O  O59  1  0.52936363  0.02125430  0.59368004  1
  O  O60  1  0.20053494  0.22647316  0.69389177  1
  O  O61  1  0.18938895  0.45845886  0.44657763  1
  O  O62  1  0.17928403  0.74431883  0.15976777  1
  O  O63  1  0.52816223  0.17671922  0.04781872  1
  O  O64  1  0.27760943  0.99351708  0.51663584  1
  O  O65  1  0.25466496  0.25913372  0.26967899  1
  O  O66  1  0.24698560  0.51083379  0.01715022  1
  O  O67  1  0.22081519  0.18464015  0.07197697  1
