# generated using pymatgen
data_Mn8O13F3
_symmetry_space_group_name_H-M   'P 1'
_cell_length_a   6.70825692
_cell_length_b   5.54541074
_cell_length_c   6.73891597
_cell_angle_alpha   88.44957469
_cell_angle_beta   95.82272820
_cell_angle_gamma   88.59446208
_symmetry_Int_Tables_number   1
_chemical_formula_structural   Mn8O13F3
_chemical_formula_sum   'Mn8 O13 F3'
_cell_volume   249.20945323
_cell_formula_units_Z   1
loop_
 _symmetry_equiv_pos_site_id
 _symmetry_equiv_pos_as_xyz
  1  'x, y, z'
loop_
 _atom_site_type_symbol
 _atom_site_label
 _atom_site_symmetry_multiplicity
 _atom_site_fract_x
 _atom_site_fract_y
 _atom_site_fract_z
 _atom_site_occupancy
  Mn  Mn0  1  0.37504782  0.35856324  0.13977505  1
  Mn  Mn1  1  0.11313786  0.63644664  0.37387985  1
  Mn  Mn2  1  0.88047320  0.16907574  0.13195099  1
  Mn  Mn3  1  0.37335722  0.15005100  0.62007141  1
  Mn  Mn4  1  0.13949162  0.85944863  0.87474471  1
  Mn  Mn5  1  0.63835280  0.85211023  0.37201521  1
  Mn  Mn6  1  0.62561111  0.65418564  0.87519694  1
  Mn  Mn7  1  0.87283511  0.35457496  0.62996085  1
  O  O8  1  0.15937250  0.11557526  0.08000311  1
  O  O9  1  0.16864058  0.60930945  0.09391364  1
  O  O10  1  0.32463187  0.38924687  0.40529107  1
  O  O11  1  0.57474412  0.61305941  0.15659969  1
  O  O12  1  0.07651867  0.60708904  0.65472295  1
  O  O13  1  0.09275195  0.10916106  0.66952922  1
  O  O14  1  0.59609597  0.11382451  0.17144869  1
  O  O15  1  0.40487850  0.88600855  0.82042572  1
  O  O16  1  0.65527819  0.10561342  0.57330323  1
  O  O17  1  0.90750163  0.88547281  0.32328989  1
  O  O18  1  0.92142231  0.39390906  0.35279174  1
  O  O19  1  0.66921993  0.61018959  0.59100702  1
  O  O20  1  0.82074997  0.38714279  0.90399191  1
  F  F21  1  0.34233676  0.86709340  0.40772644  1
  F  F22  1  0.40968353  0.37992871  0.85835036  1
  F  F23  1  0.85786678  0.89292197  0.92000732  1
