# generated using pymatgen
data_LaH18C3S3(O2F)9
_symmetry_space_group_name_H-M   'P 1'
_cell_length_a   14.14781295
_cell_length_b   14.14781259
_cell_length_c   7.43141896
_cell_angle_alpha   90.00000000
_cell_angle_beta   90.00000000
_cell_angle_gamma   120.00000084
_symmetry_Int_Tables_number   1
_chemical_formula_structural   LaH18C3S3(O2F)9
_chemical_formula_sum   'La2 H36 C6 S6 O36 F18'
_cell_volume   1288.19313881
_cell_formula_units_Z   2
loop_
 _symmetry_equiv_pos_site_id
 _symmetry_equiv_pos_as_xyz
  1  'x, y, z'
loop_
 _atom_site_type_symbol
 _atom_site_label
 _atom_site_symmetry_multiplicity
 _atom_site_fract_x
 _atom_site_fract_y
 _atom_site_fract_z
 _atom_site_occupancy
  La  La0  1  0.33333300  0.66666700  0.25000000  1
  La  La1  1  0.66666700  0.33333300  0.75000000  1
  O  O2  1  0.34731816  0.48777782  0.25000000  1
  O  O3  1  0.85954034  0.34731816  0.75000000  1
  O  O4  1  0.48777782  0.14045966  0.75000000  1
  O  O5  1  0.51222218  0.85954034  0.25000000  1
  O  O6  1  0.14045966  0.65268184  0.25000000  1
  O  O7  1  0.65268184  0.51222218  0.75000000  1
  H  H8  1  0.35417391  0.45086550  0.14322200  1
  H  H9  1  0.90330841  0.35417391  0.64322200  1
  H  H10  1  0.45086550  0.09669159  0.64322200  1
  H  H11  1  0.54913450  0.90330841  0.14322200  1
  H  H12  1  0.09669159  0.64582609  0.14322200  1
  H  H13  1  0.64582609  0.54913450  0.64322200  1
  H  H14  1  0.64582609  0.54913450  0.85677800  1
  H  H15  1  0.09669159  0.64582609  0.35677800  1
  H  H16  1  0.54913450  0.90330841  0.35677800  1
  H  H17  1  0.45086550  0.09669159  0.85677800  1
  H  H18  1  0.90330841  0.35417391  0.85677800  1
  H  H19  1  0.35417391  0.45086550  0.35677800  1
  O  O20  1  0.20418756  0.54210596  0.49226671  1
  O  O21  1  0.66208160  0.20418756  0.99226671  1
  O  O22  1  0.54210596  0.33791840  0.99226671  1
  O  O23  1  0.45789404  0.66208160  0.49226671  1
  O  O24  1  0.33791840  0.79581244  0.49226671  1
  O  O25  1  0.79581244  0.45789404  0.99226671  1
  O  O26  1  0.79581244  0.45789404  0.50773329  1
  O  O27  1  0.33791840  0.79581244  0.00773329  1
  O  O28  1  0.45789404  0.66208160  0.00773329  1
  O  O29  1  0.54210596  0.33791840  0.50773329  1
  O  O30  1  0.66208160  0.20418756  0.50773329  1
  O  O31  1  0.20418756  0.54210596  0.00773329  1
  H  H32  1  0.12689062  0.49132142  0.46438812  1
  H  H33  1  0.63556920  0.12689062  0.96438812  1
  H  H34  1  0.49132142  0.36443080  0.96438812  1
  H  H35  1  0.50867858  0.63556920  0.46438812  1
  H  H36  1  0.36443080  0.87310938  0.46438812  1
  H  H37  1  0.87310938  0.50867858  0.96438812  1
  H  H38  1  0.87310938  0.50867858  0.53561188  1
  H  H39  1  0.36443080  0.87310938  0.03561188  1
  H  H40  1  0.50867858  0.63556920  0.03561188  1
  H  H41  1  0.49132142  0.36443080  0.53561188  1
  H  H42  1  0.63556920  0.12689062  0.53561188  1
  H  H43  1  0.12689062  0.49132142  0.03561188  1
  H  H44  1  0.22641566  0.50410468  0.57898850  1
  H  H45  1  0.72231098  0.22641566  0.07898850  1
  H  H46  1  0.50410468  0.27768902  0.07898850  1
  H  H47  1  0.49589532  0.72231098  0.57898850  1
  H  H48  1  0.27768902  0.77358434  0.57898850  1
  H  H49  1  0.77358434  0.49589532  0.07898850  1
  H  H50  1  0.77358434  0.49589532  0.42101150  1
  H  H51  1  0.27768902  0.77358434  0.92101150  1
  H  H52  1  0.49589532  0.72231098  0.92101150  1
  H  H53  1  0.50410468  0.27768902  0.42101150  1
  H  H54  1  0.72231098  0.22641566  0.42101150  1
  H  H55  1  0.22641566  0.50410468  0.92101150  1
  S  S56  1  0.31989610  0.38063140  0.75000000  1
  S  S57  1  0.93926470  0.31989610  0.25000000  1
  S  S58  1  0.38063140  0.06073530  0.25000000  1
  S  S59  1  0.61936860  0.93926470  0.75000000  1
  S  S60  1  0.06073530  0.68010390  0.75000000  1
  S  S61  1  0.68010390  0.61936860  0.25000000  1
  O  O62  1  0.24945276  0.42927545  0.75000000  1
  O  O63  1  0.82017731  0.24945276  0.25000000  1
  O  O64  1  0.42927545  0.17982269  0.25000000  1
  O  O65  1  0.57072455  0.82017731  0.75000000  1
  O  O66  1  0.17982269  0.75054724  0.75000000  1
  O  O67  1  0.75054724  0.57072455  0.25000000  1
  O  O68  1  0.38236409  0.39945589  0.58363313  1
  O  O69  1  0.98290820  0.38236409  0.08363313  1
  O  O70  1  0.39945589  0.01709180  0.08363313  1
  O  O71  1  0.60054411  0.98290820  0.58363313  1
  O  O72  1  0.01709180  0.61763591  0.58363313  1
  O  O73  1  0.61763591  0.60054411  0.08363313  1
  O  O74  1  0.61763591  0.60054411  0.41636687  1
  O  O75  1  0.01709180  0.61763591  0.91636687  1
  O  O76  1  0.60054411  0.98290820  0.91636687  1
  O  O77  1  0.39945589  0.01709180  0.41636687  1
  O  O78  1  0.98290820  0.38236409  0.41636687  1
  O  O79  1  0.38236409  0.39945589  0.91636687  1
  C  C80  1  0.22179621  0.23022223  0.75000000  1
  C  C81  1  0.99157397  0.22179621  0.25000000  1
  C  C82  1  0.23022223  0.00842603  0.25000000  1
  C  C83  1  0.76977777  0.99157397  0.75000000  1
  C  C84  1  0.00842603  0.77820379  0.75000000  1
  C  C85  1  0.77820379  0.76977777  0.25000000  1
  F  F86  1  0.27812359  0.17604571  0.75000000  1
  F  F87  1  0.10207788  0.27812359  0.25000000  1
  F  F88  1  0.17604571  0.89792212  0.25000000  1
  F  F89  1  0.82395429  0.10207788  0.75000000  1
  F  F90  1  0.89792212  0.72187641  0.75000000  1
  F  F91  1  0.72187641  0.82395429  0.25000000  1
  F  F92  1  0.15782417  0.20147812  0.60216801  1
  F  F93  1  0.95634605  0.15782417  0.10216801  1
  F  F94  1  0.20147812  0.04365395  0.10216801  1
  F  F95  1  0.79852188  0.95634605  0.60216801  1
  F  F96  1  0.04365395  0.84217583  0.60216801  1
  F  F97  1  0.84217583  0.79852188  0.10216801  1
  F  F98  1  0.84217583  0.79852188  0.39783199  1
  F  F99  1  0.04365395  0.84217583  0.89783199  1
  F  F100  1  0.79852188  0.95634605  0.89783199  1
  F  F101  1  0.20147812  0.04365395  0.39783199  1
  F  F102  1  0.95634605  0.15782417  0.39783199  1
  F  F103  1  0.15782417  0.20147812  0.89783199  1
