# generated using pymatgen
data_LiMn2(BO3)2
_symmetry_space_group_name_H-M   'P 1'
_cell_length_a   5.80472716
_cell_length_b   5.30948214
_cell_length_c   12.44055307
_cell_angle_alpha   77.70374678
_cell_angle_beta   92.59823924
_cell_angle_gamma   89.60392470
_symmetry_Int_Tables_number   1
_chemical_formula_structural   LiMn2(BO3)2
_chemical_formula_sum   'Li3 Mn6 B6 O18'
_cell_volume   374.18416739
_cell_formula_units_Z   3
loop_
 _symmetry_equiv_pos_site_id
 _symmetry_equiv_pos_as_xyz
  1  'x, y, z'
loop_
 _atom_site_type_symbol
 _atom_site_label
 _atom_site_symmetry_multiplicity
 _atom_site_fract_x
 _atom_site_fract_y
 _atom_site_fract_z
 _atom_site_occupancy
  Li  Li0  1  0.13978047  0.57269243  0.17444027  1
  Li  Li1  1  0.18667432  0.09453354  0.48520222  1
  Li  Li2  1  0.84989301  0.42245255  0.81975241  1
  Mn  Mn3  1  0.03520700  0.94863951  0.71660724  1
  Mn  Mn4  1  0.31705277  0.72362763  0.94536778  1
  Mn  Mn5  1  0.36715471  0.62123861  0.38037131  1
  Mn  Mn6  1  0.64212736  0.38516859  0.60987291  1
  Mn  Mn7  1  0.68327791  0.26803945  0.05672275  1
  Mn  Mn8  1  0.95124168  0.03242506  0.28663782  1
  B  B9  1  0.14513329  0.52524712  0.60537587  1
  B  B10  1  0.18582299  0.14090410  0.06650107  1
  B  B11  1  0.46150803  0.18605594  0.27624936  1
  B  B12  1  0.53708767  0.81540391  0.72694024  1
  B  B13  1  0.81045494  0.85411331  0.93643256  1
  B  B14  1  0.86391768  0.47747655  0.39064462  1
  O  O15  1  0.02562720  0.63959613  0.32769298  1
  O  O16  1  0.01247903  0.25604390  0.11984796  1
  O  O17  1  0.13357575  0.78858483  0.59364340  1
  O  O18  1  0.19332171  0.88447777  0.07188410  1
  O  O19  1  0.28901928  0.41802473  0.53732839  1
  O  O20  1  0.32559982  0.01867752  0.34798294  1
  O  O21  1  0.35046602  0.31295397  0.01629917  1
  O  O22  1  0.35469933  0.91983156  0.77569391  1
  O  O23  1  0.43150483  0.44879760  0.26068787  1
  O  O24  1  0.56426051  0.55855918  0.73619582  1
  O  O25  1  0.61759819  0.08869341  0.21356782  1
  O  O26  1  0.66788635  0.67512560  0.99602149  1
  O  O27  1  0.70009745  0.99094546  0.67670846  1
  O  O28  1  0.68888052  0.59329154  0.43861209  1
  O  O29  1  0.79341791  0.11515562  0.93219168  1
  O  O30  1  0.88844219  0.21889067  0.40888074  1
  O  O31  1  0.96931485  0.75642105  0.87158216  1
  O  O32  1  0.00774521  0.36016015  0.67630259  1
