# generated using pymatgen
data_Mn6O5F7
_symmetry_space_group_name_H-M   'P 1'
_cell_length_a   4.70438919
_cell_length_b   5.75275547
_cell_length_c   15.62619791
_cell_angle_alpha   90.02833017
_cell_angle_beta   89.45680627
_cell_angle_gamma   91.54666674
_symmetry_Int_Tables_number   1
_chemical_formula_structural   Mn6O5F7
_chemical_formula_sum   'Mn12 O10 F14'
_cell_volume   422.72184692
_cell_formula_units_Z   2
loop_
 _symmetry_equiv_pos_site_id
 _symmetry_equiv_pos_as_xyz
  1  'x, y, z'
loop_
 _atom_site_type_symbol
 _atom_site_label
 _atom_site_symmetry_multiplicity
 _atom_site_fract_x
 _atom_site_fract_y
 _atom_site_fract_z
 _atom_site_occupancy
  Mn  Mn0  1  0.05213585  0.16005048  0.41423651  1
  Mn  Mn1  1  0.99082231  0.84395132  0.24754823  1
  Mn  Mn2  1  0.01357382  0.17475963  0.07796769  1
  Mn  Mn3  1  0.99696286  0.15763681  0.74170967  1
  Mn  Mn4  1  0.02735251  0.85754226  0.57874898  1
  Mn  Mn5  1  0.03637599  0.86130205  0.91139842  1
  Mn  Mn6  1  0.50063367  0.33355108  0.58807281  1
  Mn  Mn7  1  0.50524252  0.33572990  0.92482946  1
  Mn  Mn8  1  0.48154372  0.34695484  0.24854582  1
  Mn  Mn9  1  0.51931566  0.62349839  0.09013507  1
  Mn  Mn10  1  0.47681876  0.65222010  0.42479811  1
  Mn  Mn11  1  0.49278054  0.65627307  0.75191095  1
  O  O12  1  0.22040687  0.11686996  0.30292307  1
  O  O13  1  0.21898263  0.11133770  0.63613867  1
  O  O14  1  0.22251850  0.12304400  0.97051012  1
  O  O15  1  0.23469240  0.88422755  0.47398252  1
  O  O16  1  0.21591367  0.89558882  0.80011018  1
  O  O17  1  0.27696309  0.38960017  0.14156998  1
  O  O18  1  0.29139565  0.38988771  0.47923845  1
  O  O19  1  0.71663399  0.38049311  0.02968168  1
  O  O20  1  0.71658262  0.60491824  0.19483995  1
  O  O21  1  0.70735736  0.37222311  0.69545229  1
  F  F22  1  0.25177691  0.87916265  0.13425652  1
  F  F23  1  0.23999781  0.61500971  0.31105877  1
  F  F24  1  0.25328594  0.60549275  0.64300464  1
  F  F25  1  0.26093912  0.39465660  0.82029207  1
  F  F26  1  0.27903685  0.62706851  0.98368249  1
  F  F27  1  0.71608009  0.39386492  0.35798532  1
  F  F28  1  0.75185162  0.61715044  0.53359410  1
  F  F29  1  0.73896719  0.61364595  0.86801508  1
  F  F30  1  0.77436495  0.10750004  0.18669555  1
  F  F31  1  0.78087361  0.13213520  0.51592253  1
  F  F32  1  0.74604597  0.88348663  0.36486930  1
  F  F33  1  0.77531576  0.86788374  0.02608322  1
  F  F34  1  0.75906343  0.11720549  0.85097946  1
  F  F35  1  0.75739778  0.87407608  0.67921334  1
