# generated using pymatgen
data_Li8PrO6
_symmetry_space_group_name_H-M   'P 1'
_cell_length_a   6.51694517
_cell_length_b   6.51694517
_cell_length_c   6.51694517
_cell_angle_alpha   52.12642737
_cell_angle_beta   52.12642745
_cell_angle_gamma   52.12642741
_symmetry_Int_Tables_number   1
_chemical_formula_structural   Li8PrO6
_chemical_formula_sum   'Li8 Pr1 O6'
_cell_volume   159.49622688
_cell_formula_units_Z   1
loop_
 _symmetry_equiv_pos_site_id
 _symmetry_equiv_pos_as_xyz
  1  'x, y, z'
loop_
 _atom_site_type_symbol
 _atom_site_label
 _atom_site_symmetry_multiplicity
 _atom_site_fract_x
 _atom_site_fract_y
 _atom_site_fract_z
 _atom_site_occupancy
  Li  Li0  1  0.37125942  0.37125942  0.37125942  1
  Li  Li1  1  0.50052544  0.90471647  0.22174018  1
  Li  Li2  1  0.22174018  0.50052544  0.90471647  1
  Li  Li3  1  0.90471647  0.22174018  0.50052544  1
  Li  Li4  1  0.49947456  0.09528353  0.77825982  1
  Li  Li5  1  0.77825982  0.49947456  0.09528353  1
  Li  Li6  1  0.62874058  0.62874058  0.62874058  1
  Li  Li7  1  0.09528353  0.77825982  0.49947456  1
  O  O8  1  0.24398859  0.88622206  0.60058284  1
  O  O9  1  0.11377794  0.39941716  0.75601141  1
  O  O10  1  0.75601141  0.11377794  0.39941716  1
  O  O11  1  0.60058284  0.24398859  0.88622206  1
  O  O12  1  0.88622206  0.60058284  0.24398859  1
  O  O13  1  0.39941716  0.75601141  0.11377794  1
  Pr  Pr14  1  0.00000000  0.00000000  0.00000000  1
