# generated using pymatgen
data_Li3Ni(SbO3)4
_symmetry_space_group_name_H-M   'P 1'
_cell_length_a   5.57468197
_cell_length_b   11.13488956
_cell_length_c   9.83354207
_cell_angle_alpha   28.03489475
_cell_angle_beta   50.80410944
_cell_angle_gamma   56.13389378
_symmetry_Int_Tables_number   1
_chemical_formula_structural   Li3Ni(SbO3)4
_chemical_formula_sum   'Li3 Ni1 Sb4 O12'
_cell_volume   222.34012151
_cell_formula_units_Z   1
loop_
 _symmetry_equiv_pos_site_id
 _symmetry_equiv_pos_as_xyz
  1  'x, y, z'
loop_
 _atom_site_type_symbol
 _atom_site_label
 _atom_site_symmetry_multiplicity
 _atom_site_fract_x
 _atom_site_fract_y
 _atom_site_fract_z
 _atom_site_occupancy
  Li  Li0  1  0.27542434  0.50070941  0.28630442  1
  Li  Li1  1  0.78230001  0.99991784  0.78446616  1
  Li  Li2  1  0.78067824  0.49996404  0.77940850  1
  Ni  Ni3  1  0.30020071  0.00079260  0.29155321  1
  Sb  Sb4  1  0.00327780  0.99955395  0.99135877  1
  Sb  Sb5  1  0.98637695  0.49976696  0.99963299  1
  Sb  Sb6  1  0.49815976  0.99656408  0.50361410  1
  Sb  Sb7  1  0.49392347  0.50318520  0.48995270  1
  O  O8  1  0.37378976  0.29931896  0.11142089  1
  O  O9  1  0.21783573  0.13681856  0.60822640  1
  O  O10  1  0.10961062  0.32871765  0.72005862  1
  O  O11  1  0.88961122  0.19066191  0.21834108  1
  O  O12  1  0.38014621  0.80399705  0.10641647  1
  O  O13  1  0.71986944  0.36363285  0.38133146  1
  O  O14  1  0.21523849  0.64353459  0.59851139  1
  O  O15  1  0.60475040  0.17271659  0.87863232  1
  O  O16  1  0.10892390  0.83494869  0.70659122  1
  O  O17  1  0.87664703  0.69832845  0.21239426  1
  O  O18  1  0.70880977  0.86720591  0.37344382  1
  O  O19  1  0.60402714  0.65966572  0.88794120  1
