# generated using pymatgen
data_Li4CoO3F
_symmetry_space_group_name_H-M   'P 1'
_cell_length_a   5.37572391
_cell_length_b   5.37572391
_cell_length_c   6.67569338
_cell_angle_alpha   90.00000000
_cell_angle_beta   90.00000000
_cell_angle_gamma   94.57160607
_symmetry_Int_Tables_number   1
_chemical_formula_structural   Li4CoO3F
_chemical_formula_sum   'Li8 Co2 O6 F2'
_cell_volume   192.30314296
_cell_formula_units_Z   2
loop_
 _symmetry_equiv_pos_site_id
 _symmetry_equiv_pos_as_xyz
  1  'x, y, z'
loop_
 _atom_site_type_symbol
 _atom_site_label
 _atom_site_symmetry_multiplicity
 _atom_site_fract_x
 _atom_site_fract_y
 _atom_site_fract_z
 _atom_site_occupancy
  Li  Li0  1  0.16590787  0.83864467  0.49572667  1
  Li  Li1  1  0.16135533  0.83409213  0.99572667  1
  Li  Li2  1  0.58041319  0.88692019  0.24137620  1
  Li  Li3  1  0.11307981  0.41958681  0.74137620  1
  Li  Li4  1  0.41958681  0.11307981  0.74137620  1
  Li  Li5  1  0.88692019  0.58041319  0.24137620  1
  Li  Li6  1  0.83409213  0.16135533  0.99572667  1
  Li  Li7  1  0.83864467  0.16590787  0.49572667  1
  Co  Co8  1  0.62741815  0.62741815  0.81278838  1
  Co  Co9  1  0.37258185  0.37258185  0.31278838  1
  O  O10  1  0.26144010  0.66937733  0.24743015  1
  O  O11  1  0.33062267  0.73855990  0.74743015  1
  O  O12  1  0.79292020  0.79292020  0.01172123  1
  O  O13  1  0.20707980  0.20707980  0.51172123  1
  O  O14  1  0.73855990  0.33062267  0.74743015  1
  O  O15  1  0.66937733  0.26144010  0.24743015  1
  F  F16  1  0.19369211  0.19369211  0.95642536  1
  F  F17  1  0.80630789  0.80630789  0.45642536  1
