# generated using pymatgen
data_Mn3(O2F)2
_symmetry_space_group_name_H-M   'P 1'
_cell_length_a   7.39034726
_cell_length_b   5.54907779
_cell_length_c   5.54566757
_cell_angle_alpha   70.93303650
_cell_angle_beta   71.34834993
_cell_angle_gamma   71.49634835
_symmetry_Int_Tables_number   1
_chemical_formula_structural   Mn3(O2F)2
_chemical_formula_sum   'Mn6 O8 F4'
_cell_volume   197.82066792
_cell_formula_units_Z   2
loop_
 _symmetry_equiv_pos_site_id
 _symmetry_equiv_pos_as_xyz
  1  'x, y, z'
loop_
 _atom_site_type_symbol
 _atom_site_label
 _atom_site_symmetry_multiplicity
 _atom_site_fract_x
 _atom_site_fract_y
 _atom_site_fract_z
 _atom_site_occupancy
  Mn  Mn0  1  0.83782519  0.68094475  0.69070306  1
  Mn  Mn1  1  0.67152780  0.33185332  0.34211779  1
  Mn  Mn2  1  0.31789814  0.64681465  0.65886391  1
  Mn  Mn3  1  0.17075194  0.31650921  0.32822957  1
  Mn  Mn4  1  0.49675446  0.99159485  0.00334473  1
  Mn  Mn5  1  0.00108282  0.02864411  0.97940808  1
  O  O6  1  0.66958103  0.02690326  0.65011086  1
  O  O7  1  0.33182742  0.34991518  0.97108540  1
  O  O8  1  0.96142020  0.23476291  0.22631455  1
  O  O9  1  0.03483296  0.78020813  0.77091725  1
  O  O10  1  0.37474058  0.42906498  0.43050935  1
  O  O11  1  0.33116860  0.95918572  0.36085055  1
  O  O12  1  0.66849038  0.63822088  0.03690914  1
  O  O13  1  0.99934412  0.32520668  0.68111922  1
  F  F14  1  0.30895938  0.87391391  0.88476599  1
  F  F15  1  0.63048759  0.57676113  0.57747342  1
  F  F16  1  0.69353367  0.09920224  0.11161088  1
  F  F17  1  0.99977170  0.71029210  0.29566824  1
