# generated using pymatgen
data_LiFe4(BO3)4
_symmetry_space_group_name_H-M   'P 1'
_cell_length_a   5.23758603
_cell_length_b   9.13939392
_cell_length_c   11.34319619
_cell_angle_alpha   66.47311112
_cell_angle_beta   76.69546813
_cell_angle_gamma   88.98199304
_symmetry_Int_Tables_number   1
_chemical_formula_structural   LiFe4(BO3)4
_chemical_formula_sum   'Li2 Fe8 B8 O24'
_cell_volume   482.80865728
_cell_formula_units_Z   2
loop_
 _symmetry_equiv_pos_site_id
 _symmetry_equiv_pos_as_xyz
  1  'x, y, z'
loop_
 _atom_site_type_symbol
 _atom_site_label
 _atom_site_symmetry_multiplicity
 _atom_site_fract_x
 _atom_site_fract_y
 _atom_site_fract_z
 _atom_site_occupancy
  Li  Li0  1  0.71347862  0.72619732  0.90394207  1
  Li  Li1  1  0.23515829  0.24905524  0.15839466  1
  Fe  Fe2  1  0.98329757  0.65028198  0.37089565  1
  Fe  Fe3  1  0.73277404  0.06838181  0.88128204  1
  Fe  Fe4  1  0.51996217  0.84803177  0.62375164  1
  Fe  Fe5  1  0.74894309  0.44230413  0.13714587  1
  Fe  Fe6  1  0.22987467  0.55443979  0.87950027  1
  Fe  Fe7  1  0.48924676  0.14920316  0.37914924  1
  Fe  Fe8  1  0.02413439  0.35258194  0.62815938  1
  Fe  Fe9  1  0.25234207  0.93098329  0.12594630  1
  B  B10  1  0.97691781  0.31487666  0.37968543  1
  B  B11  1  0.73300919  0.39962370  0.87341127  1
  B  B12  1  0.52804018  0.18383193  0.63175214  1
  B  B13  1  0.76631458  0.11196507  0.12545586  1
  B  B14  1  0.47033120  0.81034955  0.37793374  1
  B  B15  1  0.23144248  0.89058383  0.87627001  1
  B  B16  1  0.02427972  0.68364375  0.63003150  1
  B  B17  1  0.26900888  0.60275045  0.12190088  1
  O  O18  1  0.97069832  0.90331060  0.87615704  1
  O  O19  1  0.88011367  0.29347828  0.83056974  1
  O  O20  1  0.85693581  0.50321869  0.91069053  1
  O  O21  1  0.85814612  0.79510266  0.64423886  1
  O  O22  1  0.96616029  0.57949083  0.57651182  1
  O  O23  1  0.75850876  0.16902947  0.67753890  1
  O  O24  1  0.73888760  0.32390365  0.34433869  1
  O  O25  1  0.47049559  0.40233383  0.88173799  1
  O  O26  1  0.37435909  0.77629853  0.83773134  1
  O  O27  1  0.53026122  0.92020678  0.42975087  1
  O  O28  1  0.63518744  0.69676157  0.37319163  1
  O  O29  1  0.36899718  0.98197770  0.91622867  1
  O  O30  1  0.64776787  0.02868189  0.06997441  1
  O  O31  1  0.36670264  0.29952774  0.63475663  1
  O  O32  1  0.46832894  0.07394828  0.58120245  1
  O  O33  1  0.60197580  0.20747877  0.17834848  1
  O  O34  1  0.53473589  0.62201302  0.09716700  1
  O  O35  1  0.25653678  0.66845733  0.67470426  1
  O  O36  1  0.23931846  0.82483222  0.33580334  1
  O  O37  1  0.03843862  0.41871608  0.43315089  1
  O  O38  1  0.15084379  0.21126951  0.35566341  1
  O  O39  1  0.15295828  0.49545047  0.08246768  1
  O  O40  1  0.10779050  0.69146249  0.17842604  1
  O  O41  1  0.02222060  0.10644919  0.12896637  1
