# generated using pymatgen
data_LiFe4(BO3)4
_symmetry_space_group_name_H-M   'P 1'
_cell_length_a   5.22171944
_cell_length_b   5.25295215
_cell_length_c   20.13568036
_cell_angle_alpha   89.59531708
_cell_angle_beta   90.16342785
_cell_angle_gamma   61.18375837
_symmetry_Int_Tables_number   1
_chemical_formula_structural   LiFe4(BO3)4
_chemical_formula_sum   'Li2 Fe8 B8 O24'
_cell_volume   483.89351304
_cell_formula_units_Z   2
loop_
 _symmetry_equiv_pos_site_id
 _symmetry_equiv_pos_as_xyz
  1  'x, y, z'
loop_
 _atom_site_type_symbol
 _atom_site_label
 _atom_site_symmetry_multiplicity
 _atom_site_fract_x
 _atom_site_fract_y
 _atom_site_fract_z
 _atom_site_occupancy
  Li  Li0  1  0.32770128  0.65411571  0.67753957  1
  Li  Li1  1  0.65755006  0.34884901  0.54645181  1
  Fe  Fe2  1  0.99532320  0.67408523  0.81063265  1
  Fe  Fe3  1  0.99957598  0.67352517  0.31010115  1
  Fe  Fe4  1  0.67367221  0.99778420  0.93601391  1
  Fe  Fe5  1  0.67451162  0.99205120  0.43519896  1
  Fe  Fe6  1  0.31852806  0.00655263  0.56128672  1
  Fe  Fe7  1  0.32379744  0.00677557  0.06130649  1
  Fe  Fe8  1  0.99159330  0.32137737  0.68792465  1
  Fe  Fe9  1  0.00425931  0.32674471  0.18548968  1
  B  B10  1  0.00121821  0.34336949  0.93645900  1
  B  B11  1  0.00182876  0.33388590  0.43648440  1
  B  B12  1  0.33342289  0.00474756  0.81106859  1
  B  B13  1  0.34179984  0.00504448  0.31109144  1
  B  B14  1  0.65516206  0.99970469  0.68564939  1
  B  B15  1  0.66286451  0.99625429  0.18595657  1
  B  B16  1  0.99729529  0.66433025  0.56123834  1
  B  B17  1  0.99509094  0.66462607  0.06174453  1
  O  O18  1  0.11368375  0.27482021  0.79120201  1
  O  O19  1  0.12724352  0.26979354  0.28441188  1
  O  O20  1  0.26763597  0.12922375  0.96343011  1
  O  O21  1  0.99022699  0.60103998  0.91364376  1
  O  O22  1  0.27239785  0.11139491  0.45538893  1
  O  O23  1  0.97985296  0.59405775  0.41173138  1
  O  O24  1  0.59711586  0.98096058  0.83536282  1
  O  O25  1  0.26026216  0.66002373  0.56949581  1
  O  O26  1  0.60232712  0.99289886  0.33381896  1
  O  O27  1  0.22854400  0.70873710  0.06436615  1
  O  O28  1  0.30127965  0.76377677  0.80547546  1
  O  O29  1  0.29713747  0.77255184  0.31430205  1
  O  O30  1  0.64994487  0.26121674  0.68136354  1
  O  O31  1  0.70665150  0.22886906  0.18428582  1
  O  O32  1  0.76873666  0.29695715  0.93378049  1
  O  O33  1  0.40962098  0.97828044  0.66726398  1
  O  O34  1  0.75607731  0.30603396  0.44443593  1
  O  O35  1  0.40457038  0.01006860  0.16191963  1
  O  O36  1  0.97143257  0.42111739  0.57732737  1
  O  O37  1  0.00912069  0.40699619  0.08602432  1
  O  O38  1  0.74882728  0.91622462  0.53711341  1
  O  O39  1  0.72902173  0.87587855  0.03491269  1
  O  O40  1  0.90938723  0.74787040  0.70781528  1
  O  O41  1  0.87605855  0.72997632  0.21252338  1
