# generated using pymatgen
data_Mn8O13F3
_symmetry_space_group_name_H-M   'P 1'
_cell_length_a   4.50943878
_cell_length_b   7.45384920
_cell_length_c   7.46820383
_cell_angle_alpha   96.04651376
_cell_angle_beta   88.18204238
_cell_angle_gamma   91.38501574
_symmetry_Int_Tables_number   1
_chemical_formula_structural   Mn8O13F3
_chemical_formula_sum   'Mn8 O13 F3'
_cell_volume   249.44934931
_cell_formula_units_Z   1
loop_
 _symmetry_equiv_pos_site_id
 _symmetry_equiv_pos_as_xyz
  1  'x, y, z'
loop_
 _atom_site_type_symbol
 _atom_site_label
 _atom_site_symmetry_multiplicity
 _atom_site_fract_x
 _atom_site_fract_y
 _atom_site_fract_z
 _atom_site_occupancy
  Mn  Mn0  1  0.49885367  0.70174856  0.04794126  1
  Mn  Mn1  1  0.48275226  0.29423186  0.93819535  1
  Mn  Mn2  1  0.51367476  0.18818942  0.55160080  1
  Mn  Mn3  1  0.49979336  0.80072183  0.44410246  1
  Mn  Mn4  1  0.98596185  0.95397732  0.78993838  1
  Mn  Mn5  1  0.99246485  0.55873194  0.70608054  1
  Mn  Mn6  1  0.00800105  0.45627178  0.30125068  1
  Mn  Mn7  1  0.98372607  0.06262200  0.20435035  1
  O  O8  1  0.75814379  0.09445054  0.98172782  1
  O  O9  1  0.77144095  0.73414850  0.84677708  1
  O  O10  1  0.77123749  0.23666138  0.35121990  1
  O  O11  1  0.77416279  0.59699909  0.48852031  1
  O  O12  1  0.73593630  0.34069691  0.73351421  1
  O  O13  1  0.72679648  0.98154721  0.58721152  1
  O  O14  1  0.74041195  0.84537600  0.23272408  1
  O  O15  1  0.26621444  0.15346329  0.76211696  1
  O  O16  1  0.28033725  0.65249591  0.26783840  1
  O  O17  1  0.26442550  0.51495691  0.90440786  1
  O  O18  1  0.27186642  0.01551021  0.40574827  1
  O  O19  1  0.23410451  0.26678807  0.15437536  1
  O  O20  1  0.23599939  0.76884513  0.65870511  1
  F  F21  1  0.73109768  0.46467519  0.08544698  1
  F  F22  1  0.25099228  0.40146037  0.53281037  1
  F  F23  1  0.22160589  0.91543058  0.02339498  1
