# generated using pymatgen
data_LiMn2(BO3)2
_symmetry_space_group_name_H-M   'P 1'
_cell_length_a   5.80025584
_cell_length_b   5.29727878
_cell_length_c   16.43565742
_cell_angle_alpha   90.03677525
_cell_angle_beta   99.18152390
_cell_angle_gamma   89.37545402
_symmetry_Int_Tables_number   1
_chemical_formula_structural   LiMn2(BO3)2
_chemical_formula_sum   'Li4 Mn8 B8 O24'
_cell_volume   498.49494184
_cell_formula_units_Z   4
loop_
 _symmetry_equiv_pos_site_id
 _symmetry_equiv_pos_as_xyz
  1  'x, y, z'
loop_
 _atom_site_type_symbol
 _atom_site_label
 _atom_site_symmetry_multiplicity
 _atom_site_fract_x
 _atom_site_fract_y
 _atom_site_fract_z
 _atom_site_occupancy
  Li  Li0  1  0.05210252  0.83006551  0.61135108  1
  Li  Li1  1  0.18607013  0.66051166  0.13112001  1
  Li  Li2  1  0.30633715  0.33631174  0.36418259  1
  Li  Li3  1  0.80380488  0.33174808  0.86473398  1
  Mn  Mn4  1  0.30104541  0.69608329  0.95866738  1
  Mn  Mn5  1  0.02319365  0.17667070  0.21427507  1
  Mn  Mn6  1  0.20681108  0.30539219  0.53816659  1
  Mn  Mn7  1  0.54119200  0.18813126  0.70861958  1
  Mn  Mn8  1  0.46222591  0.81193764  0.28521429  1
  Mn  Mn9  1  0.79018427  0.68965017  0.45698494  1
  Mn  Mn10  1  0.96415257  0.80705210  0.78748241  1
  Mn  Mn11  1  0.69834009  0.29780283  0.04244764  1
  B  B12  1  0.04330584  0.32701386  0.70444741  1
  B  B13  1  0.29302344  0.82679259  0.45402141  1
  B  B14  1  0.46822039  0.67770498  0.79576609  1
  B  B15  1  0.20341139  0.17406410  0.04984120  1
  B  B16  1  0.79329002  0.82177208  0.95210677  1
  B  B17  1  0.53189327  0.32342027  0.20718356  1
  B  B18  1  0.71225456  0.17740510  0.54538438  1
  B  B19  1  0.96180133  0.67201834  0.29301455  1
  O  O20  1  0.03251682  0.58527661  0.69578318  1
  O  O21  1  0.16980203  0.18306642  0.65359132  1
  O  O22  1  0.17262034  0.69616525  0.50653166  1
  O  O23  1  0.35518630  0.32068086  0.01213857  1
  O  O24  1  0.10759036  0.80385935  0.24602425  1
  O  O25  1  0.29702977  0.80839234  0.83177325  1
  O  O26  1  0.04316524  0.31782593  0.08983272  1
  O  O27  1  0.27834636  0.08555030  0.44607273  1
  O  O28  1  0.49701766  0.42581586  0.80322958  1
  O  O29  1  0.21206445  0.92075324  0.05422481  1
  O  O30  1  0.42101767  0.68762590  0.40274470  1
  O  O31  1  0.41224611  0.19293385  0.26062930  1
  O  O32  1  0.61959626  0.82766626  0.75855954  1
  O  O33  1  0.53995165  0.30402961  0.58221410  1
  O  O34  1  0.77822327  0.08228561  0.94944066  1
  O  O35  1  0.49845096  0.58003496  0.19580480  1
  O  O36  1  0.74355657  0.92548061  0.55207946  1
  O  O37  1  0.93663072  0.69115747  0.90382617  1
  O  O38  1  0.67214606  0.19616786  0.16019229  1
  O  O39  1  0.92478144  0.19877099  0.75783347  1
  O  O40  1  0.66376933  0.67448821  0.99612431  1
  O  O41  1  0.86240087  0.32888766  0.50789449  1
  O  O42  1  0.79755673  0.81130947  0.32927212  1
  O  O43  1  0.99133514  0.42296689  0.30653563  1
