# generated using pymatgen
data_LuH18C3S3(O2F)9
_symmetry_space_group_name_H-M   'P 1'
_cell_length_a   13.47599525
_cell_length_b   13.47599541
_cell_length_c   7.67476883
_cell_angle_alpha   90.00000000
_cell_angle_beta   90.00000000
_cell_angle_gamma   119.99999964
_symmetry_Int_Tables_number   1
_chemical_formula_structural   LuH18C3S3(O2F)9
_chemical_formula_sum   'Lu2 H36 C6 S6 O36 F18'
_cell_volume   1207.02882057
_cell_formula_units_Z   2
loop_
 _symmetry_equiv_pos_site_id
 _symmetry_equiv_pos_as_xyz
  1  'x, y, z'
loop_
 _atom_site_type_symbol
 _atom_site_label
 _atom_site_symmetry_multiplicity
 _atom_site_fract_x
 _atom_site_fract_y
 _atom_site_fract_z
 _atom_site_occupancy
  Lu  Lu0  1  0.33333300  0.66666700  0.25000000  1
  Lu  Lu1  1  0.66666700  0.33333300  0.75000000  1
  O  O2  1  0.34646221  0.48338340  0.25000000  1
  O  O3  1  0.86307881  0.34646221  0.75000000  1
  O  O4  1  0.48338340  0.13692119  0.75000000  1
  O  O5  1  0.51661660  0.86307881  0.25000000  1
  O  O6  1  0.13692119  0.65353779  0.25000000  1
  O  O7  1  0.65353779  0.51661660  0.75000000  1
  H  H8  1  0.34823880  0.44199384  0.14605702  1
  H  H9  1  0.90624496  0.34823880  0.64605702  1
  H  H10  1  0.44199384  0.09375504  0.64605702  1
  H  H11  1  0.55800616  0.90624496  0.14605702  1
  H  H12  1  0.09375504  0.65176120  0.14605702  1
  H  H13  1  0.65176120  0.55800616  0.64605702  1
  H  H14  1  0.65176120  0.55800616  0.85394298  1
  H  H15  1  0.09375504  0.65176120  0.35394298  1
  H  H16  1  0.55800616  0.90624496  0.35394298  1
  H  H17  1  0.44199384  0.09375504  0.85394298  1
  H  H18  1  0.90624496  0.34823880  0.85394298  1
  H  H19  1  0.34823880  0.44199384  0.35394298  1
  O  O20  1  0.21005560  0.54487479  0.45880831  1
  O  O21  1  0.66518081  0.21005560  0.95880831  1
  O  O22  1  0.54487479  0.33481919  0.95880831  1
  O  O23  1  0.45512521  0.66518081  0.45880831  1
  O  O24  1  0.33481919  0.78994440  0.45880831  1
  O  O25  1  0.78994440  0.45512521  0.95880831  1
  O  O26  1  0.78994440  0.45512521  0.54119169  1
  O  O27  1  0.33481919  0.78994440  0.04119169  1
  O  O28  1  0.45512521  0.66518081  0.04119169  1
  O  O29  1  0.54487479  0.33481919  0.54119169  1
  O  O30  1  0.66518081  0.21005560  0.54119169  1
  O  O31  1  0.21005560  0.54487479  0.04119169  1
  H  H32  1  0.12903139  0.48824216  0.43547856  1
  H  H33  1  0.64078923  0.12903139  0.93547856  1
  H  H34  1  0.48824216  0.35921077  0.93547856  1
  H  H35  1  0.51175784  0.64078923  0.43547856  1
  H  H36  1  0.35921077  0.87096861  0.43547856  1
  H  H37  1  0.87096861  0.51175784  0.93547856  1
  H  H38  1  0.87096861  0.51175784  0.56452144  1
  H  H39  1  0.35921077  0.87096861  0.06452144  1
  H  H40  1  0.51175784  0.64078923  0.06452144  1
  H  H41  1  0.48824216  0.35921077  0.56452144  1
  H  H42  1  0.64078923  0.12903139  0.56452144  1
  H  H43  1  0.12903139  0.48824216  0.06452144  1
  H  H44  1  0.23462957  0.51606528  0.55883067  1
  H  H45  1  0.71856428  0.23462957  0.05883067  1
  H  H46  1  0.51606528  0.28143572  0.05883067  1
  H  H47  1  0.48393472  0.71856428  0.55883067  1
  H  H48  1  0.28143572  0.76537043  0.55883067  1
  H  H49  1  0.76537043  0.48393472  0.05883067  1
  H  H50  1  0.76537043  0.48393472  0.44116933  1
  H  H51  1  0.28143572  0.76537043  0.94116933  1
  H  H52  1  0.48393472  0.71856428  0.94116933  1
  H  H53  1  0.51606528  0.28143572  0.44116933  1
  H  H54  1  0.71856428  0.23462957  0.44116933  1
  H  H55  1  0.23462957  0.51606528  0.94116933  1
  S  S56  1  0.31250907  0.38694129  0.75000000  1
  S  S57  1  0.92556779  0.31250907  0.25000000  1
  S  S58  1  0.38694129  0.07443221  0.25000000  1
  S  S59  1  0.61305871  0.92556779  0.75000000  1
  S  S60  1  0.07443221  0.68749093  0.75000000  1
  S  S61  1  0.68749093  0.61305871  0.25000000  1
  O  O62  1  0.26256126  0.46216934  0.75000000  1
  O  O63  1  0.80039192  0.26256126  0.25000000  1
  O  O64  1  0.46216934  0.19960808  0.25000000  1
  O  O65  1  0.53783066  0.80039192  0.75000000  1
  O  O66  1  0.19960808  0.73743874  0.75000000  1
  O  O67  1  0.73743874  0.53783066  0.25000000  1
  O  O68  1  0.37284947  0.39200321  0.58877921  1
  O  O69  1  0.98084626  0.37284947  0.08877921  1
  O  O70  1  0.39200321  0.01915374  0.08877921  1
  O  O71  1  0.60799679  0.98084626  0.58877921  1
  O  O72  1  0.01915374  0.62715053  0.58877921  1
  O  O73  1  0.62715053  0.60799679  0.08877921  1
  O  O74  1  0.62715053  0.60799679  0.41122079  1
  O  O75  1  0.01915374  0.62715053  0.91122079  1
  O  O76  1  0.60799679  0.98084626  0.91122079  1
  O  O77  1  0.39200321  0.01915374  0.41122079  1
  O  O78  1  0.98084626  0.37284947  0.41122079  1
  O  O79  1  0.37284947  0.39200321  0.91122079  1
  C  C80  1  0.18390493  0.23999754  0.75000000  1
  C  C81  1  0.94390738  0.18390493  0.25000000  1
  C  C82  1  0.23999754  0.05609262  0.25000000  1
  C  C83  1  0.76000246  0.94390738  0.75000000  1
  C  C84  1  0.05609262  0.81609507  0.75000000  1
  C  C85  1  0.81609507  0.76000246  0.25000000  1
  F  F86  1  0.21627435  0.15996105  0.75000000  1
  F  F87  1  0.05631330  0.21627435  0.25000000  1
  F  F88  1  0.15996105  0.94368670  0.25000000  1
  F  F89  1  0.84003895  0.05631330  0.75000000  1
  F  F90  1  0.94368670  0.78372565  0.75000000  1
  F  F91  1  0.78372565  0.84003895  0.25000000  1
  F  F92  1  0.11947943  0.22552725  0.60689985  1
  F  F93  1  0.89395218  0.11947943  0.10689985  1
  F  F94  1  0.22552725  0.10604782  0.10689985  1
  F  F95  1  0.77447275  0.89395218  0.60689985  1
  F  F96  1  0.10604782  0.88052057  0.60689985  1
  F  F97  1  0.88052057  0.77447275  0.10689985  1
  F  F98  1  0.88052057  0.77447275  0.39310015  1
  F  F99  1  0.10604782  0.88052057  0.89310015  1
  F  F100  1  0.77447275  0.89395218  0.89310015  1
  F  F101  1  0.22552725  0.10604782  0.39310015  1
  F  F102  1  0.89395218  0.11947943  0.39310015  1
  F  F103  1  0.11947943  0.22552725  0.89310015  1
