# generated using pymatgen
data_Li2Mn3(BO3)3
_symmetry_space_group_name_H-M   'P 1'
_cell_length_a   8.28454729
_cell_length_b   8.83805948
_cell_length_c   6.32098916
_cell_angle_alpha   68.14368933
_cell_angle_beta   91.05188883
_cell_angle_gamma   62.91446381
_symmetry_Int_Tables_number   1
_chemical_formula_structural   Li2Mn3(BO3)3
_chemical_formula_sum   'Li4 Mn6 B6 O18'
_cell_volume   372.42672589
_cell_formula_units_Z   2
loop_
 _symmetry_equiv_pos_site_id
 _symmetry_equiv_pos_as_xyz
  1  'x, y, z'
loop_
 _atom_site_type_symbol
 _atom_site_label
 _atom_site_symmetry_multiplicity
 _atom_site_fract_x
 _atom_site_fract_y
 _atom_site_fract_z
 _atom_site_occupancy
  Li  Li0  1  0.98489583  0.71551105  0.37875811  1
  Li  Li1  1  0.97808388  0.71353278  0.90049743  1
  Li  Li2  1  0.72191551  0.29634298  0.62020132  1
  Li  Li3  1  0.29409119  0.98316219  0.24898839  1
  Mn  Mn4  1  0.37144408  0.62557885  0.19160332  1
  Mn  Mn5  1  0.36392470  0.64173462  0.69326214  1
  Mn  Mn6  1  0.64877794  0.02800857  0.46802408  1
  Mn  Mn7  1  0.59941052  0.02235611  0.97054581  1
  Mn  Mn8  1  0.01452065  0.32933994  0.34936732  1
  Mn  Mn9  1  0.00471274  0.36180791  0.82937465  1
  B  B10  1  0.67086849  0.67638015  0.92738838  1
  B  B11  1  0.66970985  0.66735985  0.40449722  1
  B  B12  1  0.33088126  0.34382854  0.57786244  1
  B  B13  1  0.33105675  0.32948466  0.07693218  1
  B  B14  1  0.99368825  0.99274204  0.00509058  1
  B  B15  1  0.00279711  0.98848488  0.50629491  1
  O  O16  1  0.89537778  0.89543658  0.04463489  1
  O  O17  1  0.93411693  0.86205910  0.56141326  1
  O  O18  1  0.85995959  0.56004863  0.46484939  1
  O  O19  1  0.85798692  0.54852372  0.98481605  1
  O  O20  1  0.61252947  0.86794616  0.81085186  1
  O  O21  1  0.57971790  0.86388890  0.28119687  1
  O  O22  1  0.87828190  0.17637667  0.44250663  1
  O  O23  1  0.90215377  0.18524891  0.90575943  1
  O  O24  1  0.56048546  0.58310245  0.47031629  1
  O  O25  1  0.53993296  0.61889813  0.97558674  1
  O  O26  1  0.18801617  0.89457075  0.06692353  1
  O  O27  1  0.18973206  0.92357797  0.51583328  1
  O  O28  1  0.52588292  0.22452317  0.63785302  1
  O  O29  1  0.52131276  0.21241872  0.09747666  1
  O  O30  1  0.25967085  0.53811825  0.45356464  1
  O  O31  1  0.26312900  0.52179647  0.99393507  1
  O  O32  1  0.21663576  0.27220879  0.64485533  1
  O  O33  1  0.21798705  0.25197652  0.14075076  1
