# generated using pymatgen
data_LiMn2(BO3)2
_symmetry_space_group_name_H-M   'P 1'
_cell_length_a   5.79139880
_cell_length_b   9.79512688
_cell_length_c   9.80610644
_cell_angle_alpha   65.28729485
_cell_angle_beta   80.13553081
_cell_angle_gamma   81.00672957
_symmetry_Int_Tables_number   1
_chemical_formula_structural   LiMn2(BO3)2
_chemical_formula_sum   'Li4 Mn8 B8 O24'
_cell_volume   495.62430331
_cell_formula_units_Z   4
loop_
 _symmetry_equiv_pos_site_id
 _symmetry_equiv_pos_as_xyz
  1  'x, y, z'
loop_
 _atom_site_type_symbol
 _atom_site_label
 _atom_site_symmetry_multiplicity
 _atom_site_fract_x
 _atom_site_fract_y
 _atom_site_fract_z
 _atom_site_occupancy
  Li  Li0  1  0.93798227  0.19768302  0.53737223  1
  Li  Li1  1  0.55996061  0.80526243  0.97470427  1
  Li  Li2  1  0.06074329  0.29909882  0.96902273  1
  Li  Li3  1  0.05798409  0.80597454  0.46848379  1
  Mn  Mn4  1  0.82707345  0.61329242  0.80995247  1
  Mn  Mn5  1  0.65696371  0.39386353  0.69215542  1
  Mn  Mn6  1  0.67063672  0.88145024  0.20060089  1
  Mn  Mn7  1  0.81739476  0.12386860  0.30711659  1
  Mn  Mn8  1  0.17936927  0.87212113  0.70593163  1
  Mn  Mn9  1  0.33661173  0.12002999  0.79936300  1
  Mn  Mn10  1  0.33966411  0.59998964  0.31841887  1
  Mn  Mn11  1  0.17897805  0.38685422  0.19104141  1
  B  B12  1  0.66978110  0.95162825  0.63557756  1
  B  B13  1  0.83619780  0.04524769  0.85978726  1
  B  B14  1  0.84514906  0.53531097  0.36923731  1
  B  B15  1  0.66711097  0.46239146  0.12676962  1
  B  B16  1  0.33282903  0.53843348  0.86614133  1
  B  B17  1  0.15585732  0.46283152  0.63564124  1
  B  B18  1  0.16428214  0.95752813  0.13255266  1
  B  B19  1  0.32489081  0.04681236  0.37071919  1
  O  O20  1  0.81589314  0.91282016  0.97954948  1
  O  O21  1  0.96962104  0.44004547  0.75365539  1
  O  O22  1  0.98019124  0.94211408  0.25251937  1
  O  O23  1  0.83993771  0.83280757  0.64579232  1
  O  O24  1  0.83953461  0.40214531  0.49059562  1
  O  O25  1  0.48757204  0.93325242  0.75609749  1
  O  O26  1  0.84037312  0.34295901  0.13744274  1
  O  O27  1  0.64990140  0.15934276  0.82142636  1
  O  O28  1  0.65122517  0.64482637  0.33711355  1
  O  O29  1  0.53670041  0.57646093  0.76220075  1
  O  O30  1  0.68687134  0.09065386  0.51803325  1
  O  O31  1  0.67323826  0.60077107  0.00783043  1
  O  O32  1  0.31820057  0.40100319  0.98020930  1
  O  O33  1  0.30559405  0.91111217  0.48641803  1
  O  O34  1  0.48475376  0.44242857  0.24383561  1
  O  O35  1  0.33273881  0.34626203  0.65729739  1
  O  O36  1  0.34013181  0.83859601  0.15113766  1
  O  O37  1  0.13955016  0.64792426  0.83589209  1
  O  O38  1  0.52937159  0.07598335  0.26601281  1
  O  O39  1  0.16632465  0.59823003  0.51235649  1
  O  O40  1  0.13183547  0.16136843  0.34491687  1
  O  O41  1  0.04144178  0.07434192  0.74969388  1
  O  O42  1  0.04883768  0.56769942  0.26376773  1
  O  O43  1  0.16839487  0.09118311  0.00688091  1
