# generated using pymatgen
data_Mn6O5F7
_symmetry_space_group_name_H-M   'P 1'
_cell_length_a   4.73055624
_cell_length_b   5.76206346
_cell_length_c   15.57362461
_cell_angle_alpha   89.97811779
_cell_angle_beta   90.12069644
_cell_angle_gamma   91.59532069
_symmetry_Int_Tables_number   1
_chemical_formula_structural   Mn6O5F7
_chemical_formula_sum   'Mn12 O10 F14'
_cell_volume   424.33670041
_cell_formula_units_Z   2
loop_
 _symmetry_equiv_pos_site_id
 _symmetry_equiv_pos_as_xyz
  1  'x, y, z'
loop_
 _atom_site_type_symbol
 _atom_site_label
 _atom_site_symmetry_multiplicity
 _atom_site_fract_x
 _atom_site_fract_y
 _atom_site_fract_z
 _atom_site_occupancy
  Mn  Mn0  1  0.04824529  0.15246457  0.41374654  1
  Mn  Mn1  1  0.98889191  0.84767828  0.24478650  1
  Mn  Mn2  1  0.00993811  0.13844357  0.07905043  1
  Mn  Mn3  1  0.00764082  0.18738845  0.74665696  1
  Mn  Mn4  1  0.01814846  0.86773549  0.58172256  1
  Mn  Mn5  1  0.04957351  0.83801932  0.92003309  1
  Mn  Mn6  1  0.48576957  0.33544282  0.58393543  1
  Mn  Mn7  1  0.47647919  0.34813387  0.92049023  1
  Mn  Mn8  1  0.49632256  0.34965638  0.25233283  1
  Mn  Mn9  1  0.47662475  0.67014381  0.08920615  1
  Mn  Mn10  1  0.47687149  0.66033803  0.42342770  1
  Mn  Mn11  1  0.51051465  0.62372422  0.74963996  1
  O  O12  1  0.22225734  0.10907598  0.30436855  1
  O  O13  1  0.21418386  0.12100155  0.63684807  1
  O  O14  1  0.22594200  0.10091314  0.97474365  1
  O  O15  1  0.20156130  0.89788493  0.13835665  1
  O  O16  1  0.21902155  0.89560641  0.47277651  1
  O  O17  1  0.28765249  0.38078341  0.47480663  1
  O  O18  1  0.29050117  0.38931777  0.81270473  1
  O  O19  1  0.28426254  0.61494652  0.97952722  1
  O  O20  1  0.69947355  0.62968617  0.19406543  1
  O  O21  1  0.70109995  0.38174035  0.69072823  1
  F  F22  1  0.26430487  0.87315568  0.80033538  1
  F  F23  1  0.24904745  0.39680207  0.14063639  1
  F  F24  1  0.25095790  0.60457685  0.30882782  1
  F  F25  1  0.25208790  0.61572750  0.63973908  1
  F  F26  1  0.73053466  0.36232527  0.02723481  1
  F  F27  1  0.75452095  0.38474090  0.36392325  1
  F  F28  1  0.73710316  0.62539538  0.53457503  1
  F  F29  1  0.77460809  0.60913361  0.86604268  1
  F  F30  1  0.75400764  0.13313292  0.18330573  1
  F  F31  1  0.77419771  0.12920242  0.51564449  1
  F  F32  1  0.76087597  0.88190276  0.35756883  1
  F  F33  1  0.75160765  0.86913526  0.02404840  1
  F  F34  1  0.78649692  0.10329266  0.86140180  1
  F  F35  1  0.76867404  0.87135067  0.69275826  1
