# generated using pymatgen
data_Mn6O5F7
_symmetry_space_group_name_H-M   'P 1'
_cell_length_a   4.71037530
_cell_length_b   5.72791138
_cell_length_c   15.65240590
_cell_angle_alpha   89.94989183
_cell_angle_beta   89.48910003
_cell_angle_gamma   88.77880043
_symmetry_Int_Tables_number   1
_chemical_formula_structural   Mn6O5F7
_chemical_formula_sum   'Mn12 O10 F14'
_cell_volume   422.19868989
_cell_formula_units_Z   2
loop_
 _symmetry_equiv_pos_site_id
 _symmetry_equiv_pos_as_xyz
  1  'x, y, z'
loop_
 _atom_site_type_symbol
 _atom_site_label
 _atom_site_symmetry_multiplicity
 _atom_site_fract_x
 _atom_site_fract_y
 _atom_site_fract_z
 _atom_site_occupancy
  Mn  Mn0  1  0.00245450  0.15631810  0.40881761  1
  Mn  Mn1  1  0.98336069  0.84325062  0.24492004  1
  Mn  Mn2  1  0.01220922  0.16789606  0.07301650  1
  Mn  Mn3  1  0.02305328  0.14521461  0.74959380  1
  Mn  Mn4  1  0.04817290  0.84770688  0.58007638  1
  Mn  Mn5  1  0.04844186  0.84181645  0.91671309  1
  Mn  Mn6  1  0.48074430  0.34198610  0.59012808  1
  Mn  Mn7  1  0.49565495  0.35227152  0.92704746  1
  Mn  Mn8  1  0.50093564  0.34185040  0.25816386  1
  Mn  Mn9  1  0.52396421  0.63549909  0.08580357  1
  Mn  Mn10  1  0.49088502  0.65560707  0.41877742  1
  Mn  Mn11  1  0.48598104  0.66863361  0.74839341  1
  O  O12  1  0.20432827  0.11056808  0.30029439  1
  O  O13  1  0.23019856  0.11318191  0.64088059  1
  O  O14  1  0.22972872  0.11853789  0.96880041  1
  O  O15  1  0.22728535  0.89260162  0.46835578  1
  O  O16  1  0.22232645  0.88663833  0.80418045  1
  O  O17  1  0.28181917  0.60843381  0.64359852  1
  O  O18  1  0.29772025  0.60559595  0.98015488  1
  O  O19  1  0.72702474  0.37743242  0.02661767  1
  O  O20  1  0.71351034  0.61010369  0.19618704  1
  O  O21  1  0.70512273  0.38754863  0.36422432  1
  F  F22  1  0.24153926  0.88457526  0.13054776  1
  F  F23  1  0.26744106  0.37370191  0.14985480  1
  F  F24  1  0.22941577  0.61708224  0.30945211  1
  F  F25  1  0.25256422  0.40417547  0.47515403  1
  F  F26  1  0.27384266  0.38857532  0.81762269  1
  F  F27  1  0.73827509  0.60704963  0.53299316  1
  F  F28  1  0.73333325  0.63020401  0.85838118  1
  F  F29  1  0.74404735  0.38603614  0.70408995  1
  F  F30  1  0.76729656  0.10486377  0.18098142  1
  F  F31  1  0.76501630  0.12239925  0.52462345  1
  F  F32  1  0.73286577  0.88554720  0.35781885  1
  F  F33  1  0.78727922  0.87381041  0.02050364  1
  F  F34  1  0.75843639  0.13143891  0.85901904  1
  F  F35  1  0.77372494  0.88184666  0.68421366  1
