# generated using pymatgen
data_LiMnP2O7
_symmetry_space_group_name_H-M   'P 1'
_cell_length_a   9.82503996
_cell_length_b   9.74508483
_cell_length_c   11.16766296
_cell_angle_alpha   89.73506227
_cell_angle_beta   102.11590107
_cell_angle_gamma   90.42574808
_symmetry_Int_Tables_number   1
_chemical_formula_structural   LiMnP2O7
_chemical_formula_sum   'Li8 Mn8 P16 O56'
_cell_volume   1045.40567993
_cell_formula_units_Z   8
loop_
 _symmetry_equiv_pos_site_id
 _symmetry_equiv_pos_as_xyz
  1  'x, y, z'
loop_
 _atom_site_type_symbol
 _atom_site_label
 _atom_site_symmetry_multiplicity
 _atom_site_fract_x
 _atom_site_fract_y
 _atom_site_fract_z
 _atom_site_occupancy
  Li  Li0  1  0.08630383  0.10923301  0.02306582  1
  Li  Li1  1  0.41229387  0.59123000  0.97599629  1
  Li  Li2  1  0.34057941  0.92230157  0.46415409  1
  Li  Li3  1  0.62961008  0.04856160  0.50893409  1
  Li  Li4  1  0.64462930  0.11409693  0.04295604  1
  Li  Li5  1  0.90590719  0.89148366  0.97464656  1
  Li  Li6  1  0.84847866  0.58031076  0.46812733  1
  Li  Li7  1  0.89583710  0.28297194  0.54913846  1
  Mn  Mn8  1  0.20310332  0.93200615  0.67366612  1
  Mn  Mn9  1  0.27264813  0.22852278  0.83850214  1
  Mn  Mn10  1  0.22723629  0.71309971  0.16962818  1
  Mn  Mn11  1  0.31102098  0.42302643  0.33783348  1
  Mn  Mn12  1  0.70245979  0.57179739  0.67588845  1
  Mn  Mn13  1  0.75834290  0.28814324  0.82805141  1
  Mn  Mn14  1  0.71631304  0.77267703  0.16406351  1
  Mn  Mn15  1  0.81364555  0.07310723  0.33172621  1
  P  P16  1  0.02270672  0.44714869  0.75337371  1
  P  P17  1  0.11937388  0.71414453  0.88288528  1
  P  P18  1  0.06388575  0.93351691  0.24321261  1
  P  P19  1  0.13546190  0.15448094  0.43049254  1
  P  P20  1  0.38116622  0.64103255  0.57166352  1
  P  P21  1  0.42823779  0.41881451  0.75434031  1
  P  P22  1  0.52314636  0.05361965  0.75507834  1
  P  P23  1  0.38069283  0.21188076  0.11952744  1
  P  P24  1  0.61363486  0.78505242  0.88229598  1
  P  P25  1  0.47143228  0.94091712  0.24465609  1
  P  P26  1  0.56646124  0.56880212  0.24411353  1
  P  P27  1  0.63216045  0.34798688  0.42464584  1
  P  P28  1  0.88269623  0.85682848  0.57732465  1
  P  P29  1  0.93363552  0.07597941  0.75993353  1
  P  P30  1  0.88372280  0.29157985  0.11495103  1
  P  P31  1  0.96848420  0.56327133  0.23972880  1
  O  O32  1  0.01465523  0.42472996  0.62019142  1
  O  O33  1  0.03673647  0.85290560  0.57082434  1
  O  O34  1  0.07945735  0.09154393  0.73297332  1
  O  O35  1  0.10300389  0.34417149  0.84453199  1
  O  O36  1  0.09765170  0.59264472  0.78325430  1
  O  O37  1  0.19083820  0.82807765  0.82039668  1
  O  O38  1  0.22725890  0.65942568  0.99721165  1
  O  O39  1  0.02402523  0.25908383  0.09371357  1
  O  O40  1  0.12924741  0.07469971  0.30129210  1
  O  O41  1  0.05936506  0.93857182  0.10768102  1
  O  O42  1  0.11448747  0.55678616  0.20261639  1
  O  O43  1  0.19795353  0.29229934  0.40966317  1
  O  O44  1  0.16680857  0.81966873  0.30178375  1
  O  O45  1  0.22269812  0.05863488  0.52760271  1
  O  O46  1  0.29729031  0.56316318  0.46169301  1
  O  O47  1  0.32914656  0.30123164  0.69442746  1
  O  O48  1  0.32702799  0.78442819  0.58525616  1
  O  O49  1  0.37351859  0.04452897  0.78651808  1
  O  O50  1  0.36521925  0.55988304  0.69436402  1
  O  O51  1  0.41145733  0.41751780  0.88689305  1
  O  O52  1  0.47572853  0.75022375  0.90987383  1
  O  O53  1  0.26908640  0.16473223  0.00412913  1
  O  O54  1  0.32034992  0.32566188  0.18683876  1
  O  O55  1  0.39144378  0.08310757  0.21303380  1
  O  O56  1  0.41835953  0.57512787  0.27218297  1
  O  O57  1  0.38188120  0.83334511  0.16271433  1
  O  O58  1  0.52359421  0.08340121  0.62470552  1
  O  O59  1  0.48593290  0.33293644  0.44332140  1
  O  O60  1  0.53925326  0.64348692  0.57092598  1
  O  O61  1  0.48934122  0.92699888  0.38106999  1
  O  O62  1  0.61328718  0.15020728  0.85282513  1
  O  O63  1  0.57775155  0.40807620  0.73338822  1
  O  O64  1  0.59618958  0.90722389  0.78274843  1
  O  O65  1  0.68991374  0.67444725  0.82516611  1
  O  O66  1  0.71663107  0.84861646  0.99823273  1
  O  O67  1  0.51859293  0.23536793  0.08789404  1
  O  O68  1  0.57002895  0.58498654  0.11063522  1
  O  O69  1  0.63141458  0.42398791  0.29512538  1
  O  O70  1  0.61478703  0.94769352  0.20182779  1
  O  O71  1  0.69945961  0.20621826  0.41191663  1
  O  O72  1  0.67034323  0.68086104  0.31053213  1
  O  O73  1  0.72993209  0.43403428  0.52327249  1
  O  O74  1  0.79458288  0.94624369  0.47408142  1
  O  O75  1  0.83156330  0.18910540  0.69474150  1
  O  O76  1  0.82339108  0.71424028  0.58753746  1
  O  O77  1  0.86740694  0.45683689  0.78264313  1
  O  O78  1  0.92392207  0.07145299  0.89313581  1
  O  O79  1  0.86848107  0.93244254  0.70248337  1
  O  O80  1  0.98278917  0.74639220  0.91193418  1
  O  O81  1  0.77471647  0.33584912  0.99938091  1
  O  O82  1  0.80985457  0.17290206  0.17537978  1
  O  O83  1  0.89541665  0.41425680  0.21113783  1
  O  O84  1  0.87792017  0.66419178  0.14978293  1
  O  O85  1  0.91672513  0.92046244  0.27487042  1
  O  O86  1  0.98492661  0.16838198  0.44485772  1
  O  O87  1  0.97635881  0.58618149  0.37217791  1
