# generated using pymatgen
data_LiNiPO4
_symmetry_space_group_name_H-M   'P 1'
_cell_length_a   11.14978825
_cell_length_b   6.08964689
_cell_length_c   4.92605016
_cell_angle_alpha   90.00000000
_cell_angle_beta   90.00000000
_cell_angle_gamma   90.00000000
_symmetry_Int_Tables_number   1
_chemical_formula_structural   LiNiPO4
_chemical_formula_sum   'Li4 Ni4 P4 O16'
_cell_volume   334.47030025
_cell_formula_units_Z   4
loop_
 _symmetry_equiv_pos_site_id
 _symmetry_equiv_pos_as_xyz
  1  'x, y, z'
loop_
 _atom_site_type_symbol
 _atom_site_label
 _atom_site_symmetry_multiplicity
 _atom_site_fract_x
 _atom_site_fract_y
 _atom_site_fract_z
 _atom_site_occupancy
  Li  Li0  1  0.06638091  0.21868745  0.99058341  1
  Li  Li1  1  0.43361909  0.71868745  0.49058341  1
  Li  Li2  1  0.56638091  0.28131255  0.99058341  1
  Li  Li3  1  0.93361909  0.78131255  0.49058341  1
  Ni  Ni4  1  0.17109598  0.46878207  0.48611025  1
  Ni  Ni5  1  0.32890402  0.96878207  0.98611025  1
  Ni  Ni6  1  0.67109598  0.03121793  0.48611025  1
  Ni  Ni7  1  0.82890402  0.53121793  0.98611025  1
  P  P8  1  0.08616645  0.73052523  0.99761569  1
  P  P9  1  0.41383355  0.23052523  0.49761569  1
  P  P10  1  0.58616645  0.76947477  0.99761569  1
  P  P11  1  0.91383355  0.26947477  0.49761569  1
  O  O12  1  0.04554750  0.24936046  0.39379926  1
  O  O13  1  0.08766854  0.71629409  0.31187339  1
  O  O14  1  0.15445245  0.94133473  0.90808857  1
  O  O15  1  0.14685938  0.51948754  0.88282043  1
  O  O16  1  0.35314062  0.01948754  0.38282043  1
  O  O17  1  0.34554755  0.44133473  0.40808857  1
  O  O18  1  0.41233146  0.21629409  0.81187339  1
  O  O19  1  0.45445250  0.74936046  0.89379926  1
  O  O20  1  0.54554750  0.25063954  0.39379926  1
  O  O21  1  0.58766854  0.78370591  0.31187339  1
  O  O22  1  0.65445245  0.55866527  0.90808857  1
  O  O23  1  0.64685938  0.98051246  0.88282043  1
  O  O24  1  0.85314062  0.48051246  0.38282043  1
  O  O25  1  0.84554755  0.05866527  0.40808857  1
  O  O26  1  0.91233146  0.28370591  0.81187339  1
  O  O27  1  0.95445250  0.75063954  0.89379926  1
