# generated using pymatgen
data_Mn12O7F17
_symmetry_space_group_name_H-M   'P 1'
_cell_length_a   4.80535349
_cell_length_b   5.80132070
_cell_length_c   15.84217254
_cell_angle_alpha   88.81013281
_cell_angle_beta   89.36009558
_cell_angle_gamma   87.03281344
_symmetry_Int_Tables_number   1
_chemical_formula_structural   Mn12O7F17
_chemical_formula_sum   'Mn12 O7 F17'
_cell_volume   440.92880872
_cell_formula_units_Z   1
loop_
 _symmetry_equiv_pos_site_id
 _symmetry_equiv_pos_as_xyz
  1  'x, y, z'
loop_
 _atom_site_type_symbol
 _atom_site_label
 _atom_site_symmetry_multiplicity
 _atom_site_fract_x
 _atom_site_fract_y
 _atom_site_fract_z
 _atom_site_occupancy
  Mn  Mn0  1  0.99134808  0.14843319  0.41756557  1
  Mn  Mn1  1  0.02212053  0.83931544  0.23745513  1
  Mn  Mn2  1  0.00994828  0.15897975  0.07377952  1
  Mn  Mn3  1  0.04894031  0.19517381  0.75716363  1
  Mn  Mn4  1  0.03094003  0.82329035  0.58347000  1
  Mn  Mn5  1  0.99302149  0.85556681  0.91726591  1
  Mn  Mn6  1  0.49174400  0.34876835  0.58649561  1
  Mn  Mn7  1  0.48460695  0.33640453  0.92426028  1
  Mn  Mn8  1  0.52526962  0.33540764  0.25967027  1
  Mn  Mn9  1  0.48765696  0.65025660  0.08280800  1
  Mn  Mn10  1  0.49849640  0.65844248  0.41745468  1
  Mn  Mn11  1  0.49873010  0.63887709  0.75065363  1
  O  O12  1  0.19944643  0.12573760  0.96769109  1
  O  O13  1  0.23152342  0.89022699  0.12690027  1
  O  O14  1  0.21880388  0.88364650  0.46821090  1
  O  O15  1  0.29318904  0.59279332  0.64360852  1
  O  O16  1  0.30444554  0.40795125  0.81215197  1
  O  O17  1  0.70235042  0.38513150  0.02793803  1
  O  O18  1  0.72088281  0.38625373  0.37071178  1
  F  F19  1  0.21985814  0.11696507  0.30675490  1
  F  F20  1  0.24148637  0.10285958  0.63965311  1
  F  F21  1  0.24293409  0.89468181  0.80632916  1
  F  F22  1  0.26847425  0.39794504  0.14986169  1
  F  F23  1  0.27282601  0.61800102  0.31187757  1
  F  F24  1  0.25115442  0.38318817  0.47867451  1
  F  F25  1  0.24696895  0.61599696  0.97801262  1
  F  F26  1  0.72147063  0.61721761  0.19465884  1
  F  F27  1  0.72335745  0.61546554  0.52498589  1
  F  F28  1  0.73042827  0.62162058  0.85840572  1
  F  F29  1  0.75321913  0.36920308  0.68527587  1
  F  F30  1  0.78828300  0.12809570  0.18414088  1
  F  F31  1  0.76057218  0.11408677  0.53185812  1
  F  F32  1  0.76055725  0.89560684  0.35194855  1
  F  F33  1  0.73654832  0.87971496  0.02548996  1
  F  F34  1  0.75808438  0.11729737  0.85416532  1
  F  F35  1  0.77031387  0.85139994  0.69265151  1
