# generated using pymatgen
data_Li2Mn3(BO3)3
_symmetry_space_group_name_H-M   'P 1'
_cell_length_a   8.24319611
_cell_length_b   8.28371989
_cell_length_c   15.85011797
_cell_angle_alpha   88.93601607
_cell_angle_beta   89.32010691
_cell_angle_gamma   60.08480274
_symmetry_Int_Tables_number   1
_chemical_formula_structural   Li2Mn3(BO3)3
_chemical_formula_sum   'Li10 Mn15 B15 O45'
_cell_volume   937.94592689
_cell_formula_units_Z   5
loop_
 _symmetry_equiv_pos_site_id
 _symmetry_equiv_pos_as_xyz
  1  'x, y, z'
loop_
 _atom_site_type_symbol
 _atom_site_label
 _atom_site_symmetry_multiplicity
 _atom_site_fract_x
 _atom_site_fract_y
 _atom_site_fract_z
 _atom_site_occupancy
  Li  Li0  1  0.01648914  0.27954881  0.50334430  1
  Li  Li1  1  0.01558915  0.28644732  0.90227468  1
  Li  Li2  1  0.02689384  0.27075238  0.09857722  1
  Li  Li3  1  0.28706654  0.69335152  0.29782457  1
  Li  Li4  1  0.26614757  0.70336048  0.70029768  1
  Li  Li5  1  0.28526367  0.70622901  0.10143009  1
  Li  Li6  1  0.69462232  0.01834126  0.50176531  1
  Li  Li7  1  0.69330090  0.01727310  0.69728243  1
  Li  Li8  1  0.70224807  0.03076336  0.89976739  1
  Li  Li9  1  0.70195485  0.01247285  0.30033973  1
  Mn  Mn10  1  0.63027381  0.38157800  0.99334606  1
  Mn  Mn11  1  0.65717186  0.36277902  0.39515741  1
  Mn  Mn12  1  0.61647879  0.39933252  0.59354330  1
  Mn  Mn13  1  0.65383840  0.36966494  0.79317992  1
  Mn  Mn14  1  0.65682869  0.35196698  0.19683753  1
  Mn  Mn15  1  0.35475484  0.98514755  0.40245987  1
  Mn  Mn16  1  0.34985734  0.99326025  0.80250143  1
  Mn  Mn17  1  0.35572205  0.98937032  0.60204664  1
  Mn  Mn18  1  0.37366137  0.99699769  0.20052119  1
  Mn  Mn19  1  0.39956140  0.98364374  0.00088145  1
  Mn  Mn20  1  0.98513852  0.61757291  0.20497551  1
  Mn  Mn21  1  0.99253228  0.63636008  0.80533782  1
  Mn  Mn22  1  0.99705528  0.65710593  0.00513027  1
  Mn  Mn23  1  0.00357390  0.63559142  0.40319765  1
  Mn  Mn24  1  0.98975195  0.62919954  0.60439767  1
  B  B25  1  0.01359822  0.01176551  0.99777657  1
  B  B26  1  0.32971004  0.33596601  0.10013817  1
  B  B27  1  0.33757956  0.33046653  0.90244717  1
  B  B28  1  0.00915851  0.97750579  0.19809545  1
  B  B29  1  0.33754691  0.33583160  0.29799308  1
  B  B30  1  0.33279815  0.33531872  0.69853398  1
  B  B31  1  0.34136174  0.32194781  0.50263996  1
  B  B32  1  0.98816559  0.00048333  0.80081239  1
  B  B33  1  0.99460026  0.99868071  0.39956825  1
  B  B34  1  0.97967084  0.00868882  0.60161241  1
  B  B35  1  0.66631288  0.66618367  0.29594791  1
  B  B36  1  0.65021112  0.67393845  0.69714323  1
  B  B37  1  0.67756070  0.65837346  0.10038933  1
  B  B38  1  0.67302657  0.67913087  0.90245035  1
  B  B39  1  0.66748889  0.66775190  0.50276081  1
  O  O40  1  0.06822258  0.10993207  0.81147910  1
  O  O41  1  0.07112492  0.11208708  0.40840589  1
  O  O42  1  0.07622347  0.10399491  0.59649898  1
  O  O43  1  0.10154618  0.07711870  0.18499033  1
  O  O44  1  0.10911144  0.11216207  0.99899377  1
  O  O45  1  0.13554671  0.44568661  0.11200191  1
  O  O46  1  0.14605691  0.44234247  0.90903398  1
  O  O47  1  0.14904771  0.43837158  0.50411396  1
  O  O48  1  0.14370061  0.45864971  0.29761746  1
  O  O49  1  0.14482780  0.45847825  0.70846183  1
  O  O50  1  0.39958473  0.14543590  0.09165688  1
  O  O51  1  0.41654911  0.13392090  0.90537508  1
  O  O52  1  0.41426437  0.13145958  0.50052095  1
  O  O53  1  0.40861424  0.14499423  0.70088231  1
  O  O54  1  0.41105889  0.14525385  0.29967681  1
  O  O55  1  0.10784334  0.80967743  0.38868680  1
  O  O56  1  0.09758326  0.80933097  0.79759409  1
  O  O57  1  0.07675616  0.81714477  0.61081836  1
  O  O58  1  0.10833089  0.82285766  0.01261612  1
  O  O59  1  0.11187531  0.78294733  0.20034751  1
  O  O60  1  0.44067827  0.41586808  0.09743616  1
  O  O61  1  0.45347128  0.41161080  0.29823740  1
  O  O62  1  0.46039522  0.39502886  0.89151196  1
  O  O63  1  0.44833614  0.41535321  0.68750114  1
  O  O64  1  0.46434864  0.39176199  0.50121164  1
  O  O65  1  0.79407249  0.08290911  0.79316687  1
  O  O66  1  0.79998544  0.07539389  0.40161856  1
  O  O67  1  0.78409172  0.10415301  0.59793435  1
  O  O68  1  0.81780401  0.07328421  0.20906014  1
  O  O69  1  0.82311271  0.10652555  0.98166141  1
  O  O70  1  0.45700780  0.78544065  0.70603571  1
  O  O71  1  0.47342677  0.78670316  0.29955287  1
  O  O72  1  0.48437589  0.78377689  0.09294897  1
  O  O73  1  0.48031890  0.79280373  0.91414080  1
  O  O74  1  0.47850252  0.77980635  0.50656006  1
  O  O75  1  0.72609777  0.48374423  0.68058860  1
  O  O76  1  0.74223970  0.47770328  0.29251408  1
  O  O77  1  0.74819376  0.46867571  0.09298537  1
  O  O78  1  0.74647707  0.49127159  0.88812042  1
  O  O79  1  0.74423802  0.47067078  0.50276992  1
  O  O80  1  0.76922505  0.74510158  0.70436675  1
  O  O81  1  0.78762192  0.74170195  0.29454000  1
  O  O82  1  0.79481564  0.73046259  0.11489923  1
  O  O83  1  0.78873306  0.75683685  0.90609164  1
  O  O84  1  0.79012805  0.73766378  0.50004765  1
