# generated using pymatgen
data_Na3Mn5O12
_symmetry_space_group_name_H-M   'P 1'
_cell_length_a   5.85713284
_cell_length_b   8.64518727
_cell_length_c   5.05813967
_cell_angle_alpha   89.99999899
_cell_angle_beta   71.79346565
_cell_angle_gamma   89.99999640
_symmetry_Int_Tables_number   1
_chemical_formula_structural   Na3Mn5O12
_chemical_formula_sum   'Na3 Mn5 O12'
_cell_volume   243.30152867
_cell_formula_units_Z   1
loop_
 _symmetry_equiv_pos_site_id
 _symmetry_equiv_pos_as_xyz
  1  'x, y, z'
loop_
 _atom_site_type_symbol
 _atom_site_label
 _atom_site_symmetry_multiplicity
 _atom_site_fract_x
 _atom_site_fract_y
 _atom_site_fract_z
 _atom_site_occupancy
  Na  Na0  1  0.50000000  0.13944800  1.00000000  1
  Na  Na1  1  0.50000000  0.52721900  0.00000000  1
  Na  Na2  1  0.50000000  0.33333300  0.50000000  1
  Mn  Mn3  1  1.00000000  0.00804082  0.00000000  1
  Mn  Mn4  1  0.00000000  0.65862618  1.00000000  1
  Mn  Mn5  1  0.00000000  0.17248590  0.50000000  1
  Mn  Mn6  1  1.00000000  0.49418110  0.50000000  1
  Mn  Mn7  1  0.00000000  0.83333300  0.50000000  1
  O  O8  1  0.17850041  0.00114979  0.26740667  1
  O  O9  1  0.20129873  0.33333300  0.29883809  1
  O  O10  1  0.80795928  0.15055437  0.25202108  1
  O  O11  1  0.17850041  0.66551721  0.26740667  1
  O  O12  1  0.82149859  0.00114979  0.73259333  1
  O  O13  1  0.80795928  0.51611263  0.25202108  1
  O  O14  1  0.19204072  0.15055437  0.74797892  1
  O  O15  1  0.82857189  0.83333300  0.23044329  1
  O  O16  1  0.19204072  0.51611263  0.74797892  1
  O  O17  1  0.79870127  0.33333300  0.70116191  1
  O  O18  1  0.17142811  0.83333300  0.76955671  1
  O  O19  1  0.82149859  0.66551721  0.73259333  1
