# generated using pymatgen
data_LiNi(PO3)4
_symmetry_space_group_name_H-M   'P 1'
_cell_length_a   7.37595983
_cell_length_b   8.99430325
_cell_length_c   8.91297499
_cell_angle_alpha   115.49008729
_cell_angle_beta   65.55770378
_cell_angle_gamma   114.20704245
_symmetry_Int_Tables_number   1
_chemical_formula_structural   LiNi(PO3)4
_chemical_formula_sum   'Li2 Ni2 P8 O24'
_cell_volume   466.14839372
_cell_formula_units_Z   2
loop_
 _symmetry_equiv_pos_site_id
 _symmetry_equiv_pos_as_xyz
  1  'x, y, z'
loop_
 _atom_site_type_symbol
 _atom_site_label
 _atom_site_symmetry_multiplicity
 _atom_site_fract_x
 _atom_site_fract_y
 _atom_site_fract_z
 _atom_site_occupancy
  Li  Li0  1  0.29804788  0.75000000  0.25000000  1
  Li  Li1  1  0.70195212  0.25000000  0.75000000  1
  Ni  Ni2  1  0.87748445  0.75000000  0.25000000  1
  Ni  Ni3  1  0.12251555  0.25000000  0.75000000  1
  P  P4  1  0.69623410  0.32391253  0.10145726  1
  P  P5  1  0.57424957  0.13571019  0.35553420  1
  P  P6  1  0.29407458  0.36428981  0.14446580  1
  P  P7  1  0.97377983  0.17608747  0.39854274  1
  P  P8  1  0.02622017  0.82391253  0.60145726  1
  P  P9  1  0.70592542  0.63571019  0.85553420  1
  P  P10  1  0.42575043  0.86428981  0.64446580  1
  P  P11  1  0.30376590  0.67608747  0.89854274  1
  O  O12  1  0.66123249  0.17878205  0.17671347  1
  O  O13  1  0.97759969  0.00092734  0.27226015  1
  O  O14  1  0.46973244  0.27029838  0.07607954  1
  O  O15  1  0.17172615  0.28677740  0.01528864  1
  O  O16  1  0.40023638  0.21322260  0.48471136  1
  O  O17  1  0.77551360  0.22970162  0.42392046  1
  O  O18  1  0.74893250  0.49907266  0.22773985  1
  O  O19  1  0.15916392  0.32121795  0.32328753  1
  O  O20  1  0.38490471  0.55549168  0.19278159  1
  O  O21  1  0.47780638  0.05549168  0.69278159  1
  O  O22  1  0.16466476  0.71766188  0.08162534  1
  O  O23  1  0.97137278  0.21766188  0.58162534  1
  O  O24  1  0.02862722  0.78233812  0.41837466  1
  O  O25  1  0.83533524  0.28233812  0.91837466  1
  O  O26  1  0.52219362  0.94450832  0.30721841  1
  O  O27  1  0.61509529  0.44450832  0.80721841  1
  O  O28  1  0.84083608  0.67878205  0.67671247  1
  O  O29  1  0.25106750  0.50092734  0.77226015  1
  O  O30  1  0.22448640  0.77029838  0.57607954  1
  O  O31  1  0.59976362  0.78677740  0.51528864  1
  O  O32  1  0.82827385  0.71322260  0.98471136  1
  O  O33  1  0.53026756  0.72970162  0.92392046  1
  O  O34  1  0.02240031  0.99907266  0.72773985  1
  O  O35  1  0.33876751  0.82121795  0.82328753  1
