# generated using pymatgen
data_Li2Fe5F17
_symmetry_space_group_name_H-M   'P 1'
_cell_length_a   7.51683593
_cell_length_b   13.05194680
_cell_length_c   14.96175338
_cell_angle_alpha   90.00000000
_cell_angle_beta   90.00000000
_cell_angle_gamma   106.73577127
_symmetry_Int_Tables_number   1
_chemical_formula_structural   Li2Fe5F17
_chemical_formula_sum   'Li8 Fe20 F68'
_cell_volume   1405.71232109
_cell_formula_units_Z   4
loop_
 _symmetry_equiv_pos_site_id
 _symmetry_equiv_pos_as_xyz
  1  'x, y, z'
loop_
 _atom_site_type_symbol
 _atom_site_label
 _atom_site_symmetry_multiplicity
 _atom_site_fract_x
 _atom_site_fract_y
 _atom_site_fract_z
 _atom_site_occupancy
  Li  Li0  1  0.00000000  0.00000000  0.00000000  1
  Li  Li1  1  0.00000000  0.00000000  0.50000000  1
  Li  Li2  1  0.30592746  0.61185491  0.25000000  1
  Li  Li3  1  0.25039990  0.50079980  0.44416006  1
  Li  Li4  1  0.25039990  0.50079980  0.05583994  1
  Li  Li5  1  0.69407254  0.38814509  0.75000000  1
  Li  Li6  1  0.74960010  0.49920020  0.55583994  1
  Li  Li7  1  0.74960010  0.49920020  0.94416006  1
  Fe  Fe8  1  0.11722771  0.73700849  0.87569954  1
  Fe  Fe9  1  0.11722771  0.73700849  0.62430046  1
  Fe  Fe10  1  0.24997484  0.99506517  0.75000000  1
  Fe  Fe11  1  0.12563718  0.74933119  0.11972727  1
  Fe  Fe12  1  0.12563718  0.74933119  0.38027273  1
  Fe  Fe13  1  0.62369401  0.74933119  0.38027273  1
  Fe  Fe14  1  0.62369401  0.74933119  0.11972727  1
  Fe  Fe15  1  0.38022023  0.26299151  0.37569954  1
  Fe  Fe16  1  0.38022023  0.26299151  0.12430046  1
  Fe  Fe17  1  0.74509033  0.99506517  0.75000000  1
  Fe  Fe18  1  0.25490967  0.00493483  0.25000000  1
  Fe  Fe19  1  0.61977977  0.73700849  0.62430046  1
  Fe  Fe20  1  0.61977977  0.73700849  0.87569954  1
  Fe  Fe21  1  0.37630599  0.25066881  0.61972727  1
  Fe  Fe22  1  0.37630599  0.25066881  0.88027273  1
  Fe  Fe23  1  0.87436282  0.25066881  0.61972727  1
  Fe  Fe24  1  0.87436282  0.25066881  0.88027273  1
  Fe  Fe25  1  0.75002516  0.00493483  0.25000000  1
  Fe  Fe26  1  0.88277229  0.26299151  0.37569954  1
  Fe  Fe27  1  0.88277229  0.26299151  0.12430046  1
  F  F28  1  0.98577843  0.59978438  0.91058123  1
  F  F29  1  0.98577843  0.59978438  0.58941877  1
  F  F30  1  0.14274618  0.89924499  0.15603094  1
  F  F31  1  0.14274618  0.89924499  0.34396906  1
  F  F32  1  0.09851244  0.79997495  0.50183024  1
  F  F33  1  0.09851244  0.79997495  0.99816976  1
  F  F34  1  0.24586983  0.89109563  0.84364595  1
  F  F35  1  0.24586983  0.89109563  0.65635405  1
  F  F36  1  0.12779610  0.60991035  0.09504713  1
  F  F37  1  0.12779610  0.60991035  0.40495287  1
  F  F38  1  0.14436508  0.69878873  0.75000000  1
  F  F39  1  0.16077460  0.71079409  0.25000000  1
  F  F40  1  0.39915073  0.79830246  0.39057733  1
  F  F41  1  0.11396322  0.22792745  0.15196170  1
  F  F42  1  0.35830585  0.71661270  0.59123464  1
  F  F43  1  0.02158566  0.04317132  0.25000000  1
  F  F44  1  0.14516175  0.29032450  0.63951517  1
  F  F45  1  0.11396322  0.22792745  0.34803830  1
  F  F46  1  0.47839321  0.95678643  0.25000000  1
  F  F47  1  0.14516175  0.29032450  0.86048483  1
  F  F48  1  0.39915073  0.79830246  0.10942267  1
  F  F49  1  0.35830585  0.71661270  0.90876536  1
  F  F50  1  0.38599405  0.40021562  0.08941877  1
  F  F51  1  0.38599405  0.40021562  0.41058123  1
  F  F52  1  0.55001949  0.71079409  0.25000000  1
  F  F53  1  0.24350219  0.10075501  0.65603094  1
  F  F54  1  0.24350219  0.10075501  0.84396906  1
  F  F55  1  0.55442365  0.69878873  0.75000000  1
  F  F56  1  0.48211425  0.60991035  0.09504713  1
  F  F57  1  0.48211425  0.60991035  0.40495287  1
  F  F58  1  0.29853749  0.20002505  0.00183024  1
  F  F59  1  0.29853749  0.20002505  0.49816976  1
  F  F60  1  0.64522581  0.89109563  0.84364595  1
  F  F61  1  0.64522581  0.89109563  0.65635405  1
  F  F62  1  0.35477419  0.10890437  0.15635405  1
  F  F63  1  0.35477419  0.10890437  0.34364595  1
  F  F64  1  0.70146251  0.79997495  0.50183024  1
  F  F65  1  0.70146251  0.79997495  0.99816976  1
  F  F66  1  0.51788575  0.39008965  0.59504713  1
  F  F67  1  0.51788575  0.39008965  0.90495287  1
  F  F68  1  0.44557635  0.30121127  0.25000000  1
  F  F69  1  0.75649781  0.89924499  0.15603094  1
  F  F70  1  0.75649781  0.89924499  0.34396906  1
  F  F71  1  0.44998051  0.28920591  0.75000000  1
  F  F72  1  0.61400595  0.59978438  0.58941877  1
  F  F73  1  0.61400595  0.59978438  0.91058123  1
  F  F74  1  0.88603678  0.77207255  0.65196170  1
  F  F75  1  0.52160679  0.04321357  0.75000000  1
  F  F76  1  0.97841434  0.95682868  0.75000000  1
  F  F77  1  0.60084927  0.20169754  0.60942267  1
  F  F78  1  0.60084927  0.20169754  0.89057733  1
  F  F79  1  0.64169415  0.28338730  0.40876536  1
  F  F80  1  0.64169415  0.28338730  0.09123464  1
  F  F81  1  0.88603678  0.77207255  0.84803830  1
  F  F82  1  0.85483825  0.70967550  0.36048483  1
  F  F83  1  0.85483825  0.70967550  0.13951517  1
  F  F84  1  0.83922540  0.28920591  0.75000000  1
  F  F85  1  0.85563492  0.30121127  0.25000000  1
  F  F86  1  0.87220390  0.39008965  0.59504713  1
  F  F87  1  0.87220390  0.39008965  0.90495287  1
  F  F88  1  0.75413017  0.10890437  0.34364595  1
  F  F89  1  0.75413017  0.10890437  0.15635405  1
  F  F90  1  0.90148756  0.20002505  0.49816976  1
  F  F91  1  0.90148756  0.20002505  0.00183024  1
  F  F92  1  0.85725382  0.10075501  0.65603094  1
  F  F93  1  0.85725382  0.10075501  0.84396906  1
  F  F94  1  0.01422157  0.40021562  0.41058123  1
  F  F95  1  0.01422157  0.40021562  0.08941877  1
