# generated using pymatgen
data_YH18C3S3(O2F)9
_symmetry_space_group_name_H-M   'P 1'
_cell_length_a   13.78254118
_cell_length_b   13.78254076
_cell_length_c   7.54792850
_cell_angle_alpha   90.00000000
_cell_angle_beta   90.00000000
_cell_angle_gamma   120.00000098
_symmetry_Int_Tables_number   1
_chemical_formula_structural   YH18C3S3(O2F)9
_chemical_formula_sum   'Y2 H36 C6 S6 O36 F18'
_cell_volume   1241.70088097
_cell_formula_units_Z   2
loop_
 _symmetry_equiv_pos_site_id
 _symmetry_equiv_pos_as_xyz
  1  'x, y, z'
loop_
 _atom_site_type_symbol
 _atom_site_label
 _atom_site_symmetry_multiplicity
 _atom_site_fract_x
 _atom_site_fract_y
 _atom_site_fract_z
 _atom_site_occupancy
  Y  Y0  1  0.33333300  0.66666700  0.25000000  1
  Y  Y1  1  0.66666700  0.33333300  0.75000000  1
  O  O2  1  0.35129149  0.48932413  0.25000000  1
  O  O3  1  0.86196735  0.35129149  0.75000000  1
  O  O4  1  0.48932413  0.13803265  0.75000000  1
  O  O5  1  0.51067587  0.86196735  0.25000000  1
  O  O6  1  0.13803265  0.64870851  0.25000000  1
  O  O7  1  0.64870851  0.51067587  0.75000000  1
  H  H8  1  0.35684894  0.45078054  0.14456602  1
  H  H9  1  0.90606840  0.35684894  0.64456602  1
  H  H10  1  0.45078054  0.09393160  0.64456602  1
  H  H11  1  0.54921946  0.90606840  0.14456602  1
  H  H12  1  0.09393160  0.64315106  0.14456602  1
  H  H13  1  0.64315106  0.54921946  0.64456602  1
  H  H14  1  0.64315106  0.54921946  0.85543398  1
  H  H15  1  0.09393160  0.64315106  0.35543398  1
  H  H16  1  0.54921946  0.90606840  0.35543398  1
  H  H17  1  0.45078054  0.09393160  0.85543398  1
  H  H18  1  0.90606840  0.35684894  0.85543398  1
  H  H19  1  0.35684894  0.45078054  0.35543398  1
  O  O20  1  0.20973685  0.54420445  0.47113204  1
  O  O21  1  0.66553240  0.20973685  0.97113204  1
  O  O22  1  0.54420445  0.33446760  0.97113204  1
  O  O23  1  0.45579555  0.66553240  0.47113204  1
  O  O24  1  0.33446760  0.79026315  0.47113204  1
  O  O25  1  0.79026315  0.45579555  0.97113204  1
  O  O26  1  0.79026315  0.45579555  0.52886796  1
  O  O27  1  0.33446760  0.79026315  0.02886796  1
  O  O28  1  0.45579555  0.66553240  0.02886796  1
  O  O29  1  0.54420445  0.33446760  0.52886796  1
  O  O30  1  0.66553240  0.20973685  0.52886796  1
  O  O31  1  0.20973685  0.54420445  0.02886796  1
  H  H32  1  0.23320087  0.51085606  0.56586283  1
  H  H33  1  0.72234482  0.23320087  0.06586283  1
  H  H34  1  0.51085606  0.27765518  0.06586283  1
  H  H35  1  0.48914394  0.72234482  0.56586283  1
  H  H36  1  0.27765518  0.76679913  0.56586283  1
  H  H37  1  0.76679913  0.48914394  0.06586283  1
  H  H38  1  0.76679913  0.48914394  0.43413717  1
  H  H39  1  0.27765518  0.76679913  0.93413717  1
  H  H40  1  0.48914394  0.72234482  0.93413717  1
  H  H41  1  0.51085606  0.27765518  0.43413717  1
  H  H42  1  0.72234482  0.23320087  0.43413717  1
  H  H43  1  0.23320087  0.51085606  0.93413717  1
  H  H44  1  0.13040019  0.49054410  0.44580120  1
  H  H45  1  0.63985610  0.13040019  0.94580120  1
  H  H46  1  0.49054410  0.36014390  0.94580120  1
  H  H47  1  0.50945590  0.63985610  0.44580120  1
  H  H48  1  0.36014390  0.86959981  0.44580120  1
  H  H49  1  0.86959981  0.50945590  0.94580120  1
  H  H50  1  0.86959981  0.50945590  0.55419880  1
  H  H51  1  0.36014390  0.86959981  0.05419880  1
  H  H52  1  0.50945590  0.63985610  0.05419880  1
  H  H53  1  0.49054410  0.36014390  0.55419880  1
  H  H54  1  0.63985610  0.13040019  0.55419880  1
  H  H55  1  0.13040019  0.49054410  0.05419880  1
  S  S56  1  0.31710142  0.38428976  0.75000000  1
  S  S57  1  0.93281166  0.31710142  0.25000000  1
  S  S58  1  0.38428976  0.06718834  0.25000000  1
  S  S59  1  0.61571024  0.93281166  0.75000000  1
  S  S60  1  0.06718834  0.68289858  0.75000000  1
  S  S61  1  0.68289858  0.61571024  0.25000000  1
  O  O62  1  0.25761089  0.44785309  0.75000000  1
  O  O63  1  0.80975780  0.25761089  0.25000000  1
  O  O64  1  0.44785309  0.19024220  0.25000000  1
  O  O65  1  0.55214691  0.80975780  0.75000000  1
  O  O66  1  0.19024220  0.74238911  0.75000000  1
  O  O67  1  0.74238911  0.55214691  0.25000000  1
  O  O68  1  0.37876159  0.39574865  0.58611403  1
  O  O69  1  0.98301294  0.37876159  0.08611403  1
  O  O70  1  0.39574865  0.01698706  0.08611403  1
  O  O71  1  0.60425135  0.98301294  0.58611403  1
  O  O72  1  0.01698706  0.62123841  0.58611403  1
  O  O73  1  0.62123841  0.60425135  0.08611403  1
  O  O74  1  0.62123841  0.60425135  0.41388597  1
  O  O75  1  0.01698706  0.62123841  0.91388597  1
  O  O76  1  0.60425135  0.98301294  0.91388597  1
  O  O77  1  0.39574865  0.01698706  0.41388597  1
  O  O78  1  0.98301294  0.37876159  0.41388597  1
  O  O79  1  0.37876159  0.39574865  0.91388597  1
  C  C80  1  0.20151707  0.23497721  0.75000000  1
  C  C81  1  0.96653986  0.20151707  0.25000000  1
  C  C82  1  0.23497721  0.03346014  0.25000000  1
  C  C83  1  0.76502279  0.96653986  0.75000000  1
  C  C84  1  0.03346014  0.79848293  0.75000000  1
  C  C85  1  0.79848293  0.76502279  0.25000000  1
  F  F86  1  0.24503427  0.16617168  0.75000000  1
  F  F87  1  0.07886259  0.24503427  0.25000000  1
  F  F88  1  0.16617168  0.92113741  0.25000000  1
  F  F89  1  0.83382832  0.07886259  0.75000000  1
  F  F90  1  0.92113741  0.75496573  0.75000000  1
  F  F91  1  0.75496573  0.83382832  0.25000000  1
  F  F92  1  0.13688495  0.21398411  0.60450508  1
  F  F93  1  0.92290084  0.13688495  0.10450508  1
  F  F94  1  0.21398411  0.07709916  0.10450508  1
  F  F95  1  0.78601589  0.92290084  0.60450508  1
  F  F96  1  0.07709916  0.86311505  0.60450508  1
  F  F97  1  0.86311505  0.78601589  0.10450508  1
  F  F98  1  0.86311505  0.78601589  0.39549492  1
  F  F99  1  0.07709916  0.86311505  0.89549492  1
  F  F100  1  0.78601589  0.92290084  0.89549492  1
  F  F101  1  0.21398411  0.07709916  0.39549492  1
  F  F102  1  0.92290084  0.13688495  0.39549492  1
  F  F103  1  0.13688495  0.21398411  0.89549492  1
