# generated using pymatgen
data_Li4Mn3OF8
_symmetry_space_group_name_H-M   'P 1'
_cell_length_a   2.99440926
_cell_length_b   5.17256305
_cell_length_c   11.66797564
_cell_angle_alpha   78.37232473
_cell_angle_beta   90.00000000
_cell_angle_gamma   73.17490220
_symmetry_Int_Tables_number   1
_chemical_formula_structural   Li4Mn3OF8
_chemical_formula_sum   'Li4 Mn3 O1 F8'
_cell_volume   169.10800110
_cell_formula_units_Z   1
loop_
 _symmetry_equiv_pos_site_id
 _symmetry_equiv_pos_as_xyz
  1  'x, y, z'
loop_
 _atom_site_type_symbol
 _atom_site_label
 _atom_site_symmetry_multiplicity
 _atom_site_fract_x
 _atom_site_fract_y
 _atom_site_fract_z
 _atom_site_occupancy
  Li  Li0  1  0.14047456  0.71905189  0.54882470  1
  Li  Li1  1  0.76857888  0.46284224  0.12614338  1
  Li  Li2  1  0.86168539  0.27662821  0.44432877  1
  Li  Li3  1  0.00006349  -0.00012698  0.00292504  1
  Mn  Mn4  1  0.55715497  0.88568906  0.28771771  1
  Mn  Mn5  1  0.24791821  0.50416358  0.88052153  1
  Mn  Mn6  1  0.42940107  0.14119885  0.71797418  1
  O  O7  1  0.87541323  0.24917454  0.83595996  1
  F  F8  1  0.63145566  0.73708768  0.96031133  1
  F  F9  1  0.09344529  0.81310942  0.71051064  1
  F  F10  1  0.12418292  0.75163515  0.16574661  1
  F  F11  1  0.19204734  0.61590532  0.39265007  1
  F  F12  1  0.80374466  0.39250967  0.59442410  1
  F  F13  1  0.89924923  0.20150154  0.28046699  1
  F  F14  1  0.37428711  0.25142678  0.06362147  1
  F  F15  1  0.50089898  0.99820304  0.48787451  1
