# generated using pymatgen
data_LiMn2(BO3)2
_symmetry_space_group_name_H-M   'P 1'
_cell_length_a   5.79102018
_cell_length_b   5.28010095
_cell_length_c   20.48656674
_cell_angle_alpha   82.77740873
_cell_angle_beta   86.74111567
_cell_angle_gamma   89.51671199
_symmetry_Int_Tables_number   1
_chemical_formula_structural   LiMn2(BO3)2
_chemical_formula_sum   'Li5 Mn10 B10 O30'
_cell_volume   620.44524124
_cell_formula_units_Z   5
loop_
 _symmetry_equiv_pos_site_id
 _symmetry_equiv_pos_as_xyz
  1  'x, y, z'
loop_
 _atom_site_type_symbol
 _atom_site_label
 _atom_site_symmetry_multiplicity
 _atom_site_fract_x
 _atom_site_fract_y
 _atom_site_fract_z
 _atom_site_occupancy
  Li  Li0  1  0.10978378  0.60817155  0.10530001  1
  Li  Li1  1  0.08596635  0.19131266  0.29103026  1
  Li  Li2  1  0.28346296  0.98621704  0.68920028  1
  Li  Li3  1  0.68310344  0.58618448  0.48944860  1
  Li  Li4  1  0.88374852  0.38697126  0.89143023  1
  Mn  Mn5  1  0.11267137  0.90314981  0.56654054  1
  Mn  Mn6  1  0.09114259  0.89257939  0.83001437  1
  Mn  Mn7  1  0.29234730  0.69946449  0.22842088  1
  Mn  Mn8  1  0.32463550  0.71095991  0.96683804  1
  Mn  Mn9  1  0.51487746  0.50434941  0.36598468  1
  Mn  Mn10  1  0.48461788  0.49063969  0.63051551  1
  Mn  Mn11  1  0.67368561  0.28246846  0.03349751  1
  Mn  Mn12  1  0.71454689  0.30245946  0.76687069  1
  Mn  Mn13  1  0.89456905  0.08991031  0.17084171  1
  Mn  Mn14  1  0.88449609  0.09048940  0.43031233  1
  B  B15  1  0.02077595  0.64594428  0.36335303  1
  B  B16  1  0.17332782  0.15316211  0.03959994  1
  B  B17  1  0.22052214  0.44625459  0.76347909  1
  B  B18  1  0.40827557  0.24292981  0.16552536  1
  B  B19  1  0.38460548  0.95722798  0.43652616  1
  B  B20  1  0.61869757  0.04622659  0.56340252  1
  B  B21  1  0.58944443  0.75712492  0.83687719  1
  B  B22  1  0.78657630  0.55319016  0.23466800  1
  B  B23  1  0.82217025  0.84246692  0.96159618  1
  B  B24  1  0.98440253  0.35725600  0.63673003  1
  O  O25  1  0.98977561  0.28406939  0.07153936  1
  O  O26  1  0.01312434  0.90827534  0.35669289  1
  O  O27  1  0.17794680  0.89767333  0.04398571  1
  O  O28  1  0.17822103  0.52569902  0.32202451  1
  O  O29  1  0.06932007  0.29727708  0.80647773  1
  O  O30  1  0.25619555  0.09138318  0.20854432  1
  O  O31  1  0.15884860  0.52203461  0.60623071  1
  O  O32  1  0.19048456  0.07324912  0.46560916  1
  O  O33  1  0.21691151  0.70811675  0.75660419  1
  O  O34  1  0.38434704  0.50428840  0.15652559  1
  O  O35  1  0.40957661  0.70224489  0.44279267  1
  O  O36  1  0.37665581  0.32139719  0.72251746  1
  O  O37  1  0.57580283  0.13261776  0.12741733  1
  O  O38  1  0.46759597  0.89584737  0.60613028  1
  O  O39  1  0.34903322  0.31305306  0.00864613  1
  O  O40  1  0.66517403  0.67921161  0.99748446  1
  O  O41  1  0.55877283  0.12220126  0.40585239  1
  O  O42  1  0.39682641  0.87651374  0.86550046  1
  O  O43  1  0.60105576  0.68005641  0.26394588  1
  O  O44  1  0.61307511  0.30812793  0.55681810  1
  O  O45  1  0.61231646  0.50194986  0.84348458  1
  O  O46  1  0.80621400  0.29875862  0.24560380  1
  O  O47  1  0.77565683  0.92296867  0.52236541  1
  O  O48  1  0.86868055  0.49576365  0.40601354  1
  O  O49  1  0.76429167  0.92140955  0.80665714  1
  O  O50  1  0.96122364  0.70347770  0.19664702  1
  O  O51  1  0.79047324  0.47374591  0.66577509  1
  O  O52  1  0.81206419  0.10441456  0.95925903  1
  O  O53  1  0.00893152  0.10230957  0.64305346  1
  O  O54  1  0.99282035  0.72844276  0.92263647  1
