# generated using pymatgen
data_Li8CoO5F
_symmetry_space_group_name_H-M   'P 1'
_cell_length_a   5.31814459
_cell_length_b   5.97191286
_cell_length_c   5.41207641
_cell_angle_alpha   112.78329957
_cell_angle_beta   66.22610288
_cell_angle_gamma   118.51076767
_symmetry_Int_Tables_number   1
_chemical_formula_structural   Li8CoO5F
_chemical_formula_sum   'Li8 Co1 O5 F1'
_cell_volume   134.10535854
_cell_formula_units_Z   1
loop_
 _symmetry_equiv_pos_site_id
 _symmetry_equiv_pos_as_xyz
  1  'x, y, z'
loop_
 _atom_site_type_symbol
 _atom_site_label
 _atom_site_symmetry_multiplicity
 _atom_site_fract_x
 _atom_site_fract_y
 _atom_site_fract_z
 _atom_site_occupancy
  Li  Li0  1  0.10934824  0.35819634  0.46989648  1
  Li  Li1  1  0.53163074  0.66279760  0.23257484  1
  Li  Li2  1  0.23954626  0.64518076  0.88921395  1
  Li  Li3  1  0.29061441  0.02209645  0.37345765  1
  Li  Li4  1  0.66483825  0.97135881  0.67582502  1
  Li  Li5  1  0.76955743  0.34081853  0.09161787  1
  Li  Li6  1  0.46599803  0.36259828  0.79544532  1
  Li  Li7  1  0.89751976  0.65694654  0.51930217  1
  Co  Co8  1  0.02857689  0.96958971  0.96221546  1
  O  O9  1  0.26699885  0.76371512  0.58585238  1
  O  O10  1  0.35652018  0.23410934  0.10805169  1
  O  O11  1  0.06596133  0.22545431  0.76786917  1
  O  O12  1  0.94121473  0.75474365  0.20340630  1
  O  O13  1  0.64644172  0.75528758  0.88799430  1
  F  F14  1  0.72523317  0.27710697  0.43727839  1
