# generated using pymatgen
data_Li2V3CuO8
_symmetry_space_group_name_H-M   'P 1'
_cell_length_a   5.97858033
_cell_length_b   5.97858067
_cell_length_c   5.97858111
_cell_angle_alpha   59.27738046
_cell_angle_beta   59.27737879
_cell_angle_gamma   59.27737199
_symmetry_Int_Tables_number   1
_chemical_formula_structural   Li2V3CuO8
_chemical_formula_sum   'Li2 V3 Cu1 O8'
_cell_volume   148.61850997
_cell_formula_units_Z   1
loop_
 _symmetry_equiv_pos_site_id
 _symmetry_equiv_pos_as_xyz
  1  'x, y, z'
loop_
 _atom_site_type_symbol
 _atom_site_label
 _atom_site_symmetry_multiplicity
 _atom_site_fract_x
 _atom_site_fract_y
 _atom_site_fract_z
 _atom_site_occupancy
  Li  Li0  1  0.12418938  0.12418938  0.12418938  1
  Li  Li1  1  0.87581062  0.87581062  0.87581062  1
  V  V2  1  0.00000000  0.50000000  0.50000000  1
  V  V3  1  0.50000000  0.00000000  0.50000000  1
  V  V4  1  0.50000000  0.50000000  0.00000000  1
  Cu  Cu5  1  0.50000000  0.50000000  0.50000000  1
  O  O6  1  0.26058882  0.26058882  0.26058882  1
  O  O7  1  0.25115526  0.25115526  0.71256230  1
  O  O8  1  0.25115526  0.71256230  0.25115526  1
  O  O9  1  0.71256230  0.25115526  0.25115526  1
  O  O10  1  0.28743770  0.74884474  0.74884474  1
  O  O11  1  0.74884474  0.28743770  0.74884474  1
  O  O12  1  0.74884474  0.74884474  0.28743770  1
  O  O13  1  0.73941118  0.73941118  0.73941118  1
