# generated using pymatgen
data_H4N2O3
_symmetry_space_group_name_H-M   'P 1'
_cell_length_a   8.05825241
_cell_length_b   8.05082665
_cell_length_c   10.02807179
_cell_angle_alpha   90.00000000
_cell_angle_beta   90.00000000
_cell_angle_gamma   90.00000000
_symmetry_Int_Tables_number   1
_chemical_formula_structural   H4N2O3
_chemical_formula_sum   'H32 N16 O24'
_cell_volume   650.57710658
_cell_formula_units_Z   8
loop_
 _symmetry_equiv_pos_site_id
 _symmetry_equiv_pos_as_xyz
  1  'x, y, z'
loop_
 _atom_site_type_symbol
 _atom_site_label
 _atom_site_symmetry_multiplicity
 _atom_site_fract_x
 _atom_site_fract_y
 _atom_site_fract_z
 _atom_site_occupancy
  H  H0  1  0.54297973  0.56035040  0.67987594  1
  H  H1  1  0.05675655  0.55474663  0.67916793  1
  H  H2  1  0.44324345  0.94525337  0.67916793  1
  H  H3  1  0.94324345  0.05474663  0.82083207  1
  H  H4  1  0.44324345  0.55474663  0.17916793  1
  H  H5  1  0.94324345  0.44525337  0.32083207  1
  H  H6  1  0.55675655  0.05474663  0.32083207  1
  H  H7  1  0.05675655  0.94525337  0.17916793  1
  H  H8  1  0.89600053  0.08008710  0.20134916  1
  H  H9  1  0.39600053  0.91991290  0.29865084  1
  H  H10  1  0.10399947  0.58008710  0.29865084  1
  H  H11  1  0.55675655  0.44525337  0.82083207  1
  H  H12  1  0.60399947  0.41991290  0.20134916  1
  H  H13  1  0.10399947  0.91991290  0.79865084  1
  H  H14  1  0.60399947  0.08008710  0.70134916  1
  H  H15  1  0.89600053  0.41991290  0.70134916  1
  H  H16  1  0.04297973  0.43964960  0.82012406  1
  H  H17  1  0.45702027  0.06035040  0.82012406  1
  H  H18  1  0.95702027  0.93964960  0.67987594  1
  H  H19  1  0.45702027  0.43964960  0.32012406  1
  H  H20  1  0.95702027  0.56035040  0.17987594  1
  H  H21  1  0.54297973  0.93964960  0.17987594  1
  H  H22  1  0.04297973  0.06035040  0.32012406  1
  H  H23  1  0.39600053  0.58008710  0.79865084  1
  H  H24  1  0.90615451  0.59680187  0.79287877  1
  H  H25  1  0.59384549  0.90319813  0.79287877  1
  H  H26  1  0.09384549  0.09680187  0.70712123  1
  H  H27  1  0.59384549  0.59680187  0.29287877  1
  H  H28  1  0.09384549  0.40319813  0.20712123  1
  H  H29  1  0.40615451  0.09680187  0.20712123  1
  H  H30  1  0.90615451  0.90319813  0.29287877  1
  H  H31  1  0.40615451  0.40319813  0.70712123  1
  N  N32  1  0.47620240  0.49687675  0.75180262  1
  N  N33  1  0.97620240  0.50312325  0.74819738  1
  N  N34  1  0.52379760  0.99687675  0.74819738  1
  N  N35  1  0.02379760  0.00312325  0.75180262  1
  N  N36  1  0.52379760  0.50312325  0.24819738  1
  N  N37  1  0.02379760  0.49687675  0.25180262  1
  N  N38  1  0.47620240  0.00312325  0.25180262  1
  N  N39  1  0.97620240  0.99687675  0.24819738  1
  N  N40  1  0.75000000  0.25000000  0.51188303  1
  N  N41  1  0.25000000  0.75000000  0.98811697  1
  N  N42  1  0.25000000  0.75000000  0.48811697  1
  N  N43  1  0.75000000  0.25000000  0.01188303  1
  N  N44  1  0.25000000  0.25000000  0.51430574  1
  N  N45  1  0.75000000  0.75000000  0.98569426  1
  N  N46  1  0.75000000  0.75000000  0.48569426  1
  N  N47  1  0.25000000  0.25000000  0.01430574  1
  O  O48  1  0.28355088  0.61737226  0.04883907  1
  O  O49  1  0.78355088  0.38262774  0.45116093  1
  O  O50  1  0.71644912  0.11737226  0.45116093  1
  O  O51  1  0.71644912  0.38262774  0.95116093  1
  O  O52  1  0.21644912  0.61737226  0.54883907  1
  O  O53  1  0.28355088  0.88262774  0.54883907  1
  O  O54  1  0.78355088  0.11737226  0.95116093  1
  O  O55  1  0.75000000  0.25000000  0.64022514  1
  O  O56  1  0.25000000  0.75000000  0.85977486  1
  O  O57  1  0.25000000  0.75000000  0.35977486  1
  O  O58  1  0.75000000  0.25000000  0.14022514  1
  O  O59  1  0.61836355  0.78706320  0.04628540  1
  O  O60  1  0.11836355  0.21293680  0.45371460  1
  O  O61  1  0.38163645  0.28706320  0.45371460  1
  O  O62  1  0.88163645  0.71293680  0.04628540  1
  O  O63  1  0.38163645  0.21293680  0.95371460  1
  O  O64  1  0.88163645  0.78706320  0.54628540  1
  O  O65  1  0.61836355  0.71293680  0.54628540  1
  O  O66  1  0.11836355  0.28706320  0.95371460  1
  O  O67  1  0.25000000  0.25000000  0.64275974  1
  O  O68  1  0.75000000  0.75000000  0.85724026  1
  O  O69  1  0.75000000  0.75000000  0.35724026  1
  O  O70  1  0.25000000  0.25000000  0.14275974  1
  O  O71  1  0.21644912  0.88262774  0.04883907  1
