# generated using pymatgen
data_LiFeSiO4
_symmetry_space_group_name_H-M   'P 1'
_cell_length_a   11.30198893
_cell_length_b   6.07637701
_cell_length_c   5.01936484
_cell_angle_alpha   90.00000000
_cell_angle_beta   90.00000000
_cell_angle_gamma   90.00000000
_symmetry_Int_Tables_number   1
_chemical_formula_structural   LiFeSiO4
_chemical_formula_sum   'Li4 Fe4 Si4 O16'
_cell_volume   344.70561172
_cell_formula_units_Z   4
loop_
 _symmetry_equiv_pos_site_id
 _symmetry_equiv_pos_as_xyz
  1  'x, y, z'
loop_
 _atom_site_type_symbol
 _atom_site_label
 _atom_site_symmetry_multiplicity
 _atom_site_fract_x
 _atom_site_fract_y
 _atom_site_fract_z
 _atom_site_occupancy
  Li  Li0  1  0.17263087  0.01003150  0.24301945  1
  Li  Li1  1  0.32736913  0.51003150  0.74301945  1
  Li  Li2  1  0.67263087  0.48996850  0.24301945  1
  Li  Li3  1  0.82736913  0.98996850  0.74301945  1
  Fe  Fe4  1  0.07797314  0.25996065  0.74458851  1
  Fe  Fe5  1  0.42202686  0.75996065  0.24458851  1
  Fe  Fe6  1  0.57797314  0.24003935  0.74458851  1
  Fe  Fe7  1  0.92202686  0.74003935  0.24458851  1
  Si  Si8  1  0.08330391  0.75991427  0.74861040  1
  Si  Si9  1  0.41669609  0.25991427  0.24861040  1
  Si  Si10  1  0.58330391  0.74008573  0.74861040  1
  Si  Si11  1  0.91669609  0.24008573  0.24861040  1
  O  O12  1  0.05199669  0.24443490  0.11944895  1
  O  O13  1  0.07162524  0.77015747  0.07625187  1
  O  O14  1  0.15535276  0.53351619  0.66767556  1
  O  O15  1  0.15077507  0.98529268  0.64276526  1
  O  O16  1  0.34922493  0.48529268  0.14276526  1
  O  O17  1  0.34464724  0.03351619  0.16767556  1
  O  O18  1  0.42837476  0.27015747  0.57625187  1
  O  O19  1  0.44800331  0.74443490  0.61944895  1
  O  O20  1  0.55199669  0.25556510  0.11944895  1
  O  O21  1  0.57162524  0.72984253  0.07625187  1
  O  O22  1  0.65535276  0.96648381  0.66767556  1
  O  O23  1  0.65077507  0.51470732  0.64276526  1
  O  O24  1  0.84922493  0.01470732  0.14276526  1
  O  O25  1  0.84464724  0.46648381  0.16767556  1
  O  O26  1  0.92837476  0.22984253  0.57625187  1
  O  O27  1  0.94800331  0.75556510  0.61944895  1
