# generated using pymatgen
data_VPO4
_symmetry_space_group_name_H-M   'P 1'
_cell_length_a   8.57129180
_cell_length_b   8.62683757
_cell_length_c   8.62683743
_cell_angle_alpha   60.00000288
_cell_angle_beta   59.78539421
_cell_angle_gamma   59.78539804
_symmetry_Int_Tables_number   1
_chemical_formula_structural   VPO4
_chemical_formula_sum   'V6 P6 O24'
_cell_volume   449.59155790
_cell_formula_units_Z   6
loop_
 _symmetry_equiv_pos_site_id
 _symmetry_equiv_pos_as_xyz
  1  'x, y, z'
loop_
 _atom_site_type_symbol
 _atom_site_label
 _atom_site_symmetry_multiplicity
 _atom_site_fract_x
 _atom_site_fract_y
 _atom_site_fract_z
 _atom_site_occupancy
  V  V0  1  0.00000000  0.00000000  0.00000000  1
  V  V1  1  0.06950187  0.64349904  0.64349904  1
  V  V2  1  0.56950187  0.14349904  0.14349904  1
  V  V3  1  0.50000000  0.50000000  0.50000000  1
  V  V4  1  0.43049813  0.85650096  0.85650096  1
  V  V5  1  0.93049813  0.35650096  0.35650096  1
  P  P6  1  0.25000000  0.25000000  0.54287574  1
  P  P7  1  0.25000000  0.95712426  0.25000000  1
  P  P8  1  0.25000000  0.54287574  0.95712426  1
  P  P9  1  0.75000000  0.45712426  0.04287574  1
  P  P10  1  0.75000000  0.04287574  0.75000000  1
  P  P11  1  0.75000000  0.75000000  0.45712426  1
  O  O12  1  0.06785346  0.11290317  0.31659561  1
  O  O13  1  0.06785346  0.50264776  0.11290317  1
  O  O14  1  0.06785346  0.31659561  0.50264776  1
  O  O15  1  0.23071393  0.08857815  0.74019370  1
  O  O16  1  0.43214654  0.18340439  0.38709683  1
  O  O17  1  0.26928607  0.41142185  0.55948578  1
  O  O18  1  0.23071393  0.94051422  0.08857815  1
  O  O19  1  0.26928607  0.75980630  0.41142185  1
  O  O20  1  0.56785346  0.61290317  0.00264776  1
  O  O21  1  0.26928607  0.55948578  0.75980630  1
  O  O22  1  0.76928607  0.25980630  0.05948578  1
  O  O23  1  0.56785346  0.00264776  0.81659561  1
  O  O24  1  0.43214654  0.99735224  0.18340439  1
  O  O25  1  0.23071393  0.74019370  0.94051422  1
  O  O26  1  0.73071393  0.44051422  0.24019370  1
  O  O27  1  0.43214654  0.38709683  0.99735224  1
  O  O28  1  0.73071393  0.24019370  0.58857815  1
  O  O29  1  0.76928607  0.05948578  0.91142185  1
  O  O30  1  0.73071393  0.58857815  0.44051422  1
  O  O31  1  0.56785346  0.81659561  0.61290317  1
  O  O32  1  0.76928607  0.91142185  0.25980630  1
  O  O33  1  0.93214654  0.68340439  0.49735224  1
  O  O34  1  0.93214654  0.49735224  0.88709683  1
  O  O35  1  0.93214654  0.88709683  0.68340439  1
