# generated using pymatgen
data_Li2MnOF3
_symmetry_space_group_name_H-M   'P 1'
_cell_length_a   5.73302092
_cell_length_b   5.73302092
_cell_length_c   5.85598043
_cell_angle_alpha   63.32217219
_cell_angle_beta   81.85828830
_cell_angle_gamma   113.37441075
_symmetry_Int_Tables_number   1
_chemical_formula_structural   Li2MnOF3
_chemical_formula_sum   'Li4 Mn2 O2 F6'
_cell_volume   145.37818751
_cell_formula_units_Z   2
loop_
 _symmetry_equiv_pos_site_id
 _symmetry_equiv_pos_as_xyz
  1  'x, y, z'
loop_
 _atom_site_type_symbol
 _atom_site_label
 _atom_site_symmetry_multiplicity
 _atom_site_fract_x
 _atom_site_fract_y
 _atom_site_fract_z
 _atom_site_occupancy
  Li  Li0  1  0.47884462  0.97897328  0.50514634  1
  Li  Li1  1  0.51050658  0.50191891  0.48757450  1
  Li  Li2  1  0.88849410  0.74679115  0.86471476  1
  Li  Li3  1  0.01588038  0.51600904  0.50514634  1
  Mn  Mn4  1  0.50968262  0.98808096  0.00223742  1
  Mn  Mn5  1  0.04276883  0.27555358  0.18167759  1
  O  O6  1  0.71612448  0.96349517  0.22707224  1
  O  O7  1  0.30943260  0.55680329  0.22707224  1
  F  F8  1  0.79903739  0.03764211  0.66332050  1
  F  F9  1  0.80059611  0.45853244  0.24087045  1
  F  F10  1  0.70699402  0.43902387  0.76911485  1
  F  F11  1  0.29186029  0.02389113  0.76911485  1
  F  F12  1  0.20916932  0.99391515  0.29691553  1
  F  F13  1  0.22060766  0.51937094  0.76002140  1
