# generated using pymatgen
data_LiMnPO4
_symmetry_space_group_name_H-M   'P 1'
_cell_length_a   9.41443699
_cell_length_b   6.41680669
_cell_length_c   5.06629734
_cell_angle_alpha   90.00000000
_cell_angle_beta   90.00000000
_cell_angle_gamma   90.00000000
_symmetry_Int_Tables_number   1
_chemical_formula_structural   LiMnPO4
_chemical_formula_sum   'Li4 Mn4 P4 O16'
_cell_volume   306.05817486
_cell_formula_units_Z   4
loop_
 _symmetry_equiv_pos_site_id
 _symmetry_equiv_pos_as_xyz
  1  'x, y, z'
loop_
 _atom_site_type_symbol
 _atom_site_label
 _atom_site_symmetry_multiplicity
 _atom_site_fract_x
 _atom_site_fract_y
 _atom_site_fract_z
 _atom_site_occupancy
  Li  Li0  1  0.00000000  0.00000000  0.00000000  1
  Li  Li1  1  0.00000000  0.50000000  0.00000000  1
  Li  Li2  1  0.50000000  0.00000000  0.50000000  1
  Li  Li3  1  0.50000000  0.50000000  0.50000000  1
  Mn  Mn4  1  0.14827340  0.75000000  0.47353303  1
  Mn  Mn5  1  0.35172660  0.25000000  0.97353303  1
  Mn  Mn6  1  0.64827340  0.75000000  0.02646697  1
  Mn  Mn7  1  0.85172660  0.25000000  0.52646697  1
  P  P8  1  0.18080251  0.25000000  0.46108289  1
  P  P9  1  0.31919749  0.75000000  0.96108289  1
  P  P10  1  0.68080251  0.25000000  0.03891711  1
  P  P11  1  0.81919749  0.75000000  0.53891711  1
  O  O12  1  0.15083836  0.25000000  0.76254760  1
  O  O13  1  0.11242950  0.05494748  0.33012667  1
  O  O14  1  0.11242950  0.44505252  0.33012667  1
  O  O15  1  0.15581379  0.75000000  0.89882799  1
  O  O16  1  0.34418621  0.25000000  0.39882799  1
  O  O17  1  0.38757050  0.94505252  0.83012667  1
  O  O18  1  0.38757050  0.55494748  0.83012667  1
  O  O19  1  0.34916164  0.75000000  0.26254760  1
  O  O20  1  0.65083836  0.25000000  0.73745240  1
  O  O21  1  0.61242950  0.05494748  0.16987333  1
  O  O22  1  0.61242950  0.44505252  0.16987333  1
  O  O23  1  0.65581379  0.75000000  0.60117201  1
  O  O24  1  0.84418621  0.25000000  0.10117201  1
  O  O25  1  0.88757050  0.55494748  0.66987333  1
  O  O26  1  0.88757050  0.94505252  0.66987333  1
  O  O27  1  0.84916164  0.75000000  0.23745240  1
