# generated using pymatgen
data_HoH18C3S3(O2F)9
_symmetry_space_group_name_H-M   'P 1'
_cell_length_a   13.70747836
_cell_length_b   13.70747860
_cell_length_c   7.52589411
_cell_angle_alpha   90.00000000
_cell_angle_beta   90.00000000
_cell_angle_gamma   119.99999940
_symmetry_Int_Tables_number   1
_chemical_formula_structural   HoH18C3S3(O2F)9
_chemical_formula_sum   'Ho2 H36 C6 S6 O36 F18'
_cell_volume   1224.62714966
_cell_formula_units_Z   2
loop_
 _symmetry_equiv_pos_site_id
 _symmetry_equiv_pos_as_xyz
  1  'x, y, z'
loop_
 _atom_site_type_symbol
 _atom_site_label
 _atom_site_symmetry_multiplicity
 _atom_site_fract_x
 _atom_site_fract_y
 _atom_site_fract_z
 _atom_site_occupancy
  Ho  Ho0  1  0.33333300  0.66666700  0.25000000  1
  Ho  Ho1  1  0.66666700  0.33333300  0.75000000  1
  O  O2  1  0.14357211  0.48781818  0.25000000  1
  O  O3  1  0.65575393  0.14357211  0.75000000  1
  O  O4  1  0.48781818  0.34424607  0.75000000  1
  O  O5  1  0.51218182  0.65575393  0.25000000  1
  O  O6  1  0.34424607  0.85642789  0.25000000  1
  O  O7  1  0.85642789  0.51218182  0.75000000  1
  O  O8  1  0.33722096  0.54652307  0.47322638  1
  O  O9  1  0.79069789  0.33722096  0.97322638  1
  O  O10  1  0.54652307  0.20930211  0.97322638  1
  O  O11  1  0.45347693  0.79069789  0.47322638  1
  O  O12  1  0.20930211  0.66277904  0.47322638  1
  O  O13  1  0.66277904  0.45347693  0.97322638  1
  O  O14  1  0.66277904  0.45347693  0.52677362  1
  O  O15  1  0.20930211  0.66277904  0.02677362  1
  O  O16  1  0.45347693  0.79069789  0.02677362  1
  O  O17  1  0.54652307  0.20930211  0.52677362  1
  O  O18  1  0.79069789  0.33722096  0.52677362  1
  O  O19  1  0.33722096  0.54652307  0.02677362  1
  S  S20  1  0.38359120  0.31660540  0.25000000  1
  S  S21  1  0.06698581  0.38359120  0.75000000  1
  S  S22  1  0.31660540  0.93301419  0.75000000  1
  S  S23  1  0.68339460  0.06698581  0.25000000  1
  S  S24  1  0.93301419  0.61640880  0.25000000  1
  S  S25  1  0.61640880  0.68339460  0.75000000  1
  O  O26  1  0.44369332  0.25299198  0.25000000  1
  O  O27  1  0.19070134  0.44369332  0.75000000  1
  O  O28  1  0.25299198  0.80929866  0.75000000  1
  O  O29  1  0.74700802  0.19070134  0.25000000  1
  O  O30  1  0.80929866  0.55630668  0.25000000  1
  O  O31  1  0.55630668  0.74700802  0.75000000  1
  O  O32  1  0.39741551  0.37935058  0.41440996  1
  O  O33  1  0.01806493  0.39741551  0.91440996  1
  O  O34  1  0.37935058  0.98193507  0.91440996  1
  O  O35  1  0.62064942  0.01806493  0.41440996  1
  O  O36  1  0.98193507  0.60258449  0.41440996  1
  O  O37  1  0.60258449  0.62064942  0.91440996  1
  O  O38  1  0.60258449  0.62064942  0.58559004  1
  O  O39  1  0.98193507  0.60258449  0.08559004  1
  O  O40  1  0.62064942  0.01806493  0.08559004  1
  O  O41  1  0.37935058  0.98193507  0.58559004  1
  O  O42  1  0.01806493  0.39741551  0.58559004  1
  O  O43  1  0.39741551  0.37935058  0.08559004  1
  C  C44  1  0.23161739  0.20479429  0.25000000  1
  C  C45  1  0.02682310  0.23161739  0.75000000  1
  C  C46  1  0.20479429  0.97317690  0.75000000  1
  C  C47  1  0.79520571  0.02682310  0.25000000  1
  C  C48  1  0.97317690  0.76838261  0.25000000  1
  C  C49  1  0.76838261  0.79520571  0.75000000  1
  F  F50  1  0.16663455  0.25340245  0.25000000  1
  F  F51  1  0.91323210  0.16663455  0.75000000  1
  F  F52  1  0.25340245  0.08676790  0.75000000  1
  F  F53  1  0.74659755  0.91323210  0.25000000  1
  F  F54  1  0.08676790  0.83336545  0.25000000  1
  F  F55  1  0.83336545  0.74659755  0.75000000  1
  F  F56  1  0.20760235  0.13930565  0.39586584  1
  F  F57  1  0.06829669  0.20760235  0.89586584  1
  F  F58  1  0.13930565  0.93170331  0.89586584  1
  F  F59  1  0.86069435  0.06829669  0.39586584  1
  F  F60  1  0.93170331  0.79239765  0.39586584  1
  F  F61  1  0.79239765  0.86069435  0.89586584  1
  F  F62  1  0.79239765  0.86069435  0.60413416  1
  F  F63  1  0.93170331  0.79239765  0.10413416  1
  F  F64  1  0.86069435  0.06829669  0.10413416  1
  F  F65  1  0.13930565  0.93170331  0.60413416  1
  F  F66  1  0.06829669  0.20760235  0.60413416  1
  F  F67  1  0.20760235  0.13930565  0.10413416  1
  H  H68  1  0.09918505  0.44916622  0.35575527  1
  H  H69  1  0.65001883  0.09918505  0.85575527  1
  H  H70  1  0.44916622  0.34998117  0.85575527  1
  H  H71  1  0.55083378  0.65001883  0.35575527  1
  H  H72  1  0.34998117  0.90081495  0.35575527  1
  H  H73  1  0.90081495  0.55083378  0.85575527  1
  H  H74  1  0.90081495  0.55083378  0.64424473  1
  H  H75  1  0.34998117  0.90081495  0.14424473  1
  H  H76  1  0.55083378  0.65001883  0.14424473  1
  H  H77  1  0.44916622  0.34998117  0.64424473  1
  H  H78  1  0.65001883  0.09918505  0.64424473  1
  H  H79  1  0.09918505  0.44916622  0.14424473  1
  H  H80  1  0.36259160  0.49211136  0.44847717  1
  H  H81  1  0.87048024  0.36259160  0.94847717  1
  H  H82  1  0.49211136  0.12951976  0.94847717  1
  H  H83  1  0.50788864  0.87048024  0.44847717  1
  H  H84  1  0.12951976  0.63740840  0.44847717  1
  H  H85  1  0.63740840  0.50788864  0.94847717  1
  H  H86  1  0.63740840  0.50788864  0.55152283  1
  H  H87  1  0.12951976  0.63740840  0.05152283  1
  H  H88  1  0.50788864  0.87048024  0.05152283  1
  H  H89  1  0.49211136  0.12951976  0.55152283  1
  H  H90  1  0.87048024  0.36259160  0.55152283  1
  H  H91  1  0.36259160  0.49211136  0.05152283  1
  H  H92  1  0.27977935  0.51286118  0.56774445  1
  H  H93  1  0.76691817  0.27977935  0.06774445  1
  H  H94  1  0.51286118  0.23308183  0.06774445  1
  H  H95  1  0.48713882  0.76691817  0.56774445  1
  H  H96  1  0.23308183  0.72022065  0.56774445  1
  H  H97  1  0.72022065  0.48713882  0.06774445  1
  H  H98  1  0.72022065  0.48713882  0.43225555  1
  H  H99  1  0.23308183  0.72022065  0.93225555  1
  H  H100  1  0.48713882  0.76691817  0.93225555  1
  H  H101  1  0.51286118  0.23308183  0.43225555  1
  H  H102  1  0.76691817  0.27977935  0.43225555  1
  H  H103  1  0.27977935  0.51286118  0.93225555  1
