# generated using pymatgen
data_NdTh3
_symmetry_space_group_name_H-M   'P 1'
_cell_length_a   5.08163668
_cell_length_b   5.08167497
_cell_length_c   5.08162788
_cell_angle_alpha   89.99998568
_cell_angle_beta   90.00015447
_cell_angle_gamma   89.99982625
_symmetry_Int_Tables_number   1
_chemical_formula_structural   NdTh3
_chemical_formula_sum   'Nd1 Th3'
_cell_volume   131.22402480
_cell_formula_units_Z   1
loop_
 _symmetry_equiv_pos_site_id
 _symmetry_equiv_pos_as_xyz
  1  'x, y, z'
loop_
 _atom_site_type_symbol
 _atom_site_label
 _atom_site_symmetry_multiplicity
 _atom_site_fract_x
 _atom_site_fract_y
 _atom_site_fract_z
 _atom_site_occupancy
  Nd  Nd0  1  0.00000057  0.00000023  0.00000043  1
  Th  Th1  1  0.99999893  0.50000104  0.50000155  1
  Th  Th2  1  0.50000061  0.99999912  0.50000012  1
  Th  Th3  1  0.50000088  0.50000061  0.99999890  1
