# generated using pymatgen
data_LiNi2P3O10
_symmetry_space_group_name_H-M   'P 1'
_cell_length_a   7.88263787
_cell_length_b   7.88263787
_cell_length_c   8.61978535
_cell_angle_alpha   64.95719507
_cell_angle_beta   115.04280493
_cell_angle_gamma   108.51666823
_symmetry_Int_Tables_number   1
_chemical_formula_structural   LiNi2P3O10
_chemical_formula_sum   'Li2 Ni4 P6 O20'
_cell_volume   433.33628729
_cell_formula_units_Z   2
loop_
 _symmetry_equiv_pos_site_id
 _symmetry_equiv_pos_as_xyz
  1  'x, y, z'
loop_
 _atom_site_type_symbol
 _atom_site_label
 _atom_site_symmetry_multiplicity
 _atom_site_fract_x
 _atom_site_fract_y
 _atom_site_fract_z
 _atom_site_occupancy
  Li  Li0  1  0.63853456  0.63853456  0.75000000  1
  Li  Li1  1  0.36146544  0.36146544  0.25000000  1
  Ni  Ni2  1  0.32369020  0.75502392  0.95473763  1
  Ni  Ni3  1  0.24497608  0.67630980  0.45473763  1
  Ni  Ni4  1  0.75502392  0.32369020  0.54526237  1
  Ni  Ni5  1  0.67630980  0.24497608  0.04526237  1
  P  P6  1  0.15633159  0.44674617  0.81093944  1
  P  P7  1  0.55325383  0.84366841  0.31093944  1
  P  P8  1  0.08999652  0.08999652  0.75000000  1
  P  P9  1  0.91000348  0.91000348  0.25000000  1
  P  P10  1  0.44674617  0.15633159  0.68906056  1
  P  P11  1  0.84366841  0.55325383  0.18906056  1
  O  O12  1  0.11561923  0.89030404  0.87571368  1
  O  O13  1  0.10969596  0.88438077  0.37571368  1
  O  O14  1  0.47612221  0.95483754  0.81530414  1
  O  O15  1  0.21467748  0.47847489  0.99260509  1
  O  O16  1  0.30795391  0.56949442  0.72051878  1
  O  O17  1  0.04516246  0.52387779  0.31530414  1
  O  O18  1  0.17213180  0.22402193  0.87325402  1
  O  O19  1  0.52152511  0.78532252  0.49260509  1
  O  O20  1  0.43050558  0.69204609  0.22051878  1
  O  O21  1  0.22402193  0.17213180  0.62674598  1
  O  O22  1  0.77597807  0.82786820  0.37325402  1
  O  O23  1  0.56949442  0.30795391  0.77948122  1
  O  O24  1  0.47847489  0.21467748  0.50739491  1
  O  O25  1  0.82786820  0.77597807  0.12674598  1
  O  O26  1  0.95483754  0.47612221  0.68469586  1
  O  O27  1  0.69204609  0.43050558  0.27948122  1
  O  O28  1  0.78532252  0.52152511  0.00739491  1
  O  O29  1  0.52387779  0.04516246  0.18469586  1
  O  O30  1  0.89030404  0.11561923  0.62428632  1
  O  O31  1  0.88438077  0.10969596  0.12428632  1
