# generated using pymatgen
data_LiAg3F8
_symmetry_space_group_name_H-M   'P 1'
_cell_length_a   5.38864877
_cell_length_b   6.89873074
_cell_length_c   9.97748059
_cell_angle_alpha   89.20606841
_cell_angle_beta   105.76485047
_cell_angle_gamma   67.02783040
_symmetry_Int_Tables_number   1
_chemical_formula_structural   LiAg3F8
_chemical_formula_sum   'Li2 Ag6 F16'
_cell_volume   325.62804284
_cell_formula_units_Z   2
loop_
 _symmetry_equiv_pos_site_id
 _symmetry_equiv_pos_as_xyz
  1  'x, y, z'
loop_
 _atom_site_type_symbol
 _atom_site_label
 _atom_site_symmetry_multiplicity
 _atom_site_fract_x
 _atom_site_fract_y
 _atom_site_fract_z
 _atom_site_occupancy
  Li  Li0  1  0.71946467  0.74919235  0.25065410  1
  Li  Li1  1  0.28293695  0.25053061  0.74946515  1
  Ag  Ag2  1  0.88576319  0.86936243  0.61170666  1
  Ag  Ag3  1  0.64374938  0.63029616  0.88878656  1
  Ag  Ag4  1  0.99967094  0.00031233  0.99983228  1
  Ag  Ag5  1  0.50035997  0.49983643  0.50010794  1
  Ag  Ag6  1  0.35497094  0.37012690  0.11116121  1
  Ag  Ag7  1  0.11359665  0.13007513  0.38845934  1
  F  F8  1  0.63221058  0.89824801  0.40959271  1
  F  F9  1  0.61998354  0.60235518  0.09048091  1
  F  F10  1  0.74468242  0.48546586  0.37397398  1
  F  F11  1  0.81921241  0.13935179  0.20167034  1
  F  F12  1  0.74193478  0.64042582  0.70241760  1
  F  F13  1  0.64404662  0.98611183  0.87320397  1
  F  F14  1  0.94073149  0.29031671  0.91449759  1
  F  F15  1  0.81617355  0.20997671  0.58574843  1
  F  F16  1  0.18430447  0.78954188  0.41403052  1
  F  F17  1  0.05898156  0.71015371  0.08545683  1
  F  F18  1  0.35550902  0.01445684  0.12651971  1
  F  F19  1  0.25719010  0.36115854  0.29765247  1
  F  F20  1  0.18157658  0.85926446  0.79825654  1
  F  F21  1  0.25651403  0.51415733  0.62615945  1
  F  F22  1  0.37931951  0.39724972  0.90976088  1
  F  F23  1  0.36711664  0.10203226  0.59040482  1
