# generated using pymatgen
data_ZnHgC4(SN)4
_symmetry_space_group_name_H-M   'P 1'
_cell_length_a   4.75438656
_cell_length_b   8.31875522
_cell_length_c   8.31875483
_cell_angle_alpha   85.31597596
_cell_angle_beta   73.39553253
_cell_angle_gamma   73.39553078
_symmetry_Int_Tables_number   1
_chemical_formula_structural   ZnHgC4(SN)4
_chemical_formula_sum   'Zn1 Hg1 C4 S4 N4'
_cell_volume   302.14429681
_cell_formula_units_Z   1
loop_
 _symmetry_equiv_pos_site_id
 _symmetry_equiv_pos_as_xyz
  1  'x, y, z'
loop_
 _atom_site_type_symbol
 _atom_site_label
 _atom_site_symmetry_multiplicity
 _atom_site_fract_x
 _atom_site_fract_y
 _atom_site_fract_z
 _atom_site_occupancy
  Hg  Hg0  1  0.00000000  0.00000000  0.00000000  1
  Zn  Zn1  1  0.75000000  0.50000000  0.50000000  1
  C  C2  1  0.61757224  0.20174620  0.35249716  1
  C  C3  1  0.02993060  0.35249716  0.79825380  1
  C  C4  1  0.18068157  0.64750284  0.20174620  1
  C  C5  1  0.17181560  0.79825380  0.64750284  1
  N  N6  1  0.65658702  0.31536471  0.41030953  1
  N  N7  1  0.93310345  0.41030953  0.68463529  1
  N  N8  1  0.02804827  0.58969047  0.31536471  1
  N  N9  1  0.38226126  0.68463529  0.58969047  1
  S  S10  1  0.55354567  0.04353649  0.27773771  1
  S  S11  1  0.16871662  0.27773771  0.95646351  1
  S  S12  1  0.40291784  0.72226229  0.04353649  1
  S  S13  1  0.87481987  0.95646351  0.72226229  1
