# generated using pymatgen
data_Fe(MoS2)2
_symmetry_space_group_name_H-M   'P 1'
_cell_length_a   6.42226333
_cell_length_b   6.75607800
_cell_length_c   11.96209971
_cell_angle_alpha   80.44803282
_cell_angle_beta   74.46868609
_cell_angle_gamma   61.63547281
_symmetry_Int_Tables_number   1
_chemical_formula_structural   Fe(MoS2)2
_chemical_formula_sum   'Fe4 Mo8 S16'
_cell_volume   439.57763820
_cell_formula_units_Z   4
loop_
 _symmetry_equiv_pos_site_id
 _symmetry_equiv_pos_as_xyz
  1  'x, y, z'
loop_
 _atom_site_type_symbol
 _atom_site_label
 _atom_site_symmetry_multiplicity
 _atom_site_fract_x
 _atom_site_fract_y
 _atom_site_fract_z
 _atom_site_occupancy
  Fe  Fe0  1  0.29947751  0.19426801  0.95096546  1
  Fe  Fe1  1  0.55307421  0.69405281  0.45092784  1
  Fe  Fe2  1  0.05491491  0.68531939  0.45108209  1
  Fe  Fe3  1  0.81028892  0.18610546  0.95117150  1
  Mo  Mo4  1  0.66156341  0.24197681  0.21146277  1
  Mo  Mo5  1  0.88682326  0.74311671  0.71002384  1
  Mo  Mo6  1  0.70309403  0.63690630  0.19244430  1
  Mo  Mo7  1  0.47006035  0.13754766  0.69077987  1
  Mo  Mo8  1  0.22551429  0.62931154  0.19114478  1
  Mo  Mo9  1  0.95219675  0.13119875  0.68991591  1
  Mo  Mo10  1  0.13532756  0.24738169  0.21209162  1
  Mo  Mo11  1  0.40307347  0.74918497  0.71074662  1
  S  S12  1  0.59698285  0.51266570  0.05134185  1
  S  S13  1  0.84028962  0.01321045  0.54967423  1
  S  S14  1  0.76573512  0.36621670  0.35273192  1
  S  S15  1  0.51566185  0.86691106  0.85109995  1
  S  S16  1  0.79748516  0.84749964  0.31402044  1
  S  S17  1  0.04198191  0.34827994  0.81197007  1
  S  S18  1  0.56403114  0.03190458  0.08986532  1
  S  S19  1  0.31551033  0.53216576  0.58783996  1
  S  S20  1  0.28889395  0.85133589  0.31661623  1
  S  S21  1  0.54249894  0.35249086  0.81555865  1
  S  S22  1  0.07251832  0.02599843  0.08709340  1
  S  S23  1  0.81414460  0.52733538  0.58577026  1
  S  S24  1  0.08600148  0.52225798  0.05543400  1
  S  S25  1  0.33557156  0.02407486  0.55452814  1
  S  S26  1  0.27667533  0.35446194  0.34735297  1
  S  S27  1  0.02061017  0.85662374  0.84654501  1
