# generated using pymatgen
data_LiFe2(PO4)3
_symmetry_space_group_name_H-M   'P 1'
_cell_length_a   8.77916832
_cell_length_b   12.27433092
_cell_length_c   8.81996513
_cell_angle_alpha   89.78281022
_cell_angle_beta   89.94737372
_cell_angle_gamma   89.87829943
_symmetry_Int_Tables_number   1
_chemical_formula_structural   LiFe2(PO4)3
_chemical_formula_sum   'Li4 Fe8 P12 O48'
_cell_volume   950.41611552
_cell_formula_units_Z   4
loop_
 _symmetry_equiv_pos_site_id
 _symmetry_equiv_pos_as_xyz
  1  'x, y, z'
loop_
 _atom_site_type_symbol
 _atom_site_label
 _atom_site_symmetry_multiplicity
 _atom_site_fract_x
 _atom_site_fract_y
 _atom_site_fract_z
 _atom_site_occupancy
  Li  Li0  1  0.29085015  0.31410589  0.27240481  1
  Li  Li1  1  0.78425570  0.81927926  0.22188444  1
  Li  Li2  1  0.93389898  0.29141323  0.90960510  1
  Li  Li3  1  0.93883738  0.71182627  0.59119047  1
  Fe  Fe4  1  0.25857663  0.38434684  0.95517306  1
  Fe  Fe5  1  0.26121114  0.61914717  0.53334102  1
  Fe  Fe6  1  0.24768966  0.11341645  0.46648924  1
  Fe  Fe7  1  0.24638472  0.88209713  0.03979174  1
  Fe  Fe8  1  0.74431265  0.11308900  0.96522627  1
  Fe  Fe9  1  0.74231354  0.89006006  0.54389968  1
  Fe  Fe10  1  0.75084694  0.38171717  0.46202989  1
  Fe  Fe11  1  0.75038997  0.61319113  0.03373361  1
  P  P12  1  0.04103175  0.49771030  0.24839372  1
  P  P13  1  0.10743998  0.14773783  0.10438375  1
  P  P14  1  0.10311098  0.85336978  0.39156556  1
  P  P15  1  0.39492457  0.35401692  0.60328227  1
  P  P16  1  0.39245637  0.64578839  0.89299678  1
  P  P17  1  0.45979616  0.00149079  0.75153552  1
  P  P18  1  0.53345303  0.99903642  0.25271163  1
  P  P19  1  0.61024030  0.35243885  0.10635840  1
  P  P20  1  0.61820798  0.64824371  0.39689663  1
  P  P21  1  0.89394478  0.85324948  0.89235906  1
  P  P22  1  0.89052307  0.14631740  0.60947682  1
  P  P23  1  0.96297700  0.50050212  0.74946899  1
  O  O24  1  0.06063946  0.57916590  0.65300883  1
  O  O25  1  0.05595123  0.42476592  0.85478119  1
  O  O26  1  0.06356542  0.15685955  0.58714029  1
  O  O27  1  0.06912424  0.85282902  0.90567375  1
  O  O28  1  0.16052266  0.96600657  0.43764122  1
  O  O29  1  0.16957396  0.03596276  0.05945582  1
  O  O30  1  0.13063408  0.57238321  0.35572044  1
  O  O31  1  0.15632132  0.42523461  0.16197763  1
  O  O32  1  0.16477669  0.17698524  0.26503611  1
  O  O33  1  0.14718769  0.82858077  0.22716276  1
  O  O34  1  0.15567356  0.23698842  0.98944672  1
  O  O35  1  0.16115504  0.76608585  0.50592378  1
  O  O36  1  0.32843956  0.27162080  0.48761663  1
  O  O37  1  0.31753422  0.72857600  0.00079604  1
  O  O38  1  0.35326783  0.67116626  0.72663627  1
  O  O39  1  0.34797867  0.32960646  0.76688063  1
  O  O40  1  0.34917939  0.07186248  0.65908995  1
  O  O41  1  0.36762406  0.92865629  0.85885879  1
  O  O42  1  0.33833073  0.46745605  0.55451697  1
  O  O43  1  0.33840316  0.53165802  0.93693526  1
  O  O44  1  0.44369883  0.65631885  0.41014460  1
  O  O45  1  0.43588095  0.33651175  0.08982514  1
  O  O46  1  0.43740220  0.06902969  0.35839140  1
  O  O47  1  0.43391313  0.92159197  0.15749084  1
  O  O48  1  0.55522544  0.92664367  0.65015370  1
  O  O49  1  0.56056109  0.07916873  0.84412103  1
  O  O50  1  0.57029831  0.35081113  0.59341706  1
  O  O51  1  0.56599655  0.65883044  0.91283166  1
  O  O52  1  0.65622857  0.47020138  0.06868028  1
  O  O53  1  0.67108122  0.53181273  0.43315501  1
  O  O54  1  0.62140710  0.07397990  0.14434958  1
  O  O55  1  0.64810246  0.92531527  0.33856566  1
  O  O56  1  0.66764372  0.67793571  0.23277320  1
  O  O57  1  0.64762687  0.32842364  0.27473453  1
  O  O58  1  0.70340715  0.27597893  0.00119177  1
  O  O59  1  0.69800915  0.72718337  0.50809378  1
  O  O60  1  0.81962020  0.22894176  0.49863576  1
  O  O61  1  0.82987634  0.77020368  0.00916771  1
  O  O62  1  0.85559809  0.17400255  0.77750921  1
  O  O63  1  0.85331855  0.82541857  0.72649569  1
  O  O64  1  0.86862349  0.42534866  0.64726195  1
  O  O65  1  0.85303181  0.57325454  0.83976136  1
  O  O66  1  0.83219663  0.03321922  0.56894332  1
  O  O67  1  0.83038366  0.96445470  0.93910838  1
  O  O68  1  0.92634505  0.84683785  0.40270955  1
  O  O69  1  0.93145063  0.14421624  0.09759856  1
  O  O70  1  0.93994971  0.41997675  0.34236857  1
  O  O71  1  0.94233071  0.56837551  0.14401918  1
