# generated using pymatgen
data_Li2Mn4P4O15
_symmetry_space_group_name_H-M   'P 1'
_cell_length_a   8.99570075
_cell_length_b   8.99570075
_cell_length_c   18.55982588
_cell_angle_alpha   83.39899739
_cell_angle_beta   96.60100261
_cell_angle_gamma   72.80195314
_symmetry_Int_Tables_number   1
_chemical_formula_structural   Li2Mn4P4O15
_chemical_formula_sum   'Li8 Mn16 P16 O60'
_cell_volume   1407.58091465
_cell_formula_units_Z   4
loop_
 _symmetry_equiv_pos_site_id
 _symmetry_equiv_pos_as_xyz
  1  'x, y, z'
loop_
 _atom_site_type_symbol
 _atom_site_label
 _atom_site_symmetry_multiplicity
 _atom_site_fract_x
 _atom_site_fract_y
 _atom_site_fract_z
 _atom_site_occupancy
  Li  Li0  1  0.51158817  0.97508012  0.75756585  1
  Li  Li1  1  0.68518272  0.46801262  0.94351700  1
  Li  Li2  1  0.46801262  0.68518272  0.55648300  1
  Li  Li3  1  0.02491988  0.48841183  0.25756585  1
  Li  Li4  1  0.97508012  0.51158817  0.74243415  1
  Li  Li5  1  0.53198738  0.31481728  0.44351700  1
  Li  Li6  1  0.31481728  0.53198738  0.05648300  1
  Li  Li7  1  0.48841183  0.02491988  0.24243415  1
  Mn  Mn8  1  0.04729689  0.84923154  0.56932835  1
  Mn  Mn9  1  0.09413560  0.27996619  0.93736932  1
  Mn  Mn10  1  0.00000000  0.50000000  0.50000000  1
  Mn  Mn11  1  0.15076846  0.95270311  0.06932835  1
  Mn  Mn12  1  0.17650644  0.17650644  0.75000000  1
  Mn  Mn13  1  0.47765981  0.47765981  0.75000000  1
  Mn  Mn14  1  0.94897908  0.94897908  0.75000000  1
  Mn  Mn15  1  0.72003381  0.90586440  0.43736932  1
  Mn  Mn16  1  0.27996619  0.09413560  0.56263068  1
  Mn  Mn17  1  0.52234019  0.52234019  0.25000000  1
  Mn  Mn18  1  0.82349356  0.82349356  0.25000000  1
  Mn  Mn19  1  0.05102092  0.05102092  0.25000000  1
  Mn  Mn20  1  0.84923154  0.04729689  0.93067165  1
  Mn  Mn21  1  0.90586440  0.72003381  0.06263068  1
  Mn  Mn22  1  0.95270311  0.15076846  0.43067165  1
  Mn  Mn23  1  0.50000000  0.00000000  0.00000000  1
  P  P24  1  0.22788169  0.89074750  0.90071553  1
  P  P25  1  0.02279697  0.68643622  0.89980337  1
  P  P26  1  0.30061142  0.84319551  0.67981377  1
  P  P27  1  0.10925250  0.77211831  0.40071553  1
  P  P28  1  0.31356378  0.97720303  0.39980337  1
  P  P29  1  0.21989400  0.45304393  0.62592416  1
  P  P30  1  0.15680449  0.69938858  0.17981377  1
  P  P31  1  0.45304393  0.21989400  0.87407584  1
  P  P32  1  0.54695607  0.78010600  0.12592416  1
  P  P33  1  0.84319551  0.30061142  0.82018623  1
  P  P34  1  0.78010600  0.54695607  0.37407584  1
  P  P35  1  0.68643622  0.02279697  0.60019663  1
  P  P36  1  0.89074750  0.22788169  0.59928447  1
  P  P37  1  0.69938858  0.15680449  0.32018623  1
  P  P38  1  0.97720303  0.31356378  0.10019663  1
  P  P39  1  0.77211831  0.10925250  0.09928447  1
  O  O40  1  0.16864590  0.95797012  0.81928914  1
  O  O41  1  0.13226855  0.83421275  0.68550285  1
  O  O42  1  0.19254330  0.72254299  0.91553676  1
  O  O43  1  0.40227103  0.85384179  0.92660375  1
  O  O44  1  0.06696353  0.51605765  0.93303356  1
  O  O45  1  0.04202988  0.83135410  0.31928914  1
  O  O46  1  0.31771805  0.83074015  0.59614223  1
  O  O47  1  0.09588197  0.60817338  0.58288558  1
  O  O48  1  0.01093349  0.31448915  0.81292570  1
  O  O49  1  0.16578725  0.86773145  0.18550285  1
  O  O50  1  0.43235447  0.72228015  0.73469619  1
  O  O51  1  0.27745701  0.80745670  0.41553676  1
  O  O52  1  0.14615821  0.59772897  0.42660375  1
  O  O53  1  0.48394235  0.93303647  0.43303356  1
  O  O54  1  0.15972474  0.40927581  0.69792041  1
  O  O55  1  0.72756358  0.96058944  0.68304210  1
  O  O56  1  0.12086700  0.99950353  0.94829731  1
  O  O57  1  0.91105741  0.79271167  0.94462333  1
  O  O58  1  0.33298595  0.21538978  0.92838912  1
  O  O59  1  0.16925985  0.68228195  0.09614223  1
  O  O60  1  0.46978396  0.38603623  0.85792353  1
  O  O61  1  0.39182662  0.90411803  0.08288558  1
  O  O62  1  0.38603623  0.46978396  0.64207647  1
  O  O63  1  0.21538978  0.33298595  0.57161088  1
  O  O64  1  0.79271167  0.91105741  0.55537667  1
  O  O65  1  0.99950353  0.12086700  0.55170269  1
  O  O66  1  0.68551085  0.98906651  0.31292570  1
  O  O67  1  0.27771985  0.56764553  0.23469619  1
  O  O68  1  0.96058944  0.72756358  0.81695790  1
  O  O69  1  0.40927581  0.15972474  0.80207959  1
  O  O70  1  0.59072419  0.84027526  0.19792041  1
  O  O71  1  0.03941056  0.27243642  0.18304210  1
  O  O72  1  0.72228015  0.43235447  0.76530381  1
  O  O73  1  0.31448915  0.01093349  0.68707430  1
  O  O74  1  0.00049647  0.87913300  0.44829731  1
  O  O75  1  0.20728833  0.08894259  0.44462333  1
  O  O76  1  0.78461022  0.66701405  0.42838912  1
  O  O77  1  0.61396377  0.53021604  0.35792353  1
  O  O78  1  0.60817338  0.09588197  0.91711442  1
  O  O79  1  0.53021604  0.61396377  0.14207647  1
  O  O80  1  0.83074015  0.31771805  0.90385777  1
  O  O81  1  0.66701405  0.78461022  0.07161088  1
  O  O82  1  0.08894259  0.20728833  0.05537667  1
  O  O83  1  0.87913300  0.00049647  0.05170269  1
  O  O84  1  0.27243642  0.03941056  0.31695790  1
  O  O85  1  0.84027526  0.59072419  0.30207959  1
  O  O86  1  0.51605765  0.06696353  0.56696644  1
  O  O87  1  0.85384179  0.40227103  0.57339625  1
  O  O88  1  0.72254299  0.19254330  0.58446324  1
  O  O89  1  0.56764553  0.27771985  0.26530381  1
  O  O90  1  0.83421275  0.13226855  0.81449715  1
  O  O91  1  0.98906651  0.68551085  0.18707430  1
  O  O92  1  0.90411803  0.39182662  0.41711442  1
  O  O93  1  0.68228195  0.16925985  0.40385777  1
  O  O94  1  0.95797012  0.16864590  0.68071086  1
  O  O95  1  0.93303647  0.48394235  0.06696644  1
  O  O96  1  0.59772897  0.14615821  0.07339625  1
  O  O97  1  0.80745670  0.27745701  0.08446324  1
  O  O98  1  0.86773145  0.16578725  0.31449715  1
  O  O99  1  0.83135410  0.04202988  0.18071086  1
