# generated using pymatgen
data_Ac3Hg
_symmetry_space_group_name_H-M   'P 1'
_cell_length_a   7.70464480
_cell_length_b   7.70526910
_cell_length_c   5.91254879
_cell_angle_alpha   90.00000000
_cell_angle_beta   90.00000000
_cell_angle_gamma   120.02208213
_symmetry_Int_Tables_number   1
_chemical_formula_structural   Ac3Hg
_chemical_formula_sum   'Ac6 Hg2'
_cell_volume   303.91289113
_cell_formula_units_Z   2
loop_
 _symmetry_equiv_pos_site_id
 _symmetry_equiv_pos_as_xyz
  1  'x, y, z'
loop_
 _atom_site_type_symbol
 _atom_site_label
 _atom_site_symmetry_multiplicity
 _atom_site_fract_x
 _atom_site_fract_y
 _atom_site_fract_z
 _atom_site_occupancy
  Ac  Ac0  1  0.17599064  0.35197588  0.25000000  1
  Ac  Ac1  1  0.64807602  0.82406552  0.25000000  1
  Ac  Ac2  1  0.17606609  0.82396870  0.25000000  1
  Ac  Ac3  1  0.82410725  0.64824394  0.74999900  1
  Ac  Ac4  1  0.35170605  0.17584243  0.74999900  1
  Ac  Ac5  1  0.82405913  0.17590300  0.74999900  1
  Hg  Hg6  1  0.33332477  0.66669072  0.74999900  1
  Hg  Hg7  1  0.66667104  0.33331079  0.25000000  1
