# generated using pymatgen
data_BiF4
_symmetry_space_group_name_H-M   'P 1'
_cell_length_a   5.40830481
_cell_length_b   5.40989321
_cell_length_c   6.62556860
_cell_angle_alpha   113.61676965
_cell_angle_beta   114.11515837
_cell_angle_gamma   90.00691893
_symmetry_Int_Tables_number   1
_chemical_formula_structural   BiF4
_chemical_formula_sum   'Bi2 F8'
_cell_volume   158.97562352
_cell_formula_units_Z   2
loop_
 _symmetry_equiv_pos_site_id
 _symmetry_equiv_pos_as_xyz
  1  'x, y, z'
loop_
 _atom_site_type_symbol
 _atom_site_label
 _atom_site_symmetry_multiplicity
 _atom_site_fract_x
 _atom_site_fract_y
 _atom_site_fract_z
 _atom_site_occupancy
  Bi  Bi0  1  0.99886552  0.49929381  0.99887503  1
  Bi  Bi1  1  0.49831143  0.99849192  0.99853972  1
  F  F2  1  0.87872432  0.36940503  0.22317848  1
  F  F3  1  0.64749829  0.15815118  0.77217752  1
  F  F4  1  0.12117499  0.62010439  0.77220072  1
  F  F5  1  0.11795315  0.15003783  0.77375852  1
  F  F6  1  0.34604001  0.84755934  0.22390575  1
  F  F7  1  0.34894057  0.37937361  0.22530265  1
  F  F8  1  0.87531439  0.84183290  0.22513940  1
  F  F9  1  0.65182432  0.62838799  0.77439023  1
