# generated using pymatgen
data_Mg(MnS2)2
_symmetry_space_group_name_H-M   'P 1'
_cell_length_a   7.33203779
_cell_length_b   7.26707693
_cell_length_c   7.26660413
_cell_angle_alpha   60.60912119
_cell_angle_beta   59.73717548
_cell_angle_gamma   59.73484844
_symmetry_Int_Tables_number   1
_chemical_formula_structural   Mg(MnS2)2
_chemical_formula_sum   'Mg2 Mn4 S8'
_cell_volume   273.90476049
_cell_formula_units_Z   2
loop_
 _symmetry_equiv_pos_site_id
 _symmetry_equiv_pos_as_xyz
  1  'x, y, z'
loop_
 _atom_site_type_symbol
 _atom_site_label
 _atom_site_symmetry_multiplicity
 _atom_site_fract_x
 _atom_site_fract_y
 _atom_site_fract_z
 _atom_site_occupancy
  Mg  Mg0  1  0.87513947  0.87502652  0.87499987  1
  Mg  Mg1  1  0.12487209  0.12498397  0.12498299  1
  Mn  Mn2  1  0.49999446  0.50002677  0.49998121  1
  Mn  Mn3  1  0.49996447  0.49997264  0.00002448  1
  Mn  Mn4  1  0.00000466  0.50000697  0.49998966  1
  Mn  Mn5  1  0.50001137  -0.00000231  0.50000068  1
  S  S6  1  0.73567199  0.73922521  0.73924431  1
  S  S7  1  0.26058152  0.26435531  0.71449255  1
  S  S8  1  0.26057756  0.71449233  0.26434446  1
  S  S9  1  0.71470198  0.26058711  0.26059272  1
  S  S10  1  0.73940828  0.28550281  0.73566051  1
  S  S11  1  0.28531001  0.73942449  0.73939986  1
  S  S12  1  0.26432870  0.26075291  0.26079718  1
  S  S13  1  0.73943747  0.73564026  0.28549152  1
