# generated using pymatgen
data_Fe7S8
_symmetry_space_group_name_H-M   'P 1'
_cell_length_a   6.67786987
_cell_length_b   6.53462867
_cell_length_c   10.93314820
_cell_angle_alpha   78.16314590
_cell_angle_beta   72.21803609
_cell_angle_gamma   59.27219419
_symmetry_Int_Tables_number   1
_chemical_formula_structural   Fe7S8
_chemical_formula_sum   'Fe14 S16'
_cell_volume   389.81670046
_cell_formula_units_Z   2
loop_
 _symmetry_equiv_pos_site_id
 _symmetry_equiv_pos_as_xyz
  1  'x, y, z'
loop_
 _atom_site_type_symbol
 _atom_site_label
 _atom_site_symmetry_multiplicity
 _atom_site_fract_x
 _atom_site_fract_y
 _atom_site_fract_z
 _atom_site_occupancy
  Fe  Fe0  1  0.89641441  0.29132046  0.02998828  1
  Fe  Fe1  1  0.71772315  0.20867954  0.47001172  1
  Fe  Fe2  1  0.10358559  0.70867954  0.97001172  1
  Fe  Fe3  1  0.28227685  0.79132046  0.52998828  1
  Fe  Fe4  1  0.11975042  0.28174520  0.77038575  1
  Fe  Fe5  1  0.67188137  0.21825480  0.72961425  1
  Fe  Fe6  1  0.88024958  0.71825480  0.22961425  1
  Fe  Fe7  1  0.32811863  0.78174520  0.27038575  1
  Fe  Fe8  1  0.29039513  0.21209817  0.49916582  1
  Fe  Fe9  1  0.50165913  0.28790183  0.00083418  1
  Fe  Fe10  1  0.70960487  0.78790183  0.50083418  1
  Fe  Fe11  1  0.49834087  0.71209817  0.99916582  1
  Fe  Fe12  1  0.69787010  0.75000000  0.75000000  1
  Fe  Fe13  1  0.30212990  0.25000000  0.25000000  1
  S  S14  1  0.09606263  0.91303622  0.11761649  1
  S  S15  1  0.62671533  0.58696378  0.38238351  1
  S  S16  1  0.90393737  0.08696378  0.88238351  1
  S  S17  1  0.37328467  0.41303622  0.61761649  1
  S  S18  1  0.91442360  0.58712062  0.89004366  1
  S  S19  1  0.89158788  0.91287938  0.60995634  1
  S  S20  1  0.08557640  0.41287938  0.10995634  1
  S  S21  1  0.10841212  0.08712062  0.39004366  1
  S  S22  1  0.44883431  0.56919496  0.84623744  1
  S  S23  1  0.36426671  0.93080504  0.65376256  1
  S  S24  1  0.55116569  0.43080504  0.15376256  1
  S  S25  1  0.63573329  0.06919496  0.34623744  1
  S  S26  1  0.12361084  0.58346665  0.37066711  1
  S  S27  1  0.57774461  0.91653335  0.12933289  1
  S  S28  1  0.87638916  0.41653335  0.62933289  1
  S  S29  1  0.42225539  0.08346665  0.87066711  1
