# generated using pymatgen
data_CaLa2Ti2Mn2O12
_symmetry_space_group_name_H-M   'P 1'
_cell_length_a   5.42091432
_cell_length_b   5.43912742
_cell_length_c   7.71526476
_cell_angle_alpha   89.81892990
_cell_angle_beta   90.05525829
_cell_angle_gamma   90.44267866
_symmetry_Int_Tables_number   1
_chemical_formula_structural   CaLa2Ti2Mn2O12
_chemical_formula_sum   'Ca1 La2 Ti2 Mn2 O12'
_cell_volume   227.47689225
_cell_formula_units_Z   1
loop_
 _symmetry_equiv_pos_site_id
 _symmetry_equiv_pos_as_xyz
  1  'x, y, z'
loop_
 _atom_site_type_symbol
 _atom_site_label
 _atom_site_symmetry_multiplicity
 _atom_site_fract_x
 _atom_site_fract_y
 _atom_site_fract_z
 _atom_site_occupancy
  Ca  Ca0  1  0.49819313  0.53074676  0.25043055  1
  La  La1  1  0.00631738  0.02786988  0.24971993  1
  La  La2  1  0.50691507  0.47833901  0.75034668  1
  Ti  Ti3  1  0.00069839  0.51122833  0.98685488  1
  Ti  Ti4  1  0.50556064  0.99752240  0.51541011  1
  Mn  Mn5  1  0.00181581  0.50366155  0.49844846  1
  Mn  Mn6  1  0.50278178  0.00302639  0.00069120  1
  O  O7  1  0.05180346  0.51242120  0.74727678  1
  O  O8  1  0.23260922  0.77287644  0.03916558  1
  O  O9  1  0.22772884  0.76826459  0.45949580  1
  O  O10  1  0.28476439  0.27993774  0.03232639  1
  O  O11  1  0.27619257  0.28457720  0.46688122  1
  O  O12  1  0.44983417  0.00061886  0.75293891  1
  O  O13  1  0.55712447  0.99569025  0.24563018  1
  O  O14  1  0.71563473  0.71137069  0.51652545  1
  O  O15  1  0.71162374  0.71799645  0.98306633  1
  O  O16  1  0.77036632  0.23137479  0.52404645  1
  O  O17  1  0.76886922  0.22977302  0.97569511  1
  O  O18  1  0.94125968  0.49056546  0.25401099  1
