# generated using pymatgen
data_CaBiF5
_symmetry_space_group_name_H-M   'P 1'
_cell_length_a   6.02488015
_cell_length_b   8.35788006
_cell_length_c   11.07812339
_cell_angle_alpha   90.00000000
_cell_angle_beta   90.00000000
_cell_angle_gamma   109.83657946
_symmetry_Int_Tables_number   1
_chemical_formula_structural   CaBiF5
_chemical_formula_sum   'Ca4 Bi4 F20'
_cell_volume   524.74150157
_cell_formula_units_Z   4
loop_
 _symmetry_equiv_pos_site_id
 _symmetry_equiv_pos_as_xyz
  1  'x, y, z'
loop_
 _atom_site_type_symbol
 _atom_site_label
 _atom_site_symmetry_multiplicity
 _atom_site_fract_x
 _atom_site_fract_y
 _atom_site_fract_z
 _atom_site_occupancy
  Ca  Ca0  1  0.47708515  0.74853826  0.01167508  1
  Ca  Ca1  1  0.52291485  0.75146174  0.51167508  1
  Ca  Ca2  1  0.52291485  0.25146174  0.98832492  1
  Ca  Ca3  1  0.47708515  0.24853826  0.48832492  1
  Bi  Bi4  1  0.89793567  0.60228698  0.75336987  1
  Bi  Bi5  1  0.10206433  0.89771302  0.25336987  1
  Bi  Bi6  1  0.10206433  0.39771302  0.24663013  1
  Bi  Bi7  1  0.89793567  0.10228698  0.74663013  1
  F  F8  1  0.60043699  0.56694384  0.89252331  1
  F  F9  1  0.39956301  0.93305616  0.39252331  1
  F  F10  1  0.39956301  0.43305616  0.10747669  1
  F  F11  1  0.60043699  0.06694384  0.60747669  1
  F  F12  1  0.62700366  0.48949652  0.60337130  1
  F  F13  1  0.37299634  0.01050348  0.10337130  1
  F  F14  1  0.37299634  0.51050348  0.39662870  1
  F  F15  1  0.62700366  0.98949652  0.89662870  1
  F  F16  1  0.86021770  0.80291087  0.41075067  1
  F  F17  1  0.13978230  0.69708913  0.91075067  1
  F  F18  1  0.13978230  0.19708913  0.58924933  1
  F  F19  1  0.86021770  0.30291087  0.08924933  1
  F  F20  1  0.79311666  0.85232830  0.12858534  1
  F  F21  1  0.20688334  0.64767170  0.62858534  1
  F  F22  1  0.20688334  0.14767170  0.87141466  1
  F  F23  1  0.79311666  0.35232830  0.37141466  1
  F  F24  1  0.80022044  0.82759128  0.67858050  1
  F  F25  1  0.19977956  0.67240872  0.17858050  1
  F  F26  1  0.19977956  0.17240872  0.32141950  1
  F  F27  1  0.80022044  0.32759128  0.82141950  1
