# generated using pymatgen
data_V2O5
_symmetry_space_group_name_H-M   'P 1'
_cell_length_a   5.72129445
_cell_length_b   10.71310363
_cell_length_c   3.32501216
_cell_angle_alpha   90.00000000
_cell_angle_beta   90.00000000
_cell_angle_gamma   90.00000000
_symmetry_Int_Tables_number   1
_chemical_formula_structural   V2O5
_chemical_formula_sum   'V4 O10'
_cell_volume   203.79937295
_cell_formula_units_Z   2
loop_
 _symmetry_equiv_pos_site_id
 _symmetry_equiv_pos_as_xyz
  1  'x, y, z'
loop_
 _atom_site_type_symbol
 _atom_site_label
 _atom_site_symmetry_multiplicity
 _atom_site_fract_x
 _atom_site_fract_y
 _atom_site_fract_z
 _atom_site_occupancy
  V  V0  1  0.70380249  0.37163587  0.00000000  1
  V  V1  1  0.29619751  0.62836413  0.00000000  1
  V  V2  1  0.20380249  0.12836413  0.00000000  1
  V  V3  1  0.79619751  0.87163587  0.00000000  1
  O  O4  1  0.81899207  0.40222466  0.50000000  1
  O  O5  1  0.18100793  0.59777534  0.50000000  1
  O  O6  1  0.31899207  0.09777534  0.50000000  1
  O  O7  1  0.68100793  0.90222466  0.50000000  1
  O  O8  1  0.03070932  0.25184026  0.00000000  1
  O  O9  1  0.96929068  0.74815974  0.00000000  1
  O  O10  1  0.53070932  0.24815974  0.00000000  1
  O  O11  1  0.46929068  0.75184026  0.00000000  1
  O  O12  1  0.50000000  0.50000000  0.00000000  1
  O  O13  1  0.00000000  0.00000000  0.00000000  1
