# generated using pymatgen
data_CaNd2Ti2Mn2O12
_symmetry_space_group_name_H-M   'P 1'
_cell_length_a   5.37214019
_cell_length_b   5.43897474
_cell_length_c   7.67297600
_cell_angle_alpha   90.25462921
_cell_angle_beta   90.07313644
_cell_angle_gamma   89.55979433
_symmetry_Int_Tables_number   1
_chemical_formula_structural   CaNd2Ti2Mn2O12
_chemical_formula_sum   'Ca1 Nd2 Ti2 Mn2 O12'
_cell_volume   224.18718149
_cell_formula_units_Z   1
loop_
 _symmetry_equiv_pos_site_id
 _symmetry_equiv_pos_as_xyz
  1  'x, y, z'
loop_
 _atom_site_type_symbol
 _atom_site_label
 _atom_site_symmetry_multiplicity
 _atom_site_fract_x
 _atom_site_fract_y
 _atom_site_fract_z
 _atom_site_occupancy
  Ca  Ca0  1  0.00373493  0.03692933  0.24962346  1
  Nd  Nd1  1  0.98987892  0.95728825  0.74984630  1
  Nd  Nd2  1  0.48920531  0.54484563  0.25036886  1
  Ti  Ti3  1  0.99337746  0.49130000  0.98389632  1
  Ti  Ti4  1  0.49918766  0.01795254  0.51334637  1
  Mn  Mn5  1  0.99620164  0.50192124  0.49936818  1
  Mn  Mn6  1  0.49756729  0.00542966  0.00111562  1
  O  O7  1  0.05873221  0.50671916  0.74666726  1
  O  O8  1  0.22064479  0.78933591  0.03647536  1
  O  O9  1  0.21156145  0.78353656  0.46383295  1
  O  O10  1  0.28085984  0.27720366  0.04659148  1
  O  O11  1  0.27719240  0.28213468  0.45466582  1
  O  O12  1  0.43420295  0.01521894  0.75269549  1
  O  O13  1  0.56505228  0.98757375  0.24627269  1
  O  O14  1  0.72612770  0.72419799  0.52939467  1
  O  O15  1  0.72496804  0.72626568  0.97167675  1
  O  O16  1  0.79869312  0.20880902  0.52509790  1
  O  O17  1  0.79280737  0.20282395  0.97512929  1
  O  O18  1  0.92956565  0.49089405  0.25423123  1
