# generated using pymatgen
data_Mg(NiO2)2
_symmetry_space_group_name_H-M   'P 1'
_cell_length_a   4.91573103
_cell_length_b   5.74781427
_cell_length_c   10.07850382
_cell_angle_alpha   90.07177948
_cell_angle_beta   90.01778777
_cell_angle_gamma   90.08077221
_symmetry_Int_Tables_number   1
_chemical_formula_structural   Mg(NiO2)2
_chemical_formula_sum   'Mg4 Ni8 O16'
_cell_volume   284.76467220
_cell_formula_units_Z   4
loop_
 _symmetry_equiv_pos_site_id
 _symmetry_equiv_pos_as_xyz
  1  'x, y, z'
loop_
 _atom_site_type_symbol
 _atom_site_label
 _atom_site_symmetry_multiplicity
 _atom_site_fract_x
 _atom_site_fract_y
 _atom_site_fract_z
 _atom_site_occupancy
  Mg  Mg0  1  0.83535700  0.24974426  0.75003090  1
  Mg  Mg1  1  0.16456697  0.75022315  0.25003582  1
  Mg  Mg2  1  0.49861859  0.25022091  0.25001405  1
  Mg  Mg3  1  0.50158291  0.74975335  0.74995016  1
  Ni  Ni4  1  0.51307885  0.75006178  0.48871634  1
  Ni  Ni5  1  0.51319043  0.75022497  0.01125641  1
  Ni  Ni6  1  0.48701383  0.24991204  0.51124563  1
  Ni  Ni7  1  0.48670701  0.24977219  0.98869892  1
  Ni  Ni8  1  -0.00004683  0.50010729  0.49996944  1
  Ni  Ni9  1  0.99987692  0.00017075  0.00000755  1
  Ni  Ni10  1  0.99999521  -0.00012246  0.49994343  1
  Ni  Ni11  1  0.99990877  0.49986952  0.00001861  1
  O  O12  1  0.85784724  0.74946223  0.39937964  1
  O  O13  1  0.85764765  0.75021886  0.10077855  1
  O  O14  1  0.14207566  0.25048579  0.60070336  1
  O  O15  1  0.14190296  0.24981807  0.89935843  1
  O  O16  1  0.20969967  0.74999697  0.60056332  1
  O  O17  1  0.20978068  0.75004983  0.89922225  1
  O  O18  1  0.79068173  0.25003894  0.39926611  1
  O  O19  1  0.79033701  0.24997412  0.10086838  1
  O  O20  1  0.67665975  0.49962592  0.61409522  1
  O  O21  1  0.67675316  0.99866803  0.88616664  1
  O  O22  1  0.32293668  0.00227540  0.38626145  1
  O  O23  1  0.32266634  0.49948927  0.11366836  1
  O  O24  1  0.32354956  0.50052511  0.38593967  1
  O  O25  1  0.32326860  0.00112950  0.11382360  1
  O  O26  1  0.67711632  0.99760348  0.61366519  1
  O  O27  1  0.67722734  0.50070074  0.88635260  1
