# generated using pymatgen
data_Bi3(PO5)2
_symmetry_space_group_name_H-M   'P 1'
_cell_length_a   6.94047735
_cell_length_b   7.77299494
_cell_length_c   9.32508662
_cell_angle_alpha   106.73222734
_cell_angle_beta   92.46844392
_cell_angle_gamma   112.68582606
_symmetry_Int_Tables_number   1
_chemical_formula_structural   Bi3(PO5)2
_chemical_formula_sum   'Bi6 P4 O20'
_cell_volume   437.68675360
_cell_formula_units_Z   2
loop_
 _symmetry_equiv_pos_site_id
 _symmetry_equiv_pos_as_xyz
  1  'x, y, z'
loop_
 _atom_site_type_symbol
 _atom_site_label
 _atom_site_symmetry_multiplicity
 _atom_site_fract_x
 _atom_site_fract_y
 _atom_site_fract_z
 _atom_site_occupancy
  Bi  Bi0  1  0.81652526  0.80202058  0.32130062  1
  Bi  Bi1  1  0.33744711  0.63280363  0.50977888  1
  Bi  Bi2  1  0.43991716  0.29704645  0.08253078  1
  Bi  Bi3  1  0.56008284  0.70295355  0.91746922  1
  Bi  Bi4  1  0.66255289  0.36719637  0.49022112  1
  Bi  Bi5  1  0.18347474  0.19797942  0.67869938  1
  P  P6  1  0.34627388  0.89121245  0.25251506  1
  P  P7  1  0.65372612  0.10878755  0.74748494  1
  P  P8  1  0.95536319  0.23418770  0.23950671  1
  P  P9  1  0.04463681  0.76581230  0.76049329  1
  O  O10  1  0.43771525  0.46771259  0.63208204  1
  O  O11  1  0.13920118  0.99594967  0.82904238  1
  O  O12  1  0.36399349  0.83036539  0.08337358  1
  O  O13  1  0.22260673  0.69026504  0.76224567  1
  O  O14  1  0.51929356  0.87470285  0.35437556  1
  O  O15  1  0.87323928  0.67139102  0.84821508  1
  O  O16  1  0.48070644  0.12529715  0.64562444  1
  O  O17  1  0.04859005  0.29942243  0.41291409  1
  O  O18  1  0.62838002  0.88894971  0.69340401  1
  O  O19  1  0.86079882  0.00405033  0.17095762  1
  O  O20  1  0.77739327  0.30973496  0.23775433  1
  O  O21  1  0.95140995  0.70057757  0.58708591  1
  O  O22  1  0.56228475  0.53228741  0.36791796  1
  O  O23  1  0.87057353  0.24094192  0.71757378  1
  O  O24  1  0.34059596  0.39799750  0.89677122  1
  O  O25  1  0.63600651  0.16963461  0.91662642  1
  O  O26  1  0.65940404  0.60200250  0.10322878  1
  O  O27  1  0.12676072  0.32860898  0.15178492  1
  O  O28  1  0.37161998  0.11104929  0.30659599  1
  O  O29  1  0.12942647  0.75905808  0.28242622  1
