# generated using pymatgen
data_Cd5(S2Cl)2
_symmetry_space_group_name_H-M   'P 1'
_cell_length_a   10.19004504
_cell_length_b   6.73381221
_cell_length_c   14.23453466
_cell_angle_alpha   90.00030846
_cell_angle_beta   134.38415170
_cell_angle_gamma   70.70507536
_symmetry_Int_Tables_number   1
_chemical_formula_structural   Cd5(S2Cl)2
_chemical_formula_sum   'Cd10 S8 Cl4'
_cell_volume   618.95446871
_cell_formula_units_Z   2
loop_
 _symmetry_equiv_pos_site_id
 _symmetry_equiv_pos_as_xyz
  1  'x, y, z'
loop_
 _atom_site_type_symbol
 _atom_site_label
 _atom_site_symmetry_multiplicity
 _atom_site_fract_x
 _atom_site_fract_y
 _atom_site_fract_z
 _atom_site_occupancy
  Cd  Cd0  1  0.00008551  0.00054616  0.75077032  1
  Cd  Cd1  1  0.99991935  0.99946051  0.24922396  1
  Cd  Cd2  1  0.59421712  0.70340410  0.04753125  1
  Cd  Cd3  1  0.40576563  0.29700286  0.45293116  1
  Cd  Cd4  1  0.40578726  0.29661447  0.95246838  1
  Cd  Cd5  1  0.59423367  0.70297335  0.54706577  1
  Cd  Cd6  1  0.19719202  0.20678141  0.59820066  1
  Cd  Cd7  1  0.80280197  0.79323295  0.40179710  1
  Cd  Cd8  1  0.80187728  0.40557058  0.90127792  1
  Cd  Cd9  1  0.19811644  0.59442557  0.09871991  1
  S  S10  1  0.28415721  0.05547813  0.47837140  1
  S  S11  1  0.71615950  0.94462324  0.19487820  1
  S  S12  1  0.71496611  0.34088771  0.02100751  1
  S  S13  1  0.28456873  0.65957534  0.30539532  1
  S  S14  1  0.71584923  0.94449902  0.52163744  1
  S  S15  1  0.28384056  0.05539186  0.80512326  1
  S  S16  1  0.28503111  0.65912291  0.97899447  1
  S  S17  1  0.71543339  0.34041054  0.69460787  1
  Cl  Cl18  1  0.78932759  0.79821416  0.89423851  1
  Cl  Cl19  1  0.21067753  0.20177456  0.10577044  1
  Cl  Cl20  1  0.21133502  0.58610879  0.60592477  1
  Cl  Cl21  1  0.78865978  0.41390277  0.39406539  1
