# generated using pymatgen
data_NdH18C3S3(O2F)9
_symmetry_space_group_name_H-M   'P 1'
_cell_length_a   14.08254247
_cell_length_b   14.08254264
_cell_length_c   7.37334695
_cell_angle_alpha   90.00000000
_cell_angle_beta   90.00000000
_cell_angle_gamma   119.99999962
_symmetry_Int_Tables_number   1
_chemical_formula_structural   NdH18C3S3(O2F)9
_chemical_formula_sum   'Nd2 H36 C6 S6 O36 F18'
_cell_volume   1266.36076851
_cell_formula_units_Z   2
loop_
 _symmetry_equiv_pos_site_id
 _symmetry_equiv_pos_as_xyz
  1  'x, y, z'
loop_
 _atom_site_type_symbol
 _atom_site_label
 _atom_site_symmetry_multiplicity
 _atom_site_fract_x
 _atom_site_fract_y
 _atom_site_fract_z
 _atom_site_occupancy
  Nd  Nd0  1  0.33333300  0.66666700  0.75000000  1
  Nd  Nd1  1  0.66666700  0.33333300  0.25000000  1
  S  S2  1  0.67931419  0.62013805  0.75000000  1
  S  S3  1  0.05917615  0.67931419  0.25000000  1
  S  S4  1  0.62013805  0.94082385  0.25000000  1
  S  S5  1  0.37986195  0.05917615  0.75000000  1
  S  S6  1  0.94082385  0.32068581  0.75000000  1
  S  S7  1  0.32068581  0.37986195  0.25000000  1
  F  F8  1  0.71951722  0.82501912  0.75000000  1
  F  F9  1  0.89449809  0.71951722  0.25000000  1
  F  F10  1  0.82501912  0.10550191  0.25000000  1
  F  F11  1  0.17498088  0.89449809  0.75000000  1
  F  F12  1  0.10550191  0.28048278  0.75000000  1
  F  F13  1  0.28048278  0.17498088  0.25000000  1
  F  F14  1  0.84120852  0.80079833  0.60102784  1
  F  F15  1  0.04041019  0.84120852  0.10102784  1
  F  F16  1  0.80079833  0.95958981  0.10102784  1
  F  F17  1  0.19920167  0.04041019  0.60102784  1
  F  F18  1  0.95958981  0.15879148  0.60102784  1
  F  F19  1  0.15879148  0.19920167  0.10102784  1
  F  F20  1  0.15879148  0.19920167  0.39897216  1
  F  F21  1  0.95958981  0.15879148  0.89897216  1
  F  F22  1  0.19920167  0.04041019  0.89897216  1
  F  F23  1  0.80079833  0.95958981  0.39897216  1
  F  F24  1  0.04041019  0.84120852  0.39897216  1
  F  F25  1  0.84120852  0.80079833  0.89897216  1
  O  O26  1  0.33795038  0.79301100  0.50882855  1
  O  O27  1  0.54493938  0.33795038  0.00882855  1
  O  O28  1  0.79301100  0.45506062  0.00882855  1
  O  O29  1  0.20698900  0.54493938  0.50882855  1
  O  O30  1  0.45506062  0.66204962  0.50882855  1
  O  O31  1  0.66204962  0.20698900  0.00882855  1
  O  O32  1  0.66204962  0.20698900  0.49117145  1
  O  O33  1  0.45506062  0.66204962  0.99117145  1
  O  O34  1  0.20698900  0.54493938  0.99117145  1
  O  O35  1  0.79301100  0.45506062  0.49117145  1
  O  O36  1  0.54493938  0.33795038  0.49117145  1
  O  O37  1  0.33795038  0.79301100  0.99117145  1
  O  O38  1  0.14384626  0.65370444  0.75000000  1
  O  O39  1  0.49014183  0.14384626  0.25000000  1
  O  O40  1  0.65370444  0.50985817  0.25000000  1
  O  O41  1  0.34629556  0.49014183  0.75000000  1
  O  O42  1  0.50985817  0.85615374  0.75000000  1
  O  O43  1  0.85615374  0.34629556  0.25000000  1
  O  O44  1  0.61641916  0.60077266  0.58229602  1
  O  O45  1  0.01564651  0.61641916  0.08229602  1
  O  O46  1  0.60077266  0.98435349  0.08229602  1
  O  O47  1  0.39922734  0.01564651  0.58229602  1
  O  O48  1  0.98435349  0.38358084  0.58229602  1
  O  O49  1  0.38358084  0.39922734  0.08229602  1
  O  O50  1  0.38358084  0.39922734  0.41770398  1
  O  O51  1  0.98435349  0.38358084  0.91770398  1
  O  O52  1  0.39922734  0.01564651  0.91770398  1
  O  O53  1  0.60077266  0.98435349  0.41770398  1
  O  O54  1  0.01564651  0.61641916  0.41770398  1
  O  O55  1  0.61641916  0.60077266  0.91770398  1
  O  O56  1  0.75063868  0.57189470  0.75000000  1
  O  O57  1  0.17874397  0.75063868  0.25000000  1
  O  O58  1  0.57189470  0.82125603  0.25000000  1
  O  O59  1  0.42810530  0.17874397  0.75000000  1
  O  O60  1  0.82125603  0.24936132  0.75000000  1
  O  O61  1  0.24936132  0.42810530  0.25000000  1
  C  C62  1  0.77695387  0.77144275  0.75000000  1
  C  C63  1  0.00551113  0.77695387  0.25000000  1
  C  C64  1  0.77144275  0.99448887  0.25000000  1
  C  C65  1  0.22855725  0.00551113  0.75000000  1
  C  C66  1  0.99448887  0.22304613  0.75000000  1
  C  C67  1  0.22304613  0.22855725  0.25000000  1
  H  H68  1  0.36450691  0.87074282  0.53612299  1
  H  H69  1  0.49376409  0.36450691  0.03612299  1
  H  H70  1  0.87074282  0.50623591  0.03612299  1
  H  H71  1  0.12925718  0.49376409  0.53612299  1
  H  H72  1  0.50623591  0.63549309  0.53612299  1
  H  H73  1  0.63549309  0.12925718  0.03612299  1
  H  H74  1  0.63549309  0.12925718  0.46387701  1
  H  H75  1  0.50623591  0.63549309  0.96387701  1
  H  H76  1  0.12925718  0.49376409  0.96387701  1
  H  H77  1  0.87074282  0.50623591  0.46387701  1
  H  H78  1  0.49376409  0.36450691  0.46387701  1
  H  H79  1  0.36450691  0.87074282  0.96387701  1
  H  H80  1  0.27685661  0.77025251  0.42257291  1
  H  H81  1  0.50660410  0.27685661  0.92257291  1
  H  H82  1  0.77025251  0.49339590  0.92257291  1
  H  H83  1  0.22974749  0.50660410  0.42257291  1
  H  H84  1  0.49339590  0.72314339  0.42257291  1
  H  H85  1  0.72314339  0.22974749  0.92257291  1
  H  H86  1  0.72314339  0.22974749  0.57742709  1
  H  H87  1  0.49339590  0.72314339  0.07742709  1
  H  H88  1  0.22974749  0.50660410  0.07742709  1
  H  H89  1  0.77025251  0.49339590  0.57742709  1
  H  H90  1  0.50660410  0.27685661  0.57742709  1
  H  H91  1  0.27685661  0.77025251  0.07742709  1
  H  H92  1  0.09948549  0.64607365  0.64251602  1
  H  H93  1  0.45341184  0.09948549  0.14251602  1
  H  H94  1  0.64607365  0.54658816  0.14251602  1
  H  H95  1  0.35392635  0.45341184  0.64251602  1
  H  H96  1  0.54658816  0.90051451  0.64251602  1
  H  H97  1  0.90051451  0.35392635  0.14251602  1
  H  H98  1  0.90051451  0.35392635  0.35748398  1
  H  H99  1  0.54658816  0.90051451  0.85748398  1
  H  H100  1  0.35392635  0.45341184  0.85748398  1
  H  H101  1  0.64607365  0.54658816  0.35748398  1
  H  H102  1  0.45341184  0.09948549  0.35748398  1
  H  H103  1  0.09948549  0.64607365  0.85748398  1
