# generated using pymatgen
data_Mg3Ti2O7
_symmetry_space_group_name_H-M   'P 1'
_cell_length_a   5.36285747
_cell_length_b   5.19922819
_cell_length_c   9.31494535
_cell_angle_alpha   106.20529375
_cell_angle_beta   90.00000000
_cell_angle_gamma   90.00000000
_symmetry_Int_Tables_number   1
_chemical_formula_structural   Mg3Ti2O7
_chemical_formula_sum   'Mg6 Ti4 O14'
_cell_volume   249.40655171
_cell_formula_units_Z   2
loop_
 _symmetry_equiv_pos_site_id
 _symmetry_equiv_pos_as_xyz
  1  'x, y, z'
loop_
 _atom_site_type_symbol
 _atom_site_label
 _atom_site_symmetry_multiplicity
 _atom_site_fract_x
 _atom_site_fract_y
 _atom_site_fract_z
 _atom_site_occupancy
  Mg  Mg0  1  0.70436579  0.74634254  1.00000000  1
  Mg  Mg1  1  0.20436579  0.25365746  0.00000000  1
  Mg  Mg2  1  0.81496052  0.57609731  0.61164089  1
  Mg  Mg3  1  0.31496052  0.42390269  0.38835911  1
  Mg  Mg4  1  0.81496052  0.96445541  0.38835911  1
  Mg  Mg5  1  0.31496052  0.03554459  0.61164089  1
  Ti  Ti6  1  0.76418707  0.35295844  0.21102420  1
  Ti  Ti7  1  0.26418707  0.64704156  0.78897580  1
  Ti  Ti8  1  0.26418707  0.85806577  0.21102420  1
  Ti  Ti9  1  0.76418707  0.14193423  0.78897580  1
  O  O10  1  0.69263434  0.93398191  0.58713871  1
  O  O11  1  0.19263434  0.06601809  0.41286129  1
  O  O12  1  0.19263434  0.65315580  0.58713871  1
  O  O13  1  0.69263434  0.34684420  0.41286129  1
  O  O14  1  0.05891255  0.30043169  0.74090486  1
  O  O15  1  0.55891255  0.69956831  0.25909514  1
  O  O16  1  0.55891255  0.44047316  0.74090486  1
  O  O17  1  0.05891255  0.55952684  0.25909514  1
  O  O18  1  0.92372335  0.84652581  0.83978863  1
  O  O19  1  0.42372335  0.15347419  0.16021137  1
  O  O20  1  0.80680052  0.36675004  0.00000000  1
  O  O21  1  0.30680052  0.63324996  1.00000000  1
  O  O22  1  0.92372335  0.00673717  0.16021137  1
  O  O23  1  0.42372335  0.99326283  0.83978863  1
