# generated using pymatgen
data_CaCrAsO5
_symmetry_space_group_name_H-M   'P 1'
_cell_length_a   7.56100826
_cell_length_b   5.99220669
_cell_length_c   8.91824506
_cell_angle_alpha   89.99892598
_cell_angle_beta   89.99371059
_cell_angle_gamma   89.99356413
_symmetry_Int_Tables_number   1
_chemical_formula_structural   CaCrAsO5
_chemical_formula_sum   'Ca4 Cr4 As4 O20'
_cell_volume   404.06003166
_cell_formula_units_Z   4
loop_
 _symmetry_equiv_pos_site_id
 _symmetry_equiv_pos_as_xyz
  1  'x, y, z'
loop_
 _atom_site_type_symbol
 _atom_site_label
 _atom_site_symmetry_multiplicity
 _atom_site_fract_x
 _atom_site_fract_y
 _atom_site_fract_z
 _atom_site_occupancy
  Ca  Ca0  1  0.89885552  0.77720629  0.08005885  1
  Ca  Ca1  1  0.60121967  0.22273262  0.58004896  1
  Ca  Ca2  1  0.39877792  0.72285806  0.91974444  1
  Ca  Ca3  1  0.10127831  0.27705549  0.41999044  1
  Cr  Cr4  1  0.99408689  0.49491635  0.75447126  1
  Cr  Cr5  1  0.50596500  0.50509921  0.25417914  1
  Cr  Cr6  1  0.49428975  0.00501232  0.24586741  1
  Cr  Cr7  1  0.00562506  0.99493116  0.74574395  1
  As  As8  1  0.64277368  0.26912161  0.94122517  1
  As  As9  1  0.85712280  0.73081400  0.44133729  1
  As  As10  1  0.14308477  0.23088503  0.05873138  1
  As  As11  1  0.35713422  0.76906514  0.55887281  1
  O  O12  1  0.82950960  0.24185076  0.82321399  1
  O  O13  1  0.67047633  0.75819693  0.32318079  1
  O  O14  1  0.32982878  0.25812303  0.17671592  1
  O  O15  1  0.17027887  0.74190092  0.67689658  1
  O  O16  1  0.47800189  0.33496184  0.81977580  1
  O  O17  1  0.02205942  0.66518052  0.31975490  1
  O  O18  1  0.97798795  0.16524198  0.18013285  1
  O  O19  1  0.52201884  0.83482778  0.68016812  1
  O  O20  1  0.61634331  0.01813045  0.03432469  1
  O  O21  1  0.88369218  0.98174006  0.53424141  1
  O  O22  1  0.11633049  0.48175780  0.96575891  1
  O  O23  1  0.38383295  0.51827350  0.46564608  1
  O  O24  1  0.65510964  0.49803784  0.05900428  1
  O  O25  1  0.84494705  0.50209450  0.55923246  1
  O  O26  1  0.15504363  0.00210976  0.94075240  1
  O  O27  1  0.34504099  0.99770948  0.44092739  1
  O  O28  1  0.87384412  0.75229105  0.83358770  1
  O  O29  1  0.62569973  0.24780778  0.33345431  1
  O  O30  1  0.37407386  0.74781020  0.16630891  1
  O  O31  1  0.12566477  0.25225853  0.66665140  1
