# generated using pymatgen
data_Mg2CrWO6
_symmetry_space_group_name_H-M   'P 1'
_cell_length_a   5.16892769
_cell_length_b   5.35892999
_cell_length_c   7.61988665
_cell_angle_alpha   90.00000000
_cell_angle_beta   89.98511102
_cell_angle_gamma   90.00000000
_symmetry_Int_Tables_number   1
_chemical_formula_structural   Mg2CrWO6
_chemical_formula_sum   'Mg4 Cr2 W2 O12'
_cell_volume   211.07025569
_cell_formula_units_Z   2
loop_
 _symmetry_equiv_pos_site_id
 _symmetry_equiv_pos_as_xyz
  1  'x, y, z'
loop_
 _atom_site_type_symbol
 _atom_site_label
 _atom_site_symmetry_multiplicity
 _atom_site_fract_x
 _atom_site_fract_y
 _atom_site_fract_z
 _atom_site_occupancy
  Mg  Mg0  1  0.99485397  0.05057922  0.25357684  1
  Mg  Mg1  1  0.50514603  0.55058022  0.24642316  1
  Mg  Mg2  1  0.00514703  0.94942178  0.74642316  1
  Mg  Mg3  1  0.49485297  0.44942078  0.75357684  1
  Cr  Cr4  1  0.50000000  0.00000000  0.00000000  1
  Cr  Cr5  1  0.00000100  0.49999900  0.50000000  1
  W  W6  1  0.50000000  0.00000000  0.49999900  1
  W  W7  1  0.00000000  0.49999900  0.00000000  1
  O  O8  1  0.68002536  0.31619268  0.42476166  1
  O  O9  1  0.81997464  0.81619368  0.07523834  1
  O  O10  1  0.31997364  0.68380732  0.57523834  1
  O  O11  1  0.18002636  0.18380632  0.92476166  1
  O  O12  1  0.18326946  0.17994053  0.56280464  1
  O  O13  1  0.31673054  0.67993953  0.93719536  1
  O  O14  1  0.81673154  0.82005947  0.43719536  1
  O  O15  1  0.68326846  0.32006047  0.06280464  1
  O  O16  1  0.12837938  0.42449987  0.24895971  1
  O  O17  1  0.37162162  0.92450087  0.25103929  1
  O  O18  1  0.62837938  0.07549913  0.74896071  1
  O  O19  1  0.87162162  0.57550013  0.75104029  1
