# generated using pymatgen
data_BaYCuNiO5
_symmetry_space_group_name_H-M   'P 1'
_cell_length_a   3.88584404
_cell_length_b   3.88585215
_cell_length_c   7.55479595
_cell_angle_alpha   90.00011432
_cell_angle_beta   89.99997763
_cell_angle_gamma   90.00002521
_symmetry_Int_Tables_number   1
_chemical_formula_structural   BaYCuNiO5
_chemical_formula_sum   'Ba1 Y1 Cu1 Ni1 O5'
_cell_volume   114.07602436
_cell_formula_units_Z   1
loop_
 _symmetry_equiv_pos_site_id
 _symmetry_equiv_pos_as_xyz
  1  'x, y, z'
loop_
 _atom_site_type_symbol
 _atom_site_label
 _atom_site_symmetry_multiplicity
 _atom_site_fract_x
 _atom_site_fract_y
 _atom_site_fract_z
 _atom_site_occupancy
  Ba  Ba0  1  0.99999937  0.00000033  0.96588630  1
  Y  Y1  1  0.00000070  0.99999906  0.46788289  1
  Cu  Cu2  1  0.49999682  0.50000007  0.23183752  1
  Ni  Ni3  1  0.49999991  0.50000123  0.70119164  1
  O  O4  1  0.00000047  0.50000131  0.65143819  1
  O  O5  1  0.50000017  0.00000062  0.65143836  1
  O  O6  1  0.99999643  0.49999889  0.27788135  1
  O  O7  1  0.49999963  0.00000047  0.27788045  1
  O  O8  1  0.50000150  0.49999303  0.96248030  1
