# generated using pymatgen
data_Ca2AgWO6
_symmetry_space_group_name_H-M   'P 1'
_cell_length_a   5.62703317
_cell_length_b   5.92318537
_cell_length_c   7.91027236
_cell_angle_alpha   90.00000000
_cell_angle_beta   90.51154344
_cell_angle_gamma   90.00000000
_symmetry_Int_Tables_number   1
_chemical_formula_structural   Ca2AgWO6
_chemical_formula_sum   'Ca4 Ag2 W2 O12'
_cell_volume   263.63855767
_cell_formula_units_Z   2
loop_
 _symmetry_equiv_pos_site_id
 _symmetry_equiv_pos_as_xyz
  1  'x, y, z'
loop_
 _atom_site_type_symbol
 _atom_site_label
 _atom_site_symmetry_multiplicity
 _atom_site_fract_x
 _atom_site_fract_y
 _atom_site_fract_z
 _atom_site_occupancy
  Ca  Ca0  1  0.98145937  0.06391831  0.25448412  1
  Ca  Ca1  1  0.51854063  0.56391931  0.24551588  1
  Ca  Ca2  1  0.01854163  0.93608269  0.74551588  1
  Ca  Ca3  1  0.48145837  0.43608169  0.75448412  1
  Ag  Ag4  1  0.50000000  0.00000000  0.00000000  1
  Ag  Ag5  1  0.00000100  0.49999900  0.50000000  1
  W  W6  1  0.50000000  0.00000000  0.49999900  1
  W  W7  1  0.00000000  0.49999900  0.00000000  1
  O  O8  1  0.65898668  0.27304372  0.42666851  1
  O  O9  1  0.84101332  0.77304472  0.07333149  1
  O  O10  1  0.34101232  0.72695628  0.57333149  1
  O  O11  1  0.15898768  0.22695528  0.92666851  1
  O  O12  1  0.21527260  0.17164020  0.55348422  1
  O  O13  1  0.28472740  0.67163920  0.94651578  1
  O  O14  1  0.78472840  0.82835980  0.44651578  1
  O  O15  1  0.71527160  0.32836080  0.05348422  1
  O  O16  1  0.12180891  0.44332741  0.23182420  1
  O  O17  1  0.37819209  0.94332841  0.26817480  1
  O  O18  1  0.62180891  0.05667159  0.73182520  1
  O  O19  1  0.87819209  0.55667259  0.76817580  1
