# generated using pymatgen
data_Li4CO4
_symmetry_space_group_name_H-M   'P 1'
_cell_length_a   4.79411195
_cell_length_b   4.67188728
_cell_length_c   4.77750834
_cell_angle_alpha   119.27131339
_cell_angle_beta   114.86936548
_cell_angle_gamma   89.99985077
_symmetry_Int_Tables_number   1
_chemical_formula_structural   Li4CO4
_chemical_formula_sum   'Li4 C1 O4'
_cell_volume   81.77762356
_cell_formula_units_Z   1
loop_
 _symmetry_equiv_pos_site_id
 _symmetry_equiv_pos_as_xyz
  1  'x, y, z'
loop_
 _atom_site_type_symbol
 _atom_site_label
 _atom_site_symmetry_multiplicity
 _atom_site_fract_x
 _atom_site_fract_y
 _atom_site_fract_z
 _atom_site_occupancy
  O  O0  1  0.10494862  0.84583753  0.79996424  1
  C  C1  1  1.00000036  0.77458196  1.00000089  1
  Li  Li2  1  0.10062169  0.23469271  0.74708845  1
  Li  Li3  1  0.46016814  0.75035260  0.69015366  1
  Li  Li4  1  0.89937714  0.48760040  0.25290317  1
  O  O5  1  0.25654420  0.70802249  0.23272663  1
  O  O6  1  0.74345882  0.47529560  0.76727980  1
  Li  Li7  1  0.53983232  0.06020266  0.30984983  1
  O  O8  1  0.89504872  0.04587404  0.20003332  1
