# generated using pymatgen
data_Te2Mo3W(SeS2)2
_symmetry_space_group_name_H-M   'P 1'
_cell_length_a   3.30704610
_cell_length_b   3.30702472
_cell_length_c   39.12708292
_cell_angle_alpha   89.99980703
_cell_angle_beta   90.00000000
_cell_angle_gamma   120.00021383
_symmetry_Int_Tables_number   1
_chemical_formula_structural   Te2Mo3W(SeS2)2
_chemical_formula_sum   'Te2 Mo3 W1 Se2 S4'
_cell_volume   370.58245776
_cell_formula_units_Z   1
loop_
 _symmetry_equiv_pos_site_id
 _symmetry_equiv_pos_as_xyz
  1  'x, y, z'
loop_
 _atom_site_type_symbol
 _atom_site_label
 _atom_site_symmetry_multiplicity
 _atom_site_fract_x
 _atom_site_fract_y
 _atom_site_fract_z
 _atom_site_occupancy
  Te  Te0  1  0.33332089  0.66664278  0.32988239  1
  Te  Te1  1  0.33333390  0.66666880  0.23209043  1
  Mo  Mo2  1  0.33325223  0.66650446  0.09348736  1
  Mo  Mo3  1  0.66665748  0.33331495  0.28097281  1
  Mo  Mo4  1  0.66670894  0.33341788  0.65756971  1
  W  W5  1  0.33337059  0.66674118  0.47086135  1
  Se  Se6  1  0.66675954  0.33351808  0.42774649  1
  Se  Se7  1  0.66669486  0.33338871  0.51400307  1
  S  S8  1  0.33338720  0.66677540  0.69663532  1
  S  S9  1  0.66658735  0.33317371  0.05446147  1
  S  S10  1  0.66655187  0.33310275  0.13250911  1
  S  S11  1  0.33337515  0.66675129  0.61852849  1
