# generated using pymatgen
data_Te2MoWSe2
_symmetry_space_group_name_H-M   'P 1'
_cell_length_a   3.44183541
_cell_length_b   3.44181151
_cell_length_c   24.42894476
_cell_angle_alpha   89.99988307
_cell_angle_beta   90.00000000
_cell_angle_gamma   120.00022958
_symmetry_Int_Tables_number   1
_chemical_formula_structural   Te2MoWSe2
_chemical_formula_sum   'Te2 Mo1 W1 Se2'
_cell_volume   250.61757063
_cell_formula_units_Z   1
loop_
 _symmetry_equiv_pos_site_id
 _symmetry_equiv_pos_as_xyz
  1  'x, y, z'
loop_
 _atom_site_type_symbol
 _atom_site_label
 _atom_site_symmetry_multiplicity
 _atom_site_fract_x
 _atom_site_fract_y
 _atom_site_fract_z
 _atom_site_occupancy
  Te  Te0  1  0.66664746  0.33329392  0.07414638  1
  Te  Te1  1  0.66664615  0.33329130  0.22678770  1
  Mo  Mo2  1  0.66668987  0.33337974  0.45143065  1
  W  W3  1  0.33330882  0.66661764  0.15045371  1
  Se  Se4  1  0.33335386  0.66670871  0.51835114  1
  Se  Se5  1  0.33335384  0.66670869  0.38443442  1
