# generated using pymatgen
data_Te2Mo3W(SeS2)2
_symmetry_space_group_name_H-M   'P 1'
_cell_length_a   3.30907060
_cell_length_b   3.30901147
_cell_length_c   39.43947426
_cell_angle_alpha   89.99950481
_cell_angle_beta   90.00000000
_cell_angle_gamma   120.00059107
_symmetry_Int_Tables_number   1
_chemical_formula_structural   Te2Mo3W(SeS2)2
_chemical_formula_sum   'Te2 Mo3 W1 Se2 S4'
_cell_volume   373.99299534
_cell_formula_units_Z   1
loop_
 _symmetry_equiv_pos_site_id
 _symmetry_equiv_pos_as_xyz
  1  'x, y, z'
loop_
 _atom_site_type_symbol
 _atom_site_label
 _atom_site_symmetry_multiplicity
 _atom_site_fract_x
 _atom_site_fract_y
 _atom_site_fract_z
 _atom_site_occupancy
  Te  Te0  1  0.66660657  0.33321213  0.42000428  1
  Te  Te1  1  0.66663348  0.33326596  0.51706528  1
  Mo  Mo2  1  0.33334923  0.66669846  0.09390639  1
  Mo  Mo3  1  0.33329010  0.66658019  0.46851567  1
  Mo  Mo4  1  0.66669019  0.33338038  0.28137713  1
  W  W5  1  0.66663132  0.33326263  0.65908024  1
  Se  Se6  1  0.33331967  0.66664034  0.70183885  1
  Se  Se7  1  0.33331502  0.66663104  0.61626779  1
  S  S8  1  0.33342196  0.66684492  0.32015081  1
  S  S9  1  0.66667944  0.33335787  0.05516865  1
  S  S10  1  0.66666563  0.33333026  0.13266939  1
  S  S11  1  0.33339741  0.66679581  0.24270352  1
