# generated using pymatgen
data_Te4MoW3(SeS)2
_symmetry_space_group_name_H-M   'P 1'
_cell_length_a   3.39562931
_cell_length_b   3.39562081
_cell_length_c   38.75713822
_cell_angle_alpha   90.00039595
_cell_angle_beta   90.00000000
_cell_angle_gamma   120.00008273
_symmetry_Int_Tables_number   1
_chemical_formula_structural   Te4MoW3(SeS)2
_chemical_formula_sum   'Te4 Mo1 W3 Se2 S2'
_cell_volume   387.00932662
_cell_formula_units_Z   1
loop_
 _symmetry_equiv_pos_site_id
 _symmetry_equiv_pos_as_xyz
  1  'x, y, z'
loop_
 _atom_site_type_symbol
 _atom_site_label
 _atom_site_symmetry_multiplicity
 _atom_site_fract_x
 _atom_site_fract_y
 _atom_site_fract_z
 _atom_site_occupancy
  Te  Te0  1  0.33335658  0.66671416  0.33013528  1
  Te  Te1  1  0.33335067  0.66670235  0.70615072  1
  Te  Te2  1  0.33335226  0.66670552  0.23350856  1
  Te  Te3  1  0.33336475  0.66673050  0.60890890  1
  Mo  Mo4  1  0.66669585  0.33339170  0.28180813  1
  W  W5  1  0.33329939  0.66659878  0.09389807  1
  W  W6  1  0.33329690  0.66659380  0.46964380  1
  W  W7  1  0.66669099  0.33338198  0.65754043  1
  Se  Se8  1  0.66664102  0.33328104  0.05119141  1
  Se  Se9  1  0.66664648  0.33329197  0.13664108  1
  S  S10  1  0.66665326  0.33330553  0.43081148  1
  S  S11  1  0.66665185  0.33330269  0.50851015  1
