# generated using pymatgen
data_Te2MoWSe2
_symmetry_space_group_name_H-M   'P 1'
_cell_length_a   3.44284156
_cell_length_b   3.44282001
_cell_length_c   39.12330779
_cell_angle_alpha   90.00064977
_cell_angle_beta   90.00000000
_cell_angle_gamma   120.00020705
_symmetry_Int_Tables_number   1
_chemical_formula_structural   Te2MoWSe2
_chemical_formula_sum   'Te4 Mo2 W2 Se4'
_cell_volume   401.60272172
_cell_formula_units_Z   2
loop_
 _symmetry_equiv_pos_site_id
 _symmetry_equiv_pos_as_xyz
  1  'x, y, z'
loop_
 _atom_site_type_symbol
 _atom_site_label
 _atom_site_symmetry_multiplicity
 _atom_site_fract_x
 _atom_site_fract_y
 _atom_site_fract_z
 _atom_site_occupancy
  Te  Te0  1  0.33336050  0.66672200  0.70517389  1
  Te  Te1  1  0.66663950  0.33327800  0.04628411  1
  Te  Te2  1  0.66664437  0.33328775  0.14157670  1
  Te  Te3  1  0.33335563  0.66671225  0.60988130  1
  Mo  Mo4  1  0.33331262  0.66662524  0.46965001  1
  Mo  Mo5  1  0.66668738  0.33337476  0.28180799  1
  W  W6  1  0.33330949  0.66661898  0.09392885  1
  W  W7  1  0.66669051  0.33338102  0.65752915  1
  Se  Se8  1  0.33335389  0.66670878  0.32358068  1
  Se  Se9  1  0.66664611  0.33329122  0.42787732  1
  Se  Se10  1  0.66664865  0.33329630  0.51145438  1
  Se  Se11  1  0.33335135  0.66670370  0.24000362  1
