# generated using pymatgen
data_ZrFeF6
_symmetry_space_group_name_H-M   'P 1'
_cell_length_a   5.80798190
_cell_length_b   5.80798218
_cell_length_c   5.80798241
_cell_angle_alpha   60.00000434
_cell_angle_beta   60.00000274
_cell_angle_gamma   60.00000010
_symmetry_Int_Tables_number   1
_chemical_formula_structural   ZrFeF6
_chemical_formula_sum   'Zr1 Fe1 F6'
_cell_volume   138.53542705
_cell_formula_units_Z   1
loop_
 _symmetry_equiv_pos_site_id
 _symmetry_equiv_pos_as_xyz
  1  'x, y, z'
loop_
 _atom_site_type_symbol
 _atom_site_label
 _atom_site_symmetry_multiplicity
 _atom_site_fract_x
 _atom_site_fract_y
 _atom_site_fract_z
 _atom_site_occupancy
  Zr  Zr0  1  0.50000000  0.50000000  0.50000000  1
  Fe  Fe1  1  0.00000000  0.00000000  0.00000000  1
  F  F2  1  0.25039167  0.74960833  0.74960833  1
  F  F3  1  0.25039167  0.74960833  0.25039167  1
  F  F4  1  0.74960833  0.25039167  0.25039167  1
  F  F5  1  0.74960833  0.74960833  0.25039167  1
  F  F6  1  0.25039167  0.25039167  0.74960833  1
  F  F7  1  0.74960833  0.25039167  0.74960833  1
