# generated using pymatgen
data_Te4MoW3(SeS)2
_symmetry_space_group_name_H-M   'P 1'
_cell_length_a   3.39414877
_cell_length_b   3.39437742
_cell_length_c   38.75347986
_cell_angle_alpha   90.00000886
_cell_angle_beta   90.00000000
_cell_angle_gamma   119.99777187
_symmetry_Int_Tables_number   1
_chemical_formula_structural   Te4MoW3(SeS)2
_chemical_formula_sum   'Te4 Mo1 W3 Se2 S2'
_cell_volume   386.67143603
_cell_formula_units_Z   1
loop_
 _symmetry_equiv_pos_site_id
 _symmetry_equiv_pos_as_xyz
  1  'x, y, z'
loop_
 _atom_site_type_symbol
 _atom_site_label
 _atom_site_symmetry_multiplicity
 _atom_site_fract_x
 _atom_site_fract_y
 _atom_site_fract_z
 _atom_site_occupancy
  Te  Te0  1  0.33335332  0.66670765  0.70617632  1
  Te  Te1  1  0.66663912  0.33327723  0.04563754  1
  Te  Te2  1  0.66664740  0.33329381  0.14223399  1
  Te  Te3  1  0.33337237  0.66674574  0.60889468  1
  Mo  Mo4  1  0.33330821  0.66661643  0.09390530  1
  W  W5  1  0.33331235  0.66662471  0.46964174  1
  W  W6  1  0.66670782  0.33341565  0.28178964  1
  W  W7  1  0.66668876  0.33337753  0.65756798  1
  Se  Se8  1  0.66664893  0.33329686  0.42696805  1
  Se  Se9  1  0.66664978  0.33329855  0.51233178  1
  S  S10  1  0.33333587  0.66667274  0.32066815  1
  S  S11  1  0.33333605  0.66667311  0.24293283  1
