# generated using pymatgen
data_Te2MoWSe2
_symmetry_space_group_name_H-M   'P 1'
_cell_length_a   3.44352545
_cell_length_b   3.44348083
_cell_length_c   39.14183509
_cell_angle_alpha   89.99979969
_cell_angle_beta   90.00000000
_cell_angle_gamma   120.00042853
_symmetry_Int_Tables_number   1
_chemical_formula_structural   Te2MoWSe2
_chemical_formula_sum   'Te4 Mo2 W2 Se4'
_cell_volume   401.94895696
_cell_formula_units_Z   2
loop_
 _symmetry_equiv_pos_site_id
 _symmetry_equiv_pos_as_xyz
  1  'x, y, z'
loop_
 _atom_site_type_symbol
 _atom_site_label
 _atom_site_symmetry_multiplicity
 _atom_site_fract_x
 _atom_site_fract_y
 _atom_site_fract_z
 _atom_site_occupancy
  Te  Te0  1  0.33335428  0.66670957  0.32939528  1
  Te  Te1  1  0.66664572  0.33329043  0.42206272  1
  Te  Te2  1  0.66664565  0.33329030  0.51730459  1
  Te  Te3  1  0.33335435  0.66670970  0.23415341  1
  Mo  Mo4  1  0.33330735  0.66661470  0.09391303  1
  Mo  Mo5  1  0.66669265  0.33338530  0.65754497  1
  W  W6  1  0.33330934  0.66661868  0.46969023  1
  W  W7  1  0.66669066  0.33338132  0.28176777  1
  Se  Se8  1  0.33336135  0.66672370  0.69932370  1
  Se  Se9  1  0.66663865  0.33327630  0.05213430  1
  Se  Se10  1  0.66664119  0.33328138  0.13572760  1
  Se  Se11  1  0.33335881  0.66671862  0.61573040  1
