# generated using pymatgen
data_Te4MoW3(SeS)2
_symmetry_space_group_name_H-M   'P 1'
_cell_length_a   3.39558852
_cell_length_b   3.39560742
_cell_length_c   38.88356880
_cell_angle_alpha   90.00015199
_cell_angle_beta   89.99999588
_cell_angle_gamma   119.99987156
_symmetry_Int_Tables_number   1
_chemical_formula_structural   Te4MoW3(SeS)2
_chemical_formula_sum   'Te4 Mo1 W3 Se2 S2'
_cell_volume   388.26643042
_cell_formula_units_Z   1
loop_
 _symmetry_equiv_pos_site_id
 _symmetry_equiv_pos_as_xyz
  1  'x, y, z'
loop_
 _atom_site_type_symbol
 _atom_site_label
 _atom_site_symmetry_multiplicity
 _atom_site_fract_x
 _atom_site_fract_y
 _atom_site_fract_z
 _atom_site_occupancy
  Te  Te0  1  0.33336058  0.66672200  0.70613282  1
  Te  Te1  1  0.66664934  0.33329395  0.42130674  1
  Te  Te2  1  0.66665413  0.33330817  0.51771926  1
  Te  Te3  1  0.33334899  0.66669900  0.60919354  1
  Mo  Mo4  1  0.33331724  0.66663371  0.46951637  1
  W  W5  1  0.33330479  0.66660913  0.09391863  1
  W  W6  1  0.66668902  0.33337921  0.28180534  1
  W  W7  1  0.66668967  0.33338053  0.65769318  1
  Se  Se8  1  0.66664100  0.33328204  0.05128839  1
  Se  Se9  1  0.66663367  0.33326727  0.13655244  1
  S  S10  1  0.33335920  0.66671929  0.32059085  1
  S  S11  1  0.33335237  0.66670570  0.24303045  1
