# generated using pymatgen
data_Te4MoW3(SeS)2
_symmetry_space_group_name_H-M   'P 1'
_cell_length_a   3.39629094
_cell_length_b   3.39631822
_cell_length_c   38.74608824
_cell_angle_alpha   90.00069564
_cell_angle_beta   89.99999860
_cell_angle_gamma   119.99975474
_symmetry_Int_Tables_number   1
_chemical_formula_structural   Te4MoW3(SeS)2
_chemical_formula_sum   'Te4 Mo1 W3 Se2 S2'
_cell_volume   387.05513132
_cell_formula_units_Z   1
loop_
 _symmetry_equiv_pos_site_id
 _symmetry_equiv_pos_as_xyz
  1  'x, y, z'
loop_
 _atom_site_type_symbol
 _atom_site_label
 _atom_site_symmetry_multiplicity
 _atom_site_fract_x
 _atom_site_fract_y
 _atom_site_fract_z
 _atom_site_occupancy
  Te  Te0  1  0.33336662  0.66673370  0.70619700  1
  Te  Te1  1  0.66663699  0.33327355  0.04552331  1
  Te  Te2  1  0.66664773  0.33329514  0.14229017  1
  Te  Te3  1  0.33335285  0.66670608  0.60885851  1
  Mo  Mo4  1  0.33330828  0.66661580  0.09389731  1
  W  W5  1  0.33329386  0.66658790  0.46965341  1
  W  W6  1  0.66669290  0.33338685  0.28183729  1
  W  W7  1  0.66669254  0.33338608  0.65755021  1
  Se  Se8  1  0.33335893  0.66671818  0.32459634  1
  Se  Se9  1  0.33335174  0.66670387  0.23903737  1
  S  S10  1  0.66664315  0.33328518  0.43076152  1
  S  S11  1  0.66665440  0.33330766  0.50854557  1
