# generated using pymatgen
data_ZnGeN2
_symmetry_space_group_name_H-M   'P 1'
_cell_length_a   5.54989865
_cell_length_b   6.44915010
_cell_length_c   5.52410229
_cell_angle_alpha   90.00000000
_cell_angle_beta   91.30255075
_cell_angle_gamma   90.00000000
_symmetry_Int_Tables_number   1
_chemical_formula_structural   ZnGeN2
_chemical_formula_sum   'Zn4 Ge4 N8'
_cell_volume   197.66829284
_cell_formula_units_Z   4
loop_
 _symmetry_equiv_pos_site_id
 _symmetry_equiv_pos_as_xyz
  1  'x, y, z'
loop_
 _atom_site_type_symbol
 _atom_site_label
 _atom_site_symmetry_multiplicity
 _atom_site_fract_x
 _atom_site_fract_y
 _atom_site_fract_z
 _atom_site_occupancy
  Zn  Zn0  1  0.32408063  0.86721053  0.59413149  1
  Zn  Zn1  1  0.67591937  0.36721053  0.90586851  1
  Zn  Zn2  1  0.67591937  0.13278947  0.40586851  1
  Zn  Zn3  1  0.32408063  0.63278947  0.09413149  1
  Ge  Ge4  1  0.16749004  0.36268986  0.58429756  1
  Ge  Ge5  1  0.83250996  0.86268986  0.91570244  1
  Ge  Ge6  1  0.83250996  0.63731014  0.41570244  1
  Ge  Ge7  1  0.16749004  0.13731014  0.08429756  1
  N  N8  1  0.17805291  0.87818864  0.92355529  1
  N  N9  1  0.82194709  0.37818864  0.57644471  1
  N  N10  1  0.82194709  0.12181136  0.07644471  1
  N  N11  1  0.17805291  0.62181136  0.42355529  1
  N  N12  1  0.29740479  0.35285688  0.89897181  1
  N  N13  1  0.70259521  0.85285688  0.60102819  1
  N  N14  1  0.70259521  0.64714312  0.10102819  1
  N  N15  1  0.29740479  0.14714312  0.39897181  1
