# generated using pymatgen
data_Te4MoW3(SeS)2
_symmetry_space_group_name_H-M   'P 1'
_cell_length_a   3.39530331
_cell_length_b   3.39530522
_cell_length_c   38.74318043
_cell_angle_alpha   90.00001314
_cell_angle_beta   90.00000000
_cell_angle_gamma   119.99998128
_symmetry_Int_Tables_number   1
_chemical_formula_structural   Te4MoW3(SeS)2
_chemical_formula_sum   'Te4 Mo1 W3 Se2 S2'
_cell_volume   386.79725282
_cell_formula_units_Z   1
loop_
 _symmetry_equiv_pos_site_id
 _symmetry_equiv_pos_as_xyz
  1  'x, y, z'
loop_
 _atom_site_type_symbol
 _atom_site_label
 _atom_site_symmetry_multiplicity
 _atom_site_fract_x
 _atom_site_fract_y
 _atom_site_fract_z
 _atom_site_occupancy
  Te  Te0  1  0.33336588  0.66673276  0.33008724  1
  Te  Te1  1  0.33336930  0.66673961  0.70619585  1
  Te  Te2  1  0.33334851  0.66669802  0.23344912  1
  Te  Te3  1  0.33335975  0.66672051  0.60888543  1
  Mo  Mo4  1  0.66668668  0.33337335  0.28180243  1
  W  W5  1  0.33330791  0.66661582  0.09393537  1
  W  W6  1  0.33330741  0.66661482  0.46966721  1
  W  W7  1  0.66668831  0.33337662  0.65755376  1
  Se  Se8  1  0.66664086  0.33328072  0.42693603  1
  Se  Se9  1  0.66664043  0.33327985  0.51236974  1
  S  S10  1  0.66664402  0.33328704  0.05501248  1
  S  S11  1  0.66664094  0.33328088  0.13285334  1
