# generated using pymatgen
data_Te4MoW3(SeS)2
_symmetry_space_group_name_H-M   'P 1'
_cell_length_a   3.39450691
_cell_length_b   3.39451218
_cell_length_c   38.85209725
_cell_angle_alpha   90.00003786
_cell_angle_beta   90.00000000
_cell_angle_gamma   119.99994859
_symmetry_Int_Tables_number   1
_chemical_formula_structural   Te4MoW3(SeS)2
_chemical_formula_sum   'Te4 Mo1 W3 Se2 S2'
_cell_volume   387.70320538
_cell_formula_units_Z   1
loop_
 _symmetry_equiv_pos_site_id
 _symmetry_equiv_pos_as_xyz
  1  'x, y, z'
loop_
 _atom_site_type_symbol
 _atom_site_label
 _atom_site_symmetry_multiplicity
 _atom_site_fract_x
 _atom_site_fract_y
 _atom_site_fract_z
 _atom_site_occupancy
  Te  Te0  1  0.33335196  0.66670492  0.33024865  1
  Te  Te1  1  0.66664805  0.33329510  0.42150301  1
  Te  Te2  1  0.66665023  0.33329946  0.51791622  1
  Te  Te3  1  0.33335899  0.66671898  0.23320983  1
  Mo  Mo4  1  0.33331232  0.66662465  0.46970871  1
  W  W5  1  0.33331048  0.66662096  0.09394533  1
  W  W6  1  0.66668845  0.33337690  0.28173110  1
  W  W7  1  0.66669068  0.33338137  0.65754242  1
  Se  Se8  1  0.33335092  0.66670283  0.70019524  1
  Se  Se9  1  0.33335270  0.66670640  0.61489401  1
  S  S10  1  0.66664647  0.33329194  0.05512784  1
  S  S11  1  0.66663875  0.33327649  0.13272563  1
