# generated using pymatgen
data_Te4MoW3(SeS)2
_symmetry_space_group_name_H-M   'P 1'
_cell_length_a   3.39579789
_cell_length_b   3.39580597
_cell_length_c   38.77738743
_cell_angle_alpha   90.00053674
_cell_angle_beta   90.00000000
_cell_angle_gamma   119.99992135
_symmetry_Int_Tables_number   1
_chemical_formula_structural   Te4MoW3(SeS)2
_chemical_formula_sum   'Te4 Mo1 W3 Se2 S2'
_cell_volume   387.25249429
_cell_formula_units_Z   1
loop_
 _symmetry_equiv_pos_site_id
 _symmetry_equiv_pos_as_xyz
  1  'x, y, z'
loop_
 _atom_site_type_symbol
 _atom_site_label
 _atom_site_symmetry_multiplicity
 _atom_site_fract_x
 _atom_site_fract_y
 _atom_site_fract_z
 _atom_site_occupancy
  Te  Te0  1  0.66664400  0.33328700  0.04557764  1
  Te  Te1  1  0.66664761  0.33329422  0.42105668  1
  Te  Te2  1  0.66664933  0.33329766  0.14229107  1
  Te  Te3  1  0.66664343  0.33328586  0.51822023  1
  Mo  Mo4  1  0.33330567  0.66661135  0.09389769  1
  W  W5  1  0.33331224  0.66662449  0.46961224  1
  W  W6  1  0.66669225  0.33338450  0.28178108  1
  W  W7  1  0.66668948  0.33337896  0.65758004  1
  Se  Se8  1  0.33335214  0.66670529  0.70032689  1
  Se  Se9  1  0.33334886  0.66669872  0.61482243  1
  S  S10  1  0.33336219  0.66672538  0.32061420  1
  S  S11  1  0.33335279  0.66670658  0.24296782  1
