# generated using pymatgen
data_Li4CO4
_symmetry_space_group_name_H-M   'P 1'
_cell_length_a   5.16204928
_cell_length_b   5.16204873
_cell_length_c   5.86993375
_cell_angle_alpha   90.00000000
_cell_angle_beta   90.00000000
_cell_angle_gamma   89.44648416
_symmetry_Int_Tables_number   1
_chemical_formula_structural   Li4CO4
_chemical_formula_sum   'Li8 C2 O8'
_cell_volume   156.40735779
_cell_formula_units_Z   2
loop_
 _symmetry_equiv_pos_site_id
 _symmetry_equiv_pos_as_xyz
  1  'x, y, z'
loop_
 _atom_site_type_symbol
 _atom_site_label
 _atom_site_symmetry_multiplicity
 _atom_site_fract_x
 _atom_site_fract_y
 _atom_site_fract_z
 _atom_site_occupancy
  Li  Li0  1  0.10814131  0.43549918  0.03987493  1
  Li  Li1  1  0.43549918  0.10814131  0.53987493  1
  Li  Li2  1  0.89185869  0.56450082  0.53987493  1
  Li  Li3  1  0.41997699  0.58002301  0.40091138  1
  Li  Li4  1  0.04474064  0.95525936  0.24173620  1
  Li  Li5  1  0.58002301  0.41997699  0.90091138  1
  Li  Li6  1  0.56450082  0.89185869  0.03987493  1
  Li  Li7  1  0.95525936  0.04474064  0.74173620  1
  C  C8  1  0.30542461  0.69457539  0.73735490  1
  C  C9  1  0.69457539  0.30542461  0.23735490  1
  O  O10  1  0.57743650  0.73922664  0.71842403  1
  O  O11  1  0.73922664  0.57743650  0.21842403  1
  O  O12  1  0.42256350  0.26077336  0.21842403  1
  O  O13  1  0.26077336  0.42256350  0.71842403  1
  O  O14  1  0.17993612  0.82006388  0.54725887  1
  O  O15  1  0.82006388  0.17993612  0.04725887  1
  O  O16  1  0.78972985  0.21027015  0.44156072  1
  O  O17  1  0.21027015  0.78972985  0.94156072  1
