# generated using pymatgen
data_NaH12C4S2BrO2
_symmetry_space_group_name_H-M   'P 1'
_cell_length_a   6.57410562
_cell_length_b   10.13516277
_cell_length_c   16.76835560
_cell_angle_alpha   90.00000000
_cell_angle_beta   93.86030757
_cell_angle_gamma   90.00000000
_symmetry_Int_Tables_number   1
_chemical_formula_structural   NaH12C4S2BrO2
_chemical_formula_sum   'Na4 H48 C16 S8 Br4 O8'
_cell_volume   1114.73443087
_cell_formula_units_Z   4
loop_
 _symmetry_equiv_pos_site_id
 _symmetry_equiv_pos_as_xyz
  1  'x, y, z'
loop_
 _atom_site_type_symbol
 _atom_site_label
 _atom_site_symmetry_multiplicity
 _atom_site_fract_x
 _atom_site_fract_y
 _atom_site_fract_z
 _atom_site_occupancy
  Na  Na0  1  0.25512999  0.57028438  0.02887999  1
  Na  Na1  1  0.74487001  0.42971562  0.97112001  1
  Na  Na2  1  0.74487001  0.07028438  0.47112001  1
  Na  Na3  1  0.25512999  0.92971562  0.52887999  1
  H  H4  1  0.24483682  0.38699029  0.23099300  1
  H  H5  1  0.72063791  0.93899481  0.75773685  1
  H  H6  1  0.19540930  0.56260559  0.22429104  1
  H  H7  1  0.63526371  0.91676893  0.65464578  1
  H  H8  1  0.33771143  0.63571656  0.45964441  1
  H  H9  1  0.33961955  0.16057747  0.95526133  1
  H  H10  1  0.86586455  0.83550935  0.69324040  1
  H  H11  1  0.33771143  0.86428344  0.95964441  1
  H  H12  1  0.80459070  0.06260559  0.27570896  1
  H  H13  1  0.80926800  0.57456374  0.47325543  1
  H  H14  1  0.69278233  0.17747357  0.14582228  1
  H  H15  1  0.27936209  0.06100519  0.24226315  1
  H  H16  1  0.80926800  0.92543626  0.97325543  1
  H  H17  1  0.75516318  0.61300971  0.76900700  1
  H  H18  1  0.24483682  0.11300971  0.73099300  1
  H  H19  1  0.66228857  0.13571656  0.04035559  1
  H  H20  1  0.36473629  0.41676893  0.84535422  1
  H  H21  1  0.75516318  0.88699029  0.26900700  1
  H  H22  1  0.89493745  0.76891800  0.01338736  1
  H  H23  1  0.86586455  0.66449065  0.19324040  1
  H  H24  1  0.33961955  0.33942253  0.45526133  1
  H  H25  1  0.19073200  0.07456374  0.02674457  1
  H  H26  1  0.72063791  0.56100519  0.25773685  1
  H  H27  1  0.91877492  0.96148893  0.20041706  1
  H  H28  1  0.52783985  0.04244210  0.11313841  1
  H  H29  1  0.66038045  0.66057747  0.54473867  1
  H  H30  1  0.13413545  0.33550935  0.80675960  1
  H  H31  1  0.19073200  0.42543626  0.52674457  1
  H  H32  1  0.52783985  0.45755790  0.61313841  1
  H  H33  1  0.69278233  0.32252643  0.64582228  1
  H  H34  1  0.08122508  0.46148893  0.29958294  1
  H  H35  1  0.08122508  0.03851107  0.79958294  1
  H  H36  1  0.91877492  0.53851107  0.70041706  1
  H  H37  1  0.10506255  0.26891800  0.48661264  1
  H  H38  1  0.36473629  0.08323107  0.34535422  1
  H  H39  1  0.63526371  0.58323107  0.15464578  1
  H  H40  1  0.13413545  0.16449065  0.30675960  1
  H  H41  1  0.47216015  0.95755790  0.88686159  1
  H  H42  1  0.30721767  0.82252643  0.85417772  1
  H  H43  1  0.27936209  0.43899481  0.74226315  1
  H  H44  1  0.10506255  0.23108200  0.98661264  1
  H  H45  1  0.66228857  0.36428344  0.54035559  1
  H  H46  1  0.89493745  0.73108200  0.51338736  1
  H  H47  1  0.66038045  0.83942253  0.04473867  1
  H  H48  1  0.19540930  0.93739441  0.72429104  1
  H  H49  1  0.80459070  0.43739441  0.77570896  1
  H  H50  1  0.30721767  0.67747357  0.35417772  1
  H  H51  1  0.47216015  0.54244210  0.38686159  1
  C  C52  1  0.76088277  0.67111280  0.49529829  1
  C  C53  1  0.76918300  0.92333072  0.69705897  1
  C  C54  1  0.23081700  0.07666928  0.30294103  1
  C  C55  1  0.23911723  0.32888720  0.50470171  1
  C  C56  1  0.86704774  0.53460070  0.76132824  1
  C  C57  1  0.23911723  0.17111280  0.00470171  1
  C  C58  1  0.86704774  0.96539930  0.26132824  1
  C  C59  1  0.23081700  0.42333072  0.80294103  1
  C  C60  1  0.13295226  0.46539930  0.23867176  1
  C  C61  1  0.41136307  0.63961906  0.40266884  1
  C  C62  1  0.58863693  0.36038094  0.59733116  1
  C  C63  1  0.58863693  0.13961906  0.09733116  1
  C  C64  1  0.41136307  0.86038094  0.90266884  1
  C  C65  1  0.76918300  0.57666928  0.19705897  1
  C  C66  1  0.13295226  0.03460070  0.73867176  1
  C  C67  1  0.76088277  0.82888720  0.99529829  1
  S  S68  1  0.62184733  0.74712761  0.91349169  1
  S  S69  1  0.08694439  0.93341230  0.32878378  1
  S  S70  1  0.08694439  0.56658770  0.82878378  1
  S  S71  1  0.62184733  0.75287239  0.41349169  1
  S  S72  1  0.91305561  0.43341230  0.17121622  1
  S  S73  1  0.91305561  0.06658770  0.67121622  1
  S  S74  1  0.37815267  0.24712761  0.58650831  1
  S  S75  1  0.37815267  0.25287239  0.08650831  1
  Br  Br76  1  0.28034659  0.80584957  0.12889829  1
  Br  Br77  1  0.28034659  0.69415043  0.62889829  1
  Br  Br78  1  0.71965341  0.19415043  0.87110171  1
  Br  Br79  1  0.71965341  0.30584957  0.37110171  1
  O  O80  1  0.02085430  0.54244397  0.91325308  1
  O  O81  1  0.53631837  0.61974473  0.94649306  1
  O  O82  1  0.53631837  0.88025527  0.44649306  1
  O  O83  1  0.97914570  0.45755603  0.08674692  1
  O  O84  1  0.46368163  0.38025527  0.05350694  1
  O  O85  1  0.97914570  0.04244397  0.58674692  1
  O  O86  1  0.02085430  0.95755603  0.41325308  1
  O  O87  1  0.46368163  0.11974473  0.55350694  1
