# generated using pymatgen
data_Te4MoW3(SeS)2
_symmetry_space_group_name_H-M   'P 1'
_cell_length_a   3.39592558
_cell_length_b   3.39591776
_cell_length_c   38.85683400
_cell_angle_alpha   90.00034142
_cell_angle_beta   89.99999702
_cell_angle_gamma   120.00005936
_symmetry_Int_Tables_number   1
_chemical_formula_structural   Te4MoW3(SeS)2
_chemical_formula_sum   'Te4 Mo1 W3 Se2 S2'
_cell_volume   388.07271810
_cell_formula_units_Z   1
loop_
 _symmetry_equiv_pos_site_id
 _symmetry_equiv_pos_as_xyz
  1  'x, y, z'
loop_
 _atom_site_type_symbol
 _atom_site_label
 _atom_site_symmetry_multiplicity
 _atom_site_fract_x
 _atom_site_fract_y
 _atom_site_fract_z
 _atom_site_occupancy
  Te  Te0  1  0.33337208  0.66674465  0.33044533  1
  Te  Te1  1  0.66662828  0.33325625  0.04554955  1
  Te  Te2  1  0.66665434  0.33330836  0.14200464  1
  Te  Te3  1  0.33335663  0.66671354  0.23344734  1
  Mo  Mo4  1  0.33331474  0.66662853  0.09375831  1
  W  W5  1  0.33330859  0.66661625  0.46966109  1
  W  W6  1  0.66669313  0.33338710  0.28194566  1
  W  W7  1  0.66668648  0.33337388  0.65753702  1
  Se  Se8  1  0.33335258  0.66670552  0.70018633  1
  Se  Se9  1  0.33335163  0.66670360  0.61488978  1
  S  S10  1  0.66664020  0.33328004  0.43085411  1
  S  S11  1  0.66664132  0.33328229  0.50846884  1
