# generated using pymatgen
data_Te2MoWSe2
_symmetry_space_group_name_H-M   'P 1'
_cell_length_a   3.44303895
_cell_length_b   3.44303062
_cell_length_c   39.11541779
_cell_angle_alpha   90.00006990
_cell_angle_beta   90.00000000
_cell_angle_gamma   120.00007995
_symmetry_Int_Tables_number   1
_chemical_formula_structural   Te2MoWSe2
_chemical_formula_sum   'Te4 Mo2 W2 Se4'
_cell_volume   401.56982912
_cell_formula_units_Z   2
loop_
 _symmetry_equiv_pos_site_id
 _symmetry_equiv_pos_as_xyz
  1  'x, y, z'
loop_
 _atom_site_type_symbol
 _atom_site_label
 _atom_site_symmetry_multiplicity
 _atom_site_fract_x
 _atom_site_fract_y
 _atom_site_fract_z
 _atom_site_occupancy
  Te  Te0  1  0.33335844  0.66671787  0.32944120  1
  Te  Te1  1  0.33335668  0.66671435  0.70516991  1
  Te  Te2  1  0.33335647  0.66671394  0.23414205  1
  Te  Te3  1  0.33335259  0.66670618  0.60988024  1
  Mo  Mo4  1  0.33330965  0.66661929  0.09391304  1
  Mo  Mo5  1  0.33331204  0.66662409  0.46967894  1
  W  W6  1  0.66669026  0.33338052  0.28180691  1
  W  W7  1  0.66668947  0.33337894  0.65753948  1
  Se  Se8  1  0.66664410  0.33328720  0.05214267  1
  Se  Se9  1  0.66664172  0.33328245  0.42785774  1
  Se  Se10  1  0.66664112  0.33328124  0.13571049  1
  Se  Se11  1  0.66664747  0.33329394  0.51146533  1
