# generated using pymatgen
data_Te4MoW3(SeS)2
_symmetry_space_group_name_H-M   'P 1'
_cell_length_a   3.39526541
_cell_length_b   3.39525591
_cell_length_c   38.85466716
_cell_angle_alpha   90.00008619
_cell_angle_beta   89.99991921
_cell_angle_gamma   119.99998934
_symmetry_Int_Tables_number   1
_chemical_formula_structural   Te4MoW3(SeS)2
_chemical_formula_sum   'Te4 Mo1 W3 Se2 S2'
_cell_volume   387.90029938
_cell_formula_units_Z   1
loop_
 _symmetry_equiv_pos_site_id
 _symmetry_equiv_pos_as_xyz
  1  'x, y, z'
loop_
 _atom_site_type_symbol
 _atom_site_label
 _atom_site_symmetry_multiplicity
 _atom_site_fract_x
 _atom_site_fract_y
 _atom_site_fract_z
 _atom_site_occupancy
  Te  Te0  1  0.66663659  0.33327233  0.04565914  1
  Te  Te1  1  0.66664699  0.33329317  0.42116198  1
  Te  Te2  1  0.66664828  0.33329648  0.14217269  1
  Te  Te3  1  0.66664862  0.33329753  0.51821121  1
  Mo  Mo4  1  0.33330575  0.66661078  0.09389388  1
  W  W5  1  0.33331180  0.66662340  0.46966471  1
  W  W6  1  0.66668688  0.33337529  0.28177332  1
  W  W7  1  0.66669394  0.33338922  0.65752984  1
  Se  Se8  1  0.33334955  0.66670091  0.32447481  1
  Se  Se9  1  0.33335526  0.66671030  0.23912471  1
  S  S10  1  0.33335994  0.66672195  0.69632178  1
  S  S11  1  0.33335641  0.66670863  0.61875993  1
