# generated using pymatgen
data_Te4MoW3(SeS)2
_symmetry_space_group_name_H-M   'P 1'
_cell_length_a   3.39490712
_cell_length_b   3.39492686
_cell_length_c   39.85669152
_cell_angle_alpha   89.99892517
_cell_angle_beta   90.00000000
_cell_angle_gamma   119.99980768
_symmetry_Int_Tables_number   1
_chemical_formula_structural   Te4MoW3(SeS)2
_chemical_formula_sum   'Te4 Mo1 W3 Se2 S2'
_cell_volume   397.82405301
_cell_formula_units_Z   1
loop_
 _symmetry_equiv_pos_site_id
 _symmetry_equiv_pos_as_xyz
  1  'x, y, z'
loop_
 _atom_site_type_symbol
 _atom_site_label
 _atom_site_symmetry_multiplicity
 _atom_site_fract_x
 _atom_site_fract_y
 _atom_site_fract_z
 _atom_site_occupancy
  Te  Te0  1  0.33331664  0.66663428  0.32983468  1
  Te  Te1  1  0.66666480  0.33332861  0.04590771  1
  Te  Te2  1  0.66665720  0.33331340  0.13985525  1
  Te  Te3  1  0.33334138  0.66668376  0.23522541  1
  Mo  Mo4  1  0.33333072  0.66666145  0.09286380  1
  W  W5  1  0.33332862  0.66665725  0.46997944  1
  W  W6  1  0.66666104  0.33332208  0.28255649  1
  W  W7  1  0.66668409  0.33336818  0.65752263  1
  Se  Se8  1  0.66666375  0.33332650  0.42840620  1
  Se  Se9  1  0.66665624  0.33331147  0.51155477  1
  S  S10  1  0.33334452  0.66669004  0.69533690  1
  S  S11  1  0.33335099  0.66670299  0.61970473  1
