# generated using pymatgen
data_SiO2
_symmetry_space_group_name_H-M   'P 1'
_cell_length_a   15.98728121
_cell_length_b   15.98728127
_cell_length_c   15.98728155
_cell_angle_alpha   109.47122099
_cell_angle_beta   109.47122106
_cell_angle_gamma   109.47121835
_symmetry_Int_Tables_number   1
_chemical_formula_structural   SiO2
_chemical_formula_sum   'Si24 O48'
_cell_volume   3145.58894995
_cell_formula_units_Z   24
loop_
 _symmetry_equiv_pos_site_id
 _symmetry_equiv_pos_as_xyz
  1  'x, y, z'
loop_
 _atom_site_type_symbol
 _atom_site_label
 _atom_site_symmetry_multiplicity
 _atom_site_fract_x
 _atom_site_fract_y
 _atom_site_fract_z
 _atom_site_occupancy
  Si  Si0  1  0.27229844  0.57570696  0.69659148  1
  Si  Si1  1  0.69659148  0.42429304  0.12088452  1
  Si  Si2  1  0.69659148  0.27229844  0.57570696  1
  Si  Si3  1  0.57570696  0.27229844  0.69659148  1
  Si  Si4  1  0.30340852  0.42429304  0.72770156  1
  Si  Si5  1  0.57570696  0.30340852  0.87911548  1
  Si  Si6  1  0.27229844  0.69659148  0.57570696  1
  Si  Si7  1  0.57570696  0.69659148  0.27229844  1
  Si  Si8  1  0.12088452  0.69659148  0.42429304  1
  Si  Si9  1  0.42429304  0.72770156  0.30340852  1
  Si  Si10  1  0.72770156  0.30340852  0.42429304  1
  Si  Si11  1  0.42429304  0.69659148  0.12088452  1
  Si  Si12  1  0.12088452  0.42429304  0.69659148  1
  Si  Si13  1  0.87911548  0.57570696  0.30340852  1
  Si  Si14  1  0.57570696  0.87911548  0.30340852  1
  Si  Si15  1  0.30340852  0.87911548  0.57570696  1
  Si  Si16  1  0.72770156  0.42429304  0.30340852  1
  Si  Si17  1  0.87911548  0.30340852  0.57570696  1
  Si  Si18  1  0.30340852  0.57570696  0.87911548  1
  Si  Si19  1  0.69659148  0.57570696  0.27229844  1
  Si  Si20  1  0.69659148  0.12088452  0.42429304  1
  Si  Si21  1  0.42429304  0.12088452  0.69659148  1
  Si  Si22  1  0.42429304  0.30340852  0.72770156  1
  Si  Si23  1  0.30340852  0.72770156  0.42429304  1
  O  O24  1  0.70519143  0.35259571  0.35259571  1
  O  O25  1  0.14823773  0.64823773  0.50000000  1
  O  O26  1  0.17796345  0.82203655  0.50000000  1
  O  O27  1  0.64407309  0.82203655  0.32203655  1
  O  O28  1  0.35259571  0.35259571  0.70519143  1
  O  O29  1  0.32203655  0.82203655  0.64407309  1
  O  O30  1  0.64740429  0.00000000  0.35259571  1
  O  O31  1  0.67796345  0.32203655  0.50000000  1
  O  O32  1  0.82203655  0.50000000  0.17796345  1
  O  O33  1  0.50000000  0.85176227  0.35176227  1
  O  O34  1  0.67796345  0.35592691  0.17796345  1
  O  O35  1  0.32203655  0.67796345  0.50000000  1
  O  O36  1  0.85176227  0.35176227  0.50000000  1
  O  O37  1  0.35592691  0.67796345  0.17796345  1
  O  O38  1  0.35259571  0.64740429  0.00000000  1
  O  O39  1  0.64740429  0.29480857  0.64740429  1
  O  O40  1  0.17796345  0.35592691  0.67796345  1
  O  O41  1  1.00000000  0.35259571  0.64740429  1
  O  O42  1  0.50000000  0.35176227  0.85176227  1
  O  O43  1  0.64823773  0.50000000  0.14823773  1
  O  O44  1  0.50000000  0.67796345  0.32203655  1
  O  O45  1  0.67796345  0.17796345  0.35592691  1
  O  O46  1  0.50000000  0.82203655  0.17796345  1
  O  O47  1  0.17796345  0.50000000  0.82203655  1
  O  O48  1  0.29480857  0.64740429  0.64740429  1
  O  O49  1  0.82203655  0.64407309  0.32203655  1
  O  O50  1  0.85176227  0.50000000  0.35176227  1
  O  O51  1  0.50000000  0.32203655  0.67796345  1
  O  O52  1  0.50000000  0.17796345  0.82203655  1
  O  O53  1  0.67796345  0.50000000  0.32203655  1
  O  O54  1  0.64407309  0.32203655  0.82203655  1
  O  O55  1  0.35259571  1.00000000  0.64740429  1
  O  O56  1  0.64740429  0.64740429  0.29480857  1
  O  O57  1  0.35259571  0.70519143  0.35259571  1
  O  O58  1  0.00000000  0.64740429  0.35259571  1
  O  O59  1  0.32203655  0.50000000  0.67796345  1
  O  O60  1  0.17796345  0.67796345  0.35592691  1
  O  O61  1  0.82203655  0.17796345  0.50000000  1
  O  O62  1  0.35592691  0.17796345  0.67796345  1
  O  O63  1  0.32203655  0.64407309  0.82203655  1
  O  O64  1  0.50000000  0.64823773  0.14823773  1
  O  O65  1  0.35176227  0.50000000  0.85176227  1
  O  O66  1  0.82203655  0.32203655  0.64407309  1
  O  O67  1  0.64823773  0.14823773  0.50000000  1
  O  O68  1  0.50000000  0.14823773  0.64823773  1
  O  O69  1  0.35176227  0.85176227  0.50000000  1
  O  O70  1  0.14823773  0.50000000  0.64823773  1
  O  O71  1  0.64740429  0.35259571  0.00000000  1
