# generated using pymatgen
data_YMg30CrO32
_symmetry_space_group_name_H-M   'P 1'
_cell_length_a   8.63474617
_cell_length_b   8.63474617
_cell_length_c   8.61049674
_cell_angle_alpha   90.00000000
_cell_angle_beta   90.00000000
_cell_angle_gamma   90.00000000
_symmetry_Int_Tables_number   1
_chemical_formula_structural   YMg30CrO32
_chemical_formula_sum   'Y1 Mg30 Cr1 O32'
_cell_volume   641.98866099
_cell_formula_units_Z   1
loop_
 _symmetry_equiv_pos_site_id
 _symmetry_equiv_pos_as_xyz
  1  'x, y, z'
loop_
 _atom_site_type_symbol
 _atom_site_label
 _atom_site_symmetry_multiplicity
 _atom_site_fract_x
 _atom_site_fract_y
 _atom_site_fract_z
 _atom_site_occupancy
  Y  Y0  1  -0.00000000  -0.00000000  -0.00000000  1
  Mg  Mg1  1  -0.00000000  0.50000000  0.00000000  1
  Mg  Mg2  1  -0.00000000  0.50000000  0.50000000  1
  Mg  Mg3  1  0.50000000  0.00000000  0.00000000  1
  Mg  Mg4  1  0.50000000  0.00000000  0.50000000  1
  Mg  Mg5  1  0.50000000  0.50000000  -0.00000000  1
  Mg  Mg6  1  0.50000000  0.50000000  0.50000000  1
  Mg  Mg7  1  -0.00000000  0.25643216  0.25805185  1
  Mg  Mg8  1  -0.00000000  0.25643216  0.74194815  1
  Mg  Mg9  1  -0.00000000  0.74356784  0.25805185  1
  Mg  Mg10  1  -0.00000000  0.74356784  0.74194815  1
  Mg  Mg11  1  0.50000000  0.25056534  0.25171276  1
  Mg  Mg12  1  0.50000000  0.25056534  0.74828724  1
  Mg  Mg13  1  0.50000000  0.74943466  0.25171276  1
  Mg  Mg14  1  0.50000000  0.74943466  0.74828724  1
  Mg  Mg15  1  0.25643216  -0.00000000  0.25805185  1
  Mg  Mg16  1  0.25643216  0.00000000  0.74194815  1
  Mg  Mg17  1  0.25056534  0.50000000  0.25171276  1
  Mg  Mg18  1  0.25056534  0.50000000  0.74828724  1
  Mg  Mg19  1  0.74356784  -0.00000000  0.25805185  1
  Mg  Mg20  1  0.74356784  0.00000000  0.74194815  1
  Mg  Mg21  1  0.74943466  0.50000000  0.25171276  1
  Mg  Mg22  1  0.74943466  0.50000000  0.74828724  1
  Mg  Mg23  1  0.25611040  0.25611040  -0.00000000  1
  Mg  Mg24  1  0.25024087  0.25024087  0.50000000  1
  Mg  Mg25  1  0.25611040  0.74388960  -0.00000000  1
  Mg  Mg26  1  0.25024087  0.74975913  0.50000000  1
  Mg  Mg27  1  0.74388960  0.25611040  -0.00000000  1
  Mg  Mg28  1  0.74975913  0.25024087  0.50000000  1
  Mg  Mg29  1  0.74388960  0.74388960  -0.00000000  1
  Mg  Mg30  1  0.74975913  0.74975913  0.50000000  1
  Cr  Cr31  1  -0.00000000  -0.00000000  0.50000000  1
  O  O32  1  0.25956652  0.00000000  -0.00000000  1
  O  O33  1  0.26854402  -0.00000000  0.50000000  1
  O  O34  1  0.25173295  0.50000000  -0.00000000  1
  O  O35  1  0.25317826  0.50000000  0.50000000  1
  O  O36  1  0.74043348  0.00000000  -0.00000000  1
  O  O37  1  0.73145598  -0.00000000  0.50000000  1
  O  O38  1  0.74826705  0.50000000  0.00000000  1
  O  O39  1  0.74682174  0.50000000  0.50000000  1
  O  O40  1  0.24922678  0.24922678  0.24876539  1
  O  O41  1  0.24922678  0.24922678  0.75123461  1
  O  O42  1  0.24922678  0.75077322  0.24876539  1
  O  O43  1  0.24922678  0.75077322  0.75123461  1
  O  O44  1  0.75077322  0.24922678  0.24876539  1
  O  O45  1  0.75077322  0.24922678  0.75123461  1
  O  O46  1  0.75077322  0.75077322  0.24876539  1
  O  O47  1  0.75077322  0.75077322  0.75123461  1
  O  O48  1  -0.00000000  -0.00000000  0.25263639  1
  O  O49  1  -0.00000000  0.00000000  0.74736361  1
  O  O50  1  -0.00000000  0.50000000  0.24717203  1
  O  O51  1  -0.00000000  0.50000000  0.75282797  1
  O  O52  1  0.50000000  0.00000000  0.24717203  1
  O  O53  1  0.50000000  -0.00000000  0.75282797  1
  O  O54  1  0.50000000  0.50000000  0.24863440  1
  O  O55  1  0.50000000  0.50000000  0.75136560  1
  O  O56  1  -0.00000000  0.25956652  -0.00000000  1
  O  O57  1  -0.00000000  0.26854402  0.50000000  1
  O  O58  1  -0.00000000  0.74043348  -0.00000000  1
  O  O59  1  -0.00000000  0.73145598  0.50000000  1
  O  O60  1  0.50000000  0.25173295  0.00000000  1
  O  O61  1  0.50000000  0.25317826  0.50000000  1
  O  O62  1  0.50000000  0.74826705  0.00000000  1
  O  O63  1  0.50000000  0.74682174  0.50000000  1
