# generated using pymatgen
data_NaHfMg30O31
_symmetry_space_group_name_H-M   'P 1'
_cell_length_a   8.58045110
_cell_length_b   8.61591375
_cell_length_c   8.61402334
_cell_angle_alpha   90.00000000
_cell_angle_beta   90.00000000
_cell_angle_gamma   90.00000000
_symmetry_Int_Tables_number   1
_chemical_formula_structural   NaHfMg30O31
_chemical_formula_sum   'Na1 Hf1 Mg30 O31'
_cell_volume   636.82119234
_cell_formula_units_Z   1
loop_
 _symmetry_equiv_pos_site_id
 _symmetry_equiv_pos_as_xyz
  1  'x, y, z'
loop_
 _atom_site_type_symbol
 _atom_site_label
 _atom_site_symmetry_multiplicity
 _atom_site_fract_x
 _atom_site_fract_y
 _atom_site_fract_z
 _atom_site_occupancy
  Na  Na0  1  0.00354601  0.00000000  0.00000000  1
  Hf  Hf1  1  0.99966625  0.00000000  0.50000000  1
  Mg  Mg2  1  0.99938591  0.50000000  0.00000000  1
  Mg  Mg3  1  0.99983350  0.50000000  0.50000000  1
  Mg  Mg4  1  0.49807996  0.00000000  0.00000000  1
  Mg  Mg5  1  0.50081591  0.00000000  0.50000000  1
  Mg  Mg6  1  0.50096301  0.50000000  0.00000000  1
  Mg  Mg7  1  0.50013026  0.50000000  0.50000000  1
  Mg  Mg8  1  0.00010355  0.25528602  0.24260782  1
  Mg  Mg9  1  0.00010355  0.25528602  0.75739218  1
  Mg  Mg10  1  0.00010355  0.74471398  0.24260782  1
  Mg  Mg11  1  0.00010355  0.74471398  0.75739218  1
  Mg  Mg12  1  0.50012458  0.25059387  0.24873754  1
  Mg  Mg13  1  0.50012458  0.25059387  0.75126246  1
  Mg  Mg14  1  0.50012458  0.74940613  0.24873754  1
  Mg  Mg15  1  0.50012458  0.74940613  0.75126246  1
  Mg  Mg16  1  0.25618774  0.00000000  0.24540082  1
  Mg  Mg17  1  0.25618774  0.00000000  0.75459918  1
  Mg  Mg18  1  0.25062347  0.50000000  0.24950124  1
  Mg  Mg19  1  0.25062347  0.50000000  0.75049876  1
  Mg  Mg20  1  0.74519393  0.00000000  0.24237879  1
  Mg  Mg21  1  0.74519393  0.00000000  0.75762121  1
  Mg  Mg22  1  0.74941346  0.50000000  0.24876217  1
  Mg  Mg23  1  0.74941346  0.50000000  0.75123783  1
  Mg  Mg24  1  0.25022045  0.25363341  0.00000000  1
  Mg  Mg25  1  0.25379816  0.25444707  0.50000000  1
  Mg  Mg26  1  0.25022045  0.74636659  0.00000000  1
  Mg  Mg27  1  0.25379816  0.74555293  0.50000000  1
  Mg  Mg28  1  0.75078365  0.24922844  0.00000000  1
  Mg  Mg29  1  0.74617104  0.25399779  0.50000000  1
  Mg  Mg30  1  0.75078365  0.75077156  0.00000000  1
  Mg  Mg31  1  0.74617104  0.74600221  0.50000000  1
  O  O32  1  0.25409088  0.00000000  0.50000000  1
  O  O33  1  0.25231028  0.50000000  0.00000000  1
  O  O34  1  0.25054455  0.50000000  0.50000000  1
  O  O35  1  0.73683882  0.00000000  0.00000000  1
  O  O36  1  0.74627824  0.00000000  0.50000000  1
  O  O37  1  0.74826164  0.50000000  0.00000000  1
  O  O38  1  0.74945996  0.50000000  0.50000000  1
  O  O39  1  0.24931564  0.25033130  0.25165499  1
  O  O40  1  0.24931564  0.25033130  0.74834501  1
  O  O41  1  0.24931564  0.74966870  0.25165499  1
  O  O42  1  0.24931564  0.74966870  0.74834501  1
  O  O43  1  0.75100340  0.24910721  0.25053110  1
  O  O44  1  0.75100340  0.24910721  0.74946890  1
  O  O45  1  0.75100340  0.75089279  0.25053110  1
  O  O46  1  0.75100340  0.75089279  0.74946890  1
  O  O47  1  0.99980326  0.00000000  0.26143879  1
  O  O48  1  0.99980326  0.00000000  0.73856121  1
  O  O49  1  0.00005745  0.50000000  0.25271764  1
  O  O50  1  0.00005745  0.50000000  0.74728236  1
  O  O51  1  0.50070348  0.00000000  0.25352347  1
  O  O52  1  0.50070348  0.00000000  0.74647653  1
  O  O53  1  0.50010678  0.50000000  0.25090703  1
  O  O54  1  0.50010678  0.50000000  0.74909297  1
  O  O55  1  0.00008329  0.26369842  0.00000000  1
  O  O56  1  0.99995101  0.25352545  0.50000000  1
  O  O57  1  0.00008329  0.73630158  0.00000000  1
  O  O58  1  0.99995101  0.74647455  0.50000000  1
  O  O59  1  0.50060858  0.25281783  0.00000000  1
  O  O60  1  0.50009732  0.25058225  0.50000000  1
  O  O61  1  0.50060858  0.74718217  0.00000000  1
  O  O62  1  0.50009732  0.74941775  0.50000000  1
