# generated using pymatgen
data_CeMg5
_symmetry_space_group_name_H-M   'P 1'
_cell_length_a   12.88632963
_cell_length_b   3.13501526
_cell_length_c   7.72065928
_cell_angle_alpha   90.00000000
_cell_angle_beta   104.54020405
_cell_angle_gamma   90.00000000
_symmetry_Int_Tables_number   1
_chemical_formula_structural   CeMg5
_chemical_formula_sum   'Ce2 Mg10'
_cell_volume   301.91587443
_cell_formula_units_Z   2
loop_
 _symmetry_equiv_pos_site_id
 _symmetry_equiv_pos_as_xyz
  1  'x, y, z'
loop_
 _atom_site_type_symbol
 _atom_site_label
 _atom_site_symmetry_multiplicity
 _atom_site_fract_x
 _atom_site_fract_y
 _atom_site_fract_z
 _atom_site_occupancy
  Ce  Ce0  1  0.38750802  -0.00000000  0.27412702  1
  Ce  Ce1  1  0.88750802  0.50000000  0.27412702  1
  Mg  Mg2  1  0.00561610  0.00000000  0.99460945  1
  Mg  Mg3  1  0.16248327  0.50000000  0.33642572  1
  Mg  Mg4  1  0.06043350  0.00000000  0.62034791  1
  Mg  Mg5  1  0.33364814  0.00000000  0.67193218  1
  Mg  Mg6  1  0.21697797  0.50000000  0.93589073  1
  Mg  Mg7  1  0.50561610  0.50000000  0.99460945  1
  Mg  Mg8  1  0.66248327  0.00000000  0.33642572  1
  Mg  Mg9  1  0.56043350  0.50000000  0.62034791  1
  Mg  Mg10  1  0.83364814  0.50000000  0.67193218  1
  Mg  Mg11  1  0.71697797  0.00000000  0.93589073  1
