# generated using pymatgen
data_Mg30CuSnO32
_symmetry_space_group_name_H-M   'P 1'
_cell_length_a   8.57874220
_cell_length_b   8.58362372
_cell_length_c   8.58362372
_cell_angle_alpha   90.00000000
_cell_angle_beta   90.00000000
_cell_angle_gamma   90.00000000
_symmetry_Int_Tables_number   1
_chemical_formula_structural   Mg30CuSnO32
_chemical_formula_sum   'Mg30 Cu1 Sn1 O32'
_cell_volume   632.06968217
_cell_formula_units_Z   1
loop_
 _symmetry_equiv_pos_site_id
 _symmetry_equiv_pos_as_xyz
  1  'x, y, z'
loop_
 _atom_site_type_symbol
 _atom_site_label
 _atom_site_symmetry_multiplicity
 _atom_site_fract_x
 _atom_site_fract_y
 _atom_site_fract_z
 _atom_site_occupancy
  Mg  Mg0  1  0.00000000  0.00000000  0.50000000  1
  Mg  Mg1  1  0.00000000  0.50000000  0.00000000  1
  Mg  Mg2  1  0.50000000  0.00000000  0.00000000  1
  Mg  Mg3  1  0.50000000  0.00000000  0.50000000  1
  Mg  Mg4  1  0.50000000  0.50000000  0.00000000  1
  Mg  Mg5  1  0.50000000  0.50000000  0.50000000  1
  Mg  Mg6  1  0.00000000  0.24161140  0.24161140  1
  Mg  Mg7  1  0.00000000  0.24161140  0.75838860  1
  Mg  Mg8  1  0.00000000  0.75838860  0.24161140  1
  Mg  Mg9  1  0.00000000  0.75838860  0.75838860  1
  Mg  Mg10  1  0.50000000  0.24823710  0.24823710  1
  Mg  Mg11  1  0.50000000  0.24823710  0.75176290  1
  Mg  Mg12  1  0.50000000  0.75176290  0.24823710  1
  Mg  Mg13  1  0.50000000  0.75176290  0.75176290  1
  Mg  Mg14  1  0.24835463  0.00000000  0.24669301  1
  Mg  Mg15  1  0.24835463  0.00000000  0.75330699  1
  Mg  Mg16  1  0.25466610  0.50000000  0.24377360  1
  Mg  Mg17  1  0.25466610  0.50000000  0.75622640  1
  Mg  Mg18  1  0.75164537  0.00000000  0.24669301  1
  Mg  Mg19  1  0.75164537  0.00000000  0.75330699  1
  Mg  Mg20  1  0.74533390  0.50000000  0.24377360  1
  Mg  Mg21  1  0.74533390  0.50000000  0.75622640  1
  Mg  Mg22  1  0.24835463  0.24669301  0.00000000  1
  Mg  Mg23  1  0.25466610  0.24377360  0.50000000  1
  Mg  Mg24  1  0.24835463  0.75330699  0.00000000  1
  Mg  Mg25  1  0.25466610  0.75622640  0.50000000  1
  Mg  Mg26  1  0.75164537  0.24669301  0.00000000  1
  Mg  Mg27  1  0.74533390  0.24377360  0.50000000  1
  Mg  Mg28  1  0.75164537  0.75330699  0.00000000  1
  Mg  Mg29  1  0.74533390  0.75622640  0.50000000  1
  Cu  Cu30  1  0.00000000  0.00000000  0.00000000  1
  Sn  Sn31  1  0.00000000  0.50000000  0.50000000  1
  O  O32  1  0.26256090  0.00000000  0.00000000  1
  O  O33  1  0.25302935  0.00000000  0.50000000  1
  O  O34  1  0.25302935  0.50000000  0.00000000  1
  O  O35  1  0.25989904  0.50000000  0.50000000  1
  O  O36  1  0.73743910  0.00000000  0.00000000  1
  O  O37  1  0.74697065  0.00000000  0.50000000  1
  O  O38  1  0.74697065  0.50000000  0.00000000  1
  O  O39  1  0.74010096  0.50000000  0.50000000  1
  O  O40  1  0.24921529  0.25069195  0.25069195  1
  O  O41  1  0.24921529  0.25069195  0.74930805  1
  O  O42  1  0.24921529  0.74930805  0.25069195  1
  O  O43  1  0.24921529  0.74930805  0.74930805  1
  O  O44  1  0.75078471  0.25069195  0.25069195  1
  O  O45  1  0.75078471  0.25069195  0.74930805  1
  O  O46  1  0.75078471  0.74930805  0.25069195  1
  O  O47  1  0.75078471  0.74930805  0.74930805  1
  O  O48  1  0.00000000  0.00000000  0.26310991  1
  O  O49  1  0.00000000  0.00000000  0.73689009  1
  O  O50  1  0.00000000  0.50000000  0.24265536  1
  O  O51  1  0.00000000  0.50000000  0.75734464  1
  O  O52  1  0.50000000  0.00000000  0.25212595  1
  O  O53  1  0.50000000  0.00000000  0.74787405  1
  O  O54  1  0.50000000  0.50000000  0.24991909  1
  O  O55  1  0.50000000  0.50000000  0.75008091  1
  O  O56  1  0.00000000  0.26310991  0.00000000  1
  O  O57  1  0.00000000  0.24265536  0.50000000  1
  O  O58  1  0.00000000  0.73689009  0.00000000  1
  O  O59  1  0.00000000  0.75734464  0.50000000  1
  O  O60  1  0.50000000  0.25212595  0.00000000  1
  O  O61  1  0.50000000  0.24991909  0.50000000  1
  O  O62  1  0.50000000  0.74787405  0.00000000  1
  O  O63  1  0.50000000  0.75008091  0.50000000  1
