# generated using pymatgen
data_SrMg30TiO32
_symmetry_space_group_name_H-M   'P 1'
_cell_length_a   8.63615759
_cell_length_b   8.61478118
_cell_length_c   8.61478118
_cell_angle_alpha   90.00000000
_cell_angle_beta   90.00000000
_cell_angle_gamma   90.00000000
_symmetry_Int_Tables_number   1
_chemical_formula_structural   SrMg30TiO32
_chemical_formula_sum   'Sr1 Mg30 Ti1 O32'
_cell_volume   640.92772693
_cell_formula_units_Z   1
loop_
 _symmetry_equiv_pos_site_id
 _symmetry_equiv_pos_as_xyz
  1  'x, y, z'
loop_
 _atom_site_type_symbol
 _atom_site_label
 _atom_site_symmetry_multiplicity
 _atom_site_fract_x
 _atom_site_fract_y
 _atom_site_fract_z
 _atom_site_occupancy
  Sr  Sr0  1  0.00000000  0.50000000  0.50000000  1
  Mg  Mg1  1  0.00000000  0.00000000  0.50000000  1
  Mg  Mg2  1  0.00000000  0.50000000  0.00000000  1
  Mg  Mg3  1  0.50000000  -0.00000000  0.00000000  1
  Mg  Mg4  1  0.50000000  0.00000000  0.50000000  1
  Mg  Mg5  1  0.50000000  0.50000000  0.00000000  1
  Mg  Mg6  1  0.50000000  0.50000000  0.50000000  1
  Mg  Mg7  1  0.00000000  0.24718183  0.24718183  1
  Mg  Mg8  1  0.00000000  0.24718183  0.75281817  1
  Mg  Mg9  1  0.00000000  0.75281817  0.24718183  1
  Mg  Mg10  1  0.00000000  0.75281817  0.75281817  1
  Mg  Mg11  1  0.50000000  0.24977230  0.24977230  1
  Mg  Mg12  1  0.50000000  0.24977230  0.75022770  1
  Mg  Mg13  1  0.50000000  0.75022770  0.24977230  1
  Mg  Mg14  1  0.50000000  0.75022770  0.75022770  1
  Mg  Mg15  1  0.25141423  0.00000000  0.24974236  1
  Mg  Mg16  1  0.25141423  0.00000000  0.75025764  1
  Mg  Mg17  1  0.25523730  0.50000000  0.24504621  1
  Mg  Mg18  1  0.25523730  0.50000000  0.75495379  1
  Mg  Mg19  1  0.74858577  0.00000000  0.24974236  1
  Mg  Mg20  1  0.74858577  -0.00000000  0.75025764  1
  Mg  Mg21  1  0.74476270  0.50000000  0.24504621  1
  Mg  Mg22  1  0.74476270  0.50000000  0.75495379  1
  Mg  Mg23  1  0.25141423  0.24974236  0.00000000  1
  Mg  Mg24  1  0.25523730  0.24504621  0.50000000  1
  Mg  Mg25  1  0.25141423  0.75025764  0.00000000  1
  Mg  Mg26  1  0.25523730  0.75495379  0.50000000  1
  Mg  Mg27  1  0.74858577  0.24974236  0.00000000  1
  Mg  Mg28  1  0.74476270  0.24504621  0.50000000  1
  Mg  Mg29  1  0.74858577  0.75025764  0.00000000  1
  Mg  Mg30  1  0.74476270  0.75495379  0.50000000  1
  Ti  Ti31  1  0.00000000  -0.00000000  0.00000000  1
  O  O32  1  0.25883186  -0.00000000  0.00000000  1
  O  O33  1  0.25326001  0.00000000  0.50000000  1
  O  O34  1  0.25326001  0.50000000  0.00000000  1
  O  O35  1  0.26974572  0.50000000  0.50000000  1
  O  O36  1  0.74116814  0.00000000  0.00000000  1
  O  O37  1  0.74673999  -0.00000000  0.50000000  1
  O  O38  1  0.74673999  0.50000000  0.00000000  1
  O  O39  1  0.73025428  0.50000000  0.50000000  1
  O  O40  1  0.24889439  0.25033285  0.25033285  1
  O  O41  1  0.24889439  0.25033285  0.74966715  1
  O  O42  1  0.24889439  0.74966715  0.25033285  1
  O  O43  1  0.24889439  0.74966715  0.74966715  1
  O  O44  1  0.75110561  0.25033285  0.25033285  1
  O  O45  1  0.75110561  0.25033285  0.74966715  1
  O  O46  1  0.75110561  0.74966715  0.25033285  1
  O  O47  1  0.75110561  0.74966715  0.74966715  1
  O  O48  1  0.00000000  0.00000000  0.24892982  1
  O  O49  1  0.00000000  -0.00000000  0.75107018  1
  O  O50  1  0.00000000  0.50000000  0.23014095  1
  O  O51  1  0.00000000  0.50000000  0.76985905  1
  O  O52  1  0.50000000  -0.00000000  0.25054827  1
  O  O53  1  0.50000000  0.00000000  0.74945173  1
  O  O54  1  0.50000000  0.50000000  0.24663536  1
  O  O55  1  0.50000000  0.50000000  0.75336464  1
  O  O56  1  0.00000000  0.24892982  0.00000000  1
  O  O57  1  0.00000000  0.23014095  0.50000000  1
  O  O58  1  0.00000000  0.75107018  0.00000000  1
  O  O59  1  0.00000000  0.76985905  0.50000000  1
  O  O60  1  0.50000000  0.25054827  0.00000000  1
  O  O61  1  0.50000000  0.24663536  0.50000000  1
  O  O62  1  0.50000000  0.74945173  0.00000000  1
  O  O63  1  0.50000000  0.75336464  0.50000000  1
