# generated using pymatgen
data_H5N2F
_symmetry_space_group_name_H-M   'P 1'
_cell_length_a   4.64384957
_cell_length_b   8.33868948
_cell_length_c   12.19195626
_cell_angle_alpha   90.00000000
_cell_angle_beta   90.00000000
_cell_angle_gamma   90.00000000
_symmetry_Int_Tables_number   1
_chemical_formula_structural   H5N2F
_chemical_formula_sum   'H40 N16 F8'
_cell_volume   472.11667586
_cell_formula_units_Z   8
loop_
 _symmetry_equiv_pos_site_id
 _symmetry_equiv_pos_as_xyz
  1  'x, y, z'
loop_
 _atom_site_type_symbol
 _atom_site_label
 _atom_site_symmetry_multiplicity
 _atom_site_fract_x
 _atom_site_fract_y
 _atom_site_fract_z
 _atom_site_occupancy
  H  H0  1  0.76520648  0.55820445  0.50507681  1
  H  H1  1  0.26520648  0.94179555  0.49492319  1
  H  H2  1  0.23479352  0.05820445  0.99492319  1
  H  H3  1  0.73479352  0.44179555  0.00507681  1
  H  H4  1  0.79434311  0.37855478  0.57013017  1
  H  H5  1  0.29434311  0.12144522  0.42986983  1
  H  H6  1  0.20565689  0.87855478  0.92986983  1
  H  H7  1  0.70565689  0.62144522  0.07013017  1
  H  H8  1  0.22598368  0.45213905  0.64361449  1
  H  H9  1  0.72598368  0.04786095  0.35638551  1
  H  H10  1  0.77401632  0.95213905  0.85638551  1
  H  H11  1  0.27401632  0.54786095  0.14361449  1
  H  H12  1  0.23130570  0.46422799  0.50134613  1
  H  H13  1  0.73130570  0.03577201  0.49865387  1
  H  H14  1  0.76869430  0.96422799  0.99865387  1
  H  H15  1  0.90158673  0.83348553  0.69088627  1
  H  H16  1  0.26869430  0.53577201  0.00134613  1
  H  H17  1  0.69701775  0.85941532  0.41730810  1
  H  H18  1  0.80298225  0.14058468  0.91730810  1
  H  H19  1  0.30298225  0.35941532  0.08269190  1
  H  H20  1  0.53925439  0.83409716  0.69276585  1
  H  H21  1  0.03925439  0.66590284  0.30723415  1
  H  H22  1  0.46074561  0.33409716  0.80723415  1
  H  H23  1  0.96074561  0.16590284  0.19276585  1
  H  H24  1  0.59371829  0.35595467  0.33172856  1
  H  H25  1  0.09371829  0.14404533  0.66827144  1
  H  H26  1  0.40628171  0.85595467  0.16827144  1
  H  H27  1  0.90628171  0.64404533  0.83172856  1
  H  H28  1  0.96995236  0.35620183  0.32800397  1
  H  H29  1  0.46995236  0.14379817  0.67199603  1
  H  H30  1  0.03004764  0.85620183  0.17199603  1
  H  H31  1  0.53004764  0.64379817  0.82800397  1
  H  H32  1  0.76775909  0.41965210  0.21473246  1
  H  H33  1  0.26775909  0.08034790  0.78526754  1
  H  H34  1  0.23224091  0.91965210  0.28526754  1
  H  H35  1  0.73224091  0.58034790  0.71473246  1
  H  H36  1  0.59841327  0.16651447  0.19088627  1
  H  H37  1  0.09841327  0.33348553  0.80911373  1
  H  H38  1  0.40158673  0.66651447  0.30911373  1
  H  H39  1  0.19701775  0.64058468  0.58269190  1
  N  N40  1  0.83578881  0.50007232  0.57581533  1
  N  N41  1  0.33578881  0.99992768  0.42418467  1
  N  N42  1  0.16421119  0.00007232  0.92418467  1
  N  N43  1  0.66421119  0.49992768  0.07581533  1
  N  N44  1  0.14741328  0.51606913  0.57382868  1
  N  N45  1  0.64741328  0.98393087  0.42617132  1
  N  N46  1  0.85258672  0.01606913  0.92617132  1
  N  N47  1  0.35258672  0.48393087  0.07382868  1
  N  N48  1  0.72218998  0.82420584  0.74181027  1
  N  N49  1  0.22218998  0.67579416  0.25818973  1
  N  N50  1  0.27781002  0.32420584  0.75818973  1
  N  N51  1  0.77781002  0.17579416  0.24181027  1
  N  N52  1  0.72116374  0.66020877  0.78206021  1
  N  N53  1  0.22116374  0.83979123  0.21793979  1
  N  N54  1  0.27883626  0.16020877  0.71793979  1
  N  N55  1  0.77883626  0.33979123  0.28206021  1
  F  F56  1  0.22539522  0.82340011  0.61370713  1
  F  F57  1  0.72539522  0.67659989  0.38629287  1
  F  F58  1  0.77460478  0.32340011  0.88629287  1
  F  F59  1  0.27460478  0.17659989  0.11370713  1
  F  F60  1  0.21870562  0.65080446  0.89418984  1
  F  F61  1  0.71870562  0.84919554  0.10581016  1
  F  F62  1  0.78129438  0.15080446  0.60581016  1
  F  F63  1  0.28129438  0.34919554  0.39418984  1
