# generated using pymatgen
data_Zn(BiO2)2
_symmetry_space_group_name_H-M   'P 1'
_cell_length_a   3.48652785
_cell_length_b   10.33679548
_cell_length_c   6.69720578
_cell_angle_alpha   73.48948741
_cell_angle_beta   75.67197918
_cell_angle_gamma   79.93713197
_symmetry_Int_Tables_number   1
_chemical_formula_structural   Zn(BiO2)2
_chemical_formula_sum   'Zn2 Bi4 O8'
_cell_volume   222.79354066
_cell_formula_units_Z   2
loop_
 _symmetry_equiv_pos_site_id
 _symmetry_equiv_pos_as_xyz
  1  'x, y, z'
loop_
 _atom_site_type_symbol
 _atom_site_label
 _atom_site_symmetry_multiplicity
 _atom_site_fract_x
 _atom_site_fract_y
 _atom_site_fract_z
 _atom_site_occupancy
  Zn  Zn0  1  0.23781607  0.21807918  0.23343576  1
  Zn  Zn1  1  0.76068650  0.76016075  0.79954668  1
  Bi  Bi2  1  0.60625133  0.10139854  0.67157493  1
  Bi  Bi3  1  0.13019362  0.55739823  0.21153705  1
  Bi  Bi4  1  0.87287346  0.42073819  0.82138254  1
  Bi  Bi5  1  0.39535997  0.87674117  0.36162862  1
  O  O6  1  0.89749899  0.74423214  0.49169877  1
  O  O7  1  0.40479600  0.26902172  0.91707276  1
  O  O8  1  0.59901500  0.70907530  0.11598128  1
  O  O9  1  0.10437112  0.23387308  0.54139067  1
  O  O10  1  0.22356659  0.89456882  0.69441629  1
  O  O11  1  0.73706202  0.39681618  0.16089964  1
  O  O12  1  0.77826597  0.08340189  0.33883349  1
  O  O13  1  0.26855238  0.58129681  0.87204452  1
