# generated using pymatgen
data_Mg3Fe4(MoO4)6
_symmetry_space_group_name_H-M   'P 1'
_cell_length_a   7.03099547
_cell_length_b   8.46740235
_cell_length_c   10.34573660
_cell_angle_alpha   104.38549626
_cell_angle_beta   104.88365182
_cell_angle_gamma   101.51916180
_symmetry_Int_Tables_number   1
_chemical_formula_structural   Mg3Fe4(MoO4)6
_chemical_formula_sum   'Mg3 Fe4 Mo6 O24'
_cell_volume   553.28323896
_cell_formula_units_Z   1
loop_
 _symmetry_equiv_pos_site_id
 _symmetry_equiv_pos_as_xyz
  1  'x, y, z'
loop_
 _atom_site_type_symbol
 _atom_site_label
 _atom_site_symmetry_multiplicity
 _atom_site_fract_x
 _atom_site_fract_y
 _atom_site_fract_z
 _atom_site_occupancy
  Mg  Mg0  1  -0.00000000  0.50000000  0.50000000  1
  Mg  Mg1  1  0.27163331  0.27285297  0.78688233  1
  Mg  Mg2  1  0.72836669  0.72714703  0.21311767  1
  Fe  Fe3  1  0.37932473  0.95671427  0.60525050  1
  Fe  Fe4  1  0.62067527  0.04328573  0.39474950  1
  Fe  Fe5  1  0.04563748  0.19810267  0.01026089  1
  Fe  Fe6  1  0.95436252  0.80189733  0.98973911  1
  Mo  Mo7  1  0.78020495  0.34663830  0.73186493  1
  Mo  Mo8  1  0.21979505  0.65336170  0.26813507  1
  Mo  Mo9  1  0.89687797  0.90010627  0.66551693  1
  Mo  Mo10  1  0.40516389  0.72138537  0.87722933  1
  Mo  Mo11  1  0.10312203  0.09989373  0.33448307  1
  Mo  Mo12  1  0.59483611  0.27861463  0.12277067  1
  O  O13  1  0.88964143  0.68850194  0.56783820  1
  O  O14  1  0.11035857  0.31149806  0.43216180  1
  O  O15  1  0.28449951  0.50354844  0.76312112  1
  O  O16  1  0.71550049  0.49645156  0.23687888  1
  O  O17  1  0.79504923  0.32655109  0.55621644  1
  O  O18  1  0.20495077  0.67344891  0.44378356  1
  O  O19  1  0.66557311  0.96832065  0.58170312  1
  O  O20  1  0.33442689  0.03167935  0.41829688  1
  O  O21  1  0.64576119  0.74062760  0.01242760  1
  O  O22  1  0.35423881  0.25937240  0.98757240  1
  O  O23  1  0.47039387  0.75900791  0.26667044  1
  O  O24  1  0.52960613  0.24099209  0.73332956  1
  O  O25  1  0.14393941  0.03499025  0.65799002  1
  O  O26  1  0.07122535  0.04697648  0.14229758  1
  O  O27  1  0.92877465  0.95302352  0.85770242  1
  O  O28  1  0.55956137  0.15056513  0.23163150  1
  O  O29  1  0.44043863  0.84943487  0.76836850  1
  O  O30  1  0.17174316  0.43729899  0.17533250  1
  O  O31  1  0.82825684  0.56270101  0.82466750  1
  O  O32  1  0.98757893  0.27563672  0.82534430  1
  O  O33  1  0.01242107  0.72436328  0.17465570  1
  O  O34  1  0.23665063  0.78355432  0.96619183  1
  O  O35  1  0.76334937  0.21644568  0.03380817  1
  O  O36  1  0.85606059  0.96500975  0.34200998  1
