# generated using pymatgen
data_MgV2(PO4)2
_symmetry_space_group_name_H-M   'P 1'
_cell_length_a   4.79542389
_cell_length_b   8.51077255
_cell_length_c   15.90936405
_cell_angle_alpha   86.48153177
_cell_angle_beta   81.33188920
_cell_angle_gamma   73.63670919
_symmetry_Int_Tables_number   1
_chemical_formula_structural   MgV2(PO4)2
_chemical_formula_sum   'Mg4 V8 P8 O32'
_cell_volume   615.76634695
_cell_formula_units_Z   4
loop_
 _symmetry_equiv_pos_site_id
 _symmetry_equiv_pos_as_xyz
  1  'x, y, z'
loop_
 _atom_site_type_symbol
 _atom_site_label
 _atom_site_symmetry_multiplicity
 _atom_site_fract_x
 _atom_site_fract_y
 _atom_site_fract_z
 _atom_site_occupancy
  Mg  Mg0  1  0.50444017  0.82604088  0.83754249  1
  Mg  Mg1  1  0.16802354  0.67395912  0.66245751  1
  Mg  Mg2  1  0.83197646  0.32604088  0.33754249  1
  Mg  Mg3  1  0.49555983  0.17395912  0.16245751  1
  V  V4  1  0.19227779  0.21531311  0.96468770  1
  V  V5  1  0.37227760  0.28468689  0.53531230  1
  V  V6  1  0.80772221  0.78468689  0.03531230  1
  V  V7  1  0.50000000  0.50000000  0.00000000  1
  V  V8  1  0.62772240  0.71531311  0.46468770  1
  V  V9  1  0.66366953  0.75000000  0.25000000  1
  V  V10  1  0.33633047  0.25000000  0.75000000  1
  V  V11  1  -0.00000000  -0.00000000  0.50000000  1
  P  P12  1  0.06539946  0.57611417  0.86641781  1
  P  P13  1  0.77378596  0.42445768  0.61912913  1
  P  P14  1  0.93460054  0.42388583  0.13358219  1
  P  P15  1  0.18262723  0.92445768  0.11912913  1
  P  P16  1  0.49206956  0.07611417  0.36641781  1
  P  P17  1  0.50793044  0.92388583  0.63358219  1
  P  P18  1  0.22621404  0.57554232  0.38087087  1
  P  P19  1  0.81737277  0.07554232  0.88087087  1
  O  O20  1  0.67810963  0.36132622  0.11285636  1
  O  O21  1  0.72518856  0.92378536  0.92213503  1
  O  O22  1  0.84770779  0.86132622  0.61285636  1
  O  O23  1  0.85499710  0.27754592  0.55576167  1
  O  O24  1  0.17682548  0.38988402  0.05451712  1
  O  O25  1  0.60559371  0.39937048  0.70549471  1
  O  O26  1  0.68830569  0.22245408  0.94423833  1
  O  O27  1  0.83923328  0.95644331  0.12941816  1
  O  O28  1  0.14500290  0.72245408  0.44423833  1
  O  O29  1  0.57110796  0.57621464  0.57786497  1
  O  O30  1  0.83950211  0.61219138  0.14185481  1
  O  O31  1  0.60733213  0.16645243  0.28708614  1
  O  O32  1  0.27481144  0.07621464  0.07786497  1
  O  O33  1  0.07490625  0.45644331  0.62941816  1
  O  O34  1  0.32188937  0.63867378  0.88714364  1
  O  O35  1  0.16049789  0.38780862  0.85814519  1
  O  O36  1  0.93912930  0.66645243  0.78708614  1
  O  O37  1  0.31169431  0.77754592  0.05576167  1
  O  O38  1  0.40645071  0.11219138  0.64185481  1
  O  O39  1  0.39266787  0.83354757  0.71291386  1
  O  O40  1  0.92509375  0.54355669  0.37058184  1
  O  O41  1  0.37877338  0.88988402  0.55451712  1
  O  O42  1  0.16076672  0.04355669  0.87058184  1
  O  O43  1  0.28954110  0.89937048  0.20549471  1
  O  O44  1  0.42889204  0.42378536  0.42213503  1
  O  O45  1  0.15229221  0.13867378  0.38714364  1
  O  O46  1  0.06087070  0.33354757  0.21291386  1
  O  O47  1  0.62122662  0.11011598  0.44548288  1
  O  O48  1  0.82317452  0.61011598  0.94548288  1
  O  O49  1  0.71045890  0.10062952  0.79450529  1
  O  O50  1  0.39440629  0.60062952  0.29450529  1
  O  O51  1  0.59354929  0.88780862  0.35814519  1
