# generated using pymatgen
data_YCr(WO4)2
_symmetry_space_group_name_H-M   'P 1'
_cell_length_a   5.30612645
_cell_length_b   5.71311142
_cell_length_c   9.79804992
_cell_angle_alpha   89.99980249
_cell_angle_beta   92.71703747
_cell_angle_gamma   90.00022689
_symmetry_Int_Tables_number   1
_chemical_formula_structural   YCr(WO4)2
_chemical_formula_sum   'Y2 Cr2 W4 O16'
_cell_volume   296.68899593
_cell_formula_units_Z   2
loop_
 _symmetry_equiv_pos_site_id
 _symmetry_equiv_pos_as_xyz
  1  'x, y, z'
loop_
 _atom_site_type_symbol
 _atom_site_label
 _atom_site_symmetry_multiplicity
 _atom_site_fract_x
 _atom_site_fract_y
 _atom_site_fract_z
 _atom_site_occupancy
  Y  Y0  1  0.25000107  0.66580393  0.24999979  1
  Y  Y1  1  0.74999793  0.33419507  0.75000021  1
  Cr  Cr2  1  0.75000856  0.33267402  0.25000154  1
  Cr  Cr3  1  0.24999144  0.66732498  0.74999846  1
  W  W4  1  0.25088984  0.16203815  0.49659529  1
  W  W5  1  0.24910649  0.16203257  0.00340372  1
  W  W6  1  0.74911016  0.83796185  0.50340471  1
  W  W7  1  0.75089351  0.83796743  0.99659628  1
  O  O8  1  0.42155600  0.35826769  0.14221665  1
  O  O9  1  0.07843821  0.35827001  0.35777810  1
  O  O10  1  0.57844400  0.64173131  0.85778335  1
  O  O11  1  0.92156079  0.64172899  0.64222190  1
  O  O12  1  0.43777856  0.89565070  0.61469601  1
  O  O13  1  0.06222369  0.89566242  0.88529797  1
  O  O14  1  0.56222144  0.10434930  0.38530399  1
  O  O15  1  0.93777631  0.10433758  0.11470203  1
  O  O16  1  0.87234271  0.60909495  0.12570391  1
  O  O17  1  0.62767296  0.60910362  0.37428965  1
  O  O18  1  0.12765729  0.39090605  0.87429609  1
  O  O19  1  0.37232704  0.39089738  0.62571035  1
  O  O20  1  0.42181438  0.88389074  0.09545785  1
  O  O21  1  0.57818562  0.11611026  0.90454215  1
  O  O22  1  0.07818393  0.88390281  0.40453670  1
  O  O23  1  0.92181607  0.11609819  0.59546330  1
