# generated using pymatgen
data_MgTiAs2O7
_symmetry_space_group_name_H-M   'P 1'
_cell_length_a   8.36142201
_cell_length_b   8.56644293
_cell_length_c   10.89391772
_cell_angle_alpha   90.00000000
_cell_angle_beta   124.74301061
_cell_angle_gamma   90.00000000
_symmetry_Int_Tables_number   1
_chemical_formula_structural   MgTiAs2O7
_chemical_formula_sum   'Mg4 Ti4 As8 O28'
_cell_volume   641.19001259
_cell_formula_units_Z   4
loop_
 _symmetry_equiv_pos_site_id
 _symmetry_equiv_pos_as_xyz
  1  'x, y, z'
loop_
 _atom_site_type_symbol
 _atom_site_label
 _atom_site_symmetry_multiplicity
 _atom_site_fract_x
 _atom_site_fract_y
 _atom_site_fract_z
 _atom_site_occupancy
  Mg  Mg0  1  0.32968301  0.88273126  0.87755469  1
  Mg  Mg1  1  0.67031699  0.38273126  0.62244531  1
  Mg  Mg2  1  0.67031699  0.11726874  0.12244531  1
  Mg  Mg3  1  0.32968301  0.61726874  0.37755469  1
  Ti  Ti4  1  0.84604568  0.02743725  0.71303580  1
  Ti  Ti5  1  0.15395432  0.52743725  0.78696420  1
  Ti  Ti6  1  0.15395432  0.97256275  0.28696420  1
  Ti  Ti7  1  0.84604568  0.47256275  0.21303580  1
  As  As8  1  0.43828241  0.22640546  0.76497208  1
  As  As9  1  0.56171759  0.72640546  0.73502792  1
  As  As10  1  0.56171759  0.77359454  0.23502792  1
  As  As11  1  0.43828241  0.27359454  0.26497108  1
  As  As12  1  0.00941711  0.30379798  0.96552892  1
  As  As13  1  0.99058289  0.80379798  0.53447108  1
  As  As14  1  0.99058289  0.69620202  0.03447108  1
  As  As15  1  0.00941711  0.19620202  0.46552892  1
  O  O16  1  0.74608356  0.32538611  0.08467231  1
  O  O17  1  0.25391644  0.82538611  0.41532769  1
  O  O18  1  0.25391644  0.67461389  0.91532769  1
  O  O19  1  0.74608356  0.17461389  0.58467231  1
  O  O20  1  0.32576341  0.38755804  0.77784546  1
  O  O21  1  0.67423659  0.88755804  0.72215454  1
  O  O22  1  0.67423659  0.61244196  0.22215454  1
  O  O23  1  0.32576341  0.11244196  0.27784546  1
  O  O24  1  0.47058987  0.08863659  0.89191633  1
  O  O25  1  0.52941013  0.58863659  0.60808367  1
  O  O26  1  0.52941013  0.91136341  0.10808367  1
  O  O27  1  0.47058987  0.41136341  0.39191633  1
  O  O28  1  0.28027937  0.15311505  0.58235274  1
  O  O29  1  0.71972063  0.65311505  0.91764726  1
  O  O30  1  0.71972063  0.84688495  0.41764726  1
  O  O31  1  0.28027937  0.34688495  0.08235274  1
  O  O32  1  0.96784057  0.07940685  0.30799428  1
  O  O33  1  0.03215943  0.57940685  0.19200572  1
  O  O34  1  0.03215943  0.92059315  0.69200572  1
  O  O35  1  0.96784057  0.42059315  0.80799428  1
  O  O36  1  0.64041586  0.23266590  0.27114031  1
  O  O37  1  0.35958414  0.73266590  0.22885969  1
  O  O38  1  0.35958414  0.76733410  0.72885969  1
  O  O39  1  0.64041586  0.26733410  0.77114031  1
  O  O40  1  0.02375478  0.38286887  0.39665662  1
  O  O41  1  0.97624522  0.88286887  0.10334338  1
  O  O42  1  0.97624522  0.61713113  0.60334338  1
  O  O43  1  0.02375478  0.11713113  0.89665662  1
