# generated using pymatgen
data_Ca(MoO2)2
_symmetry_space_group_name_H-M   'P 1'
_cell_length_a   5.60515803
_cell_length_b   6.46603066
_cell_length_c   11.23574013
_cell_angle_alpha   89.93281627
_cell_angle_beta   89.99359031
_cell_angle_gamma   89.99606492
_symmetry_Int_Tables_number   1
_chemical_formula_structural   Ca(MoO2)2
_chemical_formula_sum   'Ca4 Mo8 O16'
_cell_volume   407.21803570
_cell_formula_units_Z   4
loop_
 _symmetry_equiv_pos_site_id
 _symmetry_equiv_pos_as_xyz
  1  'x, y, z'
loop_
 _atom_site_type_symbol
 _atom_site_label
 _atom_site_symmetry_multiplicity
 _atom_site_fract_x
 _atom_site_fract_y
 _atom_site_fract_z
 _atom_site_occupancy
  Ca  Ca0  1  0.85098884  0.24857816  0.75017236  1
  Ca  Ca1  1  0.14883637  0.74885384  0.25018133  1
  Ca  Ca2  1  0.53240897  0.24804914  0.24980738  1
  Ca  Ca3  1  0.46709350  0.74855839  0.74994200  1
  Mo  Mo4  1  0.51118061  0.74966151  0.48535973  1
  Mo  Mo5  1  0.51092992  0.75050385  0.01457036  1
  Mo  Mo6  1  0.48930590  0.24981024  0.51450187  1
  Mo  Mo7  1  0.48909039  0.25070055  0.98525940  1
  Mo  Mo8  1  -0.00005340  0.50022586  0.50061589  1
  Mo  Mo9  1  -0.00021288  0.00051079  0.00021172  1
  Mo  Mo10  1  0.00036606  0.00004285  0.49953133  1
  Mo  Mo11  1  0.99968102  0.50077597  0.99996437  1
  O  O12  1  0.85491199  0.74973277  0.39616201  1
  O  O13  1  0.85430999  0.75036079  0.10387546  1
  O  O14  1  0.14582357  0.24931754  0.60400218  1
  O  O15  1  0.14532218  0.25084140  0.89600746  1
  O  O16  1  0.19122245  0.75065475  0.59054873  1
  O  O17  1  0.19055829  0.75098965  0.90945479  1
  O  O18  1  0.80945736  0.25079445  0.40934217  1
  O  O19  1  0.80870237  0.25043439  0.09052753  1
  O  O20  1  0.66372516  0.50509723  0.60572919  1
  O  O21  1  0.66492144  0.99493213  0.89476459  1
  O  O22  1  0.33599351  0.00562773  0.39423050  1
  O  O23  1  0.33534705  0.49442894  0.10516123  1
  O  O24  1  0.33461603  0.49414566  0.39532177  1
  O  O25  1  0.33556860  0.00622340  0.10520068  1
  O  O26  1  0.66525033  0.99364004  0.60482085  1
  O  O27  1  0.66465641  0.50651100  0.89473111  1
