# generated using pymatgen
data_As2WO7
_symmetry_space_group_name_H-M   'P 1'
_cell_length_a   7.40835846
_cell_length_b   9.53655256
_cell_length_c   10.10886474
_cell_angle_alpha   90.00000000
_cell_angle_beta   94.39399914
_cell_angle_gamma   90.00000000
_symmetry_Int_Tables_number   1
_chemical_formula_structural   As2WO7
_chemical_formula_sum   'As8 W4 O28'
_cell_volume   712.09414369
_cell_formula_units_Z   4
loop_
 _symmetry_equiv_pos_site_id
 _symmetry_equiv_pos_as_xyz
  1  'x, y, z'
loop_
 _atom_site_type_symbol
 _atom_site_label
 _atom_site_symmetry_multiplicity
 _atom_site_fract_x
 _atom_site_fract_y
 _atom_site_fract_z
 _atom_site_occupancy
  As  As0  1  0.40261981  0.22753865  0.76724530  1
  As  As1  1  0.59738019  0.72753865  0.73275470  1
  As  As2  1  0.59738019  0.77246135  0.23275470  1
  As  As3  1  0.40261981  0.27246135  0.26724530  1
  As  As4  1  0.12551216  0.24097616  0.00587997  1
  As  As5  1  0.87448784  0.74097616  0.49412003  1
  As  As6  1  0.87448784  0.75902384  0.99412003  1
  As  As7  1  0.12551216  0.25902384  0.50587997  1
  W  W8  1  0.80440581  0.04325708  0.69554443  1
  W  W9  1  0.19559419  0.54325708  0.80445557  1
  W  W10  1  0.19559419  0.95674292  0.30445557  1
  W  W11  1  0.80440581  0.45674292  0.19554443  1
  O  O12  1  0.88199817  0.34080389  0.07075234  1
  O  O13  1  0.11800183  0.84080389  0.42924766  1
  O  O14  1  0.11800183  0.65919611  0.92924766  1
  O  O15  1  0.88199817  0.15919611  0.57075234  1
  O  O16  1  0.39876034  0.40845039  0.75243547  1
  O  O17  1  0.60123966  0.90845039  0.74756453  1
  O  O18  1  0.60123966  0.59154961  0.24756453  1
  O  O19  1  0.39876034  0.09154961  0.25243547  1
  O  O20  1  0.35376253  0.17195512  0.92060933  1
  O  O21  1  0.64623747  0.67195512  0.57939067  1
  O  O22  1  0.64623747  0.82804488  0.07939067  1
  O  O23  1  0.35376253  0.32804488  0.42060933  1
  O  O24  1  0.26735780  0.15233858  0.63685965  1
  O  O25  1  0.73264220  0.65233858  0.86314035  1
  O  O26  1  0.73264220  0.84766142  0.36314035  1
  O  O27  1  0.26735780  0.34766142  0.13685965  1
  O  O28  1  0.10487471  0.12354189  0.38383820  1
  O  O29  1  0.89512529  0.62354189  0.11616180  1
  O  O30  1  0.89512529  0.87645811  0.61616180  1
  O  O31  1  0.10487471  0.37645811  0.88383820  1
  O  O32  1  0.62157235  0.31806194  0.24131965  1
  O  O33  1  0.37842765  0.81806194  0.25868035  1
  O  O34  1  0.37842765  0.68193806  0.75868035  1
  O  O35  1  0.62157235  0.18193806  0.74131965  1
  O  O36  1  0.96234477  0.44329564  0.33189805  1
  O  O37  1  0.03765523  0.94329564  0.16810195  1
  O  O38  1  0.03765523  0.55670436  0.66810195  1
  O  O39  1  0.96234477  0.05670436  0.83189805  1
