# generated using pymatgen
data_CaCu2(MoO4)2
_symmetry_space_group_name_H-M   'P 1'
_cell_length_a   6.75879804
_cell_length_b   9.00875564
_cell_length_c   13.19799721
_cell_angle_alpha   90.00000000
_cell_angle_beta   88.83812392
_cell_angle_gamma   90.00000000
_symmetry_Int_Tables_number   1
_chemical_formula_structural   CaCu2(MoO4)2
_chemical_formula_sum   'Ca4 Cu8 Mo8 O32'
_cell_volume   803.43918140
_cell_formula_units_Z   4
loop_
 _symmetry_equiv_pos_site_id
 _symmetry_equiv_pos_as_xyz
  1  'x, y, z'
loop_
 _atom_site_type_symbol
 _atom_site_label
 _atom_site_symmetry_multiplicity
 _atom_site_fract_x
 _atom_site_fract_y
 _atom_site_fract_z
 _atom_site_occupancy
  Ca  Ca0  1  0.12313124  0.16510196  0.04648094  1
  Ca  Ca1  1  0.87686876  0.83489804  0.95351906  1
  Ca  Ca2  1  0.87686876  0.66510196  0.45351906  1
  Ca  Ca3  1  0.12313124  0.33489804  0.54648094  1
  Cu  Cu4  1  0.76694710  0.18753109  0.85744505  1
  Cu  Cu5  1  0.38880186  0.04978396  0.62347610  1
  Cu  Cu6  1  0.61119814  0.95021604  0.37652390  1
  Cu  Cu7  1  0.23305290  0.81246891  0.14255495  1
  Cu  Cu8  1  0.76694710  0.31246891  0.35744505  1
  Cu  Cu9  1  0.38880186  0.45021604  0.12347610  1
  Cu  Cu10  1  0.23305290  0.68753109  0.64255495  1
  Cu  Cu11  1  0.61119814  0.54978396  0.87652390  1
  Mo  Mo12  1  0.09448716  0.45822887  0.84474342  1
  Mo  Mo13  1  0.09448716  0.04177113  0.34474342  1
  Mo  Mo14  1  0.60590442  0.07867988  0.13721649  1
  Mo  Mo15  1  0.90551284  0.95822887  0.65525658  1
  Mo  Mo16  1  0.39409558  0.92132012  0.86278351  1
  Mo  Mo17  1  0.39409558  0.57867988  0.36278351  1
  Mo  Mo18  1  0.60590442  0.42132012  0.63721649  1
  Mo  Mo19  1  0.90551284  0.54177113  0.15525658  1
  O  O20  1  0.02207045  0.22774059  0.38894905  1
  O  O21  1  0.66956149  0.00162985  0.60371300  1
  O  O22  1  0.18928054  0.56823584  0.45528431  1
  O  O23  1  0.81071946  0.06823584  0.04471569  1
  O  O24  1  0.02207045  0.27225941  0.88894905  1
  O  O25  1  0.97792955  0.77225941  0.61105095  1
  O  O26  1  0.09090979  0.09317124  0.61038561  1
  O  O27  1  0.48725694  0.90167528  0.13311360  1
  O  O28  1  0.48725694  0.59832472  0.63311360  1
  O  O29  1  0.31230295  0.88349938  0.73557362  1
  O  O30  1  0.68769705  0.38349938  0.76442638  1
  O  O31  1  0.51274306  0.09832472  0.86688640  1
  O  O32  1  0.90909021  0.90682876  0.38961439  1
  O  O33  1  0.87721445  0.53274153  0.29102382  1
  O  O34  1  0.43471840  0.27823564  0.59974132  1
  O  O35  1  0.43471840  0.22176436  0.09974132  1
  O  O36  1  0.12278555  0.03274153  0.20897618  1
  O  O37  1  0.51274306  0.40167528  0.36688640  1
  O  O38  1  0.12278555  0.46725847  0.70897618  1
  O  O39  1  0.81071946  0.43176416  0.54471569  1
  O  O40  1  0.66956149  0.49837015  0.10371300  1
  O  O41  1  0.68769705  0.11650062  0.26442638  1
  O  O42  1  0.97792955  0.72774059  0.11105095  1
  O  O43  1  0.09090979  0.40682876  0.11038561  1
  O  O44  1  0.18928054  0.93176416  0.95528431  1
  O  O45  1  0.56528160  0.77823564  0.90025868  1
  O  O46  1  0.33043851  0.99837015  0.39628700  1
  O  O47  1  0.33043851  0.50162985  0.89628700  1
  O  O48  1  0.90909021  0.59317124  0.88961439  1
  O  O49  1  0.56528160  0.72176436  0.40025868  1
  O  O50  1  0.31230295  0.61650062  0.23557362  1
  O  O51  1  0.87721445  0.96725847  0.79102382  1
