# generated using pymatgen
data_Ca(SnO2)2
_symmetry_space_group_name_H-M   'P 1'
_cell_length_a   6.77817061
_cell_length_b   6.77816967
_cell_length_c   6.35571135
_cell_angle_alpha   62.04117245
_cell_angle_beta   62.04118538
_cell_angle_gamma   67.83921199
_symmetry_Int_Tables_number   1
_chemical_formula_structural   Ca(SnO2)2
_chemical_formula_sum   'Ca2 Sn4 O8'
_cell_volume   223.13498419
_cell_formula_units_Z   2
loop_
 _symmetry_equiv_pos_site_id
 _symmetry_equiv_pos_as_xyz
  1  'x, y, z'
loop_
 _atom_site_type_symbol
 _atom_site_label
 _atom_site_symmetry_multiplicity
 _atom_site_fract_x
 _atom_site_fract_y
 _atom_site_fract_z
 _atom_site_occupancy
  Ca  Ca0  1  0.12500000  0.62500000  0.62500000  1
  Ca  Ca1  1  0.62500000  0.12500000  0.62500000  1
  Sn  Sn2  1  0.00151170  0.00151170  0.99848830  1
  Sn  Sn3  1  0.24848830  0.24848830  0.25151170  1
  Sn  Sn4  1  0.62500000  0.62500000  0.12500000  1
  Sn  Sn5  1  0.62500000  0.62500000  0.62500000  1
  O  O6  1  0.39504360  0.39504360  0.36296737  1
  O  O7  1  0.43905301  0.80717243  0.37688778  1
  O  O8  1  0.39504360  0.39504360  0.84694742  1
  O  O9  1  0.80717243  0.43905301  0.37688778  1
  O  O10  1  0.44282757  0.81094699  0.87311222  1
  O  O11  1  0.81094699  0.44282757  0.87311222  1
  O  O12  1  0.85495640  0.85495640  0.40305258  1
  O  O13  1  0.85495640  0.85495640  0.88703263  1
