# generated using pymatgen
data_MgAgBiO5
_symmetry_space_group_name_H-M   'P 1'
_cell_length_a   5.66923575
_cell_length_b   7.99335989
_cell_length_c   10.72779797
_cell_angle_alpha   90.00000000
_cell_angle_beta   90.00000000
_cell_angle_gamma   94.98443725
_symmetry_Int_Tables_number   1
_chemical_formula_structural   MgAgBiO5
_chemical_formula_sum   'Mg4 Ag4 Bi4 O20'
_cell_volume   484.30505349
_cell_formula_units_Z   4
loop_
 _symmetry_equiv_pos_site_id
 _symmetry_equiv_pos_as_xyz
  1  'x, y, z'
loop_
 _atom_site_type_symbol
 _atom_site_label
 _atom_site_symmetry_multiplicity
 _atom_site_fract_x
 _atom_site_fract_y
 _atom_site_fract_z
 _atom_site_occupancy
  Mg  Mg0  1  0.58310753  0.17373617  0.93880644  1
  Mg  Mg1  1  0.41689247  0.82626383  0.06119356  1
  Mg  Mg2  1  0.91689247  0.32626383  0.43880644  1
  Mg  Mg3  1  0.08310753  0.67373617  0.56119356  1
  Ag  Ag4  1  0.78223885  0.96777552  0.62324427  1
  Ag  Ag5  1  0.21776115  0.03222448  0.37675573  1
  Ag  Ag6  1  0.71776115  0.53222448  0.12324427  1
  Ag  Ag7  1  0.28223885  0.46777552  0.87675573  1
  Bi  Bi8  1  0.07571778  0.16071142  0.10147763  1
  Bi  Bi9  1  0.92428222  0.83928858  0.89852237  1
  Bi  Bi10  1  0.57571778  0.66071142  0.39852237  1
  Bi  Bi11  1  0.42428222  0.33928858  0.60147763  1
  O  O12  1  0.36134978  0.33198975  0.03959329  1
  O  O13  1  0.84528987  0.33311141  0.02808297  1
  O  O14  1  0.53799770  0.70696486  0.20599784  1
  O  O15  1  0.73779776  0.50644805  0.54488377  1
  O  O16  1  0.76041205  0.46908809  0.30461098  1
  O  O17  1  0.26041205  0.96908809  0.19538902  1
  O  O18  1  0.34528987  0.83311141  0.47191703  1
  O  O19  1  0.65471013  0.16688859  0.52808297  1
  O  O20  1  0.26220224  0.49355195  0.45511623  1
  O  O21  1  0.13865022  0.16801025  0.53959429  1
  O  O22  1  0.23958795  0.53091191  0.69538902  1
  O  O23  1  0.63865022  0.66801025  0.96040571  1
  O  O24  1  0.86134978  0.83198975  0.46040571  1
  O  O25  1  0.73958795  0.03091191  0.80461098  1
  O  O26  1  0.76220224  0.99355195  0.04488377  1
  O  O27  1  0.23779776  0.00644805  0.95511623  1
  O  O28  1  0.46200230  0.29303514  0.79400216  1
  O  O29  1  0.15471013  0.66688859  0.97191703  1
  O  O30  1  0.96200230  0.79303514  0.70599784  1
  O  O31  1  0.03799770  0.20696486  0.29400216  1
