# generated using pymatgen
data_LaMgMnFeO6
_symmetry_space_group_name_H-M   'P 1'
_cell_length_a   5.48033609
_cell_length_b   5.33946612
_cell_length_c   7.65453139
_cell_angle_alpha   90.27059224
_cell_angle_beta   90.00000000
_cell_angle_gamma   90.00000000
_symmetry_Int_Tables_number   1
_chemical_formula_structural   LaMgMnFeO6
_chemical_formula_sum   'La2 Mg2 Mn2 Fe2 O12'
_cell_volume   223.98492680
_cell_formula_units_Z   2
loop_
 _symmetry_equiv_pos_site_id
 _symmetry_equiv_pos_as_xyz
  1  'x, y, z'
loop_
 _atom_site_type_symbol
 _atom_site_label
 _atom_site_symmetry_multiplicity
 _atom_site_fract_x
 _atom_site_fract_y
 _atom_site_fract_z
 _atom_site_occupancy
  La  La0  1  0.03362260  0.99189936  0.25046141  1
  La  La1  1  0.46637740  0.49189936  0.75046141  1
  Mg  Mg2  1  0.55375627  0.52607043  0.25040489  1
  Mg  Mg3  1  0.94624373  0.02607043  0.75040489  1
  Mn  Mn4  1  0.50202497  0.99948038  0.49927840  1
  Mn  Mn5  1  0.99797503  0.49948038  0.99927840  1
  Fe  Fe6  1  0.49986967  0.00130353  0.00250916  1
  Fe  Fe7  1  0.00013033  0.50130353  0.50250916  1
  O  O8  1  0.02024252  0.62678793  0.75526360  1
  O  O9  1  0.19486692  0.19948888  0.94248512  1
  O  O10  1  0.20375593  0.18878986  0.55752644  1
  O  O11  1  0.29624407  0.68878986  0.05752644  1
  O  O12  1  0.30513308  0.69948888  0.44248512  1
  O  O13  1  0.47975748  0.12678793  0.25526260  1
  O  O14  1  0.54355610  0.92411131  0.74471922  1
  O  O15  1  0.72747327  0.26629396  0.55132536  1
  O  O16  1  0.73299547  0.27577235  0.94602641  1
  O  O17  1  0.76700453  0.77577235  0.44602641  1
  O  O18  1  0.77252673  0.76629396  0.05132536  1
  O  O19  1  0.95644390  0.42411131  0.24471922  1
