# generated using pymatgen
data_MgBiMoO5
_symmetry_space_group_name_H-M   'P 1'
_cell_length_a   5.42198727
_cell_length_b   7.99891075
_cell_length_c   11.85078857
_cell_angle_alpha   90.00000000
_cell_angle_beta   90.00000000
_cell_angle_gamma   104.90966231
_symmetry_Int_Tables_number   1
_chemical_formula_structural   MgBiMoO5
_chemical_formula_sum   'Mg4 Bi4 Mo4 O20'
_cell_volume   496.66467516
_cell_formula_units_Z   4
loop_
 _symmetry_equiv_pos_site_id
 _symmetry_equiv_pos_as_xyz
  1  'x, y, z'
loop_
 _atom_site_type_symbol
 _atom_site_label
 _atom_site_symmetry_multiplicity
 _atom_site_fract_x
 _atom_site_fract_y
 _atom_site_fract_z
 _atom_site_occupancy
  Mg  Mg0  1  0.61162655  0.17148985  0.92105478  1
  Mg  Mg1  1  0.38837345  0.82851015  0.07894522  1
  Mg  Mg2  1  0.88837345  0.32851015  0.42105478  1
  Mg  Mg3  1  0.11162655  0.67148985  0.57894522  1
  Bi  Bi4  1  0.10019799  0.15541573  0.10363951  1
  Bi  Bi5  1  0.89980201  0.84458427  0.89636049  1
  Bi  Bi6  1  0.60019799  0.65541573  0.39636049  1
  Bi  Bi7  1  0.39980201  0.34458427  0.60363951  1
  Mo  Mo8  1  0.77180644  0.97492956  0.63762541  1
  Mo  Mo9  1  0.22819356  0.02507044  0.36237459  1
  Mo  Mo10  1  0.72819356  0.52507044  0.13762541  1
  Mo  Mo11  1  0.27180644  0.47492956  0.86237459  1
  O  O12  1  0.54634216  0.32506046  0.06622842  1
  O  O13  1  0.99447600  0.32840981  0.92804564  1
  O  O14  1  0.50924771  0.65972214  0.18426849  1
  O  O15  1  0.75627339  0.51268961  0.52757710  1
  O  O16  1  0.78249462  0.47839443  0.29354724  1
  O  O17  1  0.28249462  0.97839443  0.20645276  1
  O  O18  1  0.49447600  0.82840981  0.57195436  1
  O  O19  1  0.50552400  0.17159019  0.42804564  1
  O  O20  1  0.24372661  0.48731039  0.47242290  1
  O  O21  1  0.95365784  0.17493954  0.56622842  1
  O  O22  1  0.21750538  0.52160557  0.70645276  1
  O  O23  1  0.45365784  0.67493954  0.93377158  1
  O  O24  1  0.04634216  0.82506046  0.43377158  1
  O  O25  1  0.71750538  0.02160557  0.79354724  1
  O  O26  1  0.74372661  0.98731039  0.02757710  1
  O  O27  1  0.25627339  0.01268961  0.97242290  1
  O  O28  1  0.49075229  0.34027786  0.81573151  1
  O  O29  1  0.00552400  0.67159019  0.07195436  1
  O  O30  1  0.99075229  0.84027786  0.68426849  1
  O  O31  1  0.00924771  0.15972214  0.31573151  1
