# generated using pymatgen
data_CaBi3O7
_symmetry_space_group_name_H-M   'P 1'
_cell_length_a   5.74695520
_cell_length_b   11.19135952
_cell_length_c   11.22876835
_cell_angle_alpha   90.00000000
_cell_angle_beta   90.00000000
_cell_angle_gamma   90.00000000
_symmetry_Int_Tables_number   1
_chemical_formula_structural   CaBi3O7
_chemical_formula_sum   'Ca4 Bi12 O28'
_cell_volume   722.19218019
_cell_formula_units_Z   4
loop_
 _symmetry_equiv_pos_site_id
 _symmetry_equiv_pos_as_xyz
  1  'x, y, z'
loop_
 _atom_site_type_symbol
 _atom_site_label
 _atom_site_symmetry_multiplicity
 _atom_site_fract_x
 _atom_site_fract_y
 _atom_site_fract_z
 _atom_site_occupancy
  Ca  Ca0  1  0.68263738  0.75000000  0.85591534  1
  Ca  Ca1  1  0.18263738  0.25000000  0.64408466  1
  Ca  Ca2  1  0.31736262  0.25000000  0.14408466  1
  Ca  Ca3  1  0.81736262  0.75000000  0.35591534  1
  Bi  Bi4  1  0.35770304  0.99127062  0.36656817  1
  Bi  Bi5  1  0.85770304  0.00872938  0.13343183  1
  Bi  Bi6  1  0.64229696  0.49127062  0.63343183  1
  Bi  Bi7  1  0.14229696  0.50872938  0.86656817  1
  Bi  Bi8  1  0.32128400  0.75000000  0.14772887  1
  Bi  Bi9  1  0.82128400  0.25000000  0.35227113  1
  Bi  Bi10  1  0.67871600  0.25000000  0.85227113  1
  Bi  Bi11  1  0.17871600  0.75000000  0.64772887  1
  Bi  Bi12  1  0.85770304  0.49127062  0.13343183  1
  Bi  Bi13  1  0.35770304  0.50872938  0.36656817  1
  Bi  Bi14  1  0.14229696  0.99127062  0.86656817  1
  Bi  Bi15  1  0.64229696  0.00872938  0.63343183  1
  O  O16  1  0.92771744  0.12724009  0.77645473  1
  O  O17  1  0.42771744  0.87275991  0.72354527  1
  O  O18  1  0.07228256  0.62724009  0.22354527  1
  O  O19  1  0.57228256  0.37275991  0.27645473  1
  O  O20  1  0.07228256  0.87275991  0.22354527  1
  O  O21  1  0.57228256  0.12724009  0.27645473  1
  O  O22  1  0.92771744  0.37275991  0.77645473  1
  O  O23  1  0.42771744  0.62724009  0.72354527  1
  O  O24  1  0.43559866  0.12508216  0.78290745  1
  O  O25  1  0.93559866  0.87491784  0.71709255  1
  O  O26  1  0.56440134  0.62508216  0.21709255  1
  O  O27  1  0.06440134  0.37491784  0.28290745  1
  O  O28  1  0.56440134  0.87491784  0.21709255  1
  O  O29  1  0.06440134  0.12508216  0.28290745  1
  O  O30  1  0.43559866  0.37491784  0.78290745  1
  O  O31  1  0.93559866  0.62508216  0.71709255  1
  O  O32  1  0.17262236  0.75000000  0.46600847  1
  O  O33  1  0.67262236  0.25000000  0.03399153  1
  O  O34  1  0.82737764  0.25000000  0.53399153  1
  O  O35  1  0.32737764  0.75000000  0.96600847  1
  O  O36  1  0.16018537  0.41495243  0.03804602  1
  O  O37  1  0.66018537  0.58504757  0.46195398  1
  O  O38  1  0.83981463  0.91495243  0.96195398  1
  O  O39  1  0.33981463  0.08504757  0.53804602  1
  O  O40  1  0.83981463  0.58504757  0.96195398  1
  O  O41  1  0.33981463  0.41495243  0.53804602  1
  O  O42  1  0.16018537  0.08504757  0.03804602  1
  O  O43  1  0.66018537  0.91495243  0.46195398  1
