# generated using pymatgen
data_MgCr3(P2O7)2
_symmetry_space_group_name_H-M   'P 1'
_cell_length_a   7.32733871
_cell_length_b   7.92250441
_cell_length_c   9.58247822
_cell_angle_alpha   90.00000000
_cell_angle_beta   108.37030839
_cell_angle_gamma   90.00000000
_symmetry_Int_Tables_number   1
_chemical_formula_structural   MgCr3(P2O7)2
_chemical_formula_sum   'Mg2 Cr6 P8 O28'
_cell_volume   527.92334544
_cell_formula_units_Z   2
loop_
 _symmetry_equiv_pos_site_id
 _symmetry_equiv_pos_as_xyz
  1  'x, y, z'
loop_
 _atom_site_type_symbol
 _atom_site_label
 _atom_site_symmetry_multiplicity
 _atom_site_fract_x
 _atom_site_fract_y
 _atom_site_fract_z
 _atom_site_occupancy
  Mg  Mg0  1  0.50000000  -0.00000000  0.00000000  1
  Mg  Mg1  1  0.50000000  0.50000000  0.50000000  1
  Cr  Cr2  1  0.17798045  0.86276622  0.50408527  1
  Cr  Cr3  1  0.82201955  0.36276622  0.99591473  1
  Cr  Cr4  1  0.82201955  0.13723378  0.49591473  1
  Cr  Cr5  1  0.17798045  0.63723378  0.00408527  1
  Cr  Cr6  1  0.00000000  -0.00000000  0.00000000  1
  Cr  Cr7  1  0.00000000  0.50000000  0.50000000  1
  P  P8  1  0.57257784  0.05312388  0.70133068  1
  P  P9  1  0.42742216  0.55312388  0.79866932  1
  P  P10  1  0.42742216  0.94687612  0.29866932  1
  P  P11  1  0.57257784  0.44687612  0.20133068  1
  P  P12  1  0.87190200  0.78969310  0.69153652  1
  P  P13  1  0.12809800  0.28969310  0.80846348  1
  P  P14  1  0.12809800  0.21030690  0.30846348  1
  P  P15  1  0.87190200  0.71030690  0.19153652  1
  O  O16  1  0.82087339  0.61676527  0.61568091  1
  O  O17  1  0.17912661  0.11676527  0.88431909  1
  O  O18  1  0.17912661  0.38323473  0.38431909  1
  O  O19  1  0.82087339  0.88323473  0.11568091  1
  O  O20  1  0.35153137  0.58174100  0.62974640  1
  O  O21  1  0.64846863  0.08174100  0.87025360  1
  O  O22  1  0.64846863  0.41825900  0.37025360  1
  O  O23  1  0.35153137  0.91825900  0.12974640  1
  O  O24  1  0.63650409  0.19311174  0.61681239  1
  O  O25  1  0.36349591  0.69311174  0.88318761  1
  O  O26  1  0.36349591  0.80688826  0.38318761  1
  O  O27  1  0.63650409  0.30688826  0.11681239  1
  O  O28  1  0.66852342  0.87714796  0.67073956  1
  O  O29  1  0.33147658  0.37714796  0.82926044  1
  O  O30  1  0.33147658  0.12285204  0.32926044  1
  O  O31  1  0.66852342  0.62285204  0.17073956  1
  O  O32  1  0.36051191  0.48459388  0.15315619  1
  O  O33  1  0.63948809  0.98459388  0.34684381  1
  O  O34  1  0.63948809  0.51540612  0.84684381  1
  O  O35  1  0.36051191  0.01540612  0.65315619  1
  O  O36  1  0.03005963  0.21088485  0.13899082  1
  O  O37  1  0.96994037  0.71088485  0.36100918  1
  O  O38  1  0.96994037  0.78911515  0.86100918  1
  O  O39  1  0.03005963  0.28911515  0.63899082  1
  O  O40  1  0.98440600  0.60070177  0.11787803  1
  O  O41  1  0.01559400  0.10070177  0.38212197  1
  O  O42  1  0.01559400  0.39929823  0.88212197  1
  O  O43  1  0.98440600  0.89929823  0.61787803  1
