# generated using pymatgen
data_CaTiAg(PO4)3
_symmetry_space_group_name_H-M   'P 1'
_cell_length_a   8.90133459
_cell_length_b   8.90133398
_cell_length_c   8.90133456
_cell_angle_alpha   59.63221112
_cell_angle_beta   59.63221301
_cell_angle_gamma   59.63221202
_symmetry_Int_Tables_number   1
_chemical_formula_structural   CaTiAg(PO4)3
_chemical_formula_sum   'Ca2 Ti2 Ag2 P6 O24'
_cell_volume   494.54449616
_cell_formula_units_Z   2
loop_
 _symmetry_equiv_pos_site_id
 _symmetry_equiv_pos_as_xyz
  1  'x, y, z'
loop_
 _atom_site_type_symbol
 _atom_site_label
 _atom_site_symmetry_multiplicity
 _atom_site_fract_x
 _atom_site_fract_y
 _atom_site_fract_z
 _atom_site_occupancy
  Ca  Ca0  1  0.99508628  0.99508628  0.99508628  1
  Ca  Ca1  1  0.49508628  0.49508628  0.49508628  1
  Ti  Ti2  1  0.14772443  0.14772443  0.14772443  1
  Ti  Ti3  1  0.64772443  0.64772443  0.64772443  1
  Ag  Ag4  1  0.34940919  0.34940919  0.34940919  1
  Ag  Ag5  1  0.84940919  0.84940919  0.84940919  1
  P  P6  1  0.04084305  0.45054549  0.75824492  1
  P  P7  1  0.45054549  0.75824492  0.04084305  1
  P  P8  1  0.75824492  0.04084305  0.45054549  1
  P  P9  1  0.25824492  0.95054549  0.54084305  1
  P  P10  1  0.54084305  0.25824492  0.95054549  1
  P  P11  1  0.95054549  0.54084305  0.25824492  1
  O  O12  1  0.10258448  0.53412661  0.29672313  1
  O  O13  1  0.29672313  0.10258448  0.53412661  1
  O  O14  1  0.04712331  0.26829209  0.92884934  1
  O  O15  1  0.53412661  0.29672313  0.10258448  1
  O  O16  1  0.03412661  0.60258448  0.79672313  1
  O  O17  1  0.22609311  0.42461183  0.59736777  1
  O  O18  1  0.26829209  0.92884934  0.04712331  1
  O  O19  1  0.42461183  0.59736777  0.22609311  1
  O  O20  1  0.20948985  0.00311711  0.36976700  1
  O  O21  1  0.59736777  0.22609311  0.42461183  1
  O  O22  1  0.09736777  0.92461183  0.72609311  1
  O  O23  1  0.36976700  0.20948985  0.00311711  1
  O  O24  1  0.60258448  0.79672313  0.03412661  1
  O  O25  1  0.92884934  0.04712331  0.26829209  1
  O  O26  1  0.42884934  0.76829209  0.54712331  1
  O  O27  1  0.79672313  0.03412661  0.60258448  1
  O  O28  1  0.54712331  0.42884934  0.76829209  1
  O  O29  1  0.72609311  0.09736777  0.92461183  1
  O  O30  1  0.76829209  0.54712331  0.42884934  1
  O  O31  1  0.00311711  0.36976700  0.20948985  1
  O  O32  1  0.50311711  0.70948985  0.86976700  1
  O  O33  1  0.92461183  0.72609311  0.09736777  1
  O  O34  1  0.70948985  0.86976700  0.50311711  1
  O  O35  1  0.86976700  0.50311711  0.70948985  1
