# generated using pymatgen
data_ZnCu(GeO3)2
_symmetry_space_group_name_H-M   'P 1'
_cell_length_a   5.43508509
_cell_length_b   9.45096562
_cell_length_c   9.62162435
_cell_angle_alpha   90.00000000
_cell_angle_beta   99.39636879
_cell_angle_gamma   90.00000000
_symmetry_Int_Tables_number   1
_chemical_formula_structural   ZnCu(GeO3)2
_chemical_formula_sum   'Zn4 Cu4 Ge8 O24'
_cell_volume   487.60072258
_cell_formula_units_Z   4
loop_
 _symmetry_equiv_pos_site_id
 _symmetry_equiv_pos_as_xyz
  1  'x, y, z'
loop_
 _atom_site_type_symbol
 _atom_site_label
 _atom_site_symmetry_multiplicity
 _atom_site_fract_x
 _atom_site_fract_y
 _atom_site_fract_z
 _atom_site_occupancy
  Zn  Zn0  1  0.45165275  0.50488042  0.24956944  1
  Zn  Zn1  1  0.04834725  0.00488042  0.75043056  1
  Zn  Zn2  1  0.54834725  0.49511958  0.75043056  1
  Zn  Zn3  1  0.95165275  0.99511958  0.24956944  1
  Cu  Cu4  1  0.95967990  0.64977210  0.24209932  1
  Cu  Cu5  1  0.54032010  0.14977210  0.75790068  1
  Cu  Cu6  1  0.04032010  0.35022790  0.75790068  1
  Cu  Cu7  1  0.45967990  0.85022790  0.24209932  1
  Ge  Ge8  1  0.82679491  0.33934904  0.06014036  1
  Ge  Ge9  1  0.67320509  0.83934904  0.93985964  1
  Ge  Ge10  1  0.17320509  0.66065096  0.93985964  1
  Ge  Ge11  1  0.32679491  0.16065096  0.06014036  1
  Ge  Ge12  1  0.23557360  0.34042675  0.46120533  1
  Ge  Ge13  1  0.26442640  0.84042675  0.53879467  1
  Ge  Ge14  1  0.76442640  0.65957325  0.53879467  1
  Ge  Ge15  1  0.73557360  0.15957325  0.46120533  1
  O  O16  1  0.49184944  0.27382247  0.38641276  1
  O  O17  1  0.00815056  0.77382247  0.61358724  1
  O  O18  1  0.50815056  0.72617753  0.61358724  1
  O  O19  1  0.99184944  0.22617753  0.38641276  1
  O  O20  1  0.15728334  0.31141906  0.11044253  1
  O  O21  1  0.34271666  0.81141906  0.88955847  1
  O  O22  1  0.84271666  0.68858094  0.88955847  1
  O  O23  1  0.65728334  0.18858094  0.11044253  1
  O  O24  1  0.71400787  0.99063211  0.38623778  1
  O  O25  1  0.78599213  0.49063211  0.61376222  1
  O  O26  1  0.28599213  0.00936789  0.61376222  1
  O  O27  1  0.21400787  0.50936789  0.38623778  1
  O  O28  1  0.23197853  0.01129115  0.14466102  1
  O  O29  1  0.26802147  0.51129115  0.85533898  1
  O  O30  1  0.76802147  0.98870885  0.85533898  1
  O  O31  1  0.73197853  0.48870885  0.14466102  1
  O  O32  1  0.77370459  0.35003803  0.87274712  1
  O  O33  1  0.72629541  0.85003803  0.12725288  1
  O  O34  1  0.22629541  0.64996197  0.12725288  1
  O  O35  1  0.27370459  0.14996197  0.87274712  1
  O  O36  1  0.31004579  0.33016939  0.64871286  1
  O  O37  1  0.18995521  0.83016939  0.35128714  1
  O  O38  1  0.68995521  0.66983061  0.35128714  1
  O  O39  1  0.81004479  0.16983061  0.64871286  1
