# generated using pymatgen
data_AgSbC2N2(ClF3)2
_symmetry_space_group_name_H-M   'P 1'
_cell_length_a   7.86750828
_cell_length_b   10.02841259
_cell_length_c   9.06248219
_cell_angle_alpha   90.00000000
_cell_angle_beta   90.00000000
_cell_angle_gamma   102.84665985
_symmetry_Int_Tables_number   1
_chemical_formula_structural   AgSbC2N2(ClF3)2
_chemical_formula_sum   'Ag2 Sb2 C4 N4 Cl4 F12'
_cell_volume   697.11945201
_cell_formula_units_Z   2
loop_
 _symmetry_equiv_pos_site_id
 _symmetry_equiv_pos_as_xyz
  1  'x, y, z'
loop_
 _atom_site_type_symbol
 _atom_site_label
 _atom_site_symmetry_multiplicity
 _atom_site_fract_x
 _atom_site_fract_y
 _atom_site_fract_z
 _atom_site_occupancy
  Ag  Ag0  1  -0.00000000  0.00000000  -0.00000000  1
  Ag  Ag1  1  0.50000000  0.50000000  -0.00000000  1
  Sb  Sb2  1  0.50000000  0.50000000  0.50000000  1
  Sb  Sb3  1  -0.00000000  0.00000000  0.50000000  1
  C  C4  1  0.15188846  0.53916183  0.83119892  1
  C  C5  1  0.84811154  0.46083817  0.16880108  1
  C  C6  1  0.34811154  0.96083817  0.83119892  1
  C  C7  1  0.65188846  0.03916183  0.16880108  1
  N  N8  1  0.22845943  0.96386981  0.90640968  1
  N  N9  1  0.72845943  0.46386981  0.09359032  1
  N  N10  1  0.27154057  0.53613019  0.90640968  1
  N  N11  1  0.77154057  0.03613019  0.09359032  1
  Cl  Cl12  1  0.51462674  0.95593916  0.73259228  1
  Cl  Cl13  1  0.98537326  0.54406084  0.73259228  1
  Cl  Cl14  1  0.48537326  0.04406084  0.26740772  1
  Cl  Cl15  1  0.01462674  0.45593916  0.26740772  1
  F  F16  1  0.26899231  0.41081527  0.56019401  1
  F  F17  1  0.76899231  0.91081527  0.43980599  1
  F  F18  1  0.91353540  0.01375264  0.69894930  1
  F  F19  1  0.73100769  0.58918473  0.43980599  1
  F  F20  1  0.94929827  0.17291627  0.45087219  1
  F  F21  1  0.55070173  0.32708373  0.45087219  1
  F  F22  1  0.23100769  0.08918473  0.56019401  1
  F  F23  1  0.58646460  0.48624736  0.69894930  1
  F  F24  1  0.08646460  0.98624736  0.30105070  1
  F  F25  1  0.05070173  0.82708373  0.54912781  1
  F  F26  1  0.44929827  0.67291627  0.54912781  1
  F  F27  1  0.41353540  0.51375264  0.30105070  1
