# generated using pymatgen
data_V2Zn(PO5)2
_symmetry_space_group_name_H-M   'P 1'
_cell_length_a   6.68798694
_cell_length_b   6.68798674
_cell_length_c   8.89628936
_cell_angle_alpha   102.62624126
_cell_angle_beta   102.62624258
_cell_angle_gamma   114.73786244
_symmetry_Int_Tables_number   1
_chemical_formula_structural   V2Zn(PO5)2
_chemical_formula_sum   'V4 Zn2 P4 O20'
_cell_volume   330.38004747
_cell_formula_units_Z   2
loop_
 _symmetry_equiv_pos_site_id
 _symmetry_equiv_pos_as_xyz
  1  'x, y, z'
loop_
 _atom_site_type_symbol
 _atom_site_label
 _atom_site_symmetry_multiplicity
 _atom_site_fract_x
 _atom_site_fract_y
 _atom_site_fract_z
 _atom_site_occupancy
  V  V0  1  0.87879279  0.61115319  0.26113630  1
  V  V1  1  0.35001689  0.61765549  0.73886370  1
  V  V2  1  0.86765549  0.10001689  0.23886370  1
  V  V3  1  0.86115319  0.62879279  0.76113630  1
  Zn  Zn4  1  0.50631298  0.00631298  0.50000000  1
  Zn  Zn5  1  0.25631298  0.25631298  1.00000000  1
  P  P6  1  0.03601533  0.03705574  0.58378169  1
  P  P7  1  0.70223364  0.20327406  0.91621831  1
  P  P8  1  0.45327406  0.45223364  0.41621831  1
  P  P9  1  0.28705574  0.78601533  0.08378169  1
  O  O10  1  0.58652705  0.55625203  0.30787867  1
  O  O11  1  0.65670679  0.66249151  0.83524754  1
  O  O12  1  0.30687003  0.58469221  0.96870633  1
  O  O13  1  0.80625203  0.33652705  0.80787867  1
  O  O14  1  0.21588079  0.24288674  0.29848299  1
  O  O15  1  0.42703257  0.65095154  0.52858977  1
  O  O16  1  0.07145925  0.57724397  0.66475246  1
  O  O17  1  0.82724397  0.82145925  0.16475246  1
  O  O18  1  0.91249151  0.40670679  0.33524754  1
  O  O19  1  0.16739680  0.69440374  0.20151701  1
  O  O20  1  0.24837336  0.27864937  0.69212133  1
  O  O21  1  0.49288674  0.96588079  0.79848299  1
  O  O22  1  0.94440374  0.91739680  0.70151701  1
  O  O23  1  0.14844481  0.87236278  0.97141023  1
  O  O24  1  0.12236278  0.89844481  0.47141023  1
  O  O25  1  0.90095154  0.17703257  0.02858977  1
  O  O26  1  0.83469221  0.05687003  0.46870633  1
  O  O27  1  0.61598588  0.33816370  0.03129367  1
  O  O28  1  0.52864937  0.99837336  0.19212133  1
  O  O29  1  0.58816370  0.36598588  0.53129367  1
