# generated using pymatgen
data_MgTiBiO5
_symmetry_space_group_name_H-M   'P 1'
_cell_length_a   5.37198590
_cell_length_b   8.26319342
_cell_length_c   10.85218727
_cell_angle_alpha   90.00000000
_cell_angle_beta   90.00000000
_cell_angle_gamma   106.98558028
_symmetry_Int_Tables_number   1
_chemical_formula_structural   MgTiBiO5
_chemical_formula_sum   'Mg4 Ti4 Bi4 O20'
_cell_volume   460.71227051
_cell_formula_units_Z   4
loop_
 _symmetry_equiv_pos_site_id
 _symmetry_equiv_pos_as_xyz
  1  'x, y, z'
loop_
 _atom_site_type_symbol
 _atom_site_label
 _atom_site_symmetry_multiplicity
 _atom_site_fract_x
 _atom_site_fract_y
 _atom_site_fract_z
 _atom_site_occupancy
  Mg  Mg0  1  0.62923585  0.16793913  0.90970298  1
  Mg  Mg1  1  0.37076415  0.83206087  0.09029702  1
  Mg  Mg2  1  0.87076415  0.33206087  0.40970298  1
  Mg  Mg3  1  0.12923585  0.66793913  0.59029702  1
  Ti  Ti4  1  0.80590508  0.95244994  0.62132957  1
  Ti  Ti5  1  0.19409492  0.04755006  0.37867043  1
  Ti  Ti6  1  0.69409492  0.54755006  0.12132957  1
  Ti  Ti7  1  0.30590508  0.45244994  0.87867043  1
  Bi  Bi8  1  0.11765150  0.15880028  0.10446537  1
  Bi  Bi9  1  0.88234850  0.84119972  0.89553463  1
  Bi  Bi10  1  0.61765150  0.65880028  0.39553463  1
  Bi  Bi11  1  0.38234850  0.34119972  0.60446537  1
  O  O12  1  0.50074113  0.34480566  0.04202603  1
  O  O13  1  0.00673347  0.31894490  0.95361866  1
  O  O14  1  0.49795121  0.67408695  0.19809218  1
  O  O15  1  0.75671715  0.50632140  0.53473888  1
  O  O16  1  0.78955163  0.48439680  0.27201849  1
  O  O17  1  0.28955163  0.98439680  0.22798151  1
  O  O18  1  0.50673347  0.81894490  0.54638134  1
  O  O19  1  0.49326653  0.18105510  0.45361866  1
  O  O20  1  0.24328285  0.49367860  0.46526112  1
  O  O21  1  0.99925887  0.15519434  0.54202603  1
  O  O22  1  0.21044837  0.51560320  0.72798151  1
  O  O23  1  0.49925887  0.65519434  0.95797397  1
  O  O24  1  0.00074113  0.84480566  0.45797397  1
  O  O25  1  0.71044837  0.01560320  0.77201849  1
  O  O26  1  0.74328285  0.99367860  0.03473888  1
  O  O27  1  0.25671715  0.00632140  0.96526112  1
  O  O28  1  0.50204879  0.32591305  0.80190682  1
  O  O29  1  0.99326653  0.68105510  0.04638134  1
  O  O30  1  0.00204879  0.82591305  0.69809318  1
  O  O31  1  0.99795121  0.17408695  0.30190682  1
