# generated using pymatgen
data_HgTe
_symmetry_space_group_name_H-M   'P 1'
_cell_length_a   4.70455547
_cell_length_b   4.70455547
_cell_length_c   10.41054476
_cell_angle_alpha   90.00000000
_cell_angle_beta   90.00000000
_cell_angle_gamma   119.99999530
_symmetry_Int_Tables_number   1
_chemical_formula_structural   HgTe
_chemical_formula_sum   'Hg3 Te3'
_cell_volume   199.54520406
_cell_formula_units_Z   3
loop_
 _symmetry_equiv_pos_site_id
 _symmetry_equiv_pos_as_xyz
  1  'x, y, z'
loop_
 _atom_site_type_symbol
 _atom_site_label
 _atom_site_symmetry_multiplicity
 _atom_site_fract_x
 _atom_site_fract_y
 _atom_site_fract_z
 _atom_site_occupancy
  Hg  Hg0  1  0.35094431  0.00000000  0.00003300  1
  Hg  Hg1  1  0.64905569  0.64905569  0.33336700  1
  Hg  Hg2  1  0.00000000  0.35094431  0.66670000  1
  Te  Te3  1  0.47630783  0.00000000  0.50003300  1
  Te  Te4  1  0.52369217  0.52369217  0.83336700  1
  Te  Te5  1  0.00000000  0.47630783  0.16670000  1
