# generated using pymatgen
data_Mg(CuO2)2
_symmetry_space_group_name_H-M   'P 1'
_cell_length_a   5.94437090
_cell_length_b   5.94425566
_cell_length_c   17.72951186
_cell_angle_alpha   59.80137697
_cell_angle_beta   59.79965750
_cell_angle_gamma   59.99587174
_symmetry_Int_Tables_number   1
_chemical_formula_structural   Mg(CuO2)2
_chemical_formula_sum   'Mg6 Cu12 O24'
_cell_volume   441.62699526
_cell_formula_units_Z   6
loop_
 _symmetry_equiv_pos_site_id
 _symmetry_equiv_pos_as_xyz
  1  'x, y, z'
loop_
 _atom_site_type_symbol
 _atom_site_label
 _atom_site_symmetry_multiplicity
 _atom_site_fract_x
 _atom_site_fract_y
 _atom_site_fract_z
 _atom_site_occupancy
  Mg  Mg0  1  0.11798274  0.11812613  0.04864433  1
  Mg  Mg1  1  0.11944361  0.11959364  0.38050091  1
  Mg  Mg2  1  0.49871607  0.49871995  0.33465560  1
  Mg  Mg3  1  0.12064235  0.12065097  0.71269941  1
  Mg  Mg4  1  0.49886676  0.49876910  0.00109670  1
  Mg  Mg5  1  0.87725087  0.87722586  0.62278631  1
  Cu  Cu6  1  0.49884010  0.49884228  0.16688026  1
  Cu  Cu7  1  0.49892700  0.00166696  0.16685060  1
  Cu  Cu8  1  0.49978705  0.49980455  0.49962092  1
  Cu  Cu9  1  0.00175785  0.49888375  0.16684863  1
  Cu  Cu10  1  0.49988059  0.00148897  0.49961892  1
  Cu  Cu11  1  0.50075455  0.50076186  0.66591662  1
  Cu  Cu12  1  0.87992767  0.87982838  0.28677943  1
  Cu  Cu13  1  0.49894890  0.49894905  0.83403154  1
  Cu  Cu14  1  0.00146544  0.49990702  0.49961324  1
  Cu  Cu15  1  0.49895310  0.99986716  0.83404823  1
  Cu  Cu16  1  0.99989930  0.49895500  0.83404668  1
  Cu  Cu17  1  0.87754015  0.87746858  0.95580715  1
  O  O18  1  0.25625844  0.25642457  0.09202030  1
  O  O19  1  0.25605576  0.25638151  0.24373306  1
  O  O20  1  0.25639007  0.71111597  0.09213459  1
  O  O21  1  0.71101890  0.25653405  0.09214264  1
  O  O22  1  0.25522207  0.25524689  0.42524251  1
  O  O23  1  0.28587860  0.74648750  0.24020614  1
  O  O24  1  0.25744091  0.25756119  0.57573854  1
  O  O25  1  0.74666525  0.28583446  0.24019316  1
  O  O26  1  0.74603681  0.74559168  0.08758382  1
  O  O27  1  0.25522465  0.71398677  0.42523868  1
  O  O28  1  0.71390807  0.25527931  0.42523416  1
  O  O29  1  0.74675332  0.74656227  0.24032943  1
  O  O30  1  0.26369182  0.26339204  0.75346792  1
  O  O31  1  0.28920587  0.73934219  0.57728648  1
  O  O32  1  0.73937121  0.28922135  0.57726746  1
  O  O33  1  0.25855358  0.25849660  0.90811785  1
  O  O34  1  0.74729320  0.74724930  0.41954879  1
  O  O35  1  0.26357983  0.71273913  0.75334047  1
  O  O36  1  0.71265144  0.26337414  0.75339932  1
  O  O37  1  0.73947840  0.73944429  0.57729183  1
  O  O38  1  0.27766185  0.74696037  0.90960157  1
  O  O39  1  0.74676047  0.27754370  0.90965891  1
  O  O40  1  0.73871093  0.73877117  0.76120356  1
  O  O41  1  0.74660646  0.74694934  0.90957132  1
