# generated using pymatgen
data_CaBiMoO5
_symmetry_space_group_name_H-M   'P 1'
_cell_length_a   5.82307013
_cell_length_b   8.69017500
_cell_length_c   12.05799813
_cell_angle_alpha   90.00000000
_cell_angle_beta   90.00000000
_cell_angle_gamma   108.55928693
_symmetry_Int_Tables_number   1
_chemical_formula_structural   CaBiMoO5
_chemical_formula_sum   'Ca4 Bi4 Mo4 O20'
_cell_volume   578.44452799
_cell_formula_units_Z   4
loop_
 _symmetry_equiv_pos_site_id
 _symmetry_equiv_pos_as_xyz
  1  'x, y, z'
loop_
 _atom_site_type_symbol
 _atom_site_label
 _atom_site_symmetry_multiplicity
 _atom_site_fract_x
 _atom_site_fract_y
 _atom_site_fract_z
 _atom_site_occupancy
  Ca  Ca0  1  0.62316570  0.18344972  0.91519905  1
  Ca  Ca1  1  0.37683430  0.81655028  0.08480095  1
  Ca  Ca2  1  0.87683430  0.31655028  0.41519905  1
  Ca  Ca3  1  0.12316570  0.68344972  0.58480095  1
  Bi  Bi4  1  0.11280030  0.14436212  0.10207961  1
  Bi  Bi5  1  0.88719970  0.85563788  0.89792039  1
  Bi  Bi6  1  0.61280030  0.64436212  0.39792039  1
  Bi  Bi7  1  0.38719970  0.35563788  0.60207961  1
  Mo  Mo8  1  0.79162191  0.97568622  0.63920753  1
  Mo  Mo9  1  0.20837809  0.02431378  0.36079247  1
  Mo  Mo10  1  0.70837809  0.52431378  0.13920753  1
  Mo  Mo11  1  0.29162191  0.47568622  0.86079247  1
  O  O12  1  0.54222622  0.32788499  0.07367516  1
  O  O13  1  0.04057352  0.33070009  0.93281866  1
  O  O14  1  0.49513532  0.63207852  0.19136151  1
  O  O15  1  0.74043649  0.51210597  0.52814013  1
  O  O16  1  0.78468704  0.49304471  0.29067867  1
  O  O17  1  0.28468704  0.99304471  0.20932133  1
  O  O18  1  0.54057352  0.83070009  0.56718134  1
  O  O19  1  0.45942648  0.16929991  0.43281866  1
  O  O20  1  0.25956351  0.48789403  0.47185987  1
  O  O21  1  0.95777378  0.17211401  0.57367516  1
  O  O22  1  0.21531296  0.50695529  0.70932133  1
  O  O23  1  0.45777378  0.67211401  0.92632484  1
  O  O24  1  0.04222622  0.82788599  0.42632484  1
  O  O25  1  0.71531296  0.00695529  0.79067867  1
  O  O26  1  0.75956351  0.98789403  0.02814013  1
  O  O27  1  0.24043649  0.01210597  0.97185987  1
  O  O28  1  0.50486468  0.36792148  0.80863849  1
  O  O29  1  0.95942648  0.66929991  0.06718134  1
  O  O30  1  0.00486468  0.86792148  0.69136151  1
  O  O31  1  0.99513532  0.13207852  0.30863849  1
