# generated using pymatgen
data_Sr2YAlCr2O7
_symmetry_space_group_name_H-M   'P 1'
_cell_length_a   12.00858450
_cell_length_b   12.00858450
_cell_length_c   12.00858450
_cell_angle_alpha   38.99232101
_cell_angle_beta   152.28968161
_cell_angle_gamma   153.11556436
_symmetry_Int_Tables_number   1
_chemical_formula_structural   Sr2YAlCr2O7
_chemical_formula_sum   'Sr4 Y2 Al2 Cr4 O14'
_cell_volume   363.49391081
_cell_formula_units_Z   2
loop_
 _symmetry_equiv_pos_site_id
 _symmetry_equiv_pos_as_xyz
  1  'x, y, z'
loop_
 _atom_site_type_symbol
 _atom_site_label
 _atom_site_symmetry_multiplicity
 _atom_site_fract_x
 _atom_site_fract_y
 _atom_site_fract_z
 _atom_site_occupancy
  Sr  Sr0  1  0.03406529  0.85355013  0.86850654  1
  Sr  Sr1  1  0.98504459  0.16555875  0.13149346  1
  Sr  Sr2  1  0.03406529  0.66555875  0.68051416  1
  Sr  Sr3  1  0.98504459  0.35355013  0.31948584  1
  Y  Y4  1  0.00974470  0.50974470  0.50000000  1
  Y  Y5  1  0.00974470  0.00974470  -0.00000000  1
  Al  Al6  1  0.56910437  0.74445494  0.32464943  1
  Al  Al7  1  0.41980552  0.24445494  0.67535057  1
  Cr  Cr8  1  0.51566766  0.44087236  0.92123515  1
  Cr  Cr9  1  0.51963621  0.59443151  0.07876485  1
  Cr  Cr10  1  0.51566766  0.09443151  0.57479530  1
  Cr  Cr11  1  0.51963621  0.94087236  0.42520470  1
  O  O12  1  0.01587121  0.93108451  0.58478670  1
  O  O13  1  0.34629781  0.43108451  0.41521330  1
  O  O14  1  0.44566389  0.16730714  0.15078866  1
  O  O15  1  0.01652048  0.29487623  0.84921134  1
  O  O16  1  0.44566389  0.79487623  0.77835675  1
  O  O17  1  0.01652048  0.66730714  0.22164325  1
  O  O18  1  0.60180743  0.74086899  0.72204522  1
  O  O19  1  0.01882577  0.87976221  0.27795478  1
  O  O20  1  0.60180743  0.37976221  0.36093844  1
  O  O21  1  0.01882577  0.24086899  0.63906156  1
  O  O22  1  0.48682457  0.86703010  0.25637016  1
  O  O23  1  0.61066094  0.23045341  0.74362984  1
  O  O24  1  0.48682457  0.73045341  0.11979447  1
  O  O25  1  0.61066094  0.36703010  0.88020553  1
