# generated using pymatgen
data_Ca2Ta2FeO8
_symmetry_space_group_name_H-M   'P 1'
_cell_length_a   5.43876648
_cell_length_b   6.49170742
_cell_length_c   10.09468886
_cell_angle_alpha   108.71999489
_cell_angle_beta   92.41026665
_cell_angle_gamma   89.99240655
_symmetry_Int_Tables_number   1
_chemical_formula_structural   Ca2Ta2FeO8
_chemical_formula_sum   'Ca4 Ta4 Fe2 O16'
_cell_volume   337.22491527
_cell_formula_units_Z   2
loop_
 _symmetry_equiv_pos_site_id
 _symmetry_equiv_pos_as_xyz
  1  'x, y, z'
loop_
 _atom_site_type_symbol
 _atom_site_label
 _atom_site_symmetry_multiplicity
 _atom_site_fract_x
 _atom_site_fract_y
 _atom_site_fract_z
 _atom_site_occupancy
  Ca  Ca0  1  0.75613805  0.45307864  0.57911583  1
  Ca  Ca1  1  0.74333810  0.87354404  0.42105851  1
  Ca  Ca2  1  0.24360225  0.54523692  0.42081954  1
  Ca  Ca3  1  0.25599033  0.12394695  0.57735485  1
  Ta  Ta4  1  0.73906884  0.25743275  0.22657997  1
  Ta  Ta5  1  0.76023347  0.03117855  0.77299905  1
  Ta  Ta6  1  0.26028446  0.74071365  0.77280382  1
  Ta  Ta7  1  0.23909237  0.96680904  0.22591292  1
  Fe  Fe8  1  0.74925132  0.64421517  0.99959361  1
  Fe  Fe9  1  0.24949391  0.35409035  0.99965282  1
  O  O10  1  0.06808815  0.18789876  0.14242135  1
  O  O11  1  0.43142531  0.04492906  0.85694431  1
  O  O12  1  0.93102045  0.81001824  0.85653460  1
  O  O13  1  0.56815951  0.95297894  0.14226242  1
  O  O14  1  0.57271140  0.40312305  0.11559772  1
  O  O15  1  0.92595836  0.28799886  0.88394585  1
  O  O16  1  0.42608188  0.59485360  0.88392086  1
  O  O17  1  0.07289966  0.71028606  0.11498259  1
  O  O18  1  0.47690999  0.24817666  0.36399349  1
  O  O19  1  0.02259677  0.88484608  0.63541713  1
  O  O20  1  0.33761884  0.84409327  0.37079936  1
  O  O21  1  0.16224382  0.47311590  0.62790323  1
  O  O22  1  0.66169492  0.15318423  0.62781661  1
  O  O23  1  0.83745619  0.52465672  0.37165475  1
  O  O24  1  0.97703394  0.11298398  0.36366750  1
  O  O25  1  0.52230772  0.74966452  0.63521031  1
