# generated using pymatgen
data_SrMn(PO4)2
_symmetry_space_group_name_H-M   'P 1'
_cell_length_a   5.74537668
_cell_length_b   7.05383082
_cell_length_c   9.04854340
_cell_angle_alpha   110.04460124
_cell_angle_beta   101.68961176
_cell_angle_gamma   99.38836943
_symmetry_Int_Tables_number   1
_chemical_formula_structural   SrMn(PO4)2
_chemical_formula_sum   'Sr2 Mn2 P4 O16'
_cell_volume   326.39297006
_cell_formula_units_Z   2
loop_
 _symmetry_equiv_pos_site_id
 _symmetry_equiv_pos_as_xyz
  1  'x, y, z'
loop_
 _atom_site_type_symbol
 _atom_site_label
 _atom_site_symmetry_multiplicity
 _atom_site_fract_x
 _atom_site_fract_y
 _atom_site_fract_z
 _atom_site_occupancy
  Sr  Sr0  1  0.24890164  0.76779957  0.03844474  1
  Sr  Sr1  1  0.75109836  0.23220043  0.96155526  1
  Mn  Mn2  1  0.67808994  0.83626387  0.55280861  1
  Mn  Mn3  1  0.32191006  0.16373613  0.44719139  1
  P  P4  1  0.40084077  0.43481411  0.23756976  1
  P  P5  1  0.59915923  0.56518589  0.76243024  1
  P  P6  1  0.84994487  0.02473977  0.30273622  1
  P  P7  1  0.15005513  0.97526023  0.69726378  1
  O  O8  1  0.82647470  0.56197559  0.88252407  1
  O  O9  1  0.63129944  0.46503342  0.18373400  1
  O  O10  1  0.64287336  0.78200295  0.73938452  1
  O  O11  1  0.93927093  0.09396205  0.70284178  1
  O  O12  1  0.36870056  0.53496658  0.81626600  1
  O  O13  1  0.98340503  0.75573791  0.56568521  1
  O  O14  1  0.01659497  0.24426209  0.43431479  1
  O  O15  1  0.27881895  0.98773216  0.86463204  1
  O  O16  1  0.35712664  0.21799705  0.26061548  1
  O  O17  1  0.72118105  0.01226784  0.13536796  1
  O  O18  1  0.17352530  0.43802441  0.11747593  1
  O  O19  1  0.42432107  0.60798608  0.40942172  1
  O  O20  1  0.57567893  0.39201392  0.59057828  1
  O  O21  1  0.64592247  0.94617713  0.37674569  1
  O  O22  1  0.06072907  0.90603795  0.29715822  1
  O  O23  1  0.35407753  0.05382287  0.62325431  1
