# generated using pymatgen
data_SrH2(CO2)2
_symmetry_space_group_name_H-M   'P 1'
_cell_length_a   7.00133384
_cell_length_b   7.38516712
_cell_length_c   8.84725049
_cell_angle_alpha   90.00000000
_cell_angle_beta   90.00000000
_cell_angle_gamma   90.00000000
_symmetry_Int_Tables_number   1
_chemical_formula_structural   SrH2(CO2)2
_chemical_formula_sum   'Sr4 H8 C8 O16'
_cell_volume   457.45611495
_cell_formula_units_Z   4
loop_
 _symmetry_equiv_pos_site_id
 _symmetry_equiv_pos_as_xyz
  1  'x, y, z'
loop_
 _atom_site_type_symbol
 _atom_site_label
 _atom_site_symmetry_multiplicity
 _atom_site_fract_x
 _atom_site_fract_y
 _atom_site_fract_z
 _atom_site_occupancy
  Sr  Sr0  1  0.00409301  0.24122530  0.66462831  1
  Sr  Sr1  1  0.99590699  0.74122530  0.83537169  1
  Sr  Sr2  1  0.50409301  0.25877470  0.33537169  1
  Sr  Sr3  1  0.49590699  0.75877470  0.16462831  1
  H  H4  1  0.47195918  0.00417071  0.77857121  1
  H  H5  1  0.70994946  0.20646515  0.98915530  1
  H  H6  1  0.52804082  0.50417071  0.72142879  1
  H  H7  1  0.02804082  0.99582929  0.27857121  1
  H  H8  1  0.97195918  0.49582929  0.22142879  1
  H  H9  1  0.79005054  0.79353485  0.48915530  1
  H  H10  1  0.29005054  0.70646515  0.51084470  1
  H  H11  1  0.20994946  0.29353485  0.01084470  1
  C  C12  1  0.38613782  0.44308954  0.69935717  1
  C  C13  1  0.88613782  0.05691046  0.30064283  1
  C  C14  1  0.23043131  0.14457240  0.00817562  1
  C  C15  1  0.26956869  0.85542760  0.50817562  1
  C  C16  1  0.76956869  0.64457240  0.49182438  1
  C  C17  1  0.11386218  0.55691046  0.19935717  1
  C  C18  1  0.61386218  0.94308954  0.80064283  1
  C  C19  1  0.73043131  0.35542760  0.99182438  1
  O  O20  1  0.15488692  0.92187752  0.60421632  1
  O  O21  1  0.74380131  0.99749686  0.22661039  1
  O  O22  1  0.84511308  0.42187752  0.89578368  1
  O  O23  1  0.25619869  0.49749686  0.27338961  1
  O  O24  1  0.12559209  0.68459936  0.10321294  1
  O  O25  1  0.36195143  0.94149036  0.40752032  1
  O  O26  1  0.37440791  0.31540064  0.60321294  1
  O  O27  1  0.62559209  0.81540064  0.89678706  1
  O  O28  1  0.86195143  0.55850964  0.59247968  1
  O  O29  1  0.87440791  0.18459936  0.39678706  1
  O  O30  1  0.75619869  0.00250314  0.72661039  1
  O  O31  1  0.13804857  0.05850964  0.90752032  1
  O  O32  1  0.34511308  0.07812248  0.10421632  1
  O  O33  1  0.65488692  0.57812248  0.39578368  1
  O  O34  1  0.63804857  0.44149036  0.09247968  1
  O  O35  1  0.24380131  0.50250314  0.77338961  1
