# generated using pymatgen
data_La7SmCo5(CuO8)3
_symmetry_space_group_name_H-M   'P 1'
_cell_length_a   7.67578722
_cell_length_b   7.68625910
_cell_length_c   7.67569797
_cell_angle_alpha   90.00289778
_cell_angle_beta   89.97845253
_cell_angle_gamma   89.99382703
_symmetry_Int_Tables_number   1
_chemical_formula_structural   La7SmCo5(CuO8)3
_chemical_formula_sum   'La7 Sm1 Co5 Cu3 O24'
_cell_volume   452.85147949
_cell_formula_units_Z   1
loop_
 _symmetry_equiv_pos_site_id
 _symmetry_equiv_pos_as_xyz
  1  'x, y, z'
loop_
 _atom_site_type_symbol
 _atom_site_label
 _atom_site_symmetry_multiplicity
 _atom_site_fract_x
 _atom_site_fract_y
 _atom_site_fract_z
 _atom_site_occupancy
  La  La0  1  0.25117145  0.24899872  0.25118354  1
  La  La1  1  0.25103555  0.24931781  0.74896343  1
  La  La2  1  0.25120974  0.75101120  0.25114072  1
  La  La3  1  0.25106547  0.75083979  0.74894687  1
  La  La4  1  0.74881479  0.24899036  0.74879158  1
  La  La5  1  0.74892698  0.75078912  0.25107802  1
  La  La6  1  0.74882569  0.75103520  0.74877693  1
  Sm  Sm7  1  0.74914134  0.24942398  0.25087390  1
  Co  Co8  1  0.99979064  0.00018652  0.00020627  1
  Co  Co9  1  0.99974556  0.00023810  0.49972419  1
  Co  Co10  1  0.50027859  0.00024050  0.00025768  1
  Co  Co11  1  0.50014451  0.00016220  0.49985769  1
  Co  Co12  1  0.50025751  0.49959934  0.49973760  1
  Cu  Cu13  1  0.99975531  0.49975954  0.00023253  1
  Cu  Cu14  1  0.99979190  0.49978793  0.49982845  1
  Cu  Cu15  1  0.50018334  0.49978372  0.00021444  1
  O  O16  1  0.25054617  0.00016186  0.00119419  1
  O  O17  1  0.25107901  0.00001273  0.49960594  1
  O  O18  1  0.25112179  0.49993909  0.00004483  1
  O  O19  1  0.25647325  0.49999825  0.49999974  1
  O  O20  1  0.74943136  0.00200136  0.00100340  1
  O  O21  1  0.74885325  0.00212351  0.49825284  1
  O  O22  1  0.74884740  0.49785266  0.00218052  1
  O  O23  1  0.74362470  0.49784264  0.49788293  1
  O  O24  1  0.99784427  0.24713801  0.00217149  1
  O  O25  1  0.99787314  0.24528063  0.49792359  1
  O  O26  1  -0.00003482  0.75285343  0.00003655  1
  O  O27  1  -0.00003857  0.75473137  0.49990066  1
  O  O28  1  0.50207552  0.24528330  0.00212784  1
  O  O29  1  0.50226374  0.24860097  0.49773095  1
  O  O30  1  0.50008914  0.75472953  0.00003956  1
  O  O31  1  0.49994732  0.75136018  0.50006740  1
  O  O32  1  0.99900113  0.00201315  0.25057325  1
  O  O33  1  0.99880994  0.00016199  0.74944659  1
  O  O34  1  0.99782665  0.49784098  0.25115583  1
  O  O35  1  0.99996681  0.49994009  0.74887447  1
  O  O36  1  0.50174687  0.00212372  0.25114857  1
  O  O37  1  0.50039756  0.00000695  0.74891561  1
  O  O38  1  0.50211335  0.49783421  0.25638903  1
  O  O39  1  0.50000264  0.50000539  0.74352039  1
