# generated using pymatgen
data_GaSi3C3N
_symmetry_space_group_name_H-M   'P 1'
_cell_length_a   3.11166141
_cell_length_b   5.10562388
_cell_length_c   5.39894816
_cell_angle_alpha   89.75162689
_cell_angle_beta   90.00000000
_cell_angle_gamma   90.00000000
_symmetry_Int_Tables_number   1
_chemical_formula_structural   GaSi3C3N
_chemical_formula_sum   'Ga1 Si3 C3 N1'
_cell_volume   85.77213675
_cell_formula_units_Z   1
loop_
 _symmetry_equiv_pos_site_id
 _symmetry_equiv_pos_as_xyz
  1  'x, y, z'
loop_
 _atom_site_type_symbol
 _atom_site_label
 _atom_site_symmetry_multiplicity
 _atom_site_fract_x
 _atom_site_fract_y
 _atom_site_fract_z
 _atom_site_occupancy
  Ga  Ga0  1  0.50000000  0.50853288  0.83671498  1
  Si  Si1  1  -0.00000000  0.00818908  0.66271578  1
  Si  Si2  1  -0.00000000  0.49737184  0.33465933  1
  Si  Si3  1  0.50000000  0.00138317  0.16912817  1
  C  C4  1  0.50000000  0.90386519  0.83070616  1
  C  C5  1  0.50000000  0.37090538  0.18463023  1
  C  C6  1  -0.00000000  0.87179624  0.33548072  1
  N  N7  1  -0.00000000  0.36605622  0.64596463  1
