# generated using pymatgen
data_Sr2Ca2TiMn3O12
_symmetry_space_group_name_H-M   'P 1'
_cell_length_a   7.75068890
_cell_length_b   7.71669982
_cell_length_c   7.71479851
_cell_angle_alpha   90.04706107
_cell_angle_beta   90.00000000
_cell_angle_gamma   90.00000000
_symmetry_Int_Tables_number   1
_chemical_formula_structural   Sr2Ca2TiMn3O12
_chemical_formula_sum   'Sr4 Ca4 Ti2 Mn6 O24'
_cell_volume   461.41993469
_cell_formula_units_Z   2
loop_
 _symmetry_equiv_pos_site_id
 _symmetry_equiv_pos_as_xyz
  1  'x, y, z'
loop_
 _atom_site_type_symbol
 _atom_site_label
 _atom_site_symmetry_multiplicity
 _atom_site_fract_x
 _atom_site_fract_y
 _atom_site_fract_z
 _atom_site_occupancy
  Sr  Sr0  1  0.25000000  0.24618475  0.24688753  1
  Sr  Sr1  1  0.25000000  0.24611925  0.75318989  1
  Sr  Sr2  1  0.75000000  0.24626197  0.75344825  1
  Sr  Sr3  1  0.75000000  0.75391721  0.24656563  1
  Ca  Ca4  1  0.25000000  0.75460230  0.24524096  1
  Ca  Ca5  1  0.25000000  0.75461552  0.75475239  1
  Ca  Ca6  1  0.75000000  0.24550900  0.24564189  1
  Ca  Ca7  1  0.75000000  0.75471807  0.75422060  1
  Ti  Ti8  1  0.99998888  0.50273134  0.50000140  1
  Ti  Ti9  1  0.50001112  0.50273134  0.50000140  1
  Mn  Mn10  1  0.99989619  0.99889794  0.00011213  1
  Mn  Mn11  1  0.99991842  0.99923515  0.49995691  1
  Mn  Mn12  1  0.99991765  0.50154312  0.00006936  1
  Mn  Mn13  1  0.50010381  0.99889794  0.00011213  1
  Mn  Mn14  1  0.50008158  0.99923515  0.49995691  1
  Mn  Mn15  1  0.50008235  0.50154312  0.00006936  1
  O  O16  1  0.25000000  0.99295912  0.00001530  1
  O  O17  1  0.25000000  0.99249976  0.49995015  1
  O  O18  1  0.25000000  0.50722766  0.00005034  1
  O  O19  1  0.25000000  0.50389856  0.49998778  1
  O  O20  1  0.75000000  0.99899050  0.99992069  1
  O  O21  1  0.75000000  0.99933137  0.50004671  1
  O  O22  1  0.75000000  0.50074653  0.99996074  1
  O  O23  1  0.75000000  0.50147440  0.50006015  1
  O  O24  1  0.99701867  0.24980481  0.00311704  1
  O  O25  1  0.99821042  0.24665803  0.49824913  1
  O  O26  1  0.00288370  0.75015198  0.99699225  1
  O  O27  1  0.00161231  0.75325944  0.50155352  1
  O  O28  1  0.50298133  0.24980481  0.00311704  1
  O  O29  1  0.50178958  0.24665803  0.49824913  1
  O  O30  1  0.49711630  0.75015198  0.99699225  1
  O  O31  1  0.49838769  0.75325944  0.50155352  1
  O  O32  1  0.00005952  0.99915127  0.24980706  1
  O  O33  1  0.99997368  0.99300748  0.75014737  1
  O  O34  1  0.00006259  0.50138435  0.24674367  1
  O  O35  1  0.99995916  0.50464709  0.75328067  1
  O  O36  1  0.49994048  0.99915127  0.24980706  1
  O  O37  1  0.50002632  0.99300748  0.75014737  1
  O  O38  1  0.49993741  0.50138435  0.24674367  1
  O  O39  1  0.50004084  0.50464709  0.75328067  1
