# generated using pymatgen
data_Sr5Ca3Mn7FeO24
_symmetry_space_group_name_H-M   'P 1'
_cell_length_a   7.73113087
_cell_length_b   7.72780118
_cell_length_c   7.73113087
_cell_angle_alpha   89.99074590
_cell_angle_beta   89.98730288
_cell_angle_gamma   90.00925410
_symmetry_Int_Tables_number   1
_chemical_formula_structural   Sr5Ca3Mn7FeO24
_chemical_formula_sum   'Sr5 Ca3 Mn7 Fe1 O24'
_cell_volume   461.89362504
_cell_formula_units_Z   1
loop_
 _symmetry_equiv_pos_site_id
 _symmetry_equiv_pos_as_xyz
  1  'x, y, z'
loop_
 _atom_site_type_symbol
 _atom_site_label
 _atom_site_symmetry_multiplicity
 _atom_site_fract_x
 _atom_site_fract_y
 _atom_site_fract_z
 _atom_site_occupancy
  Sr  Sr0  1  0.24981475  0.24982097  0.24971249  1
  Sr  Sr1  1  0.24971552  0.24965441  0.75028448  1
  Sr  Sr2  1  0.75023079  0.24960136  0.24976921  1
  Sr  Sr3  1  0.75028751  0.24982097  0.75018525  1
  Sr  Sr4  1  0.75025842  0.75026234  0.24974158  1
  Ca  Ca5  1  0.24985850  0.74987226  0.25013106  1
  Ca  Ca6  1  0.25019938  0.75003037  0.74980062  1
  Ca  Ca7  1  0.74986894  0.74987226  0.75014150  1
  Mn  Mn8  1  0.00084899  0.99747394  0.50049255  1
  Mn  Mn9  1  0.00085035  0.50159187  0.99914965  1
  Mn  Mn10  1  0.00068192  0.50149586  0.50047724  1
  Mn  Mn11  1  0.49950745  0.99747394  0.99915101  1
  Mn  Mn12  1  0.49956695  0.99792072  0.50043305  1
  Mn  Mn13  1  0.49952276  0.50149586  0.99931808  1
  Mn  Mn14  1  0.49949422  0.50169185  0.50050578  1
  Fe  Fe15  1  0.00080642  0.99754891  0.99919358  1
  O  O16  1  0.25478040  0.99361214  0.99906499  1
  O  O17  1  0.25066055  0.99229363  0.50078482  1
  O  O18  1  0.25057911  0.50772657  0.99963593  1
  O  O19  1  0.25003124  0.50781979  0.50052367  1
  O  O20  1  0.74522049  0.99542410  0.99709687  1
  O  O21  1  0.74929226  0.99554406  0.50358912  1
  O  O22  1  0.74933128  0.50502437  0.99623329  1
  O  O23  1  0.74997583  0.50462463  0.50366197  1
  O  O24  1  0.00079682  0.25474566  0.99920318  1
  O  O25  1  0.00042595  0.25078587  0.50065951  1
  O  O26  1  0.00263335  0.74509189  0.99736665  1
  O  O27  1  0.00362071  0.74941308  0.50345381  1
  O  O28  1  0.49934049  0.25078587  0.99957405  1
  O  O29  1  0.49946832  0.25002526  0.50053168  1
  O  O30  1  0.49654619  0.74941308  0.99637929  1
  O  O31  1  0.49637482  0.74997283  0.50362518  1
  O  O32  1  0.00290313  0.99542410  0.25477951  1
  O  O33  1  0.00093501  0.99361214  0.74521960  1
  O  O34  1  0.00376671  0.50502437  0.25066872  1
  O  O35  1  0.00036407  0.50772657  0.74942089  1
  O  O36  1  0.49641088  0.99554406  0.25070774  1
  O  O37  1  0.49921518  0.99229363  0.74933945  1
  O  O38  1  0.49633803  0.50462463  0.25002417  1
  O  O39  1  0.49947633  0.50781979  0.74996876  1
