# generated using pymatgen
data_Sr2CuMoO6
_symmetry_space_group_name_H-M   'P 1'
_cell_length_a   5.46706521
_cell_length_b   5.46706521
_cell_length_c   5.77100312
_cell_angle_alpha   118.27258128
_cell_angle_beta   118.27258128
_cell_angle_gamma   90.00000000
_symmetry_Int_Tables_number   1
_chemical_formula_structural   Sr2CuMoO6
_chemical_formula_sum   'Sr2 Cu1 Mo1 O6'
_cell_volume   128.06950912
_cell_formula_units_Z   1
loop_
 _symmetry_equiv_pos_site_id
 _symmetry_equiv_pos_as_xyz
  1  'x, y, z'
loop_
 _atom_site_type_symbol
 _atom_site_label
 _atom_site_symmetry_multiplicity
 _atom_site_fract_x
 _atom_site_fract_y
 _atom_site_fract_z
 _atom_site_occupancy
  Sr  Sr0  1  0.75000000  0.25000000  0.50000000  1
  Sr  Sr1  1  0.25000000  0.75000000  0.50000000  1
  Cu  Cu2  1  0.50000000  0.50000000  0.00000000  1
  Mo  Mo3  1  0.00000000  -0.00000000  0.00000000  1
  O  O4  1  0.20370638  0.29116436  0.00000000  1
  O  O5  1  0.79629362  0.70883564  0.00000000  1
  O  O6  1  0.70883564  0.20370638  0.00000000  1
  O  O7  1  0.29116436  0.79629362  0.00000000  1
  O  O8  1  0.22700229  0.22700229  0.45400457  1
  O  O9  1  0.77299771  0.77299771  0.54599543  1
