# generated using pymatgen
data_YbCuPb
_symmetry_space_group_name_H-M   'P 1'
_cell_length_a   4.71603186
_cell_length_b   4.71603186
_cell_length_c   7.17834929
_cell_angle_alpha   90.00000000
_cell_angle_beta   90.00000000
_cell_angle_gamma   119.99542299
_symmetry_Int_Tables_number   1
_chemical_formula_structural   YbCuPb
_chemical_formula_sum   'Yb2 Cu2 Pb2'
_cell_volume   138.27023717
_cell_formula_units_Z   2
loop_
 _symmetry_equiv_pos_site_id
 _symmetry_equiv_pos_as_xyz
  1  'x, y, z'
loop_
 _atom_site_type_symbol
 _atom_site_label
 _atom_site_symmetry_multiplicity
 _atom_site_fract_x
 _atom_site_fract_y
 _atom_site_fract_z
 _atom_site_occupancy
  Yb  Yb0  1  -0.00000000  -0.00000000  0.50000000  1
  Yb  Yb1  1  -0.00000000  -0.00000000  -0.00000000  1
  Cu  Cu2  1  0.66666254  0.33333746  0.75000000  1
  Cu  Cu3  1  0.33333746  0.66666254  0.25000000  1
  Pb  Pb4  1  0.66670014  0.33329986  0.25000000  1
  Pb  Pb5  1  0.33329986  0.66670014  0.75000000  1
