# generated using pymatgen
data_Sr3Ca5Ti3Mn5O24
_symmetry_space_group_name_H-M   'P 1'
_cell_length_a   7.73429926
_cell_length_b   7.73193242
_cell_length_c   7.69941370
_cell_angle_alpha   90.00543983
_cell_angle_beta   89.99296484
_cell_angle_gamma   90.00361435
_symmetry_Int_Tables_number   1
_chemical_formula_structural   Sr3Ca5Ti3Mn5O24
_chemical_formula_sum   'Sr3 Ca5 Ti3 Mn5 O24'
_cell_volume   460.43324221
_cell_formula_units_Z   1
loop_
 _symmetry_equiv_pos_site_id
 _symmetry_equiv_pos_as_xyz
  1  'x, y, z'
loop_
 _atom_site_type_symbol
 _atom_site_label
 _atom_site_symmetry_multiplicity
 _atom_site_fract_x
 _atom_site_fract_y
 _atom_site_fract_z
 _atom_site_occupancy
  Sr  Sr0  1  0.24837709  0.24838053  0.24557196  1
  Sr  Sr1  1  0.24850997  0.24839337  0.75447720  1
  Sr  Sr2  1  0.75142228  0.24848484  0.75499273  1
  Ca  Ca3  1  0.24772479  0.75225364  0.24189000  1
  Ca  Ca4  1  0.24768786  0.75227995  0.75794337  1
  Ca  Ca5  1  0.75223670  0.24763436  0.24269672  1
  Ca  Ca6  1  0.75243743  0.75254021  0.24208816  1
  Ca  Ca7  1  0.75238722  0.75230848  0.75777792  1
  Ti  Ti8  1  0.99915587  0.50442933  0.49857139  1
  Ti  Ti9  1  0.50151552  0.99743448  0.49854924  1
  Ti  Ti10  1  0.50088693  0.50258295  0.49850254  1
  Mn  Mn11  1  0.99943578  0.99837620  0.00051852  1
  Mn  Mn12  1  0.99958826  0.99874915  0.49910406  1
  Mn  Mn13  1  0.99929444  0.50222085  0.00026647  1
  Mn  Mn14  1  0.50079453  0.99793819  0.00026076  1
  Mn  Mn15  1  0.50075671  0.50211691  0.00025881  1
  O  O16  1  0.24987169  0.99217434  0.00050406  1
  O  O17  1  0.24670574  0.99462303  0.49920741  1
  O  O18  1  0.24968293  0.50775572  0.00022734  1
  O  O19  1  0.24968276  0.50440625  0.49924117  1
  O  O20  1  0.75002589  0.99521368  0.00368974  1
  O  O21  1  0.75323069  0.99612989  0.49792575  1
  O  O22  1  0.75031075  0.50464741  0.00403401  1
  O  O23  1  0.75025131  0.50345226  0.49841098  1
  O  O24  1  0.99627753  0.24976110  0.00382730  1
  O  O25  1  0.99757907  0.24660902  0.49769051  1
  O  O26  1  0.99940776  0.74997024  0.00055182  1
  O  O27  1  0.99912598  0.75327318  0.49915962  1
  O  O28  1  0.50370092  0.24965432  0.00412111  1
  O  O29  1  0.50188689  0.24957296  0.49818734  1
  O  O30  1  0.50051219  0.75029590  0.00025809  1
  O  O31  1  0.50088899  0.75018889  0.49918003  1
  O  O32  1  0.99632025  0.99536014  0.25004971  1
  O  O33  1  0.99952394  0.99214339  0.75009302  1
  O  O34  1  0.99783561  0.50370211  0.24666593  1
  O  O35  1  0.99925076  0.50518663  0.75337982  1
  O  O36  1  0.50209899  0.99622789  0.24665168  1
  O  O37  1  0.50074205  0.99468586  0.75336385  1
  O  O38  1  0.50209255  0.50371115  0.24668133  1
  O  O39  1  0.50078338  0.50513118  0.75342853  1
