# generated using pymatgen
data_CaNi5H
_symmetry_space_group_name_H-M   'P 1'
_cell_length_a   3.97469750
_cell_length_b   4.97449128
_cell_length_c   4.96954592
_cell_angle_alpha   60.92226571
_cell_angle_beta   89.06852143
_cell_angle_gamma   89.07659906
_symmetry_Int_Tables_number   1
_chemical_formula_structural   CaNi5H
_chemical_formula_sum   'Ca1 Ni5 H1'
_cell_volume   85.85883764
_cell_formula_units_Z   1
loop_
 _symmetry_equiv_pos_site_id
 _symmetry_equiv_pos_as_xyz
  1  'x, y, z'
loop_
 _atom_site_type_symbol
 _atom_site_label
 _atom_site_symmetry_multiplicity
 _atom_site_fract_x
 _atom_site_fract_y
 _atom_site_fract_z
 _atom_site_occupancy
  Ca  Ca0  1  0.97980894  0.99599412  0.99604870  1
  Ni  Ni1  1  0.01155426  0.34013205  0.34019244  1
  Ni  Ni2  1  0.00975894  0.66187913  0.66190777  1
  Ni  Ni3  1  0.51251449  0.50026538  0.50026313  1
  Ni  Ni4  1  0.51720720  0.99176622  0.51101481  1
  Ni  Ni5  1  0.51720135  0.51099579  0.99182378  1
  H  H6  1  0.30585482  0.20286731  0.20284936  1
