# generated using pymatgen
data_Sr3CaCo3CuO12
_symmetry_space_group_name_H-M   'P 1'
_cell_length_a   7.71041540
_cell_length_b   7.70580991
_cell_length_c   7.75498168
_cell_angle_alpha   90.00000000
_cell_angle_beta   90.00000000
_cell_angle_gamma   90.00000000
_symmetry_Int_Tables_number   1
_chemical_formula_structural   Sr3CaCo3CuO12
_chemical_formula_sum   'Sr6 Ca2 Co6 Cu2 O24'
_cell_volume   460.76220084
_cell_formula_units_Z   2
loop_
 _symmetry_equiv_pos_site_id
 _symmetry_equiv_pos_as_xyz
  1  'x, y, z'
loop_
 _atom_site_type_symbol
 _atom_site_label
 _atom_site_symmetry_multiplicity
 _atom_site_fract_x
 _atom_site_fract_y
 _atom_site_fract_z
 _atom_site_occupancy
  Sr  Sr0  1  0.24961056  0.24922987  0.25000000  1
  Sr  Sr1  1  0.24941256  0.24945127  0.75000000  1
  Sr  Sr2  1  0.24920223  0.75059856  0.75000000  1
  Sr  Sr3  1  0.75058744  0.24945127  0.25000000  1
  Sr  Sr4  1  0.75038944  0.24922987  0.75000000  1
  Sr  Sr5  1  0.75079777  0.75059856  0.25000000  1
  Ca  Ca6  1  0.24905134  0.75166839  0.25000000  1
  Ca  Ca7  1  0.75094866  0.75166839  0.75000000  1
  Co  Co8  1  -0.00000000  0.50182606  -0.00000000  1
  Co  Co9  1  -0.00000000  0.50182606  0.50000000  1
  Co  Co10  1  0.50000000  0.99855581  -0.00000000  1
  Co  Co11  1  0.50000000  0.99855581  0.50000000  1
  Co  Co12  1  0.50000000  0.50166669  -0.00000000  1
  Co  Co13  1  0.50000000  0.50166669  0.50000000  1
  Cu  Cu14  1  -0.00000000  0.00007126  -0.00000000  1
  Cu  Cu15  1  -0.00000000  0.00007126  0.50000000  1
  O  O16  1  0.25678748  0.99611461  0.00287859  1
  O  O17  1  0.25678748  0.99611461  0.49712141  1
  O  O18  1  0.25291326  0.50390795  0.00197297  1
  O  O19  1  0.25291326  0.50390795  0.49802703  1
  O  O20  1  0.74321252  0.99611461  0.99712141  1
  O  O21  1  0.74321252  0.99611461  0.50287859  1
  O  O22  1  0.74708674  0.50390795  0.99802703  1
  O  O23  1  0.74708674  0.50390795  0.50197297  1
  O  O24  1  -0.00000000  0.25762758  -0.00000000  1
  O  O25  1  -0.00000000  0.25762758  0.50000000  1
  O  O26  1  -0.00000000  0.74328600  -0.00000000  1
  O  O27  1  -0.00000000  0.74328600  0.50000000  1
  O  O28  1  0.50000000  0.25187502  -0.00000000  1
  O  O29  1  0.50000000  0.25187502  0.50000000  1
  O  O30  1  0.50000000  0.74767667  -0.00000000  1
  O  O31  1  0.50000000  0.74767667  0.50000000  1
  O  O32  1  0.00424352  0.99393348  0.25000000  1
  O  O33  1  0.99575648  0.99393348  0.75000000  1
  O  O34  1  0.00324307  0.50392333  0.25000000  1
  O  O35  1  0.99675693  0.50392333  0.75000000  1
  O  O36  1  0.49811256  0.99543063  0.25000000  1
  O  O37  1  0.50188744  0.99543063  0.75000000  1
  O  O38  1  0.49918047  0.50313426  0.25000000  1
  O  O39  1  0.50081953  0.50313426  0.75000000  1
