# generated using pymatgen
data_Sr3Ca5Mn4(FeO5)4
_symmetry_space_group_name_H-M   'P 1'
_cell_length_a   10.99544777
_cell_length_b   11.15952405
_cell_length_c   17.50603686
_cell_angle_alpha   108.58865421
_cell_angle_beta   108.31545304
_cell_angle_gamma   90.00313074
_symmetry_Int_Tables_number   1
_chemical_formula_structural   Sr3Ca5Mn4(FeO5)4
_chemical_formula_sum   'Sr12 Ca20 Mn16 Fe16 O80'
_cell_volume   1920.82890485
_cell_formula_units_Z   4
loop_
 _symmetry_equiv_pos_site_id
 _symmetry_equiv_pos_as_xyz
  1  'x, y, z'
loop_
 _atom_site_type_symbol
 _atom_site_label
 _atom_site_symmetry_multiplicity
 _atom_site_fract_x
 _atom_site_fract_y
 _atom_site_fract_z
 _atom_site_occupancy
  Sr  Sr0  1  0.30934128  0.56030510  0.61081506  1
  Sr  Sr1  1  0.80630507  0.05756653  0.60860467  1
  Sr  Sr2  1  0.80849873  0.55996486  0.61083064  1
  Sr  Sr3  1  0.19661121  0.43875366  0.38661882  1
  Sr  Sr4  1  0.19912097  0.44263950  0.89264398  1
  Sr  Sr5  1  0.69481702  0.93659306  0.38574523  1
  Sr  Sr6  1  0.05892557  0.29934221  0.60956169  1
  Sr  Sr7  1  0.05915960  0.80254518  0.61085452  1
  Sr  Sr8  1  0.55883340  0.30049482  0.61118116  1
  Sr  Sr9  1  0.44882691  0.19973919  0.89048760  1
  Sr  Sr10  1  0.94617400  0.19795679  0.38609424  1
  Sr  Sr11  1  0.94860527  0.20008429  0.89147465  1
  Ca  Ca12  1  0.30689242  0.06327622  0.10758062  1
  Ca  Ca13  1  0.30630327  0.05939949  0.60433612  1
  Ca  Ca14  1  0.30662335  0.56513349  0.10918192  1
  Ca  Ca15  1  0.80501140  0.06242813  0.10538928  1
  Ca  Ca16  1  0.80692889  0.56343737  0.10789403  1
  Ca  Ca17  1  0.20071899  0.93581262  0.39131300  1
  Ca  Ca18  1  0.20151232  0.93908552  0.89675762  1
  Ca  Ca19  1  0.69898095  0.43776561  0.39153477  1
  Ca  Ca20  1  0.70083228  0.43957265  0.89603203  1
  Ca  Ca21  1  0.70011202  0.93780610  0.89437252  1
  Ca  Ca22  1  0.05535583  0.29355496  0.10702608  1
  Ca  Ca23  1  0.05554205  0.79415377  0.10690242  1
  Ca  Ca24  1  0.55570169  0.29359120  0.10764098  1
  Ca  Ca25  1  0.55627650  0.79346713  0.10597903  1
  Ca  Ca26  1  0.55650085  0.79607865  0.60616041  1
  Ca  Ca27  1  0.44966100  0.20560699  0.39167944  1
  Ca  Ca28  1  0.44813633  0.70486447  0.39160446  1
  Ca  Ca29  1  0.45114682  0.70693240  0.89561566  1
  Ca  Ca30  1  0.94886265  0.70419014  0.39170120  1
  Ca  Ca31  1  0.95040661  0.70793377  0.89674593  1
  Mn  Mn32  1  0.11062235  0.09227828  0.24655179  1
  Mn  Mn33  1  0.11636909  0.09475793  0.75291868  1
  Mn  Mn34  1  0.10928515  0.60047396  0.24761660  1
  Mn  Mn35  1  0.11428183  0.60397265  0.75345719  1
  Mn  Mn36  1  0.60557378  0.09758520  0.24680051  1
  Mn  Mn37  1  0.60788689  0.09496825  0.74969128  1
  Mn  Mn38  1  0.60743398  0.59409632  0.24814836  1
  Mn  Mn39  1  0.61393704  0.60581591  0.75435232  1
  Mn  Mn40  1  0.36085425  0.40161780  0.24730051  1
  Mn  Mn41  1  0.36747399  0.40326069  0.75271629  1
  Mn  Mn42  1  0.35618975  0.90113343  0.24903343  1
  Mn  Mn43  1  0.36543027  0.90071175  0.75150639  1
  Mn  Mn44  1  0.85545035  0.40572314  0.24796132  1
  Mn  Mn45  1  0.86038654  0.40914800  0.75512227  1
  Mn  Mn46  1  0.86109725  0.89709189  0.24515211  1
  Mn  Mn47  1  0.85847414  0.89840523  0.75139108  1
  Fe  Fe48  1  0.00625303  0.00034234  0.00240161  1
  Fe  Fe49  1  0.00401412  0.99784850  0.49722969  1
  Fe  Fe50  1  0.00546066  0.50195413  0.00304817  1
  Fe  Fe51  1  0.00176404  0.49945947  0.49681281  1
  Fe  Fe52  1  0.50639193  0.00065793  0.00215748  1
  Fe  Fe53  1  0.50197953  0.99821702  0.49776536  1
  Fe  Fe54  1  0.50691031  0.50169912  0.00301893  1
  Fe  Fe55  1  0.50255216  0.49913124  0.49646576  1
  Fe  Fe56  1  0.25676841  0.25175478  0.00372074  1
  Fe  Fe57  1  0.25330126  0.24724877  0.49677830  1
  Fe  Fe58  1  0.25681971  0.75259249  0.00318962  1
  Fe  Fe59  1  0.25416623  0.75029450  0.49860029  1
  Fe  Fe60  1  0.75555148  0.25161087  0.00297071  1
  Fe  Fe61  1  0.75146842  0.24926814  0.49685057  1
  Fe  Fe62  1  0.75586986  0.75009649  0.00103474  1
  Fe  Fe63  1  0.75153887  0.74655995  0.49613581  1
  O  O64  1  0.12675175  0.11805015  0.49083610  1
  O  O65  1  0.12729310  0.12040874  0.99342797  1
  O  O66  1  0.12094700  0.62451865  0.48989061  1
  O  O67  1  0.12352883  0.62619964  0.99334152  1
  O  O68  1  0.61973927  0.12238357  0.48877800  1
  O  O69  1  0.62735905  0.12030321  0.99279071  1
  O  O70  1  0.62158993  0.61868385  0.48688601  1
  O  O71  1  0.62447459  0.62053925  0.98919254  1
  O  O72  1  0.13644547  0.38190753  0.01651751  1
  O  O73  1  0.13061893  0.37645250  0.50470982  1
  O  O74  1  0.13587961  0.88031751  0.01236974  1
  O  O75  1  0.13402619  0.87907244  0.50450837  1
  O  O76  1  0.63673307  0.38156058  0.01458751  1
  O  O77  1  0.62958413  0.37688617  0.50320510  1
  O  O78  1  0.63523920  0.87902047  0.01258630  1
  O  O79  1  0.62703241  0.87232226  0.50524169  1
  O  O80  1  0.37114417  0.11580011  0.48784300  1
  O  O81  1  0.37317270  0.11700260  0.99161924  1
  O  O82  1  0.37757652  0.62376220  0.49081386  1
  O  O83  1  0.37858664  0.62408376  0.99388901  1
  O  O84  1  0.87435685  0.12018164  0.49309298  1
  O  O85  1  0.87276831  0.11738210  0.99224625  1
  O  O86  1  0.87126977  0.61759634  0.48771098  1
  O  O87  1  0.87275427  0.61788244  0.98863520  1
  O  O88  1  0.38629714  0.38477995  0.01533150  1
  O  O89  1  0.38149881  0.37702024  0.50429148  1
  O  O90  1  0.38589401  0.88306665  0.01259596  1
  O  O91  1  0.38282336  0.88147091  0.50990394  1
  O  O92  1  0.88421563  0.38374055  0.01396015  1
  O  O93  1  0.87794408  0.37867341  0.50299062  1
  O  O94  1  0.88665155  0.88191690  0.01312706  1
  O  O95  1  0.88128595  0.87504680  0.50267731  1
  O  O96  1  0.08376146  0.09401438  0.13517383  1
  O  O97  1  0.08176187  0.07912550  0.63604421  1
  O  O98  1  0.07651314  0.59857086  0.13484037  1
  O  O99  1  0.07093452  0.58468277  0.63546374  1
  O  O100  1  0.57723440  0.09584875  0.13454224  1
  O  O101  1  0.57742722  0.08406373  0.63470856  1
  O  O102  1  0.58148057  0.59614997  0.13634820  1
  O  O103  1  0.57455993  0.58956667  0.63630087  1
  O  O104  1  0.43883948  0.40780352  0.36245221  1
  O  O105  1  0.44525981  0.41226208  0.86753919  1
  O  O106  1  0.43656255  0.90530632  0.36338081  1
  O  O107  1  0.45140030  0.90952341  0.86624848  1
  O  O108  1  0.93799115  0.41496243  0.36234811  1
  O  O109  1  0.94278063  0.41181871  0.86764490  1
  O  O110  1  0.94148501  0.91038703  0.36211546  1
  O  O111  1  0.94356953  0.90749029  0.86639788  1
  O  O112  1  0.33465856  0.28913683  0.13551633  1
  O  O113  1  0.32816453  0.29607201  0.63572987  1
  O  O114  1  0.33024028  0.79249093  0.13620249  1
  O  O115  1  0.32540411  0.79832407  0.63526300  1
  O  O116  1  0.82986698  0.29163162  0.13622157  1
  O  O117  1  0.82286976  0.30742061  0.63766051  1
  O  O118  1  0.83054349  0.78596832  0.13297624  1
  O  O119  1  0.82050321  0.80023611  0.63403891  1
  O  O120  1  0.19012189  0.19665598  0.36197717  1
  O  O121  1  0.19055688  0.20507863  0.86713576  1
  O  O122  1  0.19470827  0.70381046  0.36383195  1
  O  O123  1  0.19935191  0.71055863  0.86774042  1
  O  O124  1  0.68765032  0.20176893  0.36257053  1
  O  O125  1  0.68728755  0.20748542  0.86455620  1
  O  O126  1  0.69161897  0.69812987  0.36226783  1
  O  O127  1  0.69844878  0.71455070  0.86735272  1
  O  O128  1  0.42802795  0.06965251  0.24932893  1
  O  O129  1  0.42839753  0.06616020  0.74336758  1
  O  O130  1  0.42955410  0.57357295  0.24897988  1
  O  O131  1  0.44104052  0.57516144  0.75860206  1
  O  O132  1  0.93134237  0.06146540  0.23988171  1
  O  O133  1  0.93930024  0.05847683  0.75029243  1
  O  O134  1  0.92928748  0.57236598  0.24900845  1
  O  O135  1  0.94048320  0.57513095  0.76022182  1
  O  O136  1  0.18013370  0.43121185  0.24067824  1
  O  O137  1  0.19227564  0.44122965  0.75149987  1
  O  O138  1  0.17778233  0.92246172  0.24770394  1
  O  O139  1  0.19324975  0.93245078  0.75996968  1
  O  O140  1  0.67567308  0.42458744  0.24785322  1
  O  O141  1  0.68647116  0.43862093  0.75926173  1
  O  O142  1  0.68157457  0.93153933  0.24089778  1
  O  O143  1  0.68008510  0.92713138  0.75200360  1
