# generated using pymatgen
data_NaTeH12(CO)3
_symmetry_space_group_name_H-M   'P 1'
_cell_length_a   8.59139393
_cell_length_b   8.59139385
_cell_length_c   13.71329091
_cell_angle_alpha   90.00000000
_cell_angle_beta   90.00000000
_cell_angle_gamma   120.00000026
_symmetry_Int_Tables_number   1
_chemical_formula_structural   NaTeH12(CO)3
_chemical_formula_sum   'Na4 Te4 H48 C12 O12'
_cell_volume   876.59619454
_cell_formula_units_Z   4
loop_
 _symmetry_equiv_pos_site_id
 _symmetry_equiv_pos_as_xyz
  1  'x, y, z'
loop_
 _atom_site_type_symbol
 _atom_site_label
 _atom_site_symmetry_multiplicity
 _atom_site_fract_x
 _atom_site_fract_y
 _atom_site_fract_z
 _atom_site_occupancy
  Na  Na0  1  0.00000000  0.00000000  0.25000000  1
  Na  Na1  1  0.00000000  0.00000000  0.00000000  1
  Na  Na2  1  0.00000000  0.00000000  0.75000000  1
  Na  Na3  1  0.00000000  0.00000000  0.50000000  1
  Te  Te4  1  0.33333300  0.66666700  0.85155850  1
  Te  Te5  1  0.66666700  0.33333300  0.14844150  1
  Te  Te6  1  0.33333300  0.66666700  0.64844150  1
  Te  Te7  1  0.66666700  0.33333300  0.35155850  1
  H  H8  1  0.69108536  0.54623010  0.54954287  1
  H  H9  1  0.30891464  0.45376990  0.45045713  1
  H  H10  1  0.14485526  0.45376990  0.04954287  1
  H  H11  1  0.63998513  0.90885274  0.10429927  1
  H  H12  1  0.36001487  0.09114726  0.89570073  1
  H  H13  1  0.54623010  0.85514474  0.45045713  1
  H  H14  1  0.14485526  0.69108536  0.45045713  1
  H  H15  1  0.28793762  0.82253432  0.17897945  1
  H  H16  1  0.17746568  0.46540330  0.17897945  1
  H  H17  1  0.73113239  0.63998513  0.89570073  1
  H  H18  1  0.17746568  0.71206238  0.32102055  1
  H  H19  1  0.46540330  0.28793762  0.82102055  1
  H  H20  1  0.09114726  0.73113239  0.10429927  1
  H  H21  1  0.90885274  0.63998513  0.60429927  1
  H  H22  1  0.73113239  0.09114726  0.60429927  1
  H  H23  1  0.26886761  0.36001487  0.10429927  1
  H  H24  1  0.45376990  0.14485526  0.54954287  1
  H  H25  1  0.71206238  0.53459670  0.67897945  1
  H  H26  1  0.36001487  0.26886761  0.60429927  1
  H  H27  1  0.53459670  0.71206238  0.17897945  1
  H  H28  1  0.69108536  0.14485526  0.95045713  1
  H  H29  1  0.76773320  0.10812729  0.36856020  1
  H  H30  1  0.65960591  0.89187271  0.86856020  1
  H  H31  1  0.53459670  0.82253432  0.32102055  1
  H  H32  1  0.34039409  0.10812729  0.13143980  1
  H  H33  1  0.34039409  0.23226680  0.36856020  1
  H  H34  1  0.89187271  0.65960591  0.36856020  1
  H  H35  1  0.26886761  0.90885274  0.39570073  1
  H  H36  1  0.09114726  0.36001487  0.39570073  1
  H  H37  1  0.10812729  0.76773320  0.86856020  1
  H  H38  1  0.23226680  0.89187271  0.63143980  1
  H  H39  1  0.89187271  0.23226680  0.13143980  1
  H  H40  1  0.85514474  0.30891464  0.54954287  1
  H  H41  1  0.46540330  0.17746568  0.67897945  1
  H  H42  1  0.82253432  0.28793762  0.67897945  1
  H  H43  1  0.30891464  0.85514474  0.04954287  1
  H  H44  1  0.76773320  0.65960591  0.13143980  1
  H  H45  1  0.85514474  0.54623010  0.95045713  1
  H  H46  1  0.23226680  0.34039409  0.86856020  1
  H  H47  1  0.65960591  0.76773320  0.63143980  1
  H  H48  1  0.45376990  0.30891464  0.95045713  1
  H  H49  1  0.28793762  0.46540330  0.32102055  1
  H  H50  1  0.10812729  0.34039409  0.63143980  1
  H  H51  1  0.82253432  0.53459670  0.82102055  1
  H  H52  1  0.63998513  0.73113239  0.39570073  1
  H  H53  1  0.54623010  0.69108536  0.04954287  1
  H  H54  1  0.71206238  0.17746568  0.82102055  1
  H  H55  1  0.90885274  0.26886761  0.89570073  1
  C  C56  1  0.38185064  0.15428801  0.61378219  1
  C  C57  1  0.77243737  0.61814936  0.61378219  1
  C  C58  1  0.22756263  0.84571199  0.11378219  1
  C  C59  1  0.15428801  0.38185064  0.11378219  1
  C  C60  1  0.61814936  0.84571199  0.38621781  1
  C  C61  1  0.15428801  0.77243737  0.38621781  1
  C  C62  1  0.22756263  0.38185064  0.38621781  1
  C  C63  1  0.38185064  0.22756263  0.88621781  1
  C  C64  1  0.77243737  0.15428801  0.88621781  1
  C  C65  1  0.84571199  0.22756263  0.61378219  1
  C  C66  1  0.84571199  0.61814936  0.88621781  1
  C  C67  1  0.61814936  0.77243737  0.11378219  1
  O  O68  1  0.20878225  0.99483824  0.62463328  1
  O  O69  1  0.79121775  0.78605599  0.12463328  1
  O  O70  1  0.00516176  0.79121775  0.87536672  1
  O  O71  1  0.99483824  0.20878225  0.12463328  1
  O  O72  1  0.78605599  0.79121775  0.62463328  1
  O  O73  1  0.78605599  0.99483824  0.87536672  1
  O  O74  1  0.21394401  0.20878225  0.37536672  1
  O  O75  1  0.21394401  0.00516176  0.12463328  1
  O  O76  1  0.00516176  0.21394401  0.62463328  1
  O  O77  1  0.20878225  0.21394401  0.87536672  1
  O  O78  1  0.79121775  0.00516176  0.37536672  1
  O  O79  1  0.99483824  0.78605599  0.37536672  1
