# generated using pymatgen
data_Na
_symmetry_space_group_name_H-M   'P 1'
_cell_length_a   4.52874824
_cell_length_b   8.09722979
_cell_length_c   8.68231380
_cell_angle_alpha   90.00000000
_cell_angle_beta   90.00000000
_cell_angle_gamma   90.00000000
_symmetry_Int_Tables_number   1
_chemical_formula_structural   Na
_chemical_formula_sum   Na8
_cell_volume   318.38318337
_cell_formula_units_Z   8
loop_
 _symmetry_equiv_pos_site_id
 _symmetry_equiv_pos_as_xyz
  1  'x, y, z'
loop_
 _atom_site_type_symbol
 _atom_site_label
 _atom_site_symmetry_multiplicity
 _atom_site_fract_x
 _atom_site_fract_y
 _atom_site_fract_z
 _atom_site_occupancy
  Na  Na0  1  0.75000000  0.34392940  0.07975607  1
  Na  Na1  1  0.75000000  0.84392940  0.42024393  1
  Na  Na2  1  0.25000000  0.65607060  0.92024393  1
  Na  Na3  1  0.25000000  0.15607060  0.57975607  1
  Na  Na4  1  0.75000000  0.47899745  0.66614631  1
  Na  Na5  1  0.75000000  0.97899745  0.83385369  1
  Na  Na6  1  0.25000000  0.52100255  0.33385369  1
  Na  Na7  1  0.25000000  0.02100255  0.16614631  1
