# generated using pymatgen
data_MgSn2
_symmetry_space_group_name_H-M   'P 1'
_cell_length_a   12.68063865
_cell_length_b   3.34291492
_cell_length_c   7.47122308
_cell_angle_alpha   90.00000000
_cell_angle_beta   100.10597776
_cell_angle_gamma   90.00000000
_symmetry_Int_Tables_number   1
_chemical_formula_structural   MgSn2
_chemical_formula_sum   'Mg4 Sn8'
_cell_volume   311.79360567
_cell_formula_units_Z   4
loop_
 _symmetry_equiv_pos_site_id
 _symmetry_equiv_pos_as_xyz
  1  'x, y, z'
loop_
 _atom_site_type_symbol
 _atom_site_label
 _atom_site_symmetry_multiplicity
 _atom_site_fract_x
 _atom_site_fract_y
 _atom_site_fract_z
 _atom_site_occupancy
  Mg  Mg0  1  0.37956560  -0.00000000  0.26162977  1
  Mg  Mg1  1  0.05964840  0.00000000  0.62301980  1
  Mg  Mg2  1  0.87956560  0.50000000  0.26162977  1
  Mg  Mg3  1  0.55964840  0.50000000  0.62301980  1
  Sn  Sn4  1  0.99651349  0.00000000  0.01122728  1
  Sn  Sn5  1  0.16768387  0.50000000  0.34983441  1
  Sn  Sn6  1  0.34533528  -0.00000000  0.65224737  1
  Sn  Sn7  1  0.21792036  0.50000000  0.93537437  1
  Sn  Sn8  1  0.49651349  0.50000000  0.01122728  1
  Sn  Sn9  1  0.66768387  -0.00000000  0.34983441  1
  Sn  Sn10  1  0.84533528  0.50000000  0.65224737  1
  Sn  Sn11  1  0.71792036  -0.00000000  0.93537437  1
