# generated using pymatgen
data_Ca2Ti2O5
_symmetry_space_group_name_H-M   'P 1'
_cell_length_a   10.82059275
_cell_length_b   10.92544963
_cell_length_c   15.50876580
_cell_angle_alpha   90.00000000
_cell_angle_beta   90.00000000
_cell_angle_gamma   91.18167821
_symmetry_Int_Tables_number   1
_chemical_formula_structural   Ca2Ti2O5
_chemical_formula_sum   'Ca32 Ti32 O80'
_cell_volume   1833.05390777
_cell_formula_units_Z   16
loop_
 _symmetry_equiv_pos_site_id
 _symmetry_equiv_pos_as_xyz
  1  'x, y, z'
loop_
 _atom_site_type_symbol
 _atom_site_label
 _atom_site_symmetry_multiplicity
 _atom_site_fract_x
 _atom_site_fract_y
 _atom_site_fract_z
 _atom_site_occupancy
  Ca  Ca0  1  0.50123407  0.01698664  0.12880010  1
  Ca  Ca1  1  0.50123407  0.01698664  0.62880010  1
  Ca  Ca2  1  0.50123407  0.51698664  0.12119790  1
  Ca  Ca3  1  0.50123407  0.51698664  0.62119790  1
  Ca  Ca4  1  0.00123407  0.01698664  0.12119790  1
  Ca  Ca5  1  0.00123407  0.01698664  0.62119790  1
  Ca  Ca6  1  0.00123407  0.51698664  0.12880010  1
  Ca  Ca7  1  0.00123407  0.51698664  0.62880010  1
  Ca  Ca8  1  0.24301777  0.22894666  0.37252528  1
  Ca  Ca9  1  0.24301777  0.22894666  0.87252528  1
  Ca  Ca10  1  0.24301777  0.72894666  0.37747472  1
  Ca  Ca11  1  0.24301777  0.72894666  0.87747472  1
  Ca  Ca12  1  0.74301777  0.22894666  0.37747472  1
  Ca  Ca13  1  0.74301777  0.22894666  0.87747472  1
  Ca  Ca14  1  0.74301777  0.72894666  0.37252528  1
  Ca  Ca15  1  0.74301777  0.72894666  0.87252528  1
  Ca  Ca16  1  0.25698223  0.27105334  0.12252428  1
  Ca  Ca17  1  0.25698223  0.27105334  0.62252428  1
  Ca  Ca18  1  0.25698223  0.77105334  0.12747372  1
  Ca  Ca19  1  0.25698223  0.77105334  0.62747372  1
  Ca  Ca20  1  0.75698223  0.27105334  0.12747372  1
  Ca  Ca21  1  0.75698223  0.27105334  0.62747372  1
  Ca  Ca22  1  0.75698223  0.77105334  0.12252428  1
  Ca  Ca23  1  0.75698223  0.77105334  0.62252428  1
  Ca  Ca24  1  0.99876593  0.48301436  0.37880110  1
  Ca  Ca25  1  0.99876593  0.48301436  0.87880110  1
  Ca  Ca26  1  0.99876593  0.98301436  0.37119890  1
  Ca  Ca27  1  0.99876593  0.98301436  0.87119890  1
  Ca  Ca28  1  0.49876593  0.48301436  0.37119890  1
  Ca  Ca29  1  0.49876593  0.48301436  0.87119890  1
  Ca  Ca30  1  0.49876593  0.98301436  0.37880110  1
  Ca  Ca31  1  0.49876593  0.98301436  0.87880110  1
  Ti  Ti32  1  0.25000000  -0.00000000  -0.00000000  1
  Ti  Ti33  1  0.25000000  -0.00000000  0.50000000  1
  Ti  Ti34  1  0.25000000  0.50000000  -0.00000000  1
  Ti  Ti35  1  0.25000000  0.50000000  0.50000000  1
  Ti  Ti36  1  0.75000000  -0.00000000  -0.00000000  1
  Ti  Ti37  1  0.75000000  -0.00000000  0.50000000  1
  Ti  Ti38  1  0.75000000  0.50000000  -0.00000000  1
  Ti  Ti39  1  0.75000000  0.50000000  0.50000000  1
  Ti  Ti40  1  -0.00000000  0.24999900  -0.00000000  1
  Ti  Ti41  1  -0.00000000  0.24999900  0.50000000  1
  Ti  Ti42  1  -0.00000000  0.74999900  -0.00000000  1
  Ti  Ti43  1  -0.00000000  0.74999900  0.50000000  1
  Ti  Ti44  1  0.50000000  0.24999900  -0.00000000  1
  Ti  Ti45  1  0.50000000  0.24999900  0.50000000  1
  Ti  Ti46  1  0.50000000  0.74999900  -0.00000000  1
  Ti  Ti47  1  0.50000000  0.74999900  0.50000000  1
  Ti  Ti48  1  -0.00000000  0.24999900  0.25000000  1
  Ti  Ti49  1  -0.00000000  0.24999900  0.75000000  1
  Ti  Ti50  1  0.00000000  0.74999900  0.25000000  1
  Ti  Ti51  1  0.00000000  0.74999900  0.75000000  1
  Ti  Ti52  1  0.50000000  0.24999900  0.25000000  1
  Ti  Ti53  1  0.50000000  0.24999900  0.75000000  1
  Ti  Ti54  1  0.50000000  0.74999900  0.25000000  1
  Ti  Ti55  1  0.50000000  0.74999900  0.75000000  1
  Ti  Ti56  1  0.25000000  -0.00000000  0.25000000  1
  Ti  Ti57  1  0.25000000  -0.00000000  0.75000000  1
  Ti  Ti58  1  0.25000000  0.50000000  0.25000000  1
  Ti  Ti59  1  0.25000000  0.50000000  0.75000000  1
  Ti  Ti60  1  0.75000000  -0.00000000  0.25000000  1
  Ti  Ti61  1  0.75000000  -0.00000000  0.75000000  1
  Ti  Ti62  1  0.75000000  0.50000000  0.25000000  1
  Ti  Ti63  1  0.75000000  0.50000000  0.75000000  1
  O  O64  1  0.46574550  0.25978444  0.37726987  1
  O  O65  1  0.46574550  0.25978444  0.87726987  1
  O  O66  1  0.46574550  0.75978444  0.37273013  1
  O  O67  1  0.46574550  0.75978444  0.87273013  1
  O  O68  1  0.96574550  0.25978444  0.37273013  1
  O  O69  1  0.96574550  0.25978444  0.87273013  1
  O  O70  1  0.96574550  0.75978444  0.37726987  1
  O  O71  1  0.96574550  0.75978444  0.87726987  1
  O  O72  1  0.21491095  0.49086957  0.12746430  1
  O  O73  1  0.21491095  0.49086957  0.62746430  1
  O  O74  1  0.21491095  0.99086957  0.12253370  1
  O  O75  1  0.21491095  0.99086957  0.62253370  1
  O  O76  1  0.71491095  0.49086957  0.12253370  1
  O  O77  1  0.71491095  0.49086957  0.62253370  1
  O  O78  1  0.71491095  0.99086957  0.12746430  1
  O  O79  1  0.71491095  0.99086957  0.62746430  1
  O  O80  1  0.28508905  0.00913143  0.37746530  1
  O  O81  1  0.28508905  0.00913143  0.87746530  1
  O  O82  1  0.28508905  0.50913143  0.37253470  1
  O  O83  1  0.28508905  0.50913143  0.87253470  1
  O  O84  1  0.78508905  0.00913143  0.37253470  1
  O  O85  1  0.78508905  0.00913143  0.87253470  1
  O  O86  1  0.78508905  0.50913143  0.37746530  1
  O  O87  1  0.78508905  0.50913143  0.87746530  1
  O  O88  1  0.03425450  0.24021556  0.12726887  1
  O  O89  1  0.03425450  0.24021556  0.62726887  1
  O  O90  1  0.03425450  0.74021556  0.12272913  1
  O  O91  1  0.03425450  0.74021556  0.62272913  1
  O  O92  1  0.53425450  0.24021556  0.12272913  1
  O  O93  1  0.53425450  0.24021556  0.62272913  1
  O  O94  1  0.53425450  0.74021556  0.12726887  1
  O  O95  1  0.53425450  0.74021556  0.62726887  1
  O  O96  1  0.35392373  0.14524317  0.23098432  1
  O  O97  1  0.35392373  0.14524317  0.73098432  1
  O  O98  1  0.85392373  0.64524317  0.23098432  1
  O  O99  1  0.85392373  0.64524317  0.73098432  1
  O  O100  1  0.10439581  0.10930194  0.26915468  1
  O  O101  1  0.10439581  0.10930194  0.76915468  1
  O  O102  1  0.10776751  0.60351736  0.26851841  1
  O  O103  1  0.10776751  0.60351736  0.76851841  1
  O  O104  1  0.60776751  0.10351736  0.26851841  1
  O  O105  1  0.60776751  0.10351736  0.76851841  1
  O  O106  1  0.60439581  0.60930194  0.26915468  1
  O  O107  1  0.60439581  0.60930194  0.76915468  1
  O  O108  1  0.39560419  0.39069806  0.01915468  1
  O  O109  1  0.39560419  0.39069806  0.51915468  1
  O  O110  1  0.39223249  0.89648264  0.01851841  1
  O  O111  1  0.39223249  0.89648264  0.51851841  1
  O  O112  1  0.89223249  0.39648264  0.01851841  1
  O  O113  1  0.89223249  0.39648264  0.51851841  1
  O  O114  1  0.89560419  0.89069806  0.01915468  1
  O  O115  1  0.89560419  0.89069806  0.51915468  1
  O  O116  1  0.14607627  0.35475683  0.48098432  1
  O  O117  1  0.14607627  0.35475683  0.98098432  1
  O  O118  1  0.64607627  0.85475683  0.48098432  1
  O  O119  1  0.64607627  0.85475683  0.98098432  1
  O  O120  1  0.35392373  0.64524317  0.01901568  1
  O  O121  1  0.35392373  0.64524317  0.51901568  1
  O  O122  1  0.85392373  0.14524317  0.01901568  1
  O  O123  1  0.85392373  0.14524317  0.51901568  1
  O  O124  1  0.10776751  0.10351736  0.48148159  1
  O  O125  1  0.10776751  0.10351736  0.98148159  1
  O  O126  1  0.10439581  0.60930194  0.48084532  1
  O  O127  1  0.10439581  0.60930194  0.98084532  1
  O  O128  1  0.60439581  0.10930194  0.48084532  1
  O  O129  1  0.60439581  0.10930194  0.98084532  1
  O  O130  1  0.60776751  0.60351736  0.48148159  1
  O  O131  1  0.60776751  0.60351736  0.98148159  1
  O  O132  1  0.14607627  0.85475683  0.26901568  1
  O  O133  1  0.14607627  0.85475683  0.76901568  1
  O  O134  1  0.64607627  0.35475683  0.26901568  1
  O  O135  1  0.64607627  0.35475683  0.76901568  1
  O  O136  1  0.39223249  0.39648264  0.23148159  1
  O  O137  1  0.39223249  0.39648264  0.73148159  1
  O  O138  1  0.39560419  0.89069806  0.23084532  1
  O  O139  1  0.39560419  0.89069806  0.73084532  1
  O  O140  1  0.89560419  0.39069806  0.23084532  1
  O  O141  1  0.89560419  0.39069806  0.73084532  1
  O  O142  1  0.89223249  0.89648264  0.23148159  1
  O  O143  1  0.89223249  0.89648264  0.73148159  1
