# generated using pymatgen
data_LiFe3O4
_symmetry_space_group_name_H-M   'P 1'
_cell_length_a   3.04956318
_cell_length_b   5.19557415
_cell_length_c   5.19323164
_cell_angle_alpha   72.06699042
_cell_angle_beta   90.00169400
_cell_angle_gamma   89.99196738
_symmetry_Int_Tables_number   1
_chemical_formula_structural   LiFe3O4
_chemical_formula_sum   'Li1 Fe3 O4'
_cell_volume   78.28523438
_cell_formula_units_Z   1
loop_
 _symmetry_equiv_pos_site_id
 _symmetry_equiv_pos_as_xyz
  1  'x, y, z'
loop_
 _atom_site_type_symbol
 _atom_site_label
 _atom_site_symmetry_multiplicity
 _atom_site_fract_x
 _atom_site_fract_y
 _atom_site_fract_z
 _atom_site_occupancy
  Li  Li0  1  0.50917547  0.49950407  0.00005682  1
  Fe  Fe1  1  0.01078863  0.99943568  0.00013833  1
  Fe  Fe2  1  0.51086114  0.99941509  0.50013415  1
  Fe  Fe3  1  0.01060217  0.49940787  0.50011318  1
  O  O4  1  0.00852417  0.75322875  0.74613794  1
  O  O5  1  0.51078514  0.74367720  0.24481244  1
  O  O6  1  0.51065556  0.25515578  0.75544849  1
  O  O7  1  0.01310873  0.24557755  0.25413865  1
