# generated using pymatgen
data_Mg2Ga
_symmetry_space_group_name_H-M   'P 1'
_cell_length_a   11.42983901
_cell_length_b   3.09517948
_cell_length_c   7.20570621
_cell_angle_alpha   90.00000000
_cell_angle_beta   101.83987043
_cell_angle_gamma   90.00000000
_symmetry_Int_Tables_number   1
_chemical_formula_structural   Mg2Ga
_chemical_formula_sum   'Mg8 Ga4'
_cell_volume   249.49572976
_cell_formula_units_Z   4
loop_
 _symmetry_equiv_pos_site_id
 _symmetry_equiv_pos_as_xyz
  1  'x, y, z'
loop_
 _atom_site_type_symbol
 _atom_site_label
 _atom_site_symmetry_multiplicity
 _atom_site_fract_x
 _atom_site_fract_y
 _atom_site_fract_z
 _atom_site_occupancy
  Mg  Mg0  1  0.99454989  -0.00000000  0.00352820  1
  Mg  Mg1  1  0.16328866  0.50000000  0.33969842  1
  Mg  Mg2  1  0.34124620  -0.00000000  0.65493954  1
  Mg  Mg3  1  0.22046572  0.50000000  0.94122060  1
  Mg  Mg4  1  0.49454989  0.50000000  0.00352820  1
  Mg  Mg5  1  0.66328866  0.00000000  0.33969842  1
  Mg  Mg6  1  0.84124620  0.50000000  0.65493954  1
  Mg  Mg7  1  0.72046572  0.00000000  0.94122060  1
  Ga  Ga8  1  0.38397459  -0.00000000  0.27560085  1
  Ga  Ga9  1  0.06314196  0.00000000  0.61834539  1
  Ga  Ga10  1  0.88397459  0.50000000  0.27560085  1
  Ga  Ga11  1  0.56314196  0.50000000  0.61834539  1
