# generated using pymatgen
data_Mg2Ga
_symmetry_space_group_name_H-M   'P 1'
_cell_length_a   5.43302656
_cell_length_b   5.43302711
_cell_length_c   14.55237309
_cell_angle_alpha   90.00000000
_cell_angle_beta   90.00000000
_cell_angle_gamma   120.00000380
_symmetry_Int_Tables_number   1
_chemical_formula_structural   Mg2Ga
_chemical_formula_sum   'Mg12 Ga6'
_cell_volume   372.00445056
_cell_formula_units_Z   6
loop_
 _symmetry_equiv_pos_site_id
 _symmetry_equiv_pos_as_xyz
  1  'x, y, z'
loop_
 _atom_site_type_symbol
 _atom_site_label
 _atom_site_symmetry_multiplicity
 _atom_site_fract_x
 _atom_site_fract_y
 _atom_site_fract_z
 _atom_site_occupancy
  Mg  Mg0  1  0.66666700  0.66364785  0.33333300  1
  Mg  Mg1  1  0.33635215  0.00301915  0.33333300  1
  Mg  Mg2  1  0.00000000  -0.00000000  0.50000000  1
  Mg  Mg3  1  0.99698085  0.33333300  0.33333300  1
  Mg  Mg4  1  0.33333300  0.99698085  0.66666700  1
  Mg  Mg5  1  0.00301915  0.33635215  0.66666700  1
  Mg  Mg6  1  0.66666700  0.33333300  0.83333300  1
  Mg  Mg7  1  0.66364785  0.66666700  0.66666700  1
  Mg  Mg8  1  1.00000000  0.33031385  -0.00000000  1
  Mg  Mg9  1  0.66968615  0.66968615  -0.00000000  1
  Mg  Mg10  1  0.33333300  0.66666700  0.16666700  1
  Mg  Mg11  1  0.33031385  1.00000000  -0.00000000  1
  Ga  Ga12  1  0.33333300  0.66666700  0.50133174  1
  Ga  Ga13  1  0.66666700  0.33333300  0.49866826  1
  Ga  Ga14  1  0.00000000  -0.00000000  0.83466474  1
  Ga  Ga15  1  0.33333300  0.66666700  0.83200126  1
  Ga  Ga16  1  0.66666700  0.33333300  0.16799874  1
  Ga  Ga17  1  0.00000000  -0.00000000  0.16533526  1
