# generated using pymatgen
data_PH10C3N2O4F
_symmetry_space_group_name_H-M   'P 1'
_cell_length_a   5.59783202
_cell_length_b   8.70142720
_cell_length_c   17.88410240
_cell_angle_alpha   90.00000000
_cell_angle_beta   90.00000000
_cell_angle_gamma   101.82504170
_symmetry_Int_Tables_number   1
_chemical_formula_structural   PH10C3N2O4F
_chemical_formula_sum   'P4 H40 C12 N8 O16 F4'
_cell_volume   852.63207015
_cell_formula_units_Z   4
loop_
 _symmetry_equiv_pos_site_id
 _symmetry_equiv_pos_as_xyz
  1  'x, y, z'
loop_
 _atom_site_type_symbol
 _atom_site_label
 _atom_site_symmetry_multiplicity
 _atom_site_fract_x
 _atom_site_fract_y
 _atom_site_fract_z
 _atom_site_occupancy
  P  P0  1  0.46600580  0.18814705  0.56781418  1
  P  P1  1  0.46600580  0.68814705  0.93218582  1
  P  P2  1  0.53399420  0.81185295  0.43218582  1
  P  P3  1  0.53399420  0.31185295  0.06781418  1
  H  H4  1  0.72432720  0.76754339  0.70890227  1
  H  H5  1  0.26936824  0.91344229  0.49820178  1
  H  H6  1  0.91592458  0.00830337  0.93291582  1
  H  H7  1  0.91592458  0.50830337  0.56708418  1
  H  H8  1  0.27567280  0.23245661  0.29109773  1
  H  H9  1  0.92607922  0.81358541  0.10860458  1
  H  H10  1  0.66059305  0.31109919  0.20560230  1
  H  H11  1  0.78033541  0.97716323  0.10100044  1
  H  H12  1  0.06042167  0.51653150  0.86051556  1
  H  H13  1  0.21966459  0.52283677  0.60100044  1
  H  H14  1  0.57420531  0.92956078  0.70383619  1
  H  H15  1  0.93957833  0.48346850  0.13948444  1
  H  H16  1  0.42579469  0.07043922  0.29616381  1
  H  H17  1  0.08407542  0.99169663  0.06708418  1
  H  H18  1  0.31416015  0.64488313  0.12116607  1
  H  H19  1  0.72432720  0.26754339  0.79109773  1
  H  H20  1  0.68583985  0.85511687  0.62116607  1
  H  H21  1  0.06042167  0.01653150  0.63948444  1
  H  H22  1  0.07392078  0.68641459  0.60860458  1
  H  H23  1  0.42579469  0.57043922  0.20383619  1
  H  H24  1  0.33940695  0.68890081  0.79439770  1
  H  H25  1  0.78056726  0.91542724  0.81898667  1
  H  H26  1  0.21943274  0.08457276  0.18101333  1
  H  H27  1  0.31416015  0.14488313  0.37883393  1
  H  H28  1  0.93957833  0.98346850  0.36051556  1
  H  H29  1  0.21943274  0.58457276  0.31898667  1
  H  H30  1  0.08407542  0.49169663  0.43291582  1
  H  H31  1  0.26936824  0.41344229  0.00179822  1
  H  H32  1  0.73063176  0.58655771  0.99820178  1
  H  H33  1  0.07392078  0.18641459  0.89139542  1
  H  H34  1  0.68583985  0.35511687  0.87883393  1
  H  H35  1  0.27567280  0.73245661  0.20890227  1
  H  H36  1  0.21966459  0.02283677  0.89899956  1
  H  H37  1  0.78056726  0.41542724  0.68101333  1
  H  H38  1  0.73063176  0.08655771  0.50179822  1
  H  H39  1  0.57420531  0.42956078  0.79616381  1
  H  H40  1  0.33940695  0.18890081  0.70560230  1
  H  H41  1  0.92607922  0.31358541  0.39139542  1
  H  H42  1  0.78033541  0.47716323  0.39899956  1
  H  H43  1  0.66059305  0.81109919  0.29439770  1
  C  C44  1  0.94832445  0.95752866  0.24734400  1
  C  C45  1  0.72302969  0.37937560  0.81952084  1
  C  C46  1  0.05167555  0.54247134  0.74734400  1
  C  C47  1  0.95513786  0.94207210  0.11095288  1
  C  C48  1  0.94832445  0.45752866  0.25265600  1
  C  C49  1  0.27697031  0.62062440  0.18047916  1
  C  C50  1  0.04486214  0.55792790  0.61095288  1
  C  C51  1  0.27697031  0.12062440  0.31952084  1
  C  C52  1  0.95513786  0.44207210  0.38904712  1
  C  C53  1  0.05167555  0.04247134  0.75265600  1
  C  C54  1  0.04486214  0.05792790  0.88904712  1
  C  C55  1  0.72302969  0.87937560  0.68047916  1
  N  N56  1  0.06031758  0.00160706  0.18255937  1
  N  N57  1  0.93968242  0.99839294  0.81744063  1
  N  N58  1  0.93968242  0.49839294  0.68255937  1
  N  N59  1  0.06031758  0.50160706  0.31744063  1
  N  N60  1  0.95623562  0.48832276  0.81290219  1
  N  N61  1  0.95623562  0.98832276  0.68709781  1
  N  N62  1  0.04376438  0.01167724  0.31290219  1
  N  N63  1  0.04376438  0.51167724  0.18709781  1
  O  O64  1  0.27294128  0.32990067  0.04240846  1
  O  O65  1  0.27294128  0.82990067  0.45759154  1
  O  O66  1  0.26077922  0.64348429  0.74317463  1
  O  O67  1  0.48198282  0.76740673  0.85635842  1
  O  O68  1  0.27290106  0.03957020  0.55941842  1
  O  O69  1  0.48198282  0.26740673  0.64364158  1
  O  O70  1  0.26077922  0.14348429  0.75682537  1
  O  O71  1  0.73922078  0.35651571  0.25682537  1
  O  O72  1  0.72705872  0.67009933  0.95759154  1
  O  O73  1  0.72709894  0.96042980  0.44058158  1
  O  O74  1  0.27290106  0.53957020  0.94058158  1
  O  O75  1  0.73922078  0.85651571  0.24317463  1
  O  O76  1  0.51801718  0.23259327  0.14364158  1
  O  O77  1  0.72705872  0.17009933  0.54240846  1
  O  O78  1  0.72709894  0.46042980  0.05941842  1
  O  O79  1  0.51801718  0.73259327  0.35635842  1
  F  F80  1  0.59816745  0.68729311  0.49045723  1
  F  F81  1  0.40183255  0.81270689  0.99045723  1
  F  F82  1  0.59816745  0.18729311  0.00954277  1
  F  F83  1  0.40183255  0.31270689  0.50954277  1
