# generated using pymatgen
data_Mg5Bi
_symmetry_space_group_name_H-M   'P 1'
_cell_length_a   5.53548393
_cell_length_b   3.23676411
_cell_length_c   16.48587569
_cell_angle_alpha   90.00000000
_cell_angle_beta   90.00000000
_cell_angle_gamma   90.00000000
_symmetry_Int_Tables_number   1
_chemical_formula_structural   Mg5Bi
_chemical_formula_sum   'Mg10 Bi2'
_cell_volume   295.37835327
_cell_formula_units_Z   2
loop_
 _symmetry_equiv_pos_site_id
 _symmetry_equiv_pos_as_xyz
  1  'x, y, z'
loop_
 _atom_site_type_symbol
 _atom_site_label
 _atom_site_symmetry_multiplicity
 _atom_site_fract_x
 _atom_site_fract_y
 _atom_site_fract_z
 _atom_site_occupancy
  Mg  Mg0  1  -0.00000000  -0.00000000  0.99959519  1
  Mg  Mg1  1  -0.00000000  -0.00000000  0.66541592  1
  Mg  Mg2  1  -0.00000000  0.50000000  0.83496010  1
  Mg  Mg3  1  0.50000000  -0.00000000  0.55087935  1
  Mg  Mg4  1  0.50000000  0.00000000  0.89307455  1
  Mg  Mg5  1  0.00000000  0.50000000  0.49959519  1
  Mg  Mg6  1  -0.00000000  0.50000000  0.16541592  1
  Mg  Mg7  1  -0.00000000  -0.00000000  0.33496010  1
  Mg  Mg8  1  0.50000000  0.50000000  0.05087935  1
  Mg  Mg9  1  0.50000000  0.50000000  0.39307455  1
  Bi  Bi10  1  0.50000000  0.50000000  0.72274189  1
  Bi  Bi11  1  0.50000000  -0.00000000  0.22274189  1
