# generated using pymatgen
data_Ba3Sr(CuO3)4
_symmetry_space_group_name_H-M   'P 1'
_cell_length_a   8.00781795
_cell_length_b   8.01739116
_cell_length_c   8.01739116
_cell_angle_alpha   90.00000000
_cell_angle_beta   90.00000000
_cell_angle_gamma   90.00000000
_symmetry_Int_Tables_number   1
_chemical_formula_structural   Ba3Sr(CuO3)4
_chemical_formula_sum   'Ba6 Sr2 Cu8 O24'
_cell_volume   514.73101468
_cell_formula_units_Z   2
loop_
 _symmetry_equiv_pos_site_id
 _symmetry_equiv_pos_as_xyz
  1  'x, y, z'
loop_
 _atom_site_type_symbol
 _atom_site_label
 _atom_site_symmetry_multiplicity
 _atom_site_fract_x
 _atom_site_fract_y
 _atom_site_fract_z
 _atom_site_occupancy
  Ba  Ba0  1  0.25000000  0.25000000  0.25000000  1
  Ba  Ba1  1  0.25000000  0.75000000  0.25000000  1
  Ba  Ba2  1  0.25000000  0.75000000  0.75000000  1
  Ba  Ba3  1  0.75000000  0.25000000  0.25000000  1
  Ba  Ba4  1  0.75000000  0.75000000  0.25000000  1
  Ba  Ba5  1  0.75000000  0.75000000  0.75000000  1
  Sr  Sr6  1  0.25000000  0.25000000  0.75000000  1
  Sr  Sr7  1  0.75000000  0.25000000  0.75000000  1
  Cu  Cu8  1  -0.00000000  0.99986645  0.00013355  1
  Cu  Cu9  1  -0.00000000  0.99986645  0.49986645  1
  Cu  Cu10  1  0.00000000  0.50013355  0.00013355  1
  Cu  Cu11  1  0.00000000  0.50013355  0.49986645  1
  Cu  Cu12  1  0.50000000  0.99986645  0.00013355  1
  Cu  Cu13  1  0.50000000  0.99986645  0.49986645  1
  Cu  Cu14  1  0.50000000  0.50013355  0.00013355  1
  Cu  Cu15  1  0.50000000  0.50013355  0.49986645  1
  O  O16  1  0.25000000  0.00673856  0.99326144  1
  O  O17  1  0.25000000  0.00673856  0.50673856  1
  O  O18  1  0.25000000  0.49326144  0.99326144  1
  O  O19  1  0.25000000  0.49326144  0.50673856  1
  O  O20  1  0.75000000  0.00673856  0.99326144  1
  O  O21  1  0.75000000  0.00673856  0.50673856  1
  O  O22  1  0.75000000  0.49326144  0.99326144  1
  O  O23  1  0.75000000  0.49326144  0.50673856  1
  O  O24  1  -0.00000000  0.25000000  0.98860064  1
  O  O25  1  0.00000000  0.25000000  0.51139936  1
  O  O26  1  -0.00000000  0.75000000  0.99857157  1
  O  O27  1  -0.00000000  0.75000000  0.50142843  1
  O  O28  1  0.50000000  0.25000000  0.98860064  1
  O  O29  1  0.50000000  0.25000000  0.51139936  1
  O  O30  1  0.50000000  0.75000000  0.99857157  1
  O  O31  1  0.50000000  0.75000000  0.50142843  1
  O  O32  1  0.00000000  0.00142843  0.25000000  1
  O  O33  1  0.00000000  0.01139936  0.75000000  1
  O  O34  1  -0.00000000  0.49857157  0.25000000  1
  O  O35  1  -0.00000000  0.48860064  0.75000000  1
  O  O36  1  0.50000000  0.00142843  0.25000000  1
  O  O37  1  0.50000000  0.01139936  0.75000000  1
  O  O38  1  0.50000000  0.49857157  0.25000000  1
  O  O39  1  0.50000000  0.48860064  0.75000000  1
