# generated using pymatgen
data_Mg30CdSnO32
_symmetry_space_group_name_H-M   'P 1'
_cell_length_a   8.63946101
_cell_length_b   8.63983038
_cell_length_c   8.63983038
_cell_angle_alpha   90.00000000
_cell_angle_beta   90.00000000
_cell_angle_gamma   90.00000000
_symmetry_Int_Tables_number   1
_chemical_formula_structural   Mg30CdSnO32
_chemical_formula_sum   'Mg30 Cd1 Sn1 O32'
_cell_volume   644.90698631
_cell_formula_units_Z   1
loop_
 _symmetry_equiv_pos_site_id
 _symmetry_equiv_pos_as_xyz
  1  'x, y, z'
loop_
 _atom_site_type_symbol
 _atom_site_label
 _atom_site_symmetry_multiplicity
 _atom_site_fract_x
 _atom_site_fract_y
 _atom_site_fract_z
 _atom_site_occupancy
  Mg  Mg0  1  0.00000000  0.00000000  0.50000000  1
  Mg  Mg1  1  0.00000000  0.50000000  0.00000000  1
  Mg  Mg2  1  0.50000000  0.00000000  -0.00000000  1
  Mg  Mg3  1  0.50000000  0.00000000  0.50000000  1
  Mg  Mg4  1  0.50000000  0.50000000  0.00000000  1
  Mg  Mg5  1  0.50000000  0.50000000  0.50000000  1
  Mg  Mg6  1  0.00000000  0.25190039  0.25190039  1
  Mg  Mg7  1  0.00000000  0.25190039  0.74809961  1
  Mg  Mg8  1  0.00000000  0.74809961  0.25190039  1
  Mg  Mg9  1  0.00000000  0.74809961  0.74809961  1
  Mg  Mg10  1  0.50000000  0.25018376  0.25018376  1
  Mg  Mg11  1  0.50000000  0.25018376  0.74981624  1
  Mg  Mg12  1  0.50000000  0.74981624  0.25018376  1
  Mg  Mg13  1  0.50000000  0.74981624  0.74981624  1
  Mg  Mg14  1  0.25405728  0.00000000  0.25411855  1
  Mg  Mg15  1  0.25405728  0.00000000  0.74588145  1
  Mg  Mg16  1  0.25232067  0.50000000  0.24805029  1
  Mg  Mg17  1  0.25232067  0.50000000  0.75194971  1
  Mg  Mg18  1  0.74594272  0.00000000  0.25411855  1
  Mg  Mg19  1  0.74594272  0.00000000  0.74588145  1
  Mg  Mg20  1  0.74767933  0.50000000  0.24805029  1
  Mg  Mg21  1  0.74767933  0.50000000  0.75194971  1
  Mg  Mg22  1  0.25405728  0.25411855  0.00000000  1
  Mg  Mg23  1  0.25232067  0.24805029  0.50000000  1
  Mg  Mg24  1  0.25405728  0.74588145  -0.00000000  1
  Mg  Mg25  1  0.25232067  0.75194971  0.50000000  1
  Mg  Mg26  1  0.74594272  0.25411855  -0.00000000  1
  Mg  Mg27  1  0.74767933  0.24805029  0.50000000  1
  Mg  Mg28  1  0.74594272  0.74588145  0.00000000  1
  Mg  Mg29  1  0.74767933  0.75194971  0.50000000  1
  Cd  Cd30  1  0.00000000  0.50000000  0.50000000  1
  Sn  Sn31  1  0.00000000  0.00000000  0.00000000  1
  O  O32  1  0.26984784  0.00000000  0.00000000  1
  O  O33  1  0.25440782  0.00000000  0.50000000  1
  O  O34  1  0.25440782  0.50000000  0.00000000  1
  O  O35  1  0.26428988  0.50000000  0.50000000  1
  O  O36  1  0.73015216  0.00000000  0.00000000  1
  O  O37  1  0.74559218  0.00000000  0.50000000  1
  O  O38  1  0.74559218  0.50000000  -0.00000000  1
  O  O39  1  0.73571012  0.50000000  0.50000000  1
  O  O40  1  0.24910506  0.24996550  0.24996550  1
  O  O41  1  0.24910506  0.24996550  0.75003450  1
  O  O42  1  0.24910506  0.75003450  0.24996550  1
  O  O43  1  0.24910506  0.75003450  0.75003450  1
  O  O44  1  0.75089494  0.24996550  0.24996550  1
  O  O45  1  0.75089494  0.24996550  0.75003450  1
  O  O46  1  0.75089494  0.75003450  0.24996550  1
  O  O47  1  0.75089494  0.75003450  0.75003450  1
  O  O48  1  0.00000000  0.00000000  0.26841922  1
  O  O49  1  0.00000000  0.00000000  0.73158078  1
  O  O50  1  0.00000000  0.50000000  0.23868136  1
  O  O51  1  0.00000000  0.50000000  0.76131864  1
  O  O52  1  0.50000000  0.00000000  0.25255085  1
  O  O53  1  0.50000000  0.00000000  0.74744915  1
  O  O54  1  0.50000000  0.50000000  0.24874146  1
  O  O55  1  0.50000000  0.50000000  0.75125854  1
  O  O56  1  0.00000000  0.26841922  -0.00000000  1
  O  O57  1  0.00000000  0.23868136  0.50000000  1
  O  O58  1  0.00000000  0.73158078  0.00000000  1
  O  O59  1  0.00000000  0.76131864  0.50000000  1
  O  O60  1  0.50000000  0.25255085  -0.00000000  1
  O  O61  1  0.50000000  0.24874146  0.50000000  1
  O  O62  1  0.50000000  0.74744915  -0.00000000  1
  O  O63  1  0.50000000  0.75125854  0.50000000  1
