# generated using pymatgen
data_Cr3N2
_symmetry_space_group_name_H-M   'P 1'
_cell_length_a   2.72697066
_cell_length_b   6.86658736
_cell_length_c   7.57004210
_cell_angle_alpha   101.83111990
_cell_angle_beta   89.99999966
_cell_angle_gamma   101.45324530
_symmetry_Int_Tables_number   1
_chemical_formula_structural   Cr3N2
_chemical_formula_sum   'Cr9 N6'
_cell_volume   135.85242678
_cell_formula_units_Z   3
loop_
 _symmetry_equiv_pos_site_id
 _symmetry_equiv_pos_as_xyz
  1  'x, y, z'
loop_
 _atom_site_type_symbol
 _atom_site_label
 _atom_site_symmetry_multiplicity
 _atom_site_fract_x
 _atom_site_fract_y
 _atom_site_fract_z
 _atom_site_occupancy
  Cr  Cr0  1  0.12736202  0.25472404  0.26298107  1
  Cr  Cr1  1  0.87263798  0.74527596  0.73701893  1
  Cr  Cr2  1  0.83162473  0.66324946  0.04992000  1
  Cr  Cr3  1  0.16837527  0.33675054  0.95008000  1
  Cr  Cr4  1  0.80139491  0.60278981  0.39063960  1
  Cr  Cr5  1  0.19860509  0.39721019  0.60936040  1
  Cr  Cr6  1  0.45707755  0.91415510  0.34101325  1
  Cr  Cr7  1  0.54292245  0.08584490  0.65898675  1
  Cr  Cr8  1  0.50000000  0.00000000  0.00000000  1
  N  N9  1  0.61473958  0.22947915  0.46297689  1
  N  N10  1  0.38526042  0.77052085  0.53702311  1
  N  N11  1  0.70935912  0.41871825  0.15187998  1
  N  N12  1  0.29064088  0.58128175  0.84812002  1
  N  N13  1  0.97496331  0.94992661  0.17260656  1
  N  N14  1  0.02503669  0.05007339  0.82739344  1
