# generated using pymatgen
data_MgSn3
_symmetry_space_group_name_H-M   'P 1'
_cell_length_a   3.33869012
_cell_length_b   5.60233429
_cell_length_c   5.58613935
_cell_angle_alpha   90.00000000
_cell_angle_beta   90.00000000
_cell_angle_gamma   90.00000000
_symmetry_Int_Tables_number   1
_chemical_formula_structural   MgSn3
_chemical_formula_sum   'Mg1 Sn3'
_cell_volume   104.48570965
_cell_formula_units_Z   1
loop_
 _symmetry_equiv_pos_site_id
 _symmetry_equiv_pos_as_xyz
  1  'x, y, z'
loop_
 _atom_site_type_symbol
 _atom_site_label
 _atom_site_symmetry_multiplicity
 _atom_site_fract_x
 _atom_site_fract_y
 _atom_site_fract_z
 _atom_site_occupancy
  Mg  Mg0  1  0.00000000  0.50000000  0.33617847  1
  Sn  Sn1  1  0.00000000  0.00000000  0.00632953  1
  Sn  Sn2  1  0.50000000  0.00000000  0.49435012  1
  Sn  Sn3  1  0.50000000  0.50000000  0.82980788  1
