# generated using pymatgen
data_Li9Mn2Co5O16
_symmetry_space_group_name_H-M   'P 1'
_cell_length_a   5.18403552
_cell_length_b   11.33844906
_cell_length_c   5.19138365
_cell_angle_alpha   90.00000000
_cell_angle_beta   67.85599173
_cell_angle_gamma   90.00000000
_symmetry_Int_Tables_number   1
_chemical_formula_structural   Li9Mn2Co5O16
_chemical_formula_sum   'Li9 Mn2 Co5 O16'
_cell_volume   282.63633337
_cell_formula_units_Z   1
loop_
 _symmetry_equiv_pos_site_id
 _symmetry_equiv_pos_as_xyz
  1  'x, y, z'
loop_
 _atom_site_type_symbol
 _atom_site_label
 _atom_site_symmetry_multiplicity
 _atom_site_fract_x
 _atom_site_fract_y
 _atom_site_fract_z
 _atom_site_occupancy
  Li  Li0  1  0.50000000  0.12497093  -0.00000000  1
  Li  Li1  1  0.50000000  0.24981460  0.50000000  1
  Li  Li2  1  0.50000000  0.37500000  -0.00000000  1
  Li  Li3  1  0.50000000  0.50018540  0.50000000  1
  Li  Li4  1  0.50000000  0.62502907  -0.00000000  1
  Li  Li5  1  0.50000000  0.75277105  0.50000000  1
  Li  Li6  1  0.50000000  0.87500000  -0.00000000  1
  Li  Li7  1  0.50000000  0.99722895  0.50000000  1
  Li  Li8  1  0.00000000  0.87500000  0.50000000  1
  Mn  Mn9  1  0.00000000  0.00092836  -0.00000000  1
  Mn  Mn10  1  0.00000000  0.74907164  -0.00000000  1
  Co  Co11  1  0.00000000  0.12546781  0.50000000  1
  Co  Co12  1  0.00000000  0.25040023  -0.00000000  1
  Co  Co13  1  0.00000000  0.37500000  0.50000000  1
  Co  Co14  1  0.00000000  0.49959977  -0.00000000  1
  Co  Co15  1  0.00000000  0.62453219  0.50000000  1
  O  O16  1  0.23316764  0.12560160  0.77200206  1
  O  O17  1  0.22480181  0.25095393  0.27248831  1
  O  O18  1  0.22720671  0.37500000  0.77787698  1
  O  O19  1  0.22480181  0.49904607  0.27248831  1
  O  O20  1  0.23316764  0.62439840  0.77200206  1
  O  O21  1  0.21163955  0.74250480  0.24337887  1
  O  O22  1  0.23566052  0.87500000  0.78083102  1
  O  O23  1  0.21163955  0.00749520  0.24337887  1
  O  O24  1  0.76683236  0.12560160  0.22799794  1
  O  O25  1  0.77519819  0.25095393  0.72751169  1
  O  O26  1  0.77279329  0.37500000  0.22212302  1
  O  O27  1  0.77519819  0.49904607  0.72751169  1
  O  O28  1  0.76683236  0.62439840  0.22799794  1
  O  O29  1  0.78836045  0.74250480  0.75662113  1
  O  O30  1  0.76433948  0.87500000  0.21916898  1
  O  O31  1  0.78836045  0.00749520  0.75662113  1
