# generated using pymatgen
data_TiV3Cr2(PO4)6
_symmetry_space_group_name_H-M   'P 1'
_cell_length_a   8.60317178
_cell_length_b   8.62829854
_cell_length_c   8.62829844
_cell_angle_alpha   59.99999890
_cell_angle_beta   59.90333880
_cell_angle_gamma   59.90334319
_symmetry_Int_Tables_number   1
_chemical_formula_structural   TiV3Cr2(PO4)6
_chemical_formula_sum   'Ti1 V3 Cr2 P6 O24'
_cell_volume   452.22843139
_cell_formula_units_Z   1
loop_
 _symmetry_equiv_pos_site_id
 _symmetry_equiv_pos_as_xyz
  1  'x, y, z'
loop_
 _atom_site_type_symbol
 _atom_site_label
 _atom_site_symmetry_multiplicity
 _atom_site_fract_x
 _atom_site_fract_y
 _atom_site_fract_z
 _atom_site_occupancy
  Ti  Ti0  1  0.56294715  0.14568462  0.14568462  1
  V  V1  1  0.07097705  0.64300798  0.64300798  1
  V  V2  1  0.43185988  0.85604704  0.85604704  1
  V  V3  1  0.92860866  0.35713011  0.35713011  1
  Cr  Cr4  1  0.99965096  0.00011635  0.00011635  1
  Cr  Cr5  1  0.50103541  0.49965486  0.49965486  1
  P  P6  1  0.24847669  0.25033935  0.54465855  1
  P  P7  1  0.24847669  0.95652641  0.25033935  1
  P  P8  1  0.24847669  0.54465855  0.95652641  1
  P  P9  1  0.75030777  0.45669281  0.04300314  1
  P  P10  1  0.75030777  0.04300314  0.74999629  1
  P  P11  1  0.75030777  0.74999629  0.45669281  1
  O  O12  1  0.06885674  0.11297664  0.31120032  1
  O  O13  1  0.06885674  0.50696630  0.11297664  1
  O  O14  1  0.06885674  0.31120032  0.50696630  1
  O  O15  1  0.23382931  0.08738247  0.74028679  1
  O  O16  1  0.42845030  0.18558463  0.38182132  1
  O  O17  1  0.27441681  0.41186792  0.55347680  1
  O  O18  1  0.23382931  0.93850142  0.08738247  1
  O  O19  1  0.27441681  0.76023947  0.41186792  1
  O  O20  1  0.56869725  0.61365432  0.00627609  1
  O  O21  1  0.27441681  0.55347680  0.76023947  1
  O  O22  1  0.76523195  0.25890091  0.06077870  1
  O  O23  1  0.56869725  0.00627609  0.81137233  1
  O  O24  1  0.42845030  0.00414474  0.18558463  1
  O  O25  1  0.23382931  0.74028679  0.93850142  1
  O  O26  1  0.73086983  0.43806244  0.24169112  1
  O  O27  1  0.42845030  0.38182132  0.00414474  1
  O  O28  1  0.73086983  0.24169112  0.58937661  1
  O  O29  1  0.76523195  0.06077870  0.91508844  1
  O  O30  1  0.73086983  0.58937661  0.43806244  1
  O  O31  1  0.56869725  0.81137233  0.61365432  1
  O  O32  1  0.76523195  0.91508844  0.25890091  1
  O  O33  1  0.93250331  0.68931091  0.49133653  1
  O  O34  1  0.93250331  0.49133653  0.88684925  1
  O  O35  1  0.93250331  0.88684925  0.68931091  1
