# generated using pymatgen
data_SrCa2I6
_symmetry_space_group_name_H-M   'P 1'
_cell_length_a   8.61342965
_cell_length_b   8.52099926
_cell_length_c   11.87033999
_cell_angle_alpha   92.30442059
_cell_angle_beta   85.43702363
_cell_angle_gamma   120.35948550
_symmetry_Int_Tables_number   1
_chemical_formula_structural   SrCa2I6
_chemical_formula_sum   'Sr2 Ca4 I12'
_cell_volume   749.37141647
_cell_formula_units_Z   2
loop_
 _symmetry_equiv_pos_site_id
 _symmetry_equiv_pos_as_xyz
  1  'x, y, z'
loop_
 _atom_site_type_symbol
 _atom_site_label
 _atom_site_symmetry_multiplicity
 _atom_site_fract_x
 _atom_site_fract_y
 _atom_site_fract_z
 _atom_site_occupancy
  Sr  Sr0  1  0.01900970  0.03801940  0.25000000  1
  Sr  Sr1  1  0.98099030  0.96198060  0.75000000  1
  Ca  Ca2  1  0.29237409  0.70729493  0.56548337  1
  Ca  Ca3  1  0.41492084  0.70729493  0.93451663  1
  Ca  Ca4  1  0.58507916  0.29270507  0.06548337  1
  Ca  Ca5  1  0.70762591  0.29270507  0.43451663  1
  I  I6  1  0.29246151  0.88869753  0.12871378  1
  I  I7  1  0.91859506  0.35775842  0.19511853  1
  I  I8  1  0.02794130  0.27168470  0.53728053  1
  I  I9  1  0.24374240  0.27168470  0.96271947  1
  I  I10  1  0.43916436  0.35775842  0.30488147  1
  I  I11  1  0.59623602  0.88869753  0.37128622  1
  I  I12  1  0.40376398  0.11130247  0.62871378  1
  I  I13  1  0.56083564  0.64224158  0.69511853  1
  I  I14  1  0.75625760  0.72831530  0.03728053  1
  I  I15  1  0.97205870  0.72831530  0.46271947  1
  I  I16  1  0.08140494  0.64224158  0.80488147  1
  I  I17  1  0.70753849  0.11130247  0.87128622  1
