# generated using pymatgen
data_V2F9
_symmetry_space_group_name_H-M   'P 1'
_cell_length_a   5.20435644
_cell_length_b   5.20275869
_cell_length_c   14.46956314
_cell_angle_alpha   89.94160423
_cell_angle_beta   89.96218792
_cell_angle_gamma   59.95575547
_symmetry_Int_Tables_number   1
_chemical_formula_structural   V2F9
_chemical_formula_sum   'V4 F18'
_cell_volume   339.15071574
_cell_formula_units_Z   2
loop_
 _symmetry_equiv_pos_site_id
 _symmetry_equiv_pos_as_xyz
  1  'x, y, z'
loop_
 _atom_site_type_symbol
 _atom_site_label
 _atom_site_symmetry_multiplicity
 _atom_site_fract_x
 _atom_site_fract_y
 _atom_site_fract_z
 _atom_site_occupancy
  V  V0  1  0.99935298  0.00048811  0.64906391  1
  V  V1  1  0.99980313  0.00014051  0.85095308  1
  V  V2  1  0.00038973  0.99975119  0.35071042  1
  V  V3  1  0.00028342  0.99968147  0.14876526  1
  F  F4  1  0.99535332  0.70429531  0.40684365  1
  F  F5  1  0.70440612  0.99521362  0.90699603  1
  F  F6  1  0.99580832  0.29999036  0.90702467  1
  F  F7  1  0.70445959  0.30010359  0.40690643  1
  F  F8  1  0.73579147  0.26416486  0.75038292  1
  F  F9  1  0.30020210  0.99547676  0.40687062  1
  F  F10  1  0.69880084  0.29643936  0.09256036  1
  F  F11  1  0.30037502  0.70428224  0.90718078  1
  F  F12  1  0.73632572  0.00000762  0.25043515  1
  F  F13  1  0.69901335  0.00460185  0.59285029  1
  F  F14  1  0.26401169  0.73584375  0.25044085  1
  F  F15  1  0.29606632  0.69941317  0.59265526  1
  F  F16  1  0.00464263  0.69884156  0.09276976  1
  F  F17  1  0.00004218  0.73615464  0.75044675  1
  F  F18  1  0.29621963  0.00523403  0.09268855  1
  F  F19  1  0.26358229  0.00007674  0.75037382  1
  F  F20  1  0.00506675  0.29622970  0.59267285  1
  F  F21  1  0.00001538  0.26370555  0.25040159  1
