# generated using pymatgen
data_Ba2Sr2Co(CuO4)3
_symmetry_space_group_name_H-M   'P 1'
_cell_length_a   7.91885671
_cell_length_b   7.93472173
_cell_length_c   7.92899985
_cell_angle_alpha   89.90755349
_cell_angle_beta   90.00000000
_cell_angle_gamma   90.00000000
_symmetry_Int_Tables_number   1
_chemical_formula_structural   Ba2Sr2Co(CuO4)3
_chemical_formula_sum   'Ba4 Sr4 Co2 Cu6 O24'
_cell_volume   498.20952889
_cell_formula_units_Z   2
loop_
 _symmetry_equiv_pos_site_id
 _symmetry_equiv_pos_as_xyz
  1  'x, y, z'
loop_
 _atom_site_type_symbol
 _atom_site_label
 _atom_site_symmetry_multiplicity
 _atom_site_fract_x
 _atom_site_fract_y
 _atom_site_fract_z
 _atom_site_occupancy
  Ba  Ba0  1  0.25000000  0.75191233  0.24896805  1
  Ba  Ba1  1  0.25000000  0.75237429  0.75209836  1
  Ba  Ba2  1  0.75000000  0.24830833  0.24778365  1
  Ba  Ba3  1  0.75000000  0.75148170  0.75120937  1
  Sr  Sr4  1  0.25000000  0.24667960  0.24488640  1
  Sr  Sr5  1  0.25000000  0.24771650  0.75442427  1
  Sr  Sr6  1  0.75000000  0.24599462  0.75527823  1
  Sr  Sr7  1  0.75000000  0.75443276  0.24539491  1
  Co  Co8  1  0.00010139  0.49534733  0.50008133  1
  Co  Co9  1  0.49989861  0.49534733  0.50008133  1
  Cu  Cu10  1  0.00001223  0.00025785  0.00006745  1
  Cu  Cu11  1  -0.00003901  0.99971183  0.50003437  1
  Cu  Cu12  1  -0.00004825  0.49939068  0.00028911  1
  Cu  Cu13  1  0.49998777  0.00025785  0.00006745  1
  Cu  Cu14  1  0.50003901  0.99971183  0.50003437  1
  Cu  Cu15  1  0.50004825  0.49939068  0.00028911  1
  O  O16  1  0.25000000  0.01394820  0.00012386  1
  O  O17  1  0.25000000  0.01506084  0.49980746  1
  O  O18  1  0.25000000  0.48502537  -0.00005671  1
  O  O19  1  0.25000000  0.49423855  0.49999929  1
  O  O20  1  0.75000000  0.00424218  0.99872625  1
  O  O21  1  0.75000000  0.00235602  0.50072883  1
  O  O22  1  0.75000000  0.49538887  0.99840673  1
  O  O23  1  0.75000000  0.49539152  0.50079047  1
  O  O24  1  0.00487347  0.25142757  0.99486710  1
  O  O25  1  0.00276861  0.25684638  0.50209580  1
  O  O26  1  0.99395444  0.74841175  0.00633577  1
  O  O27  1  0.99629711  0.74060979  0.49677399  1
  O  O28  1  0.49512653  0.25142757  0.99486710  1
  O  O29  1  0.49723139  0.25684638  0.50209580  1
  O  O30  1  0.50604556  0.74841175  0.00633577  1
  O  O31  1  0.50370289  0.74060979  0.49677399  1
  O  O32  1  0.00111960  0.00378124  0.25181724  1
  O  O33  1  -0.00012263  0.01420946  0.74812210  1
  O  O34  1  0.00066663  0.49630262  0.25791486  1
  O  O35  1  -0.00018138  0.49142765  0.74231618  1
  O  O36  1  0.49888040  0.00378124  0.25181724  1
  O  O37  1  0.50012263  0.01420946  0.74812210  1
  O  O38  1  0.49933337  0.49630262  0.25791486  1
  O  O39  1  0.50018138  0.49142765  0.74231618  1
