# generated using pymatgen
data_V3CoSb2(PO4)6
_symmetry_space_group_name_H-M   'P 1'
_cell_length_a   8.86251077
_cell_length_b   8.71008085
_cell_length_c   8.71008107
_cell_angle_alpha   59.99999763
_cell_angle_beta   60.56733914
_cell_angle_gamma   60.56734165
_symmetry_Int_Tables_number   1
_chemical_formula_structural   V3CoSb2(PO4)6
_chemical_formula_sum   'V3 Co1 Sb2 P6 O24'
_cell_volume   479.46579746
_cell_formula_units_Z   1
loop_
 _symmetry_equiv_pos_site_id
 _symmetry_equiv_pos_as_xyz
  1  'x, y, z'
loop_
 _atom_site_type_symbol
 _atom_site_label
 _atom_site_symmetry_multiplicity
 _atom_site_fract_x
 _atom_site_fract_y
 _atom_site_fract_z
 _atom_site_occupancy
  V  V0  1  0.05537913  0.64820696  0.64820696  1
  V  V1  1  0.43525799  0.85491367  0.85491367  1
  V  V2  1  0.94252781  0.35249040  0.35249040  1
  Co  Co3  1  0.54244380  0.15251907  0.15251907  1
  Sb  Sb4  1  0.97477386  0.00840871  0.00840871  1
  Sb  Sb5  1  0.48675632  0.50441423  0.50441423  1
  P  P6  1  0.25227371  0.24846705  0.54105524  1
  P  P7  1  0.25227371  0.95820400  0.24846705  1
  P  P8  1  0.25227371  0.54105524  0.95820400  1
  P  P9  1  0.75240255  0.46065815  0.03932705  1
  P  P10  1  0.75240255  0.03932705  0.74761325  1
  P  P11  1  0.75240255  0.74761325  0.46065815  1
  O  O12  1  0.07530722  0.11594877  0.30237968  1
  O  O13  1  0.07530722  0.50636434  0.11594877  1
  O  O14  1  0.07530722  0.30237968  0.50636434  1
  O  O15  1  0.24561437  0.08575896  0.73325467  1
  O  O16  1  0.42932425  0.20355314  0.38737944  1
  O  O17  1  0.24831180  0.42005458  0.56687828  1
  O  O18  1  0.24561437  0.93537100  0.08575896  1
  O  O19  1  0.24831180  0.76475634  0.42005458  1
  O  O20  1  0.57658560  0.61617256  0.00545331  1
  O  O21  1  0.24831180  0.56687828  0.76475634  1
  O  O22  1  0.76448355  0.26773647  0.05605118  1
  O  O23  1  0.57658560  0.00545331  0.80178854  1
  O  O24  1  0.42932425  0.97974317  0.20355314  1
  O  O25  1  0.24561437  0.73325467  0.93537100  1
  O  O26  1  0.74936296  0.43853663  0.23065181  1
  O  O27  1  0.42932425  0.38737944  0.97974317  1
  O  O28  1  0.74936296  0.23065181  0.58144761  1
  O  O29  1  0.76448355  0.05605118  0.91172880  1
  O  O30  1  0.74936296  0.58144761  0.43853663  1
  O  O31  1  0.57658560  0.80178854  0.61617256  1
  O  O32  1  0.76448355  0.91172880  0.26773647  1
  O  O33  1  0.92728702  0.69107346  0.50006499  1
  O  O34  1  0.92728702  0.50006499  0.88157452  1
  O  O35  1  0.92728702  0.88157452  0.69107346  1
