# generated using pymatgen
data_Ni3OF5
_symmetry_space_group_name_H-M   'P 1'
_cell_length_a   4.70466927
_cell_length_b   4.70466927
_cell_length_c   9.27011145
_cell_angle_alpha   90.00068544
_cell_angle_beta   90.00068544
_cell_angle_gamma   91.11123846
_symmetry_Int_Tables_number   1
_chemical_formula_structural   Ni3OF5
_chemical_formula_sum   'Ni6 O2 F10'
_cell_volume   205.14525007
_cell_formula_units_Z   2
loop_
 _symmetry_equiv_pos_site_id
 _symmetry_equiv_pos_as_xyz
  1  'x, y, z'
loop_
 _atom_site_type_symbol
 _atom_site_label
 _atom_site_symmetry_multiplicity
 _atom_site_fract_x
 _atom_site_fract_y
 _atom_site_fract_z
 _atom_site_occupancy
  Ni  Ni0  1  0.98429111  0.98429111  -0.00026114  1
  Ni  Ni1  1  0.01570889  0.01570889  0.33359414  1
  Ni  Ni2  1  -0.00000000  -0.00000000  0.66666700  1
  Ni  Ni3  1  0.50171923  0.50171923  0.83693526  1
  Ni  Ni4  1  0.50000000  0.50000000  0.16666700  1
  Ni  Ni5  1  0.49828077  0.49828077  0.49639874  1
  O  O6  1  0.31027049  0.31027049  0.33254493  1
  O  O7  1  0.68972951  0.68972951  0.00078807  1
  F  F8  1  0.19233242  0.79876721  0.83335257  1
  F  F9  1  0.19657960  0.80342040  0.16666700  1
  F  F10  1  0.20123279  0.80766758  0.49998043  1
  F  F11  1  0.29188861  0.29188861  0.00012157  1
  F  F12  1  0.30503738  0.30503738  0.66838780  1
  F  F13  1  0.70811139  0.70811139  0.33321143  1
  F  F14  1  0.69496262  0.69496262  0.66494520  1
  F  F15  1  0.80342040  0.19657960  0.16666700  1
  F  F16  1  0.79876721  0.19233242  0.83335257  1
  F  F17  1  0.80766758  0.20123279  0.49998043  1
