# generated using pymatgen
data_Mn3ReO6
_symmetry_space_group_name_H-M   'P 1'
_cell_length_a   5.36381686
_cell_length_b   5.47720618
_cell_length_c   7.84296591
_cell_angle_alpha   90.00000000
_cell_angle_beta   90.26279573
_cell_angle_gamma   90.00000000
_symmetry_Int_Tables_number   1
_chemical_formula_structural   Mn3ReO6
_chemical_formula_sum   'Mn6 Re2 O12'
_cell_volume   230.41396090
_cell_formula_units_Z   2
loop_
 _symmetry_equiv_pos_site_id
 _symmetry_equiv_pos_as_xyz
  1  'x, y, z'
loop_
 _atom_site_type_symbol
 _atom_site_label
 _atom_site_symmetry_multiplicity
 _atom_site_fract_x
 _atom_site_fract_y
 _atom_site_fract_z
 _atom_site_occupancy
  Mn  Mn0  1  0.49642353  0.54793581  0.25767377  1
  Mn  Mn1  1  0.99642353  0.95206419  0.75767377  1
  Mn  Mn2  1  0.50357647  0.45206419  0.74232623  1
  Mn  Mn3  1  0.00357647  0.04793581  0.24232623  1
  Mn  Mn4  1  0.50000000  -0.00000000  0.50000000  1
  Mn  Mn5  1  0.00000000  0.50000000  -0.00000000  1
  Re  Re6  1  0.00000000  0.50000000  0.50000000  1
  Re  Re7  1  0.50000000  -0.00000000  -0.00000000  1
  O  O8  1  0.15736326  0.79902062  0.42727221  1
  O  O9  1  0.65736326  0.70097938  0.92727221  1
  O  O10  1  0.84263674  0.20097938  0.57272779  1
  O  O11  1  0.34263674  0.29902062  0.07272779  1
  O  O12  1  0.30726157  0.32849595  0.44317821  1
  O  O13  1  0.80726157  0.17150405  0.94317821  1
  O  O14  1  0.69273843  0.67150405  0.55682179  1
  O  O15  1  0.19273843  0.82849595  0.05682179  1
  O  O16  1  0.62149033  0.93049347  0.23403796  1
  O  O17  1  0.12149033  0.56950653  0.73403796  1
  O  O18  1  0.37850967  0.06950653  0.76596204  1
  O  O19  1  0.87850967  0.43049347  0.26596204  1
