# generated using pymatgen
data_LiNiP2O7
_symmetry_space_group_name_H-M   'P 1'
_cell_length_a   6.43490266
_cell_length_b   6.49696209
_cell_length_c   6.55952811
_cell_angle_alpha   113.35320651
_cell_angle_beta   95.27508248
_cell_angle_gamma   81.62147342
_symmetry_Int_Tables_number   1
_chemical_formula_structural   LiNiP2O7
_chemical_formula_sum   'Li2 Ni2 P4 O14'
_cell_volume   248.90693368
_cell_formula_units_Z   2
loop_
 _symmetry_equiv_pos_site_id
 _symmetry_equiv_pos_as_xyz
  1  'x, y, z'
loop_
 _atom_site_type_symbol
 _atom_site_label
 _atom_site_symmetry_multiplicity
 _atom_site_fract_x
 _atom_site_fract_y
 _atom_site_fract_z
 _atom_site_occupancy
  Li  Li0  1  0.12371217  0.70279667  0.16985033  1
  Li  Li1  1  0.87628783  0.29720333  0.83014967  1
  Ni  Ni2  1  0.65317364  0.10065285  0.21591952  1
  Ni  Ni3  1  0.34682636  0.89934715  0.78408048  1
  P  P4  1  0.61516191  0.63839525  0.32790808  1
  P  P5  1  0.38483809  0.36160475  0.67209192  1
  P  P6  1  0.14017284  0.21905327  0.23905349  1
  P  P7  1  0.85982716  0.78094673  0.76094651  1
  O  O8  1  0.66442370  0.94341121  0.87049886  1
  O  O9  1  0.33557630  0.05658879  0.12950114  1
  O  O10  1  0.06159535  0.37737603  0.11946054  1
  O  O11  1  0.30193677  0.20918438  0.76524070  1
  O  O12  1  0.59993812  0.25283541  0.56817696  1
  O  O13  1  0.40006188  0.74716459  0.43182304  1
  O  O14  1  0.97427065  0.08758239  0.26632541  1
  O  O15  1  0.93840465  0.62262397  0.88053946  1
  O  O16  1  0.61127839  0.39609458  0.16274540  1
  O  O17  1  0.69806323  0.79081562  0.23475930  1
  O  O18  1  0.21922076  0.38376167  0.48000762  1
  O  O19  1  0.38872161  0.60390542  0.83725460  1
  O  O20  1  0.78077924  0.61623833  0.51999238  1
  O  O21  1  0.02572935  0.91241761  0.73367459  1
