# generated using pymatgen
data_Sb5(PO4)6
_symmetry_space_group_name_H-M   'P 1'
_cell_length_a   8.69427562
_cell_length_b   8.80465646
_cell_length_c   8.95251026
_cell_angle_alpha   104.75174444
_cell_angle_beta   111.67280480
_cell_angle_gamma   110.91579734
_symmetry_Int_Tables_number   1
_chemical_formula_structural   Sb5(PO4)6
_chemical_formula_sum   'Sb5 P6 O24'
_cell_volume   532.69301675
_cell_formula_units_Z   1
loop_
 _symmetry_equiv_pos_site_id
 _symmetry_equiv_pos_as_xyz
  1  'x, y, z'
loop_
 _atom_site_type_symbol
 _atom_site_label
 _atom_site_symmetry_multiplicity
 _atom_site_fract_x
 _atom_site_fract_y
 _atom_site_fract_z
 _atom_site_occupancy
  Sb  Sb0  1  0.95677901  0.28088152  0.44522632  1
  Sb  Sb1  1  0.31327903  0.49251366  0.02342800  1
  Sb  Sb2  1  0.02857731  0.82995650  0.47642315  1
  Sb  Sb3  1  0.68698082  0.67383211  0.69853767  1
  Sb  Sb4  1  0.55384281  0.07479979  0.89744772  1
  P  P5  1  0.64052918  0.39566750  0.22946777  1
  P  P6  1  0.36332694  0.28605828  0.67157308  1
  P  P7  1  0.73551933  0.84080051  0.11400973  1
  P  P8  1  0.13318522  0.73404609  0.85038569  1
  P  P9  1  0.25122062  0.60694476  0.37668647  1
  P  P10  1  0.87870203  0.11982617  0.75602100  1
  O  O11  1  0.14717342  0.56654689  0.87905910  1
  O  O12  1  0.42676235  0.68575923  0.56851240  1
  O  O13  1  0.68233501  0.34240964  0.07264466  1
  O  O14  1  0.66687747  0.28446248  0.33155119  1
  O  O15  1  0.55524661  0.72262214  0.11687583  1
  O  O16  1  0.94588897  0.70434334  0.85789674  1
  O  O17  1  0.09649829  0.69469585  0.65732937  1
  O  O18  1  0.17650983  0.74383900  0.38542692  1
  O  O19  1  0.72802597  0.14490255  0.79414639  1
  O  O20  1  0.32383976  0.39561106  0.80465642  1
  O  O21  1  0.90054169  0.81168825  0.20566898  1
  O  O22  1  0.09579568  0.41413197  0.30825707  1
  O  O23  1  0.67959233  0.80080049  0.91498188  1
  O  O24  1  0.77078621  0.60135518  0.35557356  1
  O  O25  1  0.78347879  0.04274295  0.20078844  1
  O  O26  1  0.30449385  0.91712072  0.99077012  1
  O  O27  1  0.55419795  0.41527073  0.69394802  1
  O  O28  1  0.37952565  0.12749240  0.71209781  1
  O  O29  1  0.85985688  0.93077925  0.72985171  1
  O  O30  1  0.18486274  0.19758526  0.48561800  1
  O  O31  1  0.33232887  0.62405462  0.24833006  1
  O  O32  1  0.07767046  0.26083683  0.93001449  1
  O  O33  1  0.43188559  0.36539508  0.14278309  1
  O  O34  1  0.85992531  0.13626921  0.58553215  1
