# generated using pymatgen
data_VS2N3Cl2
_symmetry_space_group_name_H-M   'P 1'
_cell_length_a   5.79601758
_cell_length_b   7.65972224
_cell_length_c   8.12700941
_cell_angle_alpha   90.13460234
_cell_angle_beta   98.15238943
_cell_angle_gamma   107.58655443
_symmetry_Int_Tables_number   1
_chemical_formula_structural   VS2N3Cl2
_chemical_formula_sum   'V2 S4 N6 Cl4'
_cell_volume   340.07581246
_cell_formula_units_Z   2
loop_
 _symmetry_equiv_pos_site_id
 _symmetry_equiv_pos_as_xyz
  1  'x, y, z'
loop_
 _atom_site_type_symbol
 _atom_site_label
 _atom_site_symmetry_multiplicity
 _atom_site_fract_x
 _atom_site_fract_y
 _atom_site_fract_z
 _atom_site_occupancy
  V  V0  1  0.24878612  0.00539375  0.13668396  1
  V  V1  1  0.75121388  0.99460625  0.86331604  1
  S  S2  1  0.22065462  0.29999397  0.80108189  1
  S  S3  1  0.22756976  0.73150854  0.41843262  1
  S  S4  1  0.77934538  0.70000603  0.19891811  1
  S  S5  1  0.77243024  0.26849146  0.58156738  1
  N  N6  1  0.94166110  0.64222135  0.35010665  1
  N  N7  1  0.65512613  0.10381304  0.69212734  1
  N  N8  1  0.34487387  0.89618696  0.30787266  1
  N  N9  1  0.92723759  0.87211925  0.10650111  1
  N  N10  1  0.05833890  0.35777865  0.64989335  1
  N  N11  1  0.07276241  0.12788075  0.89349889  1
  Cl  Cl12  1  0.73987151  0.73141580  0.73241892  1
  Cl  Cl13  1  0.65778108  0.19320917  0.06170107  1
  Cl  Cl14  1  0.26012849  0.26858420  0.26758108  1
  Cl  Cl15  1  0.34221892  0.80679083  0.93829893  1
