# generated using pymatgen
data_Ti8Pb8O23
_symmetry_space_group_name_H-M   'P 1'
_cell_length_a   3.95337002
_cell_length_b   11.51237150
_cell_length_c   12.54621193
_cell_angle_alpha   113.69707693
_cell_angle_beta   90.00000000
_cell_angle_gamma   90.00000000
_symmetry_Int_Tables_number   1
_chemical_formula_structural   Ti8Pb8O23
_chemical_formula_sum   'Ti8 Pb8 O23'
_cell_volume   522.86560938
_cell_formula_units_Z   1
loop_
 _symmetry_equiv_pos_site_id
 _symmetry_equiv_pos_as_xyz
  1  'x, y, z'
loop_
 _atom_site_type_symbol
 _atom_site_label
 _atom_site_symmetry_multiplicity
 _atom_site_fract_x
 _atom_site_fract_y
 _atom_site_fract_z
 _atom_site_occupancy
  Ti  Ti0  1  0.50000000  0.85372133  0.73584721  1
  Ti  Ti1  1  0.50000000  0.61018633  0.24046485  1
  Ti  Ti2  1  0.50000000  0.23532754  0.98993431  1
  Ti  Ti3  1  0.50000000  0.73476239  0.99061121  1
  Ti  Ti4  1  0.50000000  0.48795658  0.49229857  1
  Ti  Ti5  1  0.50000000  0.98581277  0.48969018  1
  Ti  Ti6  1  0.50000000  0.36023687  0.74059010  1
  Ti  Ti7  1  0.50000000  0.11149977  0.24006182  1
  Pb  Pb8  1  -0.00000000  0.12331889  0.74998079  1
  Pb  Pb9  1  0.00000000  0.25148576  0.50057291  1
  Pb  Pb10  1  -0.00000000  0.62076923  0.75062153  1
  Pb  Pb11  1  0.00000000  0.74843828  0.49579392  1
  Pb  Pb12  1  -0.00000000  0.87613630  0.24971006  1
  Pb  Pb13  1  0.00000000  0.37538008  0.25093424  1
  Pb  Pb14  1  -0.00000000  0.49937265  0.00034461  1
  Pb  Pb15  1  -0.00000000  0.99927382  0.99826954  1
  O  O16  1  0.50000000  0.39536628  0.59598179  1
  O  O17  1  0.50000000  0.01550379  0.84376257  1
  O  O18  1  0.50000000  0.26959853  0.84640324  1
  O  O19  1  0.50000000  0.52141477  0.84629997  1
  O  O20  1  0.50000000  0.14568617  0.59684671  1
  O  O21  1  0.50000000  0.01880761  0.34733785  1
  O  O22  1  0.50000000  0.27190138  0.34757312  1
  O  O23  1  0.50000000  0.14444441  0.09652557  1
  O  O24  1  0.50000000  0.39558217  0.09676175  1
  O  O25  1  0.50000000  0.77028723  0.84341456  1
  O  O26  1  0.50000000  0.51999011  0.34700533  1
  O  O27  1  0.50000000  0.65099995  0.60061839  1
  O  O28  1  0.50000000  0.89265922  0.59851726  1
  O  O29  1  0.50000000  0.76978481  0.34807816  1
  O  O30  1  0.50000000  0.64506011  0.09569066  1
  O  O31  1  0.50000000  0.89522716  0.09736806  1
  O  O32  1  0.00000000  0.08201671  0.22259264  1
  O  O33  1  0.00000000  0.70773233  0.96872913  1
  O  O34  1  0.00000000  0.20544761  0.97032146  1
  O  O35  1  -0.00000000  0.95523498  0.47349858  1
  O  O36  1  0.00000000  0.45939866  0.47277499  1
  O  O37  1  -0.00000000  0.33274807  0.72107937  1
  O  O38  1  -0.00000000  0.58201337  0.22081698  1
