# generated using pymatgen
data_LiSn(PO3)4
_symmetry_space_group_name_H-M   'P 1'
_cell_length_a   9.78358514
_cell_length_b   10.59563988
_cell_length_c   9.27086932
_cell_angle_alpha   90.00000000
_cell_angle_beta   91.69241797
_cell_angle_gamma   90.00000000
_symmetry_Int_Tables_number   1
_chemical_formula_structural   LiSn(PO3)4
_chemical_formula_sum   'Li4 Sn4 P16 O48'
_cell_volume   960.63009265
_cell_formula_units_Z   4
loop_
 _symmetry_equiv_pos_site_id
 _symmetry_equiv_pos_as_xyz
  1  'x, y, z'
loop_
 _atom_site_type_symbol
 _atom_site_label
 _atom_site_symmetry_multiplicity
 _atom_site_fract_x
 _atom_site_fract_y
 _atom_site_fract_z
 _atom_site_occupancy
  Li  Li0  1  0.50071316  0.32212600  0.86819145  1
  Li  Li1  1  0.49727622  0.67609195  0.36536433  1
  Li  Li2  1  0.00272378  0.17609195  0.63463567  1
  Li  Li3  1  0.99928684  0.82212600  0.13180855  1
  Sn  Sn4  1  0.97840916  0.80099792  0.73635571  1
  Sn  Sn5  1  0.47985774  0.69678495  0.75647968  1
  Sn  Sn6  1  0.02014226  0.19678495  0.24352032  1
  Sn  Sn7  1  0.52159084  0.30099792  0.26364429  1
  P  P8  1  0.73501349  0.01945314  0.23586650  1
  P  P9  1  0.69785075  0.09969685  0.72839662  1
  P  P10  1  0.19933075  0.40259875  0.73606650  1
  P  P11  1  0.19913393  0.61269529  0.94842612  1
  P  P12  1  0.79588684  0.38655629  0.05213746  1
  P  P13  1  0.20380185  0.60452352  0.52116072  1
  P  P14  1  0.69677004  0.89726805  0.52030913  1
  P  P15  1  0.30066925  0.90259875  0.26393350  1
  P  P16  1  0.23436862  0.47956873  0.24271024  1
  P  P17  1  0.29619815  0.10452352  0.47883928  1
  P  P18  1  0.70411316  0.88655629  0.94786254  1
  P  P19  1  0.76498651  0.51945314  0.76413350  1
  P  P20  1  0.80214925  0.59969685  0.27160338  1
  P  P21  1  0.80322996  0.39726805  0.47969087  1
  P  P22  1  0.26563138  0.97956873  0.75728976  1
  P  P23  1  0.30086607  0.11269529  0.05157388  1
  O  O24  1  0.84643902  0.87656916  0.56276912  1
  O  O25  1  0.32262329  0.03643096  0.90534434  1
  O  O26  1  0.85272175  0.53302265  0.42547568  1
  O  O27  1  0.15113155  0.89692361  0.23421426  1
  O  O28  1  0.88806962  0.27189059  0.06265205  1
  O  O29  1  0.38953556  0.47975436  0.25571187  1
  O  O30  1  0.10307235  0.70225186  0.56961389  1
  O  O31  1  0.35082044  0.63185938  0.92942184  1
  O  O32  1  0.33362114  0.96683741  0.42234478  1
  O  O33  1  0.14443970  0.13164998  0.45287898  1
  O  O34  1  0.61193038  0.77189059  0.93734795  1
  O  O35  1  0.39692765  0.20225186  0.43038611  1
  O  O36  1  0.14917956  0.13185938  0.07057816  1
  O  O37  1  0.85199659  0.48080371  0.17098069  1
  O  O38  1  0.82834575  0.64588503  0.73639964  1
  O  O39  1  0.17534557  0.58357473  0.35067578  1
  O  O40  1  0.13380557  0.51829172  0.83284250  1
  O  O41  1  0.16637886  0.46683741  0.57765522  1
  O  O42  1  0.34886845  0.39692361  0.76578574  1
  O  O43  1  0.16774097  0.35350458  0.26206115  1
  O  O44  1  0.64233980  0.36662261  0.05812462  1
  O  O45  1  0.59649831  0.79343390  0.55329138  1
  O  O46  1  0.85766020  0.86662261  0.94187538  1
  O  O47  1  0.66792889  0.96102713  0.09254155  1
  O  O48  1  0.65356098  0.37656916  0.43723088  1
  O  O49  1  0.88982980  0.01807650  0.23042516  1
  O  O50  1  0.67165425  0.14588503  0.26360036  1
  O  O51  1  0.90350169  0.29343390  0.44670862  1
  O  O52  1  0.64800341  0.98080371  0.82901931  1
  O  O53  1  0.68365194  0.91688764  0.34862631  1
  O  O54  1  0.11046444  0.97975436  0.74428813  1
  O  O55  1  0.39388359  0.22729723  0.05137217  1
  O  O56  1  0.32465443  0.08357473  0.64932422  1
  O  O57  1  0.39129629  0.79119096  0.25355150  1
  O  O58  1  0.60642485  0.20745333  0.75801424  1
  O  O59  1  0.84897311  0.10991553  0.73280751  1
  O  O60  1  0.83207111  0.46102713  0.90745845  1
  O  O61  1  0.89357515  0.70745333  0.24198576  1
  O  O62  1  0.17737671  0.53643096  0.09465566  1
  O  O63  1  0.33225903  0.85350458  0.73793885  1
  O  O64  1  0.36619443  0.01829172  0.16715750  1
  O  O65  1  0.10870371  0.29119096  0.74644850  1
  O  O66  1  0.81634806  0.41688764  0.65137369  1
  O  O67  1  0.61017020  0.51807650  0.76957484  1
  O  O68  1  0.35556030  0.63164998  0.54712102  1
  O  O69  1  0.10611641  0.72729723  0.94862783  1
  O  O70  1  0.65102689  0.60991553  0.26719249  1
  O  O71  1  0.64727825  0.03302265  0.57452432  1
