# generated using pymatgen
data_Mg(NiGe)6
_symmetry_space_group_name_H-M   'P 1'
_cell_length_a   5.09961727
_cell_length_b   5.10105967
_cell_length_c   7.83901467
_cell_angle_alpha   90.00000000
_cell_angle_beta   90.00000000
_cell_angle_gamma   119.99065547
_symmetry_Int_Tables_number   1
_chemical_formula_structural   Mg(NiGe)6
_chemical_formula_sum   'Mg1 Ni6 Ge6'
_cell_volume   176.61638105
_cell_formula_units_Z   1
loop_
 _symmetry_equiv_pos_site_id
 _symmetry_equiv_pos_as_xyz
  1  'x, y, z'
loop_
 _atom_site_type_symbol
 _atom_site_label
 _atom_site_symmetry_multiplicity
 _atom_site_fract_x
 _atom_site_fract_y
 _atom_site_fract_z
 _atom_site_occupancy
  Mg  Mg0  1  -0.00000173  0.00000000  0.00000000  1
  Ni  Ni1  1  0.49999674  -0.00000000  0.24914553  1
  Ni  Ni2  1  0.50000079  0.50000648  0.24915978  1
  Ni  Ni3  1  -0.00000570  0.49999352  0.24915978  1
  Ni  Ni4  1  0.49999674  -0.00000000  0.75085447  1
  Ni  Ni5  1  0.50000079  0.50000648  0.75084022  1
  Ni  Ni6  1  -0.00000570  0.49999352  0.75084022  1
  Ge  Ge7  1  0.33329482  0.66667794  -0.00000000  1
  Ge  Ge8  1  0.66661689  0.33332206  0.00000000  1
  Ge  Ge9  1  0.33328582  0.66664467  0.50000000  1
  Ge  Ge10  1  0.66664115  0.33335533  0.50000000  1
  Ge  Ge11  1  0.99998970  0.00000000  0.33945978  1
  Ge  Ge12  1  0.99998970  0.00000000  0.66054022  1
