# generated using pymatgen
data_Fe2Si2BiO9
_symmetry_space_group_name_H-M   'P 1'
_cell_length_a   5.21832120
_cell_length_b   5.21832120
_cell_length_c   8.04307482
_cell_angle_alpha   96.12859912
_cell_angle_beta   96.12859912
_cell_angle_gamma   118.82801758
_symmetry_Int_Tables_number   1
_chemical_formula_structural   Fe2Si2BiO9
_chemical_formula_sum   'Fe2 Si2 Bi1 O9'
_cell_volume   187.60607512
_cell_formula_units_Z   1
loop_
 _symmetry_equiv_pos_site_id
 _symmetry_equiv_pos_as_xyz
  1  'x, y, z'
loop_
 _atom_site_type_symbol
 _atom_site_label
 _atom_site_symmetry_multiplicity
 _atom_site_fract_x
 _atom_site_fract_y
 _atom_site_fract_z
 _atom_site_occupancy
  Fe  Fe0  1  0.65289620  0.32669893  0.99899864  1
  Fe  Fe1  1  0.32669893  0.65289620  0.99899864  1
  Si  Si2  1  0.86851016  0.52619555  0.64174731  1
  Si  Si3  1  0.52619555  0.86851016  0.64174731  1
  Bi  Bi4  1  0.08187613  0.08187613  0.27024814  1
  O  O5  1  0.02774540  0.39037965  0.13355082  1
  O  O6  1  0.39037965  0.02774540  0.13355082  1
  O  O7  1  0.68369107  0.68369107  0.14167207  1
  O  O8  1  0.94908436  0.57242525  0.84736783  1
  O  O9  1  0.57242525  0.94908436  0.84736783  1
  O  O10  1  0.34173667  0.34173667  0.86495419  1
  O  O11  1  0.16997070  0.67383987  0.55677374  1
  O  O12  1  0.67383987  0.16997070  0.55677374  1
  O  O13  1  0.67295007  0.67295007  0.57224892  1
