# generated using pymatgen
data_Co(PO3)3
_symmetry_space_group_name_H-M   'P 1'
_cell_length_a   9.55458876
_cell_length_b   9.46373953
_cell_length_c   9.46064674
_cell_angle_alpha   108.41714696
_cell_angle_beta   105.34925306
_cell_angle_gamma   109.34022176
_symmetry_Int_Tables_number   1
_chemical_formula_structural   Co(PO3)3
_chemical_formula_sum   'Co4 P12 O36'
_cell_volume   697.62595187
_cell_formula_units_Z   4
loop_
 _symmetry_equiv_pos_site_id
 _symmetry_equiv_pos_as_xyz
  1  'x, y, z'
loop_
 _atom_site_type_symbol
 _atom_site_label
 _atom_site_symmetry_multiplicity
 _atom_site_fract_x
 _atom_site_fract_y
 _atom_site_fract_z
 _atom_site_occupancy
  Co  Co0  1  0.27231918  0.22372543  0.74210210  1
  Co  Co1  1  0.20664942  0.30407256  0.10757535  1
  Co  Co2  1  0.72768082  0.77627457  0.25789790  1
  Co  Co3  1  0.79335058  0.69592744  0.89242465  1
  P  P4  1  0.35207179  0.60575757  0.00220600  1
  P  P5  1  0.83065600  0.20305465  0.93652224  1
  P  P6  1  0.92197562  0.09312748  0.18586479  1
  P  P7  1  0.09764321  0.84225542  0.49037360  1
  P  P8  1  0.69555361  0.33431589  0.56866172  1
  P  P9  1  0.40682093  0.56351662  0.70192318  1
  P  P10  1  0.30444639  0.66568411  0.43133828  1
  P  P11  1  0.59317907  0.43648338  0.29807682  1
  P  P12  1  0.16934400  0.79694535  0.06347776  1
  P  P13  1  0.90235679  0.15774458  0.50962640  1
  P  P14  1  0.07802438  0.90687252  0.81413521  1
  P  P15  1  0.64792821  0.39424243  0.99779400  1
  O  O16  1  0.23302164  0.01613897  0.56470190  1
  O  O17  1  0.30047254  0.59543289  0.57013882  1
  O  O18  1  0.05765470  0.19580376  0.64342965  1
  O  O19  1  0.64844279  0.62110169  0.35408144  1
  O  O20  1  0.98969483  0.72331278  0.03333937  1
  O  O21  1  0.64773718  0.36641798  0.15464295  1
  O  O22  1  0.35226282  0.63358202  0.84535705  1
  O  O23  1  0.14269285  0.69874335  0.41565333  1
  O  O24  1  0.31336151  0.42505084  0.96745369  1
  O  O25  1  0.24051972  0.51306501  0.27184491  1
  O  O26  1  0.81606724  0.90736561  0.12625293  1
  O  O27  1  0.17912804  0.83546626  0.90818560  1
  O  O28  1  0.54599296  0.18413871  0.51289227  1
  O  O29  1  0.29093148  0.93345969  0.22229997  1
  O  O30  1  0.45400704  0.81586129  0.48710773  1
  O  O31  1  0.20063731  0.63175212  0.01470741  1
  O  O32  1  0.70906852  0.06654031  0.77770003  1
  O  O33  1  0.05005825  0.80309956  0.63061300  1
  O  O34  1  0.75948028  0.48693499  0.72815509  1
  O  O35  1  0.49057581  0.26221831  0.85342251  1
  O  O36  1  0.69952746  0.40456711  0.42986118  1
  O  O37  1  0.82087196  0.16453374  0.09181440  1
  O  O38  1  0.85730715  0.30125665  0.58434667  1
  O  O39  1  0.01030517  0.27668722  0.96666063  1
  O  O40  1  0.91595311  0.86009399  0.82558390  1
  O  O41  1  0.94994175  0.19690044  0.36938700  1
  O  O42  1  0.58766295  0.67317297  0.76375494  1
  O  O43  1  0.79936269  0.36824788  0.98529259  1
  O  O44  1  0.50942419  0.73778169  0.14657749  1
  O  O45  1  0.41233705  0.32682703  0.23624506  1
  O  O46  1  0.68663849  0.57494916  0.03254631  1
  O  O47  1  0.08404689  0.13990601  0.17441610  1
  O  O48  1  0.94234530  0.80419624  0.35657035  1
  O  O49  1  0.35155721  0.37889831  0.64591856  1
  O  O50  1  0.18393276  0.09263439  0.87374707  1
  O  O51  1  0.76697836  0.98386103  0.43529810  1
