# generated using pymatgen
data_NaIO3
_symmetry_space_group_name_H-M   'P 1'
_cell_length_a   5.56622397
_cell_length_b   7.42127844
_cell_length_c   8.59995958
_cell_angle_alpha   90.00000000
_cell_angle_beta   90.00000000
_cell_angle_gamma   90.00000000
_symmetry_Int_Tables_number   1
_chemical_formula_structural   NaIO3
_chemical_formula_sum   'Na4 I4 O12'
_cell_volume   355.25141260
_cell_formula_units_Z   4
loop_
 _symmetry_equiv_pos_site_id
 _symmetry_equiv_pos_as_xyz
  1  'x, y, z'
loop_
 _atom_site_type_symbol
 _atom_site_label
 _atom_site_symmetry_multiplicity
 _atom_site_fract_x
 _atom_site_fract_y
 _atom_site_fract_z
 _atom_site_occupancy
  Na  Na0  1  0.99711591  0.48614161  0.49614041  1
  Na  Na1  1  0.49711591  0.01385839  0.49614041  1
  Na  Na2  1  0.50288409  0.98614161  0.99614041  1
  Na  Na3  1  0.00288409  0.51385839  0.99614041  1
  I  I4  1  0.02475118  0.99570076  0.75155575  1
  I  I5  1  0.52475118  0.50429924  0.75155575  1
  I  I6  1  0.47524882  0.49570076  0.25155575  1
  I  I7  1  0.97524882  0.00429924  0.25155575  1
  O  O8  1  0.19696275  0.47722661  0.74635189  1
  O  O9  1  0.59901693  0.65356711  0.91358518  1
  O  O10  1  0.11145615  0.85901934  0.58416677  1
  O  O11  1  0.61145615  0.64098066  0.58416677  1
  O  O12  1  0.90098307  0.15356711  0.41358518  1
  O  O13  1  0.09901693  0.84643289  0.91358518  1
  O  O14  1  0.40098307  0.34643289  0.41358518  1
  O  O15  1  0.30303725  0.97722661  0.24635189  1
  O  O16  1  0.80303725  0.52277339  0.24635189  1
  O  O17  1  0.69696275  0.02277339  0.74635189  1
  O  O18  1  0.88854385  0.14098066  0.08416677  1
  O  O19  1  0.38854385  0.35901934  0.08416677  1
