# generated using pymatgen
data_GaAgO2
_symmetry_space_group_name_H-M   'P 1'
_cell_length_a   5.56504357
_cell_length_b   5.66051238
_cell_length_c   7.23236737
_cell_angle_alpha   90.00000000
_cell_angle_beta   90.00000000
_cell_angle_gamma   90.00000000
_symmetry_Int_Tables_number   1
_chemical_formula_structural   GaAgO2
_chemical_formula_sum   'Ga4 Ag4 O8'
_cell_volume   227.82679023
_cell_formula_units_Z   4
loop_
 _symmetry_equiv_pos_site_id
 _symmetry_equiv_pos_as_xyz
  1  'x, y, z'
loop_
 _atom_site_type_symbol
 _atom_site_label
 _atom_site_symmetry_multiplicity
 _atom_site_fract_x
 _atom_site_fract_y
 _atom_site_fract_z
 _atom_site_occupancy
  Ga  Ga0  1  0.00036366  0.56022013  0.37557006  1
  Ga  Ga1  1  0.50036366  0.43977987  0.62442994  1
  Ga  Ga2  1  0.50036366  0.93977987  0.87557006  1
  Ga  Ga3  1  0.00036366  0.06022013  0.12442994  1
  Ag  Ag4  1  0.49448959  0.94958002  0.37517408  1
  Ag  Ag5  1  0.99448959  0.05041998  0.62482592  1
  Ag  Ag6  1  0.99448959  0.55041998  0.87517408  1
  Ag  Ag7  1  0.49448959  0.44958002  0.12482592  1
  O  O8  1  0.42191054  0.12246383  0.66842409  1
  O  O9  1  0.92191054  0.87753617  0.33157591  1
  O  O10  1  0.92191054  0.37753617  0.16842409  1
  O  O11  1  0.42191054  0.62246383  0.83157591  1
  O  O12  1  0.33173621  0.04095084  0.08341503  1
  O  O13  1  0.83173621  0.95904916  0.91658497  1
  O  O14  1  0.83173621  0.45904916  0.58341503  1
  O  O15  1  0.33173621  0.54095084  0.41658497  1
