# generated using pymatgen
data_ZrS4(N2Cl3)2
_symmetry_space_group_name_H-M   'P 1'
_cell_length_a   7.21936264
_cell_length_b   11.67949749
_cell_length_c   18.90276524
_cell_angle_alpha   102.78434781
_cell_angle_beta   98.62278757
_cell_angle_gamma   92.16053717
_symmetry_Int_Tables_number   1
_chemical_formula_structural   ZrS4(N2Cl3)2
_chemical_formula_sum   'Zr4 S16 N16 Cl24'
_cell_volume   1532.61485888
_cell_formula_units_Z   4
loop_
 _symmetry_equiv_pos_site_id
 _symmetry_equiv_pos_as_xyz
  1  'x, y, z'
loop_
 _atom_site_type_symbol
 _atom_site_label
 _atom_site_symmetry_multiplicity
 _atom_site_fract_x
 _atom_site_fract_y
 _atom_site_fract_z
 _atom_site_occupancy
  Zr  Zr0  1  0.53029485  0.56555082  0.41112767  1
  Zr  Zr1  1  0.46970515  0.43444918  0.58887233  1
  Zr  Zr2  1  0.97251206  0.94223017  0.09197950  1
  Zr  Zr3  1  0.02748794  0.05776983  0.90802050  1
  S  S4  1  0.83760742  0.33909792  0.10295342  1
  S  S5  1  0.08314605  0.79111538  0.66072783  1
  S  S6  1  0.36770769  0.05612992  0.60421911  1
  S  S7  1  0.01169556  0.04499616  0.66536973  1
  S  S8  1  0.16239258  0.66090208  0.89704658  1
  S  S9  1  0.63229231  0.94387008  0.39578089  1
  S  S10  1  0.48061717  0.38919309  0.16181303  1
  S  S11  1  0.01116511  0.42130972  0.81109236  1
  S  S12  1  0.98883489  0.57869028  0.18890764  1
  S  S13  1  0.51938283  0.61080691  0.83818697  1
  S  S14  1  0.58568403  0.64340922  0.16519127  1
  S  S15  1  0.98830444  0.95500384  0.33463027  1
  S  S16  1  0.41431597  0.35659078  0.83480873  1
  S  S17  1  0.49591513  0.87337633  0.68504353  1
  S  S18  1  0.91685395  0.20888462  0.33927217  1
  S  S19  1  0.50408487  0.12662367  0.31495647  1
  N  N20  1  0.98519286  0.91075580  0.66023616  1
  N  N21  1  0.19224321  0.09917467  0.64282156  1
  N  N22  1  0.01480714  0.08924420  0.33976384  1
  N  N23  1  0.47202181  0.52168903  0.16063681  1
  N  N24  1  0.01603450  0.55781854  0.84670328  1
  N  N25  1  0.98396550  0.44218146  0.15329672  1
  N  N26  1  0.34315493  0.67844320  0.85982489  1
  N  N27  1  0.65684507  0.32155680  0.14017511  1
  N  N28  1  0.49595794  0.01304581  0.34788370  1
  N  N29  1  0.80716796  0.64445512  0.18121407  1
  N  N30  1  0.50404206  0.98695419  0.65211630  1
  N  N31  1  0.30497567  0.80243182  0.67643498  1
  N  N32  1  0.19283204  0.35554488  0.81878593  1
  N  N33  1  0.52797819  0.47831097  0.83936319  1
  N  N34  1  0.80775679  0.90082533  0.35717844  1
  N  N35  1  0.69502433  0.19756818  0.32356502  1
  Cl  Cl36  1  0.83332226  0.75434918  0.01177823  1
  Cl  Cl37  1  0.69309505  0.42757038  0.49122999  1
  Cl  Cl38  1  0.80802683  0.15449347  0.83471433  1
  Cl  Cl39  1  0.65052022  0.30548868  0.65271356  1
  Cl  Cl40  1  0.30690495  0.57242962  0.50877001  1
  Cl  Cl41  1  0.71877715  0.95395683  0.16416924  1
  Cl  Cl42  1  0.32582776  0.39483269  0.33479625  1
  Cl  Cl43  1  0.76001276  0.08586306  0.48946288  1
  Cl  Cl44  1  0.89009240  0.86204388  0.83738393  1
  Cl  Cl45  1  0.22691026  0.47601877  0.66524014  1
  Cl  Cl46  1  0.28398965  0.26522202  0.50479591  1
  Cl  Cl47  1  0.27653362  0.58046560  0.98684908  1
  Cl  Cl48  1  0.28122285  0.04604317  0.83583076  1
  Cl  Cl49  1  0.10990760  0.13795612  0.16261607  1
  Cl  Cl50  1  0.78413784  0.04888660  0.99791357  1
  Cl  Cl51  1  0.16667774  0.24565082  0.98822177  1
  Cl  Cl52  1  0.21586216  0.95111340  0.00208643  1
  Cl  Cl53  1  0.23998724  0.91413694  0.51053712  1
  Cl  Cl54  1  0.19197317  0.84550653  0.16528567  1
  Cl  Cl55  1  0.71601035  0.73477798  0.49520409  1
  Cl  Cl56  1  0.67417224  0.60516731  0.66520375  1
  Cl  Cl57  1  0.72346638  0.41953440  0.01315092  1
  Cl  Cl58  1  0.34947978  0.69451132  0.34728644  1
  Cl  Cl59  1  0.77308974  0.52398123  0.33475986  1
