# generated using pymatgen
data_B5H11N2
_symmetry_space_group_name_H-M   'P 1'
_cell_length_a   7.81417833
_cell_length_b   7.81417832
_cell_length_c   9.91147888
_cell_angle_alpha   84.18668932
_cell_angle_beta   84.18668931
_cell_angle_gamma   83.11983802
_symmetry_Int_Tables_number   1
_chemical_formula_structural   B5H11N2
_chemical_formula_sum   'B20 H44 N8'
_cell_volume   595.32020060
_cell_formula_units_Z   4
loop_
 _symmetry_equiv_pos_site_id
 _symmetry_equiv_pos_as_xyz
  1  'x, y, z'
loop_
 _atom_site_type_symbol
 _atom_site_label
 _atom_site_symmetry_multiplicity
 _atom_site_fract_x
 _atom_site_fract_y
 _atom_site_fract_z
 _atom_site_occupancy
  H  H0  1  0.39517302  0.54635203  0.10334585  1
  H  H1  1  0.45364797  0.60482698  0.39665415  1
  H  H2  1  0.60482698  0.45364797  0.89665415  1
  H  H3  1  0.54635203  0.39517302  0.60334585  1
  H  H4  1  0.64154868  0.17702595  0.28655751  1
  H  H5  1  0.82297405  0.35845132  0.21344249  1
  H  H6  1  0.35845132  0.82297405  0.71344249  1
  H  H7  1  0.17702595  0.64154868  0.78655751  1
  H  H8  1  0.83091674  0.74817609  0.12332100  1
  H  H9  1  0.25182391  0.16908326  0.37667900  1
  H  H10  1  0.16908326  0.25182391  0.87667900  1
  H  H11  1  0.74817609  0.83091674  0.62332100  1
  H  H12  1  0.14969224  0.50050273  0.06290519  1
  H  H13  1  0.49949727  0.85030776  0.43709481  1
  H  H14  1  0.85030776  0.49949727  0.93709481  1
  H  H15  1  0.50050273  0.14969224  0.56290519  1
  H  H16  1  0.41084793  0.75470675  0.95810788  1
  H  H17  1  0.73833727  0.92683012  0.19133612  1
  H  H18  1  0.24529325  0.58915207  0.54189212  1
  H  H19  1  0.75470675  0.41084793  0.45810788  1
  H  H20  1  0.39981556  0.01172458  0.16373262  1
  H  H21  1  0.98827542  0.60018444  0.33626738  1
  H  H22  1  0.60018444  0.98827542  0.83626738  1
  H  H23  1  0.01172458  0.39981556  0.66373262  1
  H  H24  1  0.07092752  0.87934340  0.10625137  1
  H  H25  1  0.12065660  0.92907248  0.39374863  1
  H  H26  1  0.92907248  0.12065660  0.89374863  1
  H  H27  1  0.87934340  0.07092752  0.60625137  1
  H  H28  1  0.09223474  0.79375525  0.88252192  1
  H  H29  1  0.20624475  0.90776526  0.61747808  1
  H  H30  1  0.90776526  0.20624475  0.11747808  1
  H  H31  1  0.79375525  0.09223474  0.38252192  1
  H  H32  1  0.57301583  0.60612646  0.71399464  1
  H  H33  1  0.39387354  0.42698417  0.78600536  1
  H  H34  1  0.42698417  0.39387354  0.28600536  1
  H  H35  1  0.60612646  0.57301583  0.21399464  1
  H  H36  1  0.88670176  0.69841851  0.53587888  1
  H  H37  1  0.30158149  0.11329824  0.96412112  1
  H  H38  1  0.11329824  0.30158149  0.46412112  1
  H  H39  1  0.69841851  0.88670176  0.03587888  1
  H  H40  1  0.92683012  0.73833727  0.69133612  1
  H  H41  1  0.26166273  0.07316988  0.80866388  1
  H  H42  1  0.07316988  0.26166273  0.30866388  1
  H  H43  1  0.58915207  0.24529325  0.04189212  1
  B  B44  1  0.22626456  0.56180013  0.14223439  1
  B  B45  1  0.43819987  0.77373544  0.35776561  1
  B  B46  1  0.77373544  0.43819987  0.85776561  1
  B  B47  1  0.56180013  0.22626456  0.64223439  1
  B  B48  1  0.18057528  0.78621337  0.16299933  1
  B  B49  1  0.21378663  0.81942472  0.33700067  1
  B  B50  1  0.81942472  0.21378663  0.83700067  1
  B  B51  1  0.78621337  0.18057528  0.66299933  1
  B  B52  1  0.38402922  0.71733680  0.07824658  1
  B  B53  1  0.28266320  0.61597078  0.42175342  1
  B  B54  1  0.61597078  0.28266320  0.92175342  1
  B  B55  1  0.71733680  0.38402922  0.57824658  1
  B  B56  1  0.36981011  0.86578969  0.20116672  1
  B  B57  1  0.13421031  0.63018989  0.29883328  1
  B  B58  1  0.63018989  0.13421031  0.79883328  1
  B  B59  1  0.86578969  0.36981011  0.70116672  1
  B  B60  1  0.55830407  0.72470111  0.19101962  1
  B  B61  1  0.27529889  0.44169593  0.30898038  1
  B  B62  1  0.44169593  0.27529889  0.80898038  1
  B  B63  1  0.72470111  0.55830407  0.69101962  1
  N  N64  1  0.71674446  0.82765545  0.13154662  1
  N  N65  1  0.17234455  0.28325554  0.36845338  1
  N  N66  1  0.28325554  0.17234455  0.86845338  1
  N  N67  1  0.82765545  0.71674446  0.63154662  1
  N  N68  1  0.76556401  0.11628283  0.28332149  1
  N  N69  1  0.88371717  0.23443599  0.21667851  1
  N  N70  1  0.23443599  0.88371717  0.71667851  1
  N  N71  1  0.11628283  0.76556401  0.78332149  1
