# generated using pymatgen
data_SiO2
_symmetry_space_group_name_H-M   'P 1'
_cell_length_a   18.13657756
_cell_length_b   18.13657701
_cell_length_c   18.13657692
_cell_angle_alpha   109.47122053
_cell_angle_beta   109.47121992
_cell_angle_gamma   109.47122196
_symmetry_Int_Tables_number   1
_chemical_formula_structural   SiO2
_chemical_formula_sum   'Si48 O96'
_cell_volume   4592.44633807
_cell_formula_units_Z   48
loop_
 _symmetry_equiv_pos_site_id
 _symmetry_equiv_pos_as_xyz
  1  'x, y, z'
loop_
 _atom_site_type_symbol
 _atom_site_label
 _atom_site_symmetry_multiplicity
 _atom_site_fract_x
 _atom_site_fract_y
 _atom_site_fract_z
 _atom_site_occupancy
  Si  Si0  1  0.16811419  0.15461566  0.85791297  1
  Si  Si1  1  0.15461566  0.85791297  0.16811419  1
  Si  Si2  1  0.70329731  0.85791297  0.18979878  1
  Si  Si3  1  0.51349853  0.70329731  0.34538434  1
  Si  Si4  1  0.68979878  0.83188581  0.48650147  1
  Si  Si5  1  0.34538434  0.51349853  0.70329731  1
  Si  Si6  1  0.84538434  0.20329731  0.01349853  1
  Si  Si7  1  0.20329731  0.01349853  0.84538434  1
  Si  Si8  1  0.98650147  0.33188581  0.18979878  1
  Si  Si9  1  0.83188581  0.84538434  0.14208703  1
  Si  Si10  1  0.85791297  0.16811419  0.15461566  1
  Si  Si11  1  0.84538434  0.14208703  0.83188581  1
  Si  Si12  1  0.65461566  0.48650147  0.29670269  1
  Si  Si13  1  0.29670269  0.14208703  0.81020122  1
  Si  Si14  1  0.65461566  0.66811419  0.35791297  1
  Si  Si15  1  0.98650147  0.15461566  0.79670269  1
  Si  Si16  1  0.64208703  0.79670269  0.31020122  1
  Si  Si17  1  0.33188581  0.64208703  0.34538434  1
  Si  Si18  1  0.81020122  0.01349853  0.66811419  1
  Si  Si19  1  0.51349853  0.31020122  0.16811419  1
  Si  Si20  1  0.31020122  0.16811419  0.51349853  1
  Si  Si21  1  0.29670269  0.65461566  0.48650147  1
  Si  Si22  1  0.01349853  0.84538434  0.20329731  1
  Si  Si23  1  0.33188581  0.18979878  0.98650147  1
  Si  Si24  1  0.35791297  0.20329731  0.68979878  1
  Si  Si25  1  0.15461566  0.79670269  0.98650147  1
  Si  Si26  1  0.20329731  0.68979878  0.35791297  1
  Si  Si27  1  0.68979878  0.35791297  0.20329731  1
  Si  Si28  1  0.70329731  0.34538434  0.51349853  1
  Si  Si29  1  0.34538434  0.33188581  0.64208703  1
  Si  Si30  1  0.48650147  0.68979878  0.83188581  1
  Si  Si31  1  0.18979878  0.98650147  0.33188581  1
  Si  Si32  1  0.16811419  0.51349853  0.31020122  1
  Si  Si33  1  0.81020122  0.29670269  0.14208703  1
  Si  Si34  1  0.83188581  0.48650147  0.68979878  1
  Si  Si35  1  0.85791297  0.18979878  0.70329731  1
  Si  Si36  1  0.14208703  0.83188581  0.84538434  1
  Si  Si37  1  0.66811419  0.35791297  0.65461566  1
  Si  Si38  1  0.79670269  0.31020122  0.64208703  1
  Si  Si39  1  0.35791297  0.65461566  0.66811419  1
  Si  Si40  1  0.64208703  0.34538434  0.33188581  1
  Si  Si41  1  0.31020122  0.64208703  0.79670269  1
  Si  Si42  1  0.48650147  0.29670269  0.65461566  1
  Si  Si43  1  0.79670269  0.98650147  0.15461566  1
  Si  Si44  1  0.01349853  0.66811419  0.81020122  1
  Si  Si45  1  0.66811419  0.81020122  0.01349853  1
  Si  Si46  1  0.14208703  0.81020122  0.29670269  1
  Si  Si47  1  0.18979878  0.70329731  0.85791297  1
  O  O48  1  0.78370616  0.45292098  0.58060376  1
  O  O49  1  0.83078518  0.12768278  0.04707902  1
  O  O50  1  0.75000000  0.96488606  0.21488606  1
  O  O51  1  0.21488606  0.96488606  0.25000000  1
  O  O52  1  0.37231722  0.66921482  0.45292098  1
  O  O53  1  0.03511394  0.78511394  0.25000000  1
  O  O54  1  0.25000000  0.03511394  0.78511394  1
  O  O55  1  0.16921482  0.79689760  0.21629384  1
  O  O56  1  0.59160513  0.75000000  0.90839487  1
  O  O57  1  0.08060376  0.95292098  0.28370616  1
  O  O58  1  0.33078518  0.54707902  0.62768278  1
  O  O59  1  0.53511394  0.75000000  0.28511394  1
  O  O60  1  0.18321025  0.84160513  0.09160513  1
  O  O61  1  0.20310240  0.78370616  0.83078518  1
  O  O62  1  0.96488606  0.25000000  0.21488606  1
  O  O63  1  0.58060376  0.29689760  0.12768278  1
  O  O64  1  0.95292098  0.28370616  0.08060376  1
  O  O65  1  0.66921482  0.71629384  0.29689760  1
  O  O66  1  0.78511394  0.25000000  0.03511394  1
  O  O67  1  0.04707902  0.71629384  0.91939624  1
  O  O68  1  0.25000000  0.09160513  0.40839487  1
  O  O69  1  0.28370616  0.08060376  0.95292098  1
  O  O70  1  0.87231722  0.41939624  0.70310240  1
  O  O71  1  0.54707902  0.41939624  0.21629384  1
  O  O72  1  0.15839487  0.75000000  0.34160513  1
  O  O73  1  0.21629384  0.16921482  0.79689760  1
  O  O74  1  0.65839487  0.31678975  0.40839487  1
  O  O75  1  0.96488606  0.21488606  0.75000000  1
  O  O76  1  0.71629384  0.91939624  0.04707902  1
  O  O77  1  0.84160513  0.25000000  0.65839487  1
  O  O78  1  0.04707902  0.83078518  0.12768278  1
  O  O79  1  0.41939624  0.21629384  0.54707902  1
  O  O80  1  0.28511394  0.53511394  0.75000000  1
  O  O81  1  0.91939624  0.37231722  0.20310240  1
  O  O82  1  0.46488606  0.71488606  0.75000000  1
  O  O83  1  0.33078518  0.28370616  0.70310240  1
  O  O84  1  0.78511394  0.03511394  0.75000000  1
  O  O85  1  0.21488606  0.75000000  0.96488606  1
  O  O86  1  0.34160513  0.68321025  0.59160513  1
  O  O87  1  0.75000000  0.78511394  0.03511394  1
  O  O88  1  0.59160513  0.34160513  0.68321025  1
  O  O89  1  0.25000000  0.53511394  0.28511394  1
  O  O90  1  0.40839487  0.65839487  0.31678975  1
  O  O91  1  0.45292098  0.37231722  0.66921482  1
  O  O92  1  0.54707902  0.62768278  0.33078518  1
  O  O93  1  0.25000000  0.21488606  0.96488606  1
  O  O94  1  0.46488606  0.25000000  0.71488606  1
  O  O95  1  0.83078518  0.20310240  0.78370616  1
  O  O96  1  0.81678975  0.15839487  0.90839487  1
  O  O97  1  0.21629384  0.54707902  0.41939624  1
  O  O98  1  0.90839487  0.81678975  0.15839487  1
  O  O99  1  0.45292098  0.58060376  0.78370616  1
  O  O100  1  0.15839487  0.90839487  0.81678975  1
  O  O101  1  0.25000000  0.65839487  0.84160513  1
  O  O102  1  0.71488606  0.75000000  0.46488606  1
  O  O103  1  0.78370616  0.83078518  0.20310240  1
  O  O104  1  0.28370616  0.70310240  0.33078518  1
  O  O105  1  0.58060376  0.78370616  0.45292098  1
  O  O106  1  0.41939624  0.70310240  0.87231722  1
  O  O107  1  0.20310240  0.91939624  0.37231722  1
  O  O108  1  0.25000000  0.71488606  0.46488606  1
  O  O109  1  0.12768278  0.04707902  0.83078518  1
  O  O110  1  0.29689760  0.66921482  0.71629384  1
  O  O111  1  0.12768278  0.58060376  0.29689760  1
  O  O112  1  0.37231722  0.20310240  0.91939624  1
  O  O113  1  0.75000000  0.90839487  0.59160513  1
  O  O114  1  0.91939624  0.04707902  0.71629384  1
  O  O115  1  0.79689760  0.21629384  0.16921482  1
  O  O116  1  0.66921482  0.45292098  0.37231722  1
  O  O117  1  0.79689760  0.08060376  0.62768278  1
  O  O118  1  0.75000000  0.34160513  0.15839487  1
  O  O119  1  0.75000000  0.28511394  0.53511394  1
  O  O120  1  0.90839487  0.59160513  0.75000000  1
  O  O121  1  0.09160513  0.18321025  0.84160513  1
  O  O122  1  0.95292098  0.16921482  0.87231722  1
  O  O123  1  0.87231722  0.95292098  0.16921482  1
  O  O124  1  0.62768278  0.33078518  0.54707902  1
  O  O125  1  0.03511394  0.75000000  0.78511394  1
  O  O126  1  0.16921482  0.87231722  0.95292098  1
  O  O127  1  0.28511394  0.25000000  0.53511394  1
  O  O128  1  0.29689760  0.12768278  0.58060376  1
  O  O129  1  0.62768278  0.79689760  0.08060376  1
  O  O130  1  0.34160513  0.15839487  0.75000000  1
  O  O131  1  0.31678975  0.40839487  0.65839487  1
  O  O132  1  0.70310240  0.87231722  0.41939624  1
  O  O133  1  0.84160513  0.09160513  0.18321025  1
  O  O134  1  0.68321025  0.59160513  0.34160513  1
  O  O135  1  0.70310240  0.33078518  0.28370616  1
  O  O136  1  0.08060376  0.62768278  0.79689760  1
  O  O137  1  0.40839487  0.25000000  0.09160513  1
  O  O138  1  0.75000000  0.46488606  0.71488606  1
  O  O139  1  0.65839487  0.84160513  0.25000000  1
  O  O140  1  0.71629384  0.29689760  0.66921482  1
  O  O141  1  0.53511394  0.28511394  0.25000000  1
  O  O142  1  0.09160513  0.40839487  0.25000000  1
  O  O143  1  0.71488606  0.46488606  0.25000000  1
