# generated using pymatgen
data_Li2MnCoO4
_symmetry_space_group_name_H-M   'P 1'
_cell_length_a   2.87737977
_cell_length_b   5.14186568
_cell_length_c   10.58721222
_cell_angle_alpha   97.15788163
_cell_angle_beta   89.99999957
_cell_angle_gamma   73.75178649
_symmetry_Int_Tables_number   1
_chemical_formula_structural   Li2MnCoO4
_chemical_formula_sum   'Li4 Mn2 Co2 O8'
_cell_volume   149.11052130
_cell_formula_units_Z   2
loop_
 _symmetry_equiv_pos_site_id
 _symmetry_equiv_pos_as_xyz
  1  'x, y, z'
loop_
 _atom_site_type_symbol
 _atom_site_label
 _atom_site_symmetry_multiplicity
 _atom_site_fract_x
 _atom_site_fract_y
 _atom_site_fract_z
 _atom_site_occupancy
  Li  Li0  1  0.25000000  0.50000000  0.12500000  1
  Li  Li1  1  0.75159371  0.49681258  0.36982490  1
  Li  Li2  1  0.25000000  0.50000000  0.62500000  1
  Li  Li3  1  0.74840629  0.50318742  0.88017510  1
  Mn  Mn4  1  0.00376094  0.99247811  0.49436570  1
  Mn  Mn5  1  0.49623906  0.00752189  0.75563430  1
  Co  Co6  1  0.99416081  0.01167838  0.00566434  1
  Co  Co7  1  0.50583919  0.98832162  0.24433566  1
  O  O8  1  0.37749539  0.24500923  0.94452570  1
  O  O9  1  0.88577163  0.22845673  0.18578271  1
  O  O10  1  0.39050617  0.21898765  0.43640590  1
  O  O11  1  0.88436182  0.23127636  0.69491481  1
  O  O12  1  0.12250461  0.75499077  0.30547430  1
  O  O13  1  0.61563818  0.76872364  0.55508519  1
  O  O14  1  0.10949383  0.78101235  0.81359410  1
  O  O15  1  0.61422837  0.77154327  0.06421729  1
