# generated using pymatgen
data_Nd2Th3O9
_symmetry_space_group_name_H-M   'P 1'
_cell_length_a   3.97992323
_cell_length_b   19.95469558
_cell_length_c   18.29838016
_cell_angle_alpha   10.86728536
_cell_angle_beta   57.06047603
_cell_angle_gamma   60.09126474
_symmetry_Int_Tables_number   1
_chemical_formula_structural   Nd2Th3O9
_chemical_formula_sum   'Nd2 Th3 O9'
_cell_volume   224.11623806
_cell_formula_units_Z   1
loop_
 _symmetry_equiv_pos_site_id
 _symmetry_equiv_pos_as_xyz
  1  'x, y, z'
loop_
 _atom_site_type_symbol
 _atom_site_label
 _atom_site_symmetry_multiplicity
 _atom_site_fract_x
 _atom_site_fract_y
 _atom_site_fract_z
 _atom_site_occupancy
  Nd  Nd0  1  0.03084706  0.01850823  0.96915294  1
  Nd  Nd1  1  0.96915294  0.18149177  0.03084706  1
  Th  Th2  1  0.99816377  0.39889826  0.00183623  1
  Th  Th3  1  -0.00000000  0.60000000  0.00000000  1
  Th  Th4  1  0.00183623  0.80110174  0.99816377  1
  O  O5  1  0.22007979  0.03204788  0.27992021  1
  O  O6  1  0.26394236  0.25836541  0.23605764  1
  O  O7  1  0.23605764  0.44163459  0.26394236  1
  O  O8  1  0.27992021  0.66795212  0.22007979  1
  O  O9  1  0.72475479  0.13485288  0.77524521  1
  O  O10  1  0.75000000  0.35000000  0.75000000  1
  O  O11  1  0.77524521  0.56514712  0.72475479  1
  O  O12  1  0.73285674  0.73971405  0.76714326  1
  O  O13  1  0.76714326  0.96028595  0.73285674  1
