# generated using pymatgen
data_Nb2NiO6
_symmetry_space_group_name_H-M   'P 1'
_cell_length_a   9.36724785
_cell_length_b   5.67816594
_cell_length_c   5.67816574
_cell_angle_alpha   71.99396464
_cell_angle_beta   56.85633873
_cell_angle_gamma   56.85633303
_symmetry_Int_Tables_number   1
_chemical_formula_structural   Nb2NiO6
_chemical_formula_sum   'Nb4 Ni2 O12'
_cell_volume   211.71265718
_cell_formula_units_Z   2
loop_
 _symmetry_equiv_pos_site_id
 _symmetry_equiv_pos_as_xyz
  1  'x, y, z'
loop_
 _atom_site_type_symbol
 _atom_site_label
 _atom_site_symmetry_multiplicity
 _atom_site_fract_x
 _atom_site_fract_y
 _atom_site_fract_z
 _atom_site_occupancy
  Nb  Nb0  1  0.16666700  0.50000000  0.50000000  1
  Nb  Nb1  1  0.66666700  0.00000000  0.00000000  1
  Nb  Nb2  1  0.48109805  0.53056217  0.53056217  1
  Nb  Nb3  1  0.85223495  0.46943783  0.46943783  1
  Ni  Ni4  1  0.00459676  0.00294016  0.00294016  1
  Ni  Ni5  1  0.32873624  0.99705984  0.99705984  1
  O  O6  1  0.12845329  0.30467955  0.30467955  1
  O  O7  1  0.16666700  0.20801964  0.79198036  1
  O  O8  1  0.16666700  0.79198036  0.20801964  1
  O  O9  1  0.20487971  0.69532045  0.69532045  1
  O  O10  1  0.46622362  0.30450030  0.30450030  1
  O  O11  1  0.50901316  0.79878965  0.19993187  1
  O  O12  1  0.50901316  0.19993187  0.79878965  1
  O  O13  1  0.79192987  0.30774126  0.30774126  1
  O  O14  1  0.54140313  0.69225874  0.69225874  1
  O  O15  1  0.82431984  0.20121035  0.80006813  1
  O  O16  1  0.82431984  0.80006813  0.20121035  1
  O  O17  1  0.86711038  0.69549970  0.69549970  1
