# generated using pymatgen
data_Sr4La4Cr(NiO5)3
_symmetry_space_group_name_H-M   'P 1'
_cell_length_a   7.70437801
_cell_length_b   3.84458837
_cell_length_c   13.30731769
_cell_angle_alpha   106.76428461
_cell_angle_beta   89.55582358
_cell_angle_gamma   89.84004186
_symmetry_Int_Tables_number   1
_chemical_formula_structural   Sr4La4Cr(NiO5)3
_chemical_formula_sum   'Sr4 La4 Cr1 Ni3 O15'
_cell_volume   377.39614915
_cell_formula_units_Z   1
loop_
 _symmetry_equiv_pos_site_id
 _symmetry_equiv_pos_as_xyz
  1  'x, y, z'
loop_
 _atom_site_type_symbol
 _atom_site_label
 _atom_site_symmetry_multiplicity
 _atom_site_fract_x
 _atom_site_fract_y
 _atom_site_fract_z
 _atom_site_occupancy
  Sr  Sr0  1  0.24624042  0.65206911  0.15079014  1
  Sr  Sr1  1  0.25375958  0.34793089  0.84920986  1
  Sr  Sr2  1  0.49564449  0.63960714  0.63985522  1
  Sr  Sr3  1  0.00435551  0.36039286  0.36014478  1
  La  La4  1  0.00470368  0.63757151  0.63738699  1
  La  La5  1  0.49529632  0.36242849  0.36261301  1
  La  La6  1  0.75413188  0.64810054  0.14242818  1
  La  La7  1  0.74586812  0.35189946  0.85757182  1
  Cr  Cr8  1  0.75000000  0.00000000  0.50000000  1
  Ni  Ni9  1  0.00120754  0.99694299  0.99797722  1
  Ni  Ni10  1  0.25000000  0.00000000  0.50000000  1
  Ni  Ni11  1  0.49879246  0.00305701  0.00202278  1
  O  O12  1  0.03777657  0.49471240  0.99619458  1
  O  O13  1  0.99042146  0.82742090  0.82332430  1
  O  O14  1  0.26520001  0.83929854  0.33931492  1
  O  O15  1  0.25000000  0.50000000  0.50000000  1
  O  O16  1  0.23479999  0.16070146  0.66068508  1
  O  O17  1  0.46222343  0.50528760  0.00380542  1
  O  O18  1  0.50957854  0.17257910  0.17667570  1
  O  O19  1  0.50403309  0.99654287  0.49626371  1
  O  O20  1  0.50579503  0.83772644  0.83318895  1
  O  O21  1  0.75000000  0.00000000  -0.00000000  1
  O  O22  1  0.74357441  0.83235835  0.33063755  1
  O  O23  1  0.75000000  0.50000000  0.50000000  1
  O  O24  1  0.75642559  0.16764165  0.66936245  1
  O  O25  1  0.99420497  0.16227356  0.16681105  1
  O  O26  1  0.99596691  0.00345713  0.50373629  1
