# generated using pymatgen
data_CaH2(CO2)2
_symmetry_space_group_name_H-M   'P 1'
_cell_length_a   6.87167723
_cell_length_b   6.87167723
_cell_length_c   9.69846347
_cell_angle_alpha   90.00000000
_cell_angle_beta   90.00000000
_cell_angle_gamma   90.00000000
_symmetry_Int_Tables_number   1
_chemical_formula_structural   CaH2(CO2)2
_chemical_formula_sum   'Ca4 H8 C8 O16'
_cell_volume   457.96094028
_cell_formula_units_Z   4
loop_
 _symmetry_equiv_pos_site_id
 _symmetry_equiv_pos_as_xyz
  1  'x, y, z'
loop_
 _atom_site_type_symbol
 _atom_site_label
 _atom_site_symmetry_multiplicity
 _atom_site_fract_x
 _atom_site_fract_y
 _atom_site_fract_z
 _atom_site_occupancy
  Ca  Ca0  1  0.78318201  0.78318201  0.50000000  1
  Ca  Ca1  1  0.21681799  0.21681799  0.00000000  1
  Ca  Ca2  1  0.28318201  0.71681799  0.25000000  1
  Ca  Ca3  1  0.71681799  0.28318201  0.75000000  1
  H  H4  1  0.85707912  0.32969412  0.32948612  1
  H  H5  1  0.14292088  0.67030588  0.82948612  1
  H  H6  1  0.35707912  0.17030588  0.42051388  1
  H  H7  1  0.17030588  0.35707912  0.57948612  1
  H  H8  1  0.64292088  0.82969412  0.92051388  1
  H  H9  1  0.67030588  0.14292088  0.17051388  1
  H  H10  1  0.82969412  0.64292088  0.07948612  1
  H  H11  1  0.32969412  0.85707912  0.67051388  1
  C  C12  1  0.30465515  0.20578159  0.31538501  1
  C  C13  1  0.69534485  0.79421841  0.81538501  1
  C  C14  1  0.80465515  0.29421841  0.43461499  1
  C  C15  1  0.19534485  0.70578159  0.93461499  1
  C  C16  1  0.79421841  0.69534485  0.18461499  1
  C  C17  1  0.20578159  0.30465515  0.68461499  1
  C  C18  1  0.70578159  0.19534485  0.06538501  1
  C  C19  1  0.29421841  0.80465515  0.56538501  1
  O  O20  1  0.61816620  0.72033628  0.21624001  1
  O  O21  1  0.22476143  0.56485989  0.01750075  1
  O  O22  1  0.72033628  0.61816620  0.78375999  1
  O  O23  1  0.72476143  0.93514011  0.73249925  1
  O  O24  1  0.06485989  0.27523857  0.76750075  1
  O  O25  1  0.77966372  0.11816620  0.46624001  1
  O  O26  1  0.11816620  0.77966372  0.53375999  1
  O  O27  1  0.88183380  0.22033628  0.03375999  1
  O  O28  1  0.27523857  0.06485989  0.23249925  1
  O  O29  1  0.38183380  0.27966372  0.71624001  1
  O  O30  1  0.22033628  0.88183380  0.96624001  1
  O  O31  1  0.27966372  0.38183380  0.28375999  1
  O  O32  1  0.56485989  0.22476143  0.98249925  1
  O  O33  1  0.93514011  0.72476143  0.26750075  1
  O  O34  1  0.77523857  0.43514011  0.51750075  1
  O  O35  1  0.43514011  0.77523857  0.48249925  1
