# generated using pymatgen
data_Li2MnCoO4
_symmetry_space_group_name_H-M   'P 1'
_cell_length_a   2.90645860
_cell_length_b   9.82026622
_cell_length_c   3.03508889
_cell_angle_alpha   83.98181270
_cell_angle_beta   118.60769042
_cell_angle_gamma   90.00000035
_symmetry_Int_Tables_number   1
_chemical_formula_structural   Li2MnCoO4
_chemical_formula_sum   'Li2 Mn1 Co1 O4'
_cell_volume   75.50815841
_cell_formula_units_Z   1
loop_
 _symmetry_equiv_pos_site_id
 _symmetry_equiv_pos_as_xyz
  1  'x, y, z'
loop_
 _atom_site_type_symbol
 _atom_site_label
 _atom_site_symmetry_multiplicity
 _atom_site_fract_x
 _atom_site_fract_y
 _atom_site_fract_z
 _atom_site_occupancy
  Li  Li0  1  0.25091879  0.24711934  0.50183757  1
  Li  Li1  1  0.74908121  0.75288066  0.49816243  1
  Mn  Mn2  1  0.50000000  0.50000000  -0.00000000  1
  Co  Co3  1  -0.00000000  -0.00000000  -0.00000000  1
  O  O4  1  0.62838723  0.11312747  0.25677446  1
  O  O5  1  0.10435665  0.61624430  0.20871330  1
  O  O6  1  0.89564335  0.38375570  0.79128670  1
  O  O7  1  0.37161277  0.88687253  0.74322554  1
