# generated using pymatgen
data_Li5Co3O8
_symmetry_space_group_name_H-M   'P 1'
_cell_length_a   2.98978121
_cell_length_b   5.94897448
_cell_length_c   7.99553592
_cell_angle_alpha   89.08001149
_cell_angle_beta   89.78674380
_cell_angle_gamma   92.01005905
_symmetry_Int_Tables_number   1
_chemical_formula_structural   Li5Co3O8
_chemical_formula_sum   'Li5 Co3 O8'
_cell_volume   142.10252722
_cell_formula_units_Z   1
loop_
 _symmetry_equiv_pos_site_id
 _symmetry_equiv_pos_as_xyz
  1  'x, y, z'
loop_
 _atom_site_type_symbol
 _atom_site_label
 _atom_site_symmetry_multiplicity
 _atom_site_fract_x
 _atom_site_fract_y
 _atom_site_fract_z
 _atom_site_occupancy
  Li  Li0  1  0.00282404  0.50830330  0.00751897  1
  Li  Li1  1  0.50000000  0.25000000  0.25000000  1
  Li  Li2  1  0.50000000  0.75000000  0.75000000  1
  Li  Li3  1  0.99717596  0.99169670  0.49248103  1
  Li  Li4  1  0.50000000  0.75000000  0.25000000  1
  Co  Co5  1  0.00074576  0.98988576  0.00945794  1
  Co  Co6  1  -0.00074576  0.51011424  0.49054206  1
  Co  Co7  1  0.50000000  0.25000000  0.75000000  1
  O  O8  1  0.46116979  0.24261239  0.98896357  1
  O  O9  1  0.00092714  0.00222146  0.22589262  1
  O  O10  1  0.00695009  0.48775295  0.73009449  1
  O  O11  1  0.47060895  0.73381939  0.50010904  1
  O  O12  1  0.52939105  0.76618061  0.99989096  1
  O  O13  1  -0.00092714  0.49777854  0.27410738  1
  O  O14  1  0.99304991  0.01224705  0.76990551  1
  O  O15  1  0.53883021  0.25738761  0.51103643  1
