# generated using pymatgen
data_NdNb3O9
_symmetry_space_group_name_H-M   'P 1'
_cell_length_a   11.80873155
_cell_length_b   5.66509049
_cell_length_c   8.90539376
_cell_angle_alpha   72.01424569
_cell_angle_beta   63.95602843
_cell_angle_gamma   45.64086765
_symmetry_Int_Tables_number   1
_chemical_formula_structural   NdNb3O9
_chemical_formula_sum   'Nd2 Nb6 O18'
_cell_volume   382.69054636
_cell_formula_units_Z   2
loop_
 _symmetry_equiv_pos_site_id
 _symmetry_equiv_pos_as_xyz
  1  'x, y, z'
loop_
 _atom_site_type_symbol
 _atom_site_label
 _atom_site_symmetry_multiplicity
 _atom_site_fract_x
 _atom_site_fract_y
 _atom_site_fract_z
 _atom_site_occupancy
  Nd  Nd0  1  0.34484166  0.95731335  0.00186663  1
  Nd  Nd1  1  0.65515834  0.04268665  0.99813337  1
  Nb  Nb2  1  0.24599414  0.47666702  0.26699019  1
  Nb  Nb3  1  0.07536584  0.53913971  0.75180593  1
  Nb  Nb4  1  0.59714598  0.45363906  0.25987454  1
  Nb  Nb5  1  0.40285402  0.54636094  0.74012546  1
  Nb  Nb6  1  0.92463416  0.46086029  0.24819407  1
  Nb  Nb7  1  0.75400586  0.52333298  0.73300981  1
  O  O8  1  0.09920735  0.99767870  0.23342046  1
  O  O9  1  0.09236747  0.49748659  0.22933777  1
  O  O10  1  0.42945914  0.01356474  0.21091269  1
  O  O11  1  0.35918327  0.50298455  0.00059958  1
  O  O12  1  0.17043967  0.48753278  0.50472934  1
  O  O13  1  0.24684481  0.99868983  0.76987124  1
  O  O14  1  0.41203924  0.53021645  0.24218485  1
  O  O15  1  0.25895037  0.45086107  0.77789330  1
  O  O16  1  0.50000000  0.50000000  0.50000000  1
  O  O17  1  0.75315519  0.00131017  0.23012876  1
  O  O18  1  0.64081673  0.49701545  0.99940042  1
  O  O19  1  0.57054086  0.98643526  0.78908731  1
  O  O20  1  0.74104963  0.54913893  0.22210670  1
  O  O21  1  0.58796076  0.46978355  0.75781515  1
  O  O22  1  0.00000000  0.50000000  -0.00000000  1
  O  O23  1  0.82956033  0.51246722  0.49527066  1
  O  O24  1  0.90079265  0.00232130  0.76657954  1
  O  O25  1  0.90763253  0.50251341  0.77066223  1
