# generated using pymatgen
data_Li7Mn2(CoO4)3
_symmetry_space_group_name_H-M   'P 1'
_cell_length_a   5.08513772
_cell_length_b   6.55998483
_cell_length_c   6.55998512
_cell_angle_alpha   83.68223826
_cell_angle_beta   97.26355727
_cell_angle_gamma   97.26355467
_symmetry_Int_Tables_number   1
_chemical_formula_structural   Li7Mn2(CoO4)3
_chemical_formula_sum   'Li7 Mn2 Co3 O12'
_cell_volume   214.34671809
_cell_formula_units_Z   1
loop_
 _symmetry_equiv_pos_site_id
 _symmetry_equiv_pos_as_xyz
  1  'x, y, z'
loop_
 _atom_site_type_symbol
 _atom_site_label
 _atom_site_symmetry_multiplicity
 _atom_site_fract_x
 _atom_site_fract_y
 _atom_site_fract_z
 _atom_site_occupancy
  Li  Li0  1  0.25835123  0.75220011  0.74906417  1
  Li  Li1  1  0.25951560  0.41106731  0.07773331  1
  Li  Li2  1  0.25835123  0.08239717  0.41886711  1
  Li  Li3  1  0.74164877  0.25093583  0.24779989  1
  Li  Li4  1  0.74048440  0.92226669  0.58893269  1
  Li  Li5  1  0.74164877  0.58113289  0.91760283  1
  Li  Li6  1  0.50000000  0.16666700  0.83333300  1
  Mn  Mn7  1  0.00000000  0.00353016  0.99646984  1
  Mn  Mn8  1  1.00000000  0.32980284  0.67019716  1
  Co  Co9  1  0.00000000  0.66666700  0.33333300  1
  Co  Co10  1  0.50000000  0.49334974  0.50665026  1
  Co  Co11  1  0.50000000  0.83998326  0.16001674  1
  O  O12  1  0.35388422  0.10673053  0.11902643  1
  O  O13  1  0.37388783  0.77969410  0.44636010  1
  O  O14  1  0.35388422  0.45235943  0.77339753  1
  O  O15  1  0.87871775  0.60632286  0.61985168  1
  O  O16  1  0.89450042  0.27940593  0.94607193  1
  O  O17  1  0.87871775  0.95318468  0.27298986  1
  O  O18  1  0.12128225  0.38014832  0.39367714  1
  O  O19  1  0.10549958  0.05392807  0.72059407  1
  O  O20  1  0.12128225  0.72701014  0.04681532  1
  O  O21  1  0.64611578  0.88097357  0.89326947  1
  O  O22  1  0.62611217  0.55363990  0.22030590  1
  O  O23  1  0.64611578  0.22660247  0.54764057  1
