# generated using pymatgen
data_Li5Co3O8
_symmetry_space_group_name_H-M   'P 1'
_cell_length_a   2.97635809
_cell_length_b   7.77942927
_cell_length_c   6.31304058
_cell_angle_alpha   88.22191139
_cell_angle_beta   76.85901444
_cell_angle_gamma   80.83574933
_symmetry_Int_Tables_number   1
_chemical_formula_structural   Li5Co3O8
_chemical_formula_sum   'Li5 Co3 O8'
_cell_volume   140.52769830
_cell_formula_units_Z   1
loop_
 _symmetry_equiv_pos_site_id
 _symmetry_equiv_pos_as_xyz
  1  'x, y, z'
loop_
 _atom_site_type_symbol
 _atom_site_label
 _atom_site_symmetry_multiplicity
 _atom_site_fract_x
 _atom_site_fract_y
 _atom_site_fract_z
 _atom_site_occupancy
  Li  Li0  1  0.75999113  0.37085842  0.11960164  1
  Li  Li1  1  0.74344712  0.87426151  0.63063941  1
  Li  Li2  1  0.25655288  0.62573849  0.86936059  1
  Li  Li3  1  0.24000887  0.12914158  0.38039836  1
  Li  Li4  1  0.50000000  0.25000000  0.75000000  1
  Co  Co5  1  0.99699040  0.01080214  0.99323923  1
  Co  Co6  1  0.00300960  0.48919786  0.50676077  1
  Co  Co7  1  0.50000000  0.75000000  0.25000000  1
  O  O8  1  0.35777965  0.17147690  0.05703726  1
  O  O9  1  0.35736372  0.67999627  0.54550824  1
  O  O10  1  0.88264093  0.44819533  0.78476279  1
  O  O11  1  0.89630280  0.93602889  0.28929388  1
  O  O12  1  0.10369720  0.56397111  0.21070612  1
  O  O13  1  0.11735907  0.05180467  0.71523721  1
  O  O14  1  0.64263628  0.82000373  0.95449176  1
  O  O15  1  0.64222035  0.32852310  0.44296274  1
