# generated using pymatgen
data_Li4MnCo2O7
_symmetry_space_group_name_H-M   'P 1'
_cell_length_a   4.99433896
_cell_length_b   5.89822967
_cell_length_c   8.84226632
_cell_angle_alpha   89.37420819
_cell_angle_beta   95.23823680
_cell_angle_gamma   74.01910501
_symmetry_Int_Tables_number   1
_chemical_formula_structural   Li4MnCo2O7
_chemical_formula_sum   'Li8 Mn2 Co4 O14'
_cell_volume   249.18426250
_cell_formula_units_Z   2
loop_
 _symmetry_equiv_pos_site_id
 _symmetry_equiv_pos_as_xyz
  1  'x, y, z'
loop_
 _atom_site_type_symbol
 _atom_site_label
 _atom_site_symmetry_multiplicity
 _atom_site_fract_x
 _atom_site_fract_y
 _atom_site_fract_z
 _atom_site_occupancy
  Li  Li0  1  0.57811475  0.36213797  0.15243336  1
  Li  Li1  1  0.30153148  0.92294324  0.56347000  1
  Li  Li2  1  0.14337130  0.21648078  0.29194750  1
  Li  Li3  1  0.85228797  0.78137685  0.70384547  1
  Li  Li4  1  0.71196305  0.06824870  0.43013315  1
  Li  Li5  1  0.42635579  0.64168983  0.85357707  1
  Li  Li6  1  0.99377052  0.50000557  0.00156757  1
  Li  Li7  1  0.71588388  0.57574473  0.42376740  1
  Mn  Mn8  1  0.99914177  -0.00260737  0.00382873  1
  Mn  Mn9  1  0.14397000  0.71155859  0.28855276  1
  Co  Co10  1  0.42538062  0.14633115  0.85381639  1
  Co  Co11  1  0.86196711  0.29061236  0.70110721  1
  Co  Co12  1  0.57086085  0.85630029  0.14488426  1
  Co  Co13  1  0.29197097  0.43884015  0.56729991  1
  O  O14  1  0.72511753  0.28905694  0.93210673  1
  O  O15  1  0.41772360  0.88199360  0.33790645  1
  O  O16  1  0.28347313  0.15034801  0.06917127  1
  O  O17  1  0.01791958  0.74737996  0.48400891  1
  O  O18  1  0.85966069  0.01221094  0.20559244  1
  O  O19  1  0.56512521  0.59004599  0.64542538  1
  O  O20  1  0.14432105  0.45387141  0.78580840  1
  O  O21  1  0.40059878  0.41549450  0.35288549  1
  O  O22  1  0.14147137  0.97418282  0.80705660  1
  O  O23  1  0.00532588  0.25415849  0.51335435  1
  O  O24  1  0.71789400  0.83733997  0.94537448  1
  O  O25  1  0.56810054  0.11330518  0.64913294  1
  O  O26  1  0.28036654  0.70376121  0.08050677  1
  O  O27  1  0.85633203  0.56718814  0.21143902  1
