# generated using pymatgen
data_Li4Co3O7
_symmetry_space_group_name_H-M   'P 1'
_cell_length_a   5.05633390
_cell_length_b   5.88074088
_cell_length_c   8.70626863
_cell_angle_alpha   88.95243498
_cell_angle_beta   95.08614999
_cell_angle_gamma   72.75353745
_symmetry_Int_Tables_number   1
_chemical_formula_structural   Li4Co3O7
_chemical_formula_sum   'Li8 Co6 O14'
_cell_volume   245.99715749
_cell_formula_units_Z   2
loop_
 _symmetry_equiv_pos_site_id
 _symmetry_equiv_pos_as_xyz
  1  'x, y, z'
loop_
 _atom_site_type_symbol
 _atom_site_label
 _atom_site_symmetry_multiplicity
 _atom_site_fract_x
 _atom_site_fract_y
 _atom_site_fract_z
 _atom_site_occupancy
  Li  Li0  1  0.14504606  0.20864960  0.28045911  1
  Li  Li1  1  0.29028409  0.92694258  0.57117108  1
  Li  Li2  1  0.71161316  0.06829751  0.42081741  1
  Li  Li3  1  0.85691967  0.78673706  0.71462270  1
  Li  Li4  1  0.42521349  0.64634801  0.86624143  1
  Li  Li5  1  0.99569983  0.50732920  0.00234164  1
  Li  Li6  1  0.57489148  0.35574405  0.14465524  1
  Li  Li7  1  0.57166922  0.85767380  0.14257991  1
  Co  Co8  1  0.00173432  0.99707625  0.00454808  1
  Co  Co9  1  0.13368950  0.71926207  0.28314375  1
  Co  Co10  1  0.28814659  0.42437442  0.57142075  1
  Co  Co11  1  0.43207890  0.13675520  0.86329596  1
  Co  Co12  1  0.71230128  0.57589342  0.42289274  1
  Co  Co13  1  0.85748528  0.28524143  0.71487718  1
  O  O14  1  0.88038651  0.02446020  0.20240546  1
  O  O15  1  -0.00633568  0.73284767  0.48441981  1
  O  O16  1  0.44377465  0.85757326  0.36300603  1
  O  O17  1  0.58578796  0.58975750  0.62959304  1
  O  O18  1  0.15267291  0.45548439  0.77880660  1
  O  O19  1  0.72716342  0.30054328  0.92875431  1
  O  O20  1  0.25913630  0.16811946  0.05769453  1
  O  O21  1  0.44111255  0.41077480  0.36419484  1
  O  O22  1  0.56337492  0.11785278  0.64711730  1
  O  O23  1  0.98506001  0.27586671  0.50119722  1
  O  O24  1  0.13211102  0.97831855  0.79594469  1
  O  O25  1  0.72885712  0.84561363  0.92909442  1
  O  O26  1  0.25084126  0.70494484  0.07881504  1
  O  O27  1  0.85928418  0.54151836  0.23588975  1
