# generated using pymatgen
data_Li7Mn2(CoO4)3
_symmetry_space_group_name_H-M   'P 1'
_cell_length_a   5.07274246
_cell_length_b   5.11857618
_cell_length_c   8.73194808
_cell_angle_alpha   89.64058582
_cell_angle_beta   89.24765589
_cell_angle_gamma   109.28042857
_symmetry_Int_Tables_number   1
_chemical_formula_structural   Li7Mn2(CoO4)3
_chemical_formula_sum   'Li7 Mn2 Co3 O12'
_cell_volume   213.97872098
_cell_formula_units_Z   1
loop_
 _symmetry_equiv_pos_site_id
 _symmetry_equiv_pos_as_xyz
  1  'x, y, z'
loop_
 _atom_site_type_symbol
 _atom_site_label
 _atom_site_symmetry_multiplicity
 _atom_site_fract_x
 _atom_site_fract_y
 _atom_site_fract_z
 _atom_site_occupancy
  Li  Li0  1  0.00000000  0.50000000  0.16666700  1
  Li  Li1  1  0.49493978  0.50057096  0.32907312  1
  Li  Li2  1  0.99411259  0.49518361  0.49706987  1
  Li  Li3  1  0.50000000  0.50000000  0.66666700  1
  Li  Li4  1  0.00588741  0.50481639  0.83626313  1
  Li  Li5  1  0.50506022  0.49942904  0.00425988  1
  Li  Li6  1  0.50000000  -0.00000000  0.16666700  1
  Mn  Mn7  1  0.00210311  0.00634093  0.00366018  1
  Mn  Mn8  1  0.99789689  0.99365907  0.32967282  1
  Co  Co9  1  0.49513621  0.99601348  0.49075245  1
  Co  Co10  1  0.00000000  -0.00000000  0.66666700  1
  Co  Co11  1  0.50486379  0.00398652  0.84258055  1
  O  O12  1  0.76608570  0.23006322  -0.00318807  1
  O  O13  1  0.21929840  0.22607309  0.16690867  1
  O  O14  1  0.74993032  0.21700224  0.34263911  1
  O  O15  1  0.23140098  0.22816204  0.48663538  1
  O  O16  1  0.74463565  0.22093609  0.67088717  1
  O  O17  1  0.23833470  0.23486507  0.83969106  1
  O  O18  1  0.23391430  0.76993678  0.33652207  1
  O  O19  1  0.76166530  0.76513493  0.49364194  1
  O  O20  1  0.25536435  0.77906391  0.66244583  1
  O  O21  1  0.76859902  0.77183796  0.84669862  1
  O  O22  1  0.25006968  0.78299776  0.99069389  1
  O  O23  1  0.78070160  0.77392691  0.16642433  1
