# generated using pymatgen
data_Li7Mn2(CoO4)3
_symmetry_space_group_name_H-M   'P 1'
_cell_length_a   5.88339069
_cell_length_b   6.52245930
_cell_length_c   6.61214304
_cell_angle_alpha   108.60668158
_cell_angle_beta   116.43261057
_cell_angle_gamma   76.76409534
_symmetry_Int_Tables_number   1
_chemical_formula_structural   Li7Mn2(CoO4)3
_chemical_formula_sum   'Li7 Mn2 Co3 O12'
_cell_volume   214.20105130
_cell_formula_units_Z   1
loop_
 _symmetry_equiv_pos_site_id
 _symmetry_equiv_pos_as_xyz
  1  'x, y, z'
loop_
 _atom_site_type_symbol
 _atom_site_label
 _atom_site_symmetry_multiplicity
 _atom_site_fract_x
 _atom_site_fract_y
 _atom_site_fract_z
 _atom_site_occupancy
  Li  Li0  1  0.41208875  0.65985819  0.16973342  1
  Li  Li1  1  0.25457825  0.00680881  0.49693358  1
  Li  Li2  1  0.08473105  0.33423266  0.83821148  1
  Li  Li3  1  0.92549196  0.65774944  0.16929908  1
  Li  Li4  1  0.74117504  0.00891756  0.49736792  1
  Li  Li5  1  0.58193495  0.33243334  0.82845452  1
  Li  Li6  1  0.33333300  0.33333300  0.33333300  1
  Mn  Mn7  1  0.00236769  0.00073701  0.00439018  1
  Mn  Mn8  1  0.66429931  0.66592999  0.66227682  1
  Co  Co9  1  0.83333300  0.33333300  0.33333300  1
  Co  Co10  1  0.49441566  0.01255434  0.00988874  1
  Co  Co11  1  0.17225134  0.65411266  0.65677826  1
  O  O12  1  0.12204245  0.98755874  0.76889545  1
  O  O13  1  0.95398338  0.31169179  0.08780675  1
  O  O14  1  0.78902132  0.66396107  0.43077738  1
  O  O15  1  0.64654291  0.98520452  0.76334300  1
  O  O16  1  0.47180830  0.31590563  0.08096166  1
  O  O17  1  0.31600872  0.67368623  0.44290662  1
  O  O18  1  0.71268362  0.35497521  0.57886025  1
  O  O19  1  0.54462355  0.67910726  0.89777055  1
  O  O20  1  0.35065828  0.99298077  0.22376038  1
  O  O21  1  0.19485870  0.35076137  0.58570534  1
  O  O22  1  0.02012309  0.68146148  0.90332300  1
  O  O23  1  0.87764568  0.00270593  0.23588962  1
