# generated using pymatgen
data_Li7Mn2(CoO4)3
_symmetry_space_group_name_H-M   'P 1'
_cell_length_a   5.12417453
_cell_length_b   7.70813337
_cell_length_c   5.84551847
_cell_angle_alpha   79.25132450
_cell_angle_beta   90.23358880
_cell_angle_gamma   109.47061629
_symmetry_Int_Tables_number   1
_chemical_formula_structural   Li7Mn2(CoO4)3
_chemical_formula_sum   'Li7 Mn2 Co3 O12'
_cell_volume   213.44126511
_cell_formula_units_Z   1
loop_
 _symmetry_equiv_pos_site_id
 _symmetry_equiv_pos_as_xyz
  1  'x, y, z'
loop_
 _atom_site_type_symbol
 _atom_site_label
 _atom_site_symmetry_multiplicity
 _atom_site_fract_x
 _atom_site_fract_y
 _atom_site_fract_z
 _atom_site_occupancy
  Li  Li0  1  0.49767073  0.33422721  0.92393162  1
  Li  Li1  1  0.49211171  0.65977263  0.08389802  1
  Li  Li2  1  0.50713224  0.00787263  0.24861235  1
  Li  Li3  1  0.48993573  0.66519680  0.58570266  1
  Li  Li4  1  0.51163930  0.00120885  0.74794553  1
  Li  Li5  1  0.50104371  0.33343756  0.40641854  1
  Li  Li6  1  0.00094202  0.33252970  0.16691555  1
  Mn  Mn7  1  0.00944141  0.00522378  -0.00068683  1
  Mn  Mn8  1  0.99024445  0.66181051  0.33453381  1
  Co  Co9  1  0.00862245  0.01061582  0.49765866  1
  Co  Co10  1  0.00018614  0.33351810  0.66580479  1
  Co  Co11  1  0.99138117  0.65474599  0.83721656  1
  O  O12  1  0.21606765  0.50101463  0.85686541  1
  O  O13  1  0.21969035  0.82516291  0.05710676  1
  O  O14  1  0.24150140  0.15498136  0.19937695  1
  O  O15  1  0.21920054  0.82770578  0.53296108  1
  O  O16  1  0.24600029  0.14957020  0.72730697  1
  O  O17  1  0.21104900  0.50516020  0.38810732  1
  O  O18  1  0.78944526  0.16249191  0.94373858  1
  O  O19  1  0.75913682  0.51265340  0.13372755  1
  O  O20  1  0.78007944  0.84228084  0.27776937  1
  O  O21  1  0.75335663  0.51597873  0.60623131  1
  O  O22  1  0.77917376  0.83743079  0.80359546  1
  O  O23  1  0.78494781  0.16540965  0.47526198  1
