# generated using pymatgen
data_Li7Mn2(CoO4)3
_symmetry_space_group_name_H-M   'P 1'
_cell_length_a   5.15356562
_cell_length_b   5.04681929
_cell_length_c   8.77330049
_cell_angle_alpha   88.82887733
_cell_angle_beta   107.70333236
_cell_angle_gamma   99.19789082
_symmetry_Int_Tables_number   1
_chemical_formula_structural   Li7Mn2(CoO4)3
_chemical_formula_sum   'Li7 Mn2 Co3 O12'
_cell_volume   214.48843976
_cell_formula_units_Z   1
loop_
 _symmetry_equiv_pos_site_id
 _symmetry_equiv_pos_as_xyz
  1  'x, y, z'
loop_
 _atom_site_type_symbol
 _atom_site_label
 _atom_site_symmetry_multiplicity
 _atom_site_fract_x
 _atom_site_fract_y
 _atom_site_fract_z
 _atom_site_occupancy
  Li  Li0  1  0.48564563  0.24050320  0.90635619  1
  Li  Li1  1  0.49976179  0.75079587  0.08229668  1
  Li  Li2  1  0.49485489  0.76068629  0.74296408  1
  Li  Li3  1  0.50514511  0.23931371  0.59036892  1
  Li  Li4  1  0.51435437  0.75949680  0.42697781  1
  Li  Li5  1  0.50023821  0.24920413  0.25103632  1
  Li  Li6  1  0.00000000  0.00000000  0.66666700  1
  Mn  Mn7  1  0.99885037  0.00225456  0.99679522  1
  Mn  Mn8  1  0.00114963  0.99774544  0.33653778  1
  Co  Co9  1  0.00000000  0.50000000  0.16666700  1
  Co  Co10  1  0.00908644  0.48938345  0.50915893  1
  Co  Co11  1  0.99091356  0.51061655  0.82417407  1
  O  O12  1  0.22504912  0.87292263  0.88938408  1
  O  O13  1  0.21964403  0.35736982  0.03498962  1
  O  O14  1  0.24015834  0.39752307  0.70315518  1
  O  O15  1  0.23495246  0.87728911  0.52462103  1
  O  O16  1  0.21699677  0.35853261  0.35996311  1
  O  O17  1  0.21907914  0.87739724  0.20506527  1
  O  O18  1  0.78300323  0.64146739  0.97337089  1
  O  O19  1  0.78092086  0.12260276  0.12826773  1
  O  O20  1  0.76504754  0.12271089  0.80871197  1
  O  O21  1  0.75984166  0.60247693  0.63017782  1
  O  O22  1  0.77495088  0.12707737  0.44394992  1
  O  O23  1  0.78035597  0.64263018  0.29834338  1
