# generated using pymatgen
data_Li5Co3O8
_symmetry_space_group_name_H-M   'P 1'
_cell_length_a   2.98141599
_cell_length_b   9.87922383
_cell_length_c   5.08325884
_cell_angle_alpha   78.51452430
_cell_angle_beta   74.91883528
_cell_angle_gamma   91.33816724
_symmetry_Int_Tables_number   1
_chemical_formula_structural   Li5Co3O8
_chemical_formula_sum   'Li5 Co3 O8'
_cell_volume   141.22341751
_cell_formula_units_Z   1
loop_
 _symmetry_equiv_pos_site_id
 _symmetry_equiv_pos_as_xyz
  1  'x, y, z'
loop_
 _atom_site_type_symbol
 _atom_site_label
 _atom_site_symmetry_multiplicity
 _atom_site_fract_x
 _atom_site_fract_y
 _atom_site_fract_z
 _atom_site_occupancy
  Li  Li0  1  0.75343527  0.12357843  0.50359513  1
  Li  Li1  1  0.24656473  0.37642157  0.49640487  1
  Li  Li2  1  0.75114446  0.62443486  0.49156411  1
  Li  Li3  1  0.24885554  0.87556514  0.50843589  1
  Li  Li4  1  0.50000000  0.75000000  -0.00000000  1
  Co  Co5  1  0.00157113  0.99034606  0.00085037  1
  Co  Co6  1  0.99842887  0.50965394  0.99914963  1
  Co  Co7  1  0.50000000  0.25000000  -0.00000000  1
  O  O8  1  0.35491952  0.06806256  0.22840438  1
  O  O9  1  0.89427907  0.32315011  0.22420016  1
  O  O10  1  0.35767260  0.55801127  0.22739711  1
  O  O11  1  0.88131610  0.83135133  0.23680013  1
  O  O12  1  0.10572093  0.17684989  0.77579984  1
  O  O13  1  0.64508048  0.43193744  0.77159562  1
  O  O14  1  0.11868390  0.66864867  0.76319987  1
  O  O15  1  0.64232740  0.94198873  0.77260289  1
