# generated using pymatgen
data_Li7Mn2(CoO4)3
_symmetry_space_group_name_H-M   'P 1'
_cell_length_a   5.13377824
_cell_length_b   7.67560986
_cell_length_c   5.87603269
_cell_angle_alpha   102.35440102
_cell_angle_beta   71.56863284
_cell_angle_gamma   104.02239096
_symmetry_Int_Tables_number   1
_chemical_formula_structural   Li7Mn2(CoO4)3
_chemical_formula_sum   'Li7 Mn2 Co3 O12'
_cell_volume   210.73480788
_cell_formula_units_Z   1
loop_
 _symmetry_equiv_pos_site_id
 _symmetry_equiv_pos_as_xyz
  1  'x, y, z'
loop_
 _atom_site_type_symbol
 _atom_site_label
 _atom_site_symmetry_multiplicity
 _atom_site_fract_x
 _atom_site_fract_y
 _atom_site_fract_z
 _atom_site_occupancy
  Li  Li0  1  0.50104928  0.17676960  0.66731972  1
  Li  Li1  1  0.49643509  0.49067963  0.50446068  1
  Li  Li2  1  0.50000000  0.83333300  0.33333300  1
  Li  Li3  1  0.50356491  0.17598737  0.16220632  1
  Li  Li4  1  0.49895072  0.48989740  0.99934728  1
  Li  Li5  1  0.50000000  0.83333300  0.83333300  1
  Li  Li6  1  0.00000000  0.33333300  0.83333300  1
  Mn  Mn7  1  0.99689997  0.00422276  0.99532829  1
  Mn  Mn8  1  0.00310003  0.66244424  0.67133871  1
  Co  Co9  1  0.00012955  0.00338439  0.50036402  1
  Co  Co10  1  0.00000000  0.33333300  0.33333300  1
  Co  Co11  1  -0.00012955  0.66328261  0.16630298  1
  O  O12  1  0.21609402  0.23714871  0.48791112  1
  O  O13  1  0.24717334  0.58593337  0.36005383  1
  O  O14  1  0.19923010  0.91358229  0.16934404  1
  O  O15  1  0.23934569  0.23345965  0.00197606  1
  O  O16  1  0.21452908  0.59450382  0.84234574  1
  O  O17  1  0.23461624  0.90838518  0.68550953  1
  O  O18  1  0.78547092  0.07216318  0.82432126  1
  O  O19  1  0.76065431  0.43320635  0.66468994  1
  O  O20  1  0.80076990  0.75308471  0.49732296  1
  O  O21  1  0.75282666  0.08073363  0.30661317  1
  O  O22  1  0.78390598  0.42951729  0.17875488  1
  O  O23  1  0.76538376  0.75828182  0.98115747  1
