# generated using pymatgen
data_Li7Mn2(CoO4)3
_symmetry_space_group_name_H-M   'P 1'
_cell_length_a   5.13648415
_cell_length_b   7.70948430
_cell_length_c   5.82618466
_cell_angle_alpha   100.33938636
_cell_angle_beta   90.00212207
_cell_angle_gamma   109.44543062
_symmetry_Int_Tables_number   1
_chemical_formula_structural   Li7Mn2(CoO4)3
_chemical_formula_sum   'Li7 Mn2 Co3 O12'
_cell_volume   213.57698619
_cell_formula_units_Z   1
loop_
 _symmetry_equiv_pos_site_id
 _symmetry_equiv_pos_as_xyz
  1  'x, y, z'
loop_
 _atom_site_type_symbol
 _atom_site_label
 _atom_site_symmetry_multiplicity
 _atom_site_fract_x
 _atom_site_fract_y
 _atom_site_fract_z
 _atom_site_occupancy
  Li  Li0  1  0.49587221  0.00139583  0.74222274  1
  Li  Li1  1  0.83836122  0.32541942  0.58027175  1
  Li  Li2  1  0.16740855  0.67328696  0.42530740  1
  Li  Li3  1  0.50806264  0.00594124  0.26064125  1
  Li  Li4  1  0.83028976  0.32999669  0.08229453  1
  Li  Li5  1  0.16307950  0.66638888  0.91166862  1
  Li  Li6  1  0.99804728  -0.00003695  0.50195362  1
  Mn  Mn7  1  0.99905971  0.00008379  0.99963664  1
  Mn  Mn8  1  0.67308819  0.66786444  0.16779294  1
  Co  Co9  1  0.32381984  0.32551855  0.82348699  1
  Co  Co10  1  0.67333331  0.67205463  0.66137845  1
  Co  Co11  1  0.32117964  0.32644899  0.33695926  1
  O  O12  1  0.06777416  0.84047488  0.72767840  1
  O  O13  1  0.42150642  0.18786863  0.54644383  1
  O  O14  1  0.74317770  0.51124928  0.36385314  1
  O  O15  1  0.05192329  0.83179564  0.19624530  1
  O  O16  1  0.38204279  0.15507329  0.04069296  1
  O  O17  1  0.73385865  0.51366024  0.88358501  1
  O  O18  1  0.92971424  0.16239621  0.80816401  1
  O  O19  1  0.26217309  0.49766855  0.62458045  1
  O  O20  1  0.58600193  0.81212970  0.44882136  1
  O  O21  1  0.93171901  0.16311569  0.27350853  1
  O  O22  1  0.28818275  0.49759790  0.12242230  1
  O  O23  1  0.61032412  0.83260754  0.97039052  1
