# generated using pymatgen
data_Li6Mn3CoO10
_symmetry_space_group_name_H-M   'P 1'
_cell_length_a   2.93222943
_cell_length_b   5.97507080
_cell_length_c   10.39209206
_cell_angle_alpha   97.51578936
_cell_angle_beta   96.90897084
_cell_angle_gamma   92.72071898
_symmetry_Int_Tables_number   1
_chemical_formula_structural   Li6Mn3CoO10
_chemical_formula_sum   'Li6 Mn3 Co1 O10'
_cell_volume   178.82752288
_cell_formula_units_Z   1
loop_
 _symmetry_equiv_pos_site_id
 _symmetry_equiv_pos_as_xyz
  1  'x, y, z'
loop_
 _atom_site_type_symbol
 _atom_site_label
 _atom_site_symmetry_multiplicity
 _atom_site_fract_x
 _atom_site_fract_y
 _atom_site_fract_z
 _atom_site_occupancy
  Li  Li0  1  0.99028613  0.48709048  0.98185568  1
  Li  Li1  1  0.60411919  0.29819890  0.20149616  1
  Li  Li2  1  0.40048903  0.70095830  0.80049609  1
  Li  Li3  1  0.80865508  0.90958359  0.61272698  1
  Li  Li4  1  0.19739538  0.10306110  0.40067699  1
  Li  Li5  1  0.39953135  0.20016487  0.79868865  1
  Mn  Mn6  1  0.98910683  0.00486202  0.99095205  1
  Mn  Mn7  1  0.80868101  0.39663866  0.60700907  1
  Mn  Mn8  1  0.59672579  0.79974712  0.20279939  1
  Co  Co9  1  0.21196818  0.59620057  0.40094884  1
  O  O10  1  0.51127804  0.22147734  0.99980978  1
  O  O11  1  0.05474371  0.03734445  0.19236225  1
  O  O12  1  0.88805341  0.45040818  0.78485424  1
  O  O13  1  0.31788818  0.62082941  0.59160795  1
  O  O14  1  0.66785383  0.83498002  0.39942273  1
  O  O15  1  0.47631809  0.77843974  0.00477293  1
  O  O16  1  0.13706701  0.55954842  0.20847793  1
  O  O17  1  0.90994716  0.95282641  0.81334843  1
  O  O18  1  0.28651846  0.18081478  0.59900334  1
  O  O19  1  0.74337415  0.36682562  0.40869053  1
