# generated using pymatgen
data_Li6Mn3CoO10
_symmetry_space_group_name_H-M   'P 1'
_cell_length_a   2.94226836
_cell_length_b   12.10148013
_cell_length_c   5.08571157
_cell_angle_alpha   84.33491139
_cell_angle_beta   90.88051630
_cell_angle_gamma   85.74546085
_symmetry_Int_Tables_number   1
_chemical_formula_structural   Li6Mn3CoO10
_chemical_formula_sum   'Li6 Mn3 Co1 O10'
_cell_volume   179.65287779
_cell_formula_units_Z   1
loop_
 _symmetry_equiv_pos_site_id
 _symmetry_equiv_pos_as_xyz
  1  'x, y, z'
loop_
 _atom_site_type_symbol
 _atom_site_label
 _atom_site_symmetry_multiplicity
 _atom_site_fract_x
 _atom_site_fract_y
 _atom_site_fract_z
 _atom_site_occupancy
  Li  Li0  1  0.89898834  0.20108087  0.30669127  1
  Li  Li1  1  0.29945910  0.39945357  0.09448438  1
  Li  Li2  1  0.69454202  0.60652304  0.90455393  1
  Li  Li3  1  0.10016303  0.79972494  0.69950870  1
  Li  Li4  1  0.50658263  0.99368006  0.49552359  1
  Li  Li5  1  0.59983911  0.79920367  0.20054942  1
  Mn  Mn6  1  0.01195088  0.99268479  0.01093047  1
  Mn  Mn7  1  0.19049819  0.60546049  0.39240320  1
  Mn  Mn8  1  0.40753059  0.20115666  0.79626238  1
  Co  Co9  1  0.78596868  0.40191386  0.60089800  1
  O  O10  1  0.47875713  0.09201852  0.12436185  1
  O  O11  1  0.82050855  0.30224160  0.93165773  1
  O  O12  1  0.20773240  0.49673152  0.72408780  1
  O  O13  1  0.66710462  0.68706385  0.53291390  1
  O  O14  1  0.04023715  0.90850327  0.32853917  1
  O  O15  1  0.37459157  0.30385616  0.46160167  1
  O  O16  1  0.72416351  0.50682969  0.28194483  1
  O  O17  1  0.16230674  0.68869492  0.07206783  1
  O  O18  1  0.53481215  0.91167042  0.86905926  1
  O  O19  1  0.99426357  0.10150810  0.67196063  1
