# generated using pymatgen
data_Li7Mn2(CoO4)3
_symmetry_space_group_name_H-M   'P 1'
_cell_length_a   5.13548819
_cell_length_b   5.87680262
_cell_length_c   7.65960507
_cell_angle_alpha   79.43565083
_cell_angle_beta   83.50229408
_cell_angle_gamma   107.34482010
_symmetry_Int_Tables_number   1
_chemical_formula_structural   Li7Mn2(CoO4)3
_chemical_formula_sum   'Li7 Mn2 Co3 O12'
_cell_volume   213.41946275
_cell_formula_units_Z   1
loop_
 _symmetry_equiv_pos_site_id
 _symmetry_equiv_pos_as_xyz
  1  'x, y, z'
loop_
 _atom_site_type_symbol
 _atom_site_label
 _atom_site_symmetry_multiplicity
 _atom_site_fract_x
 _atom_site_fract_y
 _atom_site_fract_z
 _atom_site_occupancy
  Li  Li0  1  0.49504880  0.07612177  0.17198905  1
  Li  Li1  1  0.49791308  0.74700125  0.49401242  1
  Li  Li2  1  0.50078859  0.41625657  0.83307671  1
  Li  Li3  1  0.50246474  0.58322623  0.17366643  1
  Li  Li4  1  0.50521717  0.25778854  0.49409404  1
  Li  Li5  1  0.49803543  0.91686225  0.83453447  1
  Li  Li6  1  0.99960733  0.66859312  0.33303688  1
  Mn  Mn7  1  0.00467810  0.99820381  0.00053767  1
  Mn  Mn8  1  0.99820349  0.83136879  0.66402229  1
  Co  Co9  1  -0.00024546  0.34188801  0.65845349  1
  Co  Co10  1  0.99584124  0.49888703  0.01379476  1
  Co  Co11  1  0.00227821  0.16203347  0.33405048  1
  O  O12  1  0.23537926  0.27922078  0.07647239  1
  O  O13  1  0.22984258  0.95532453  0.43370592  1
  O  O14  1  0.21783575  0.62996654  0.75118254  1
  O  O15  1  0.22943231  0.80279150  0.07470591  1
  O  O16  1  0.22924753  0.43623225  0.42490016  1
  O  O17  1  0.22276691  0.10683150  0.75619942  1
  O  O18  1  0.77460235  0.89863260  0.23606805  1
  O  O19  1  0.76432258  0.55339712  0.59581565  1
  O  O20  1  0.78598785  0.20572256  0.90896049  1
  O  O21  1  0.76518485  0.37492378  0.23863814  1
  O  O22  1  0.77045554  0.03150516  0.58469451  1
  O  O23  1  0.77511176  0.72722084  0.91338814  1
