# generated using pymatgen
data_Li4MnCo2O7
_symmetry_space_group_name_H-M   'P 1'
_cell_length_a   4.95962819
_cell_length_b   5.87472230
_cell_length_c   8.92741760
_cell_angle_alpha   89.67636782
_cell_angle_beta   96.23884078
_cell_angle_gamma   73.90996951
_symmetry_Int_Tables_number   1
_chemical_formula_structural   Li4MnCo2O7
_chemical_formula_sum   'Li8 Mn2 Co4 O14'
_cell_volume   248.26941947
_cell_formula_units_Z   2
loop_
 _symmetry_equiv_pos_site_id
 _symmetry_equiv_pos_as_xyz
  1  'x, y, z'
loop_
 _atom_site_type_symbol
 _atom_site_label
 _atom_site_symmetry_multiplicity
 _atom_site_fract_x
 _atom_site_fract_y
 _atom_site_fract_z
 _atom_site_occupancy
  Li  Li0  1  0.56386462  0.36520024  0.16099039  1
  Li  Li1  1  0.29101838  0.92637651  0.56441371  1
  Li  Li2  1  0.13366226  0.21834452  0.29245359  1
  Li  Li3  1  0.85281308  0.78063319  0.70172054  1
  Li  Li4  1  0.70968863  0.06708865  0.42996284  1
  Li  Li5  1  0.43337494  0.64106808  0.85521406  1
  Li  Li6  1  0.00414507  0.50381313  0.00185868  1
  Li  Li7  1  0.70714214  0.57575455  0.42785050  1
  Mn  Mn8  1  0.00341288  0.99668984  -0.00100917  1
  Mn  Mn9  1  0.86036827  0.28391990  0.71371949  1
  Co  Co10  1  0.43588104  0.14032874  0.85580760  1
  Co  Co11  1  0.14542215  0.71324865  0.29681789  1
  Co  Co12  1  0.57029190  0.85707362  0.14512252  1
  Co  Co13  1  0.27996242  0.43503846  0.56443545  1
  O  O14  1  0.72860408  0.29498821  0.91759312  1
  O  O15  1  0.40541324  0.89213866  0.34592716  1
  O  O16  1  0.29640483  0.15548829  0.05445861  1
  O  O17  1  0.01282358  0.74400041  0.49977374  1
  O  O18  1  0.85173309  0.02790692  0.19121664  1
  O  O19  1  0.58008327  0.57288708  0.65281505  1
  O  O20  1  0.14798867  0.43315545  0.78621704  1
  O  O21  1  0.40350349  0.39937590  0.36217551  1
  O  O22  1  0.14524934  0.98492849  0.79793253  1
  O  O23  1  0.00160700  0.25409291  0.52381222  1
  O  O24  1  0.72160965  0.84709937  0.92419801  1
  O  O25  1  0.58084049  0.11735396  0.66047536  1
  O  O26  1  0.28364570  0.70461784  0.06806561  1
  O  O27  1  0.84944577  0.56738842  0.20598131  1
