# generated using pymatgen
data_CaH2(CO2)2
_symmetry_space_group_name_H-M   'P 1'
_cell_length_a   6.88376194
_cell_length_b   6.88376194
_cell_length_c   9.49941234
_cell_angle_alpha   90.00000000
_cell_angle_beta   90.00000000
_cell_angle_gamma   90.00000000
_symmetry_Int_Tables_number   1
_chemical_formula_structural   CaH2(CO2)2
_chemical_formula_sum   'Ca4 H8 C8 O16'
_cell_volume   450.14084828
_cell_formula_units_Z   4
loop_
 _symmetry_equiv_pos_site_id
 _symmetry_equiv_pos_as_xyz
  1  'x, y, z'
loop_
 _atom_site_type_symbol
 _atom_site_label
 _atom_site_symmetry_multiplicity
 _atom_site_fract_x
 _atom_site_fract_y
 _atom_site_fract_z
 _atom_site_occupancy
  Ca  Ca0  1  0.78632278  0.78632278  0.00000000  1
  Ca  Ca1  1  0.71367722  0.28632278  0.75000000  1
  Ca  Ca2  1  0.21367722  0.21367722  0.50000000  1
  Ca  Ca3  1  0.28632278  0.71367722  0.25000000  1
  H  H4  1  0.12994493  0.67154106  0.67449809  1
  H  H5  1  0.37005507  0.17154106  0.07550191  1
  H  H6  1  0.17154106  0.37005507  0.92449809  1
  H  H7  1  0.62994493  0.82845894  0.57550191  1
  H  H8  1  0.32845894  0.87005507  0.82550191  1
  H  H9  1  0.82845894  0.62994493  0.42449809  1
  H  H10  1  0.67154106  0.12994493  0.32550191  1
  H  H11  1  0.87005507  0.32845894  0.17449809  1
  C  C12  1  0.29629752  0.81037160  0.93139626  1
  C  C13  1  0.81037160  0.29629752  0.06860374  1
  C  C14  1  0.79629752  0.68962840  0.31860374  1
  C  C15  1  0.68962840  0.79629752  0.68139626  1
  C  C16  1  0.31037160  0.20370248  0.18139626  1
  C  C17  1  0.70370248  0.18962840  0.43139626  1
  C  C18  1  0.20370248  0.31037160  0.81860374  1
  C  C19  1  0.18962840  0.70370248  0.56860374  1
  O  O20  1  0.37849552  0.28109952  0.78492129  1
  O  O21  1  0.06101810  0.27722470  0.73653563  1
  O  O22  1  0.77722470  0.43898190  0.98653563  1
  O  O23  1  0.28109952  0.37849552  0.21507871  1
  O  O24  1  0.21890048  0.87849552  0.53492129  1
  O  O25  1  0.56101810  0.22277530  0.51346437  1
  O  O26  1  0.87849552  0.21890048  0.46507871  1
  O  O27  1  0.27722470  0.06101810  0.26346437  1
  O  O28  1  0.62150448  0.71890048  0.28492129  1
  O  O29  1  0.22277530  0.56101810  0.48653563  1
  O  O30  1  0.12150448  0.78109952  0.96507871  1
  O  O31  1  0.72277530  0.93898190  0.76346437  1
  O  O32  1  0.78109952  0.12150448  0.03492129  1
  O  O33  1  0.71890048  0.62150448  0.71507871  1
  O  O34  1  0.43898190  0.77722470  0.01346437  1
  O  O35  1  0.93898190  0.72277530  0.23653563  1
