# generated using pymatgen
data_Li7Mn2(CoO4)3
_symmetry_space_group_name_H-M   'P 1'
_cell_length_a   5.13076666
_cell_length_b   7.66216683
_cell_length_c   5.86811875
_cell_angle_alpha   78.66934700
_cell_angle_beta   72.88203816
_cell_angle_gamma   76.74766674
_symmetry_Int_Tables_number   1
_chemical_formula_structural   Li7Mn2(CoO4)3
_chemical_formula_sum   'Li7 Mn2 Co3 O12'
_cell_volume   212.52814862
_cell_formula_units_Z   1
loop_
 _symmetry_equiv_pos_site_id
 _symmetry_equiv_pos_as_xyz
  1  'x, y, z'
loop_
 _atom_site_type_symbol
 _atom_site_label
 _atom_site_symmetry_multiplicity
 _atom_site_fract_x
 _atom_site_fract_y
 _atom_site_fract_z
 _atom_site_occupancy
  Li  Li0  1  0.49633134  0.16559308  0.83751252  1
  Li  Li1  1  0.50066802  0.51014813  0.99253240  1
  Li  Li2  1  0.50502491  0.83095688  0.15559833  1
  Li  Li3  1  0.49915899  0.16757072  0.33205497  1
  Li  Li4  1  0.49769452  0.50439023  0.50693201  1
  Li  Li5  1  0.50065938  0.82224920  0.67440447  1
  Li  Li6  1  -0.00079736  0.66769242  0.83294262  1
  Mn  Mn7  1  0.99524715  0.99781100  0.99698726  1
  Mn  Mn8  1  0.00006956  0.33754352  0.67087437  1
  Co  Co9  1  -0.00160524  0.33885923  0.16663820  1
  Co  Co10  1  -0.00248073  0.65854033  0.32657883  1
  Co  Co11  1  0.00787985  0.98294783  0.50383814  1
  O  O12  1  0.22248858  0.08717128  0.68263353  1
  O  O13  1  0.21533735  0.40717753  0.84564019  1
  O  O14  1  0.23044837  0.76527622  0.00646132  1
  O  O15  1  0.20820910  0.09462709  0.15977680  1
  O  O16  1  0.24457240  0.41357311  0.36460560  1
  O  O17  1  0.23642860  0.76211007  0.48668274  1
  O  O18  1  0.76645096  0.24416715  0.97740077  1
  O  O19  1  0.77403068  0.57351025  0.17661061  1
  O  O20  1  0.76822588  0.92193580  0.31446918  1
  O  O21  1  0.79592374  0.25091469  0.49186742  1
  O  O22  1  0.77046497  0.56929122  0.66041904  1
  O  O23  1  0.76956898  0.92594300  0.83653867  1
