# generated using pymatgen
data_Li7Mn2(CoO4)3
_symmetry_space_group_name_H-M   'P 1'
_cell_length_a   5.15539473
_cell_length_b   7.68244516
_cell_length_c   5.78801578
_cell_angle_alpha   100.48256023
_cell_angle_beta   89.97142436
_cell_angle_gamma   108.57874871
_symmetry_Int_Tables_number   1
_chemical_formula_structural   Li7Mn2(CoO4)3
_chemical_formula_sum   'Li7 Mn2 Co3 O12'
_cell_volume   213.26081004
_cell_formula_units_Z   1
loop_
 _symmetry_equiv_pos_site_id
 _symmetry_equiv_pos_as_xyz
  1  'x, y, z'
loop_
 _atom_site_type_symbol
 _atom_site_label
 _atom_site_symmetry_multiplicity
 _atom_site_fract_x
 _atom_site_fract_y
 _atom_site_fract_z
 _atom_site_occupancy
  Li  Li0  1  0.49393616  0.00302604  0.75069767  1
  Li  Li1  1  0.82706282  0.33363711  0.58065381  1
  Li  Li2  1  0.17310235  0.65630525  0.41360846  1
  Li  Li3  1  0.49634452  0.00770838  0.25825882  1
  Li  Li4  1  0.83575264  0.33491927  0.08601940  1
  Li  Li5  1  0.16964214  0.66263502  0.91506943  1
  Li  Li6  1  0.33686409  0.33278419  0.33360919  1
  Mn  Mn7  1  0.99364057  0.00438230  -0.00039098  1
  Mn  Mn8  1  0.67270314  0.66270174  0.16434998  1
  Co  Co9  1  0.34047250  0.33370225  0.83507655  1
  Co  Co10  1  0.65546307  0.65329683  0.65784651  1
  Co  Co11  1  -0.00067384  0.00958024  0.50049593  1
  O  O12  1  0.05485495  0.84463951  0.71298057  1
  O  O13  1  0.39022528  0.17226369  0.56325220  1
  O  O14  1  0.76384697  0.51616438  0.36664274  1
  O  O15  1  0.05976125  0.83971194  0.19911381  1
  O  O16  1  0.36831345  0.15833693  0.02919230  1
  O  O17  1  0.76566804  0.51432474  0.88883799  1
  O  O18  1  0.90542281  0.15393974  0.80200376  1
  O  O19  1  0.28539095  0.50269286  0.64035693  1
  O  O20  1  0.58725115  0.81751208  0.44002174  1
  O  O21  1  0.91332216  0.15057240  0.28621860  1
  O  O22  1  0.30044709  0.50393713  0.11026684  1
  O  O23  1  0.61118574  0.83122598  0.96581773  1
