# generated using pymatgen
data_Li7Mn2(CoO4)3
_symmetry_space_group_name_H-M   'P 1'
_cell_length_a   5.10431716
_cell_length_b   7.65690742
_cell_length_c   5.87089498
_cell_angle_alpha   100.60611842
_cell_angle_beta   106.14884465
_cell_angle_gamma   77.36158236
_symmetry_Int_Tables_number   1
_chemical_formula_structural   Li7Mn2(CoO4)3
_chemical_formula_sum   'Li7 Mn2 Co3 O12'
_cell_volume   213.19388253
_cell_formula_units_Z   1
loop_
 _symmetry_equiv_pos_site_id
 _symmetry_equiv_pos_as_xyz
  1  'x, y, z'
loop_
 _atom_site_type_symbol
 _atom_site_label
 _atom_site_symmetry_multiplicity
 _atom_site_fract_x
 _atom_site_fract_y
 _atom_site_fract_z
 _atom_site_occupancy
  Li  Li0  1  0.49675150  0.17494561  0.17329852  1
  Li  Li1  1  0.49950046  0.17065793  0.66603163  1
  Li  Li2  1  0.49912458  0.49022828  0.48840499  1
  Li  Li3  1  0.50428301  0.49707332  0.00666157  1
  Li  Li4  1  0.50214104  0.83358579  0.83511398  1
  Li  Li5  1  0.49655256  0.83330805  0.33064410  1
  Li  Li6  1  0.99927008  0.33297838  0.33088149  1
  Mn  Mn7  1  0.00420553  0.00127392  0.00380085  1
  Mn  Mn8  1  0.99912289  0.66338894  0.16834437  1
  Co  Co9  1  0.99514238  0.01440772  0.49888588  1
  Co  Co10  1  0.00150048  0.33444460  0.83874160  1
  Co  Co11  1  0.00061266  0.65782493  0.65813853  1
  O  O12  1  0.23280995  0.07705886  0.83790600  1
  O  O13  1  0.23335025  0.07409196  0.31365112  1
  O  O14  1  0.23082016  0.43329542  0.16072502  1
  O  O15  1  0.22733054  0.42528323  0.67978011  1
  O  O16  1  0.22193680  0.75097747  0.48097464  1
  O  O17  1  0.21969890  0.75652055  0.00297891  1
  O  O18  1  0.76277320  0.23877099  0.50552237  1
  O  O19  1  0.77683886  0.23617274  0.98904613  1
  O  O20  1  0.76699020  0.58527509  0.85344384  1
  O  O21  1  0.76798060  0.59582685  0.32893694  1
  O  O22  1  0.77952984  0.91265083  0.16148108  1
  O  O23  1  0.78173356  0.90995854  0.68660633  1
