# generated using pymatgen
data_Li7Mn2(CoO4)3
_symmetry_space_group_name_H-M   'P 1'
_cell_length_a   4.99030186
_cell_length_b   5.09436447
_cell_length_c   8.87517576
_cell_angle_alpha   89.65609525
_cell_angle_beta   89.29168639
_cell_angle_gamma   108.38198410
_symmetry_Int_Tables_number   1
_chemical_formula_structural   Li7Mn2(CoO4)3
_chemical_formula_sum   'Li7 Mn2 Co3 O12'
_cell_volume   214.08775849
_cell_formula_units_Z   1
loop_
 _symmetry_equiv_pos_site_id
 _symmetry_equiv_pos_as_xyz
  1  'x, y, z'
loop_
 _atom_site_type_symbol
 _atom_site_label
 _atom_site_symmetry_multiplicity
 _atom_site_fract_x
 _atom_site_fract_y
 _atom_site_fract_z
 _atom_site_occupancy
  Li  Li0  1  0.00000000  0.50000000  0.16666700  1
  Li  Li1  1  0.50659194  0.50445099  0.33753743  1
  Li  Li2  1  0.00046600  0.49758089  0.51228262  1
  Li  Li3  1  0.50000000  0.50000000  0.66666700  1
  Li  Li4  1  0.99953400  0.50241911  0.82105038  1
  Li  Li5  1  0.49340806  0.49554901  0.99579557  1
  Li  Li6  1  0.00000000  -0.00000000  0.66666700  1
  Mn  Mn7  1  0.99742461  0.99523391  0.99839611  1
  Mn  Mn8  1  0.00257539  0.00476609  0.33493689  1
  Co  Co9  1  0.50000000  -0.00000000  0.16666700  1
  Co  Co10  1  0.50669184  0.00562449  0.50775923  1
  Co  Co11  1  0.49330816  0.99437551  0.82557377  1
  O  O12  1  0.74328615  0.21772051  0.01236083  1
  O  O13  1  0.23691599  0.21582693  0.16326510  1
  O  O14  1  0.77063786  0.23595531  0.33410831  1
  O  O15  1  0.25039522  0.22279696  0.48131004  1
  O  O16  1  0.72357448  0.24375796  0.66827016  1
  O  O17  1  0.24127795  0.22087106  0.84963355  1
  O  O18  1  0.25671385  0.78227949  0.32097317  1
  O  O19  1  0.75872205  0.77912894  0.48369945  1
  O  O20  1  0.27642552  0.75624204  0.66506284  1
  O  O21  1  0.74960478  0.77720304  0.85202396  1
  O  O22  1  0.22936214  0.76404469  0.99922469  1
  O  O23  1  0.76308401  0.78417307  0.17006790  1
