# generated using pymatgen
data_Li7Mn2(CoO4)3
_symmetry_space_group_name_H-M   'P 1'
_cell_length_a   5.13825499
_cell_length_b   7.74531610
_cell_length_c   5.93022012
_cell_angle_alpha   77.06958805
_cell_angle_beta   71.25380459
_cell_angle_gamma   75.61522338
_symmetry_Int_Tables_number   1
_chemical_formula_structural   Li7Mn2(CoO4)3
_chemical_formula_sum   'Li7 Mn2 Co3 O12'
_cell_volume   213.79949671
_cell_formula_units_Z   1
loop_
 _symmetry_equiv_pos_site_id
 _symmetry_equiv_pos_as_xyz
  1  'x, y, z'
loop_
 _atom_site_type_symbol
 _atom_site_label
 _atom_site_symmetry_multiplicity
 _atom_site_fract_x
 _atom_site_fract_y
 _atom_site_fract_z
 _atom_site_occupancy
  Li  Li0  1  0.01296662  0.98968331  0.49514080  1
  Li  Li1  1  0.00109775  0.33472484  0.16689531  1
  Li  Li2  1  0.49649068  0.82922076  0.65921421  1
  Li  Li3  1  0.49328864  0.15973869  0.32685375  1
  Li  Li4  1  0.98912875  0.67326603  0.83854600  1
  Li  Li5  1  0.50715874  0.51280475  0.01230944  1
  Li  Li6  1  0.49908840  0.83237062  0.16709008  1
  Mn  Mn7  1  0.99948995  0.99940713  0.00123318  1
  Mn  Mn8  1  0.00059902  0.33509783  0.66409864  1
  Co  Co9  1  0.99896770  0.66968381  0.33130785  1
  Co  Co10  1  0.50012636  0.16334658  0.83514715  1
  Co  Co11  1  0.50044893  0.50259967  0.49843882  1
  O  O12  1  0.77632758  0.92371381  0.31765990  1
  O  O13  1  0.77607671  0.24588337  0.98526076  1
  O  O14  1  0.25000095  0.72601273  0.48950044  1
  O  O15  1  0.24632835  0.08088710  0.12882544  1
  O  O16  1  0.76692054  0.56947495  0.67438062  1
  O  O17  1  0.25511946  0.39837192  0.80083182  1
  O  O18  1  0.22400278  0.08959385  0.67576697  1
  O  O19  1  0.23400860  0.40879404  0.35012436  1
  O  O20  1  0.75402916  0.94141294  0.84895144  1
  O  O21  1  0.74576292  0.26734379  0.53261167  1
  O  O22  1  0.22280718  0.76335866  -0.00266836  1
  O  O23  1  0.74976420  0.58320882  0.20247973  1
