# generated using pymatgen
data_Li7Mn4CoO12
_symmetry_space_group_name_H-M   'P 1'
_cell_length_a   2.86573584
_cell_length_b   8.68706940
_cell_length_c   9.72740199
_cell_angle_alpha   64.24337820
_cell_angle_beta   90.00000000
_cell_angle_gamma   90.00000000
_symmetry_Int_Tables_number   1
_chemical_formula_structural   Li7Mn4CoO12
_chemical_formula_sum   'Li7 Mn4 Co1 O12'
_cell_volume   218.10288493
_cell_formula_units_Z   1
loop_
 _symmetry_equiv_pos_site_id
 _symmetry_equiv_pos_as_xyz
  1  'x, y, z'
loop_
 _atom_site_type_symbol
 _atom_site_label
 _atom_site_symmetry_multiplicity
 _atom_site_fract_x
 _atom_site_fract_y
 _atom_site_fract_z
 _atom_site_occupancy
  Li  Li0  1  0.50000000  0.17101459  0.16670078  1
  Li  Li1  1  0.50000000  0.49491515  0.49435646  1
  Li  Li2  1  0.50000000  0.83270348  0.84161343  1
  Li  Li3  1  0.00000000  0.52872208  0.00651559  1
  Li  Li4  1  -0.00000000  0.80575656  0.33110001  1
  Li  Li5  1  0.00000000  0.16766335  0.66482434  1
  Li  Li6  1  0.50000000  0.66267211  0.16580540  1
  Mn  Mn7  1  0.00000000  0.97819331  0.00623189  1
  Mn  Mn8  1  0.00000000  0.66756920  0.66599294  1
  Mn  Mn9  1  0.50000000  0.32416572  0.83915178  1
  Mn  Mn10  1  0.50000000  0.01352562  0.49251688  1
  Co  Co11  1  0.00000000  0.35339857  0.32851168  1
  O  O12  1  0.50000000  0.92079159  0.15485081  1
  O  O13  1  0.50000000  0.27096131  0.47618747  1
  O  O14  1  0.50000000  0.59484956  0.82078615  1
  O  O15  1  -0.00000000  0.23139718  0.99174446  1
  O  O16  1  0.00000000  0.55828195  0.33287466  1
  O  O17  1  0.00000000  0.93613830  0.64362674  1
  O  O18  1  0.50000000  0.40967042  0.18356173  1
  O  O19  1  0.50000000  0.73968414  0.51102584  1
  O  O20  1  0.50000000  0.06368849  0.85408502  1
  O  O21  1  -0.00000000  0.77017380  0.00010885  1
  O  O22  1  -0.00000000  0.10531493  0.34019979  1
  O  O23  1  0.00000000  0.39874859  0.68762730  1
