# generated using pymatgen
data_Li7Mn2(CoO4)3
_symmetry_space_group_name_H-M   'P 1'
_cell_length_a   5.91614759
_cell_length_b   5.88530530
_cell_length_c   7.67771061
_cell_angle_alpha   100.69470413
_cell_angle_beta   111.55048124
_cell_angle_gamma   59.94279127
_symmetry_Int_Tables_number   1
_chemical_formula_structural   Li7Mn2(CoO4)3
_chemical_formula_sum   'Li7 Mn2 Co3 O12'
_cell_volume   215.20177254
_cell_formula_units_Z   1
loop_
 _symmetry_equiv_pos_site_id
 _symmetry_equiv_pos_as_xyz
  1  'x, y, z'
loop_
 _atom_site_type_symbol
 _atom_site_label
 _atom_site_symmetry_multiplicity
 _atom_site_fract_x
 _atom_site_fract_y
 _atom_site_fract_z
 _atom_site_occupancy
  Li  Li0  1  0.50668146  0.32819799  0.33564242  1
  Li  Li1  1  0.49860251  0.16795855  0.66871700  1
  Li  Li2  1  0.51336816  0.83119388  0.34188005  1
  Li  Li3  1  0.50155870  0.66602328  0.66551369  1
  Li  Li4  1  0.48427936  0.50302731  0.98919941  1
  Li  Li5  1  0.49528942  0.00079968  0.99801149  1
  Li  Li6  1  0.99908063  0.67055596  0.66693699  1
  Mn  Mn7  1  0.99291095  0.00017430  0.99787100  1
  Mn  Mn8  1  0.00460248  0.82953576  0.33685377  1
  Co  Co9  1  0.00021732  0.49945701  0.98648106  1
  Co  Co10  1  0.00300096  0.34101671  0.34215692  1
  Co  Co11  1  0.99936287  0.16190794  0.66565124  1
  O  O12  1  0.23550205  0.99045053  0.49389744  1
  O  O13  1  0.22159347  0.86259226  0.84001405  1
  O  O14  1  0.23573753  0.51494681  0.48227060  1
  O  O15  1  0.23000518  0.33864350  0.84058168  1
  O  O16  1  0.21331838  0.16904555  0.16137757  1
  O  O17  1  0.22201387  0.69151478  0.15974260  1
  O  O18  1  0.78250369  0.66715778  0.17676383  1
  O  O19  1  0.77709449  0.47035670  0.49835716  1
  O  O20  1  0.77987120  0.14269720  0.17127691  1
  O  O21  1  0.77427962  0.99189757  0.48933079  1
  O  O22  1  0.76647322  0.84258702  0.84782131  1
  O  O23  1  0.76265248  0.31826194  0.84365102  1
