# generated using pymatgen
data_Li7Mn2(CoO4)3
_symmetry_space_group_name_H-M   'P 1'
_cell_length_a   5.11380087
_cell_length_b   8.81328405
_cell_length_c   5.03442918
_cell_angle_alpha   90.00000000
_cell_angle_beta   70.78771362
_cell_angle_gamma   90.00000000
_symmetry_Int_Tables_number   1
_chemical_formula_structural   Li7Mn2(CoO4)3
_chemical_formula_sum   'Li7 Mn2 Co3 O12'
_cell_volume   214.26167017
_cell_formula_units_Z   1
loop_
 _symmetry_equiv_pos_site_id
 _symmetry_equiv_pos_as_xyz
  1  'x, y, z'
loop_
 _atom_site_type_symbol
 _atom_site_label
 _atom_site_symmetry_multiplicity
 _atom_site_fract_x
 _atom_site_fract_y
 _atom_site_fract_z
 _atom_site_occupancy
  Li  Li0  1  0.50000000  0.17517254  0.00000000  1
  Li  Li1  1  0.50000000  0.33850263  0.50000000  1
  Li  Li2  1  0.50000000  0.50342738  0.00000000  1
  Li  Li3  1  0.50000000  0.65956871  0.50000000  1
  Li  Li4  1  0.50000000  0.82118406  0.00000000  1
  Li  Li5  1  0.50000000  0.00213560  0.50000000  1
  Li  Li6  1  0.00000000  0.66349120  0.00000000  1
  Mn  Mn7  1  0.00000000  -0.00341198  0.00000000  1
  Mn  Mn8  1  0.00000000  0.82905694  0.50000000  1
  Co  Co9  1  0.00000000  0.17526235  0.50000000  1
  Co  Co10  1  0.00000000  0.34158339  0.00000000  1
  Co  Co11  1  0.00000000  0.50617365  0.50000000  1
  O  O12  1  0.22423149  0.15749903  0.76747268  1
  O  O13  1  0.23581812  0.32817610  0.25852139  1
  O  O14  1  0.22739064  0.49188671  0.74770195  1
  O  O15  1  0.23451673  0.67654281  0.27663956  1
  O  O16  1  0.22086027  0.84580226  0.74878482  1
  O  O17  1  0.21887197  -0.00598016  0.25296651  1
  O  O18  1  0.77576851  0.15749903  0.23252732  1
  O  O19  1  0.76418188  0.32817610  0.74147861  1
  O  O20  1  0.77260936  0.49188671  0.25229805  1
  O  O21  1  0.76548327  0.67654281  0.72336044  1
  O  O22  1  0.77913973  0.84580226  0.25121518  1
  O  O23  1  0.78112803  -0.00598016  0.74703349  1
