# generated using pymatgen
data_Li9Mn2Co5O16
_symmetry_space_group_name_H-M   'P 1'
_cell_length_a   5.88247337
_cell_length_b   6.45460266
_cell_length_c   8.59574474
_cell_angle_alpha   97.06047744
_cell_angle_beta   70.68839726
_cell_angle_gamma   114.55354814
_symmetry_Int_Tables_number   1
_chemical_formula_structural   Li9Mn2Co5O16
_chemical_formula_sum   'Li9 Mn2 Co5 O16'
_cell_volume   280.11623704
_cell_formula_units_Z   1
loop_
 _symmetry_equiv_pos_site_id
 _symmetry_equiv_pos_as_xyz
  1  'x, y, z'
loop_
 _atom_site_type_symbol
 _atom_site_label
 _atom_site_symmetry_multiplicity
 _atom_site_fract_x
 _atom_site_fract_y
 _atom_site_fract_z
 _atom_site_occupancy
  Li  Li0  1  0.24750966  0.24912205  0.25008430  1
  Li  Li1  1  0.75372099  0.99568206  0.49324693  1
  Li  Li2  1  0.75249034  0.25087795  0.24991570  1
  Li  Li3  1  0.25025665  0.99531371  0.49274514  1
  Li  Li4  1  0.24889520  0.74733921  0.75085356  1
  Li  Li5  1  0.75110480  0.75266079  0.74914644  1
  Li  Li6  1  0.74974335  0.50468629  0.00725486  1
  Li  Li7  1  0.24627901  0.50431794  0.00675307  1
  Li  Li8  1  0.50000000  0.75000000  0.25000000  1
  Mn  Mn9  1  0.98874121  0.99448560  0.00332339  1
  Mn  Mn10  1  0.01125879  0.50551440  0.49667661  1
  Co  Co11  1  0.50000000  0.25000000  0.75000000  1
  Co  Co12  1  0.49189658  0.99545630  0.00362273  1
  Co  Co13  1  0.00000000  0.75000000  0.25000000  1
  Co  Co14  1  0.50810342  0.50454370  0.49637727  1
  Co  Co15  1  0.00000000  0.25000000  0.75000000  1
  O  O16  1  0.88843225  0.99143805  0.23644476  1
  O  O17  1  0.35173718  0.71870527  0.50205181  1
  O  O18  1  0.35498168  0.98103461  0.23284227  1
  O  O19  1  0.89799613  0.74465999  0.48995339  1
  O  O20  1  0.88654466  0.48664975  0.74069772  1
  O  O21  1  0.39100161  0.48672771  0.73620230  1
  O  O22  1  0.35462457  0.22203192  0.98996839  1
  O  O23  1  0.89052831  0.24241496  0.98926793  1
  O  O24  1  0.64501832  0.51896539  0.26715773  1
  O  O25  1  0.10947169  0.25758504  0.51073207  1
  O  O26  1  0.11156775  0.50856195  0.26355524  1
  O  O27  1  0.64537543  0.27796808  0.51003161  1
  O  O28  1  0.60899839  0.01327229  0.76379770  1
  O  O29  1  0.11345534  0.01335025  0.75930228  1
  O  O30  1  0.10200387  0.75534001  0.01004661  1
  O  O31  1  0.64826282  0.78129473  0.99794819  1
