# generated using pymatgen
data_Li9Co7O16
_symmetry_space_group_name_H-M   'P 1'
_cell_length_a   5.08070498
_cell_length_b   7.73559218
_cell_length_c   7.65129167
_cell_angle_alpha   82.49253947
_cell_angle_beta   108.29494108
_cell_angle_gamma   95.82230840
_symmetry_Int_Tables_number   1
_chemical_formula_structural   Li9Co7O16
_chemical_formula_sum   'Li9 Co7 O16'
_cell_volume   282.48162529
_cell_formula_units_Z   1
loop_
 _symmetry_equiv_pos_site_id
 _symmetry_equiv_pos_as_xyz
  1  'x, y, z'
loop_
 _atom_site_type_symbol
 _atom_site_label
 _atom_site_symmetry_multiplicity
 _atom_site_fract_x
 _atom_site_fract_y
 _atom_site_fract_z
 _atom_site_occupancy
  Li  Li0  1  0.50336961  0.19079294  0.93737473  1
  Li  Li1  1  0.50669530  0.43672222  0.19073539  1
  Li  Li2  1  0.49682444  0.55928554  0.81281006  1
  Li  Li3  1  0.50408839  0.81320407  0.06717897  1
  Li  Li4  1  0.49582823  0.93673499  0.68282817  1
  Li  Li5  1  0.49327873  0.31306737  0.55914139  1
  Li  Li6  1  0.50838478  0.69089345  0.43471226  1
  Li  Li7  1  0.49152891  0.05930216  0.31521023  1
  Li  Li8  1  0.00003641  0.87491890  0.37505897  1
  Co  Co9  1  0.00646690  0.99785907  0.00267765  1
  Co  Co10  1  0.99350521  0.75223559  0.74720077  1
  Co  Co11  1  -0.00130914  0.24487244  0.25039020  1
  Co  Co12  1  0.00121671  0.50518197  0.49980417  1
  Co  Co13  1  -0.00011925  0.37495653  0.87506459  1
  Co  Co14  1  0.99826666  0.62916842  0.13221469  1
  Co  Co15  1  0.00191086  0.12104959  0.61762467  1
  O  O16  1  0.21663292  0.95811622  0.84314045  1
  O  O17  1  0.23156553  0.20558282  0.08628566  1
  O  O18  1  0.23160917  0.34525031  0.72120050  1
  O  O19  1  0.21610405  0.60455533  0.95489041  1
  O  O20  1  0.21837335  0.70993243  0.60515239  1
  O  O21  1  0.23872238  0.09828527  0.47653142  1
  O  O22  1  0.23317657  0.46465076  0.33645292  1
  O  O23  1  0.22791412  0.85402424  0.19662781  1
  O  O24  1  0.76849173  0.40515495  0.02855843  1
  O  O25  1  0.76129783  0.65123490  0.27385019  1
  O  O26  1  0.78335010  0.79195500  0.90695616  1
  O  O27  1  0.78216675  0.04013057  0.14516791  1
  O  O28  1  0.78391925  0.14544929  0.79512823  1
  O  O29  1  0.76844778  0.54447586  0.66357441  1
  O  O30  1  0.77210999  0.89597222  0.55338731  1
  O  O31  1  0.76614572  0.28498858  0.41307587  1
