# generated using pymatgen
data_Li7Mn2(CoO4)3
_symmetry_space_group_name_H-M   'P 1'
_cell_length_a   5.04855926
_cell_length_b   6.58648810
_cell_length_c   6.59530920
_cell_angle_alpha   83.29669675
_cell_angle_beta   97.16685531
_cell_angle_gamma   97.16357037
_symmetry_Int_Tables_number   1
_chemical_formula_structural   Li7Mn2(CoO4)3
_chemical_formula_sum   'Li7 Mn2 Co3 O12'
_cell_volume   214.75395275
_cell_formula_units_Z   1
loop_
 _symmetry_equiv_pos_site_id
 _symmetry_equiv_pos_as_xyz
  1  'x, y, z'
loop_
 _atom_site_type_symbol
 _atom_site_label
 _atom_site_symmetry_multiplicity
 _atom_site_fract_x
 _atom_site_fract_y
 _atom_site_fract_z
 _atom_site_occupancy
  Li  Li0  1  0.75950576  0.25979205  0.25401830  1
  Li  Li1  1  0.74841028  0.57897920  0.92045168  1
  Li  Li2  1  0.25653004  0.08023843  0.41806276  1
  Li  Li3  1  0.24552769  0.42072044  0.08970243  1
  Li  Li4  1  0.75535093  0.91372809  0.57705861  1
  Li  Li5  1  0.23841163  0.74398634  0.74348573  1
  Li  Li6  1  0.00246695  0.66544682  0.33405156  1
  Mn  Mn7  1  0.99944265  0.99708562  0.00296498  1
  Mn  Mn8  1  0.49857556  0.82954231  0.17085810  1
  Co  Co9  1  -0.00091294  0.34052382  0.65466623  1
  Co  Co10  1  0.49594259  0.17686127  0.82548353  1
  Co  Co11  1  0.50746732  0.50566976  0.49605880  1
  O  O12  1  0.87814594  0.27141405  0.95001888  1
  O  O13  1  0.85699559  0.60741898  0.62689955  1
  O  O14  1  0.35804100  0.10330488  0.11590068  1
  O  O15  1  0.37507669  0.44567261  0.78927073  1
  O  O16  1  0.85582035  0.95534703  0.26574941  1
  O  O17  1  0.39006507  0.79080399  0.43951983  1
  O  O18  1  0.62826467  0.21404076  0.55031079  1
  O  O19  1  0.60841262  0.56032138  0.20818451  1
  O  O20  1  0.12551629  0.04490469  0.72944807  1
  O  O21  1  0.13818994  0.37141742  0.39706677  1
  O  O22  1  0.63774355  0.88985383  0.89558345  1
  O  O23  1  0.14100985  0.73292623  0.04518461  1
