# generated using pymatgen
data_Li9Co7O16
_symmetry_space_group_name_H-M   'P 1'
_cell_length_a   5.87287583
_cell_length_b   6.62174738
_cell_length_c   7.65027861
_cell_angle_alpha   89.77180368
_cell_angle_beta   100.53900995
_cell_angle_gamma   76.83230679
_symmetry_Int_Tables_number   1
_chemical_formula_structural   Li9Co7O16
_chemical_formula_sum   'Li9 Co7 O16'
_cell_volume   284.47628580
_cell_formula_units_Z   1
loop_
 _symmetry_equiv_pos_site_id
 _symmetry_equiv_pos_as_xyz
  1  'x, y, z'
loop_
 _atom_site_type_symbol
 _atom_site_label
 _atom_site_symmetry_multiplicity
 _atom_site_fract_x
 _atom_site_fract_y
 _atom_site_fract_z
 _atom_site_occupancy
  Li  Li0  1  0.12952068  0.38170748  0.88494111  1
  Li  Li1  1  0.50101800  0.99319423  0.00203547  1
  Li  Li2  1  0.75047572  0.75003467  0.74810927  1
  Li  Li3  1  0.37500340  0.12501932  0.62500880  1
  Li  Li4  1  -0.00049822  0.49999920  0.50192769  1
  Li  Li5  1  0.62056984  0.86821814  0.36503027  1
  Li  Li6  1  0.24897150  0.25677464  0.24795586  1
  Li  Li7  1  0.87495167  0.62500053  0.12496448  1
  Li  Li8  1  0.37504377  0.62500704  0.12504227  1
  Co  Co9  1  0.00640558  0.99544785  0.00059699  1
  Co  Co10  1  0.49485875  0.50187623  0.49781167  1
  Co  Co11  1  0.74350084  0.25455828  0.24938867  1
  Co  Co12  1  0.12652212  0.86855597  0.36840754  1
  Co  Co13  1  0.87500169  0.12495460  0.62497601  1
  Co  Co14  1  0.25508774  0.74817232  0.75220068  1
  Co  Co15  1  0.62352052  0.38151035  0.88150645  1
  O  O16  1  0.19082623  0.03770150  0.80635856  1
  O  O17  1  0.53898967  0.68613434  0.91774252  1
  O  O18  1  0.78214501  0.43259929  0.68060833  1
  O  O19  1  0.42842351  0.79000362  0.56458897  1
  O  O20  1  0.03879448  0.18221699  0.43781284  1
  O  O21  1  0.67376246  0.54944960  0.33099325  1
  O  O22  1  0.28873462  0.94033044  0.19061817  1
  O  O23  1  0.93012804  0.31122411  0.05915177  1
  O  O24  1  0.07629649  0.70062276  0.91915070  1
  O  O25  1  0.46146008  0.30960528  0.05947538  1
  O  O26  1  0.71106079  0.06790540  0.81208917  1
  O  O27  1  0.32152129  0.46002704  0.68545458  1
  O  O28  1  0.96783417  0.81740628  0.56942802  1
  O  O29  1  0.55916491  0.21236961  0.44362251  1
  O  O30  1  0.21097626  0.56389551  0.33229688  1
  O  O31  1  0.81993338  0.93848540  0.19071211  1
