# generated using pymatgen
data_Li9Co7O16
_symmetry_space_group_name_H-M   'P 1'
_cell_length_a   5.02808821
_cell_length_b   9.75781927
_cell_length_c   5.71913561
_cell_angle_alpha   90.00000000
_cell_angle_beta   90.00000000
_cell_angle_gamma   99.42650700
_symmetry_Int_Tables_number   1
_chemical_formula_structural   Li9Co7O16
_chemical_formula_sum   'Li9 Co7 O16'
_cell_volume   276.80988781
_cell_formula_units_Z   1
loop_
 _symmetry_equiv_pos_site_id
 _symmetry_equiv_pos_as_xyz
  1  'x, y, z'
loop_
 _atom_site_type_symbol
 _atom_site_label
 _atom_site_symmetry_multiplicity
 _atom_site_fract_x
 _atom_site_fract_y
 _atom_site_fract_z
 _atom_site_occupancy
  Li  Li0  1  0.24827295  0.24679271  0.25287178  1
  Li  Li1  1  0.75172705  0.75320729  0.25287178  1
  Li  Li2  1  0.75453163  0.24618116  0.50000000  1
  Li  Li3  1  0.24546837  0.75381884  0.50000000  1
  Li  Li4  1  0.24827295  0.24679271  0.74712822  1
  Li  Li5  1  0.75172705  0.75320729  0.74712822  1
  Li  Li6  1  0.75262307  0.24829592  -0.00000000  1
  Li  Li7  1  0.24737693  0.75170408  -0.00000000  1
  Li  Li8  1  -0.00000000  0.00000000  0.50000000  1
  Co  Co9  1  -0.00000000  0.00000000  -0.00000000  1
  Co  Co10  1  0.50000000  0.00000000  0.74689586  1
  Co  Co11  1  0.50000000  0.50000000  -0.00000000  1
  Co  Co12  1  0.50000000  0.00000000  0.25310414  1
  Co  Co13  1  -0.00000000  0.50000000  0.24952275  1
  Co  Co14  1  0.50000000  0.50000000  0.50000000  1
  Co  Co15  1  -0.00000000  0.50000000  0.75047725  1
  O  O16  1  0.85539711  0.10507594  0.22915738  1
  O  O17  1  0.37428755  0.61965727  0.25018521  1
  O  O18  1  0.40112853  0.10785473  0.50000000  1
  O  O19  1  0.87469548  0.62140767  0.50000000  1
  O  O20  1  0.85539711  0.10507594  0.77084262  1
  O  O21  1  0.37428755  0.61965727  0.74981479  1
  O  O22  1  0.36381450  0.10467469  -0.00000000  1
  O  O23  1  0.87360708  0.61983126  -0.00000000  1
  O  O24  1  0.62571245  0.38034273  0.25018521  1
  O  O25  1  0.14460289  0.89492406  0.22915738  1
  O  O26  1  0.12530452  0.37859233  0.50000000  1
  O  O27  1  0.59887147  0.89214527  0.50000000  1
  O  O28  1  0.62571245  0.38034273  0.74981479  1
  O  O29  1  0.14460289  0.89492406  0.77084262  1
  O  O30  1  0.12639292  0.38016874  -0.00000000  1
  O  O31  1  0.63618550  0.89532531  -0.00000000  1
