# generated using pymatgen
data_Li9Mn2Co5O16
_symmetry_space_group_name_H-M   'P 1'
_cell_length_a   5.88209531
_cell_length_b   8.09386603
_cell_length_c   6.44263752
_cell_angle_alpha   88.83798718
_cell_angle_beta   114.35361193
_cell_angle_gamma   90.73112298
_symmetry_Int_Tables_number   1
_chemical_formula_structural   Li9Mn2Co5O16
_chemical_formula_sum   'Li9 Mn2 Co5 O16'
_cell_volume   279.37288609
_cell_formula_units_Z   1
loop_
 _symmetry_equiv_pos_site_id
 _symmetry_equiv_pos_as_xyz
  1  'x, y, z'
loop_
 _atom_site_type_symbol
 _atom_site_label
 _atom_site_symmetry_multiplicity
 _atom_site_fract_x
 _atom_site_fract_y
 _atom_site_fract_z
 _atom_site_occupancy
  Li  Li0  1  0.24996709  0.00589994  0.50416135  1
  Li  Li1  1  0.87648285  0.24996638  0.25067204  1
  Li  Li2  1  0.62500000  0.75000000  0.75000000  1
  Li  Li3  1  0.00003291  0.49410006  0.99583865  1
  Li  Li4  1  0.37351715  0.25003362  0.24932796  1
  Li  Li5  1  0.75237259  0.00684347  0.50356937  1
  Li  Li6  1  0.12500000  0.75000000  0.75000000  1
  Li  Li7  1  0.49762741  0.49315653  0.99643063  1
  Li  Li8  1  0.62500000  0.25000000  0.75000000  1
  Mn  Mn9  1  0.99027945  0.00360405  0.99434595  1
  Mn  Mn10  1  0.25972055  0.49639595  0.50565405  1
  Co  Co11  1  0.87678188  0.75049278  0.25078040  1
  Co  Co12  1  0.49529727  0.00330456  0.99568184  1
  Co  Co13  1  0.12500000  0.25000000  0.75000000  1
  Co  Co14  1  0.75470273  0.49669544  0.50431816  1
  Co  Co15  1  0.37321812  0.74950722  0.24921960  1
  O  O16  1  0.88383469  0.99033659  0.24210519  1
  O  O17  1  0.47215230  0.23322273  0.98090647  1
  O  O18  1  0.25918218  0.74041772  0.48873327  1
  O  O19  1  0.60328881  0.50124201  0.71975428  1
  O  O20  1  0.00702878  0.23702610  0.99201436  1
  O  O21  1  0.35252057  0.98944149  0.22326880  1
  O  O22  1  0.75659324  0.73654040  0.48473924  1
  O  O23  1  0.14301357  0.49039409  0.74505692  1
  O  O24  1  0.64671119  0.99875799  0.78024572  1
  O  O25  1  0.24297122  0.26297390  0.50798564  1
  O  O26  1  0.99081782  0.75958228  0.01126673  1
  O  O27  1  0.36616431  0.50966341  0.25789481  1
  O  O28  1  0.77784770  0.26677727  0.51909353  1
  O  O29  1  0.10698743  0.00960591  0.75494308  1
  O  O30  1  0.49340576  0.76345960  0.01526076  1
  O  O31  1  0.89747943  0.51055851  0.27673120  1
