# generated using pymatgen
data_Li9Co7O16
_symmetry_space_group_name_H-M   'P 1'
_cell_length_a   5.84879164
_cell_length_b   7.74187990
_cell_length_c   7.74187946
_cell_angle_alpha   97.19875133
_cell_angle_beta   112.42962482
_cell_angle_gamma   112.42963418
_symmetry_Int_Tables_number   1
_chemical_formula_structural   Li9Co7O16
_chemical_formula_sum   'Li9 Co7 O16'
_cell_volume   284.07104383
_cell_formula_units_Z   1
loop_
 _symmetry_equiv_pos_site_id
 _symmetry_equiv_pos_as_xyz
  1  'x, y, z'
loop_
 _atom_site_type_symbol
 _atom_site_label
 _atom_site_symmetry_multiplicity
 _atom_site_fract_x
 _atom_site_fract_y
 _atom_site_fract_z
 _atom_site_occupancy
  Li  Li0  1  0.00194632  0.12742411  0.38036519  1
  Li  Li1  1  -0.00194632  0.61963481  0.87257589  1
  Li  Li2  1  0.50000000  0.25000000  0.75000000  1
  Li  Li3  1  0.50000000  0.75000000  0.25000000  1
  Li  Li4  1  -0.00194632  0.37257589  0.11963481  1
  Li  Li5  1  0.00194632  0.88036519  0.62742411  1
  Li  Li6  1  0.50000000  0.50148192  0.49851808  1
  Li  Li7  1  0.50000000  0.99851808  0.00148192  1
  Li  Li8  1  0.00000000  0.25000000  0.75000000  1
  Co  Co9  1  1.00000000  0.00179874  0.99820126  1
  Co  Co10  1  0.00000000  0.49820126  0.50179874  1
  Co  Co11  1  0.50597863  0.12855205  0.38177320  1
  Co  Co12  1  0.49402137  0.61822680  0.87144795  1
  Co  Co13  1  0.00000000  0.75000000  0.25000000  1
  Co  Co14  1  0.49402137  0.37144795  0.11822680  1
  Co  Co15  1  0.50597863  0.88177320  0.62855205  1
  O  O16  1  0.76814550  0.87453302  0.11472159  1
  O  O17  1  0.76121711  0.38092388  0.60622641  1
  O  O18  1  0.25309549  0.99854654  0.49854654  1
  O  O19  1  0.28250069  0.50720348  0.00720348  1
  O  O20  1  0.76121711  0.10622641  0.88092388  1
  O  O21  1  0.76814550  0.61472159  0.37453302  1
  O  O22  1  0.24332376  0.22875172  0.23331236  1
  O  O23  1  0.24332376  0.73331236  0.72875172  1
  O  O24  1  0.23878289  0.39377359  0.61907612  1
  O  O25  1  0.23185450  0.88527841  0.12546698  1
  O  O26  1  0.74690451  0.50145346  0.00145346  1
  O  O27  1  0.71749931  0.99279652  0.49279652  1
  O  O28  1  0.23185450  0.62546698  0.38527841  1
  O  O29  1  0.23878289  0.11907612  0.89377359  1
  O  O30  1  0.75667624  0.76668764  0.77124828  1
  O  O31  1  0.75667624  0.27124828  0.26668764  1
