# generated using pymatgen
data_Li9Co7O16
_symmetry_space_group_name_H-M   'P 1'
_cell_length_a   5.89229199
_cell_length_b   7.70697288
_cell_length_c   7.63640436
_cell_angle_alpha   114.56632429
_cell_angle_beta   111.28381382
_cell_angle_gamma   67.94429797
_symmetry_Int_Tables_number   1
_chemical_formula_structural   Li9Co7O16
_chemical_formula_sum   'Li9 Co7 O16'
_cell_volume   283.37128743
_cell_formula_units_Z   1
loop_
 _symmetry_equiv_pos_site_id
 _symmetry_equiv_pos_as_xyz
  1  'x, y, z'
loop_
 _atom_site_type_symbol
 _atom_site_label
 _atom_site_symmetry_multiplicity
 _atom_site_fract_x
 _atom_site_fract_y
 _atom_site_fract_z
 _atom_site_occupancy
  Li  Li0  1  0.37486528  0.12470316  0.37508006  1
  Li  Li1  1  0.24090010  0.25086983  0.74147411  1
  Li  Li2  1  0.62527812  0.87437897  0.62648330  1
  Li  Li3  1  0.50891258  -0.00067623  0.00836587  1
  Li  Li4  1  0.87517916  0.62474853  0.87491098  1
  Li  Li5  1  0.75446520  0.75363046  0.25624587  1
  Li  Li6  1  0.12464559  0.37613399  0.12367393  1
  Li  Li7  1  0.99547071  0.49650949  0.49368584  1
  Li  Li8  1  0.87530443  0.12505315  0.37531854  1
  Co  Co9  1  0.00010167  0.00461570  0.00367970  1
  Co  Co10  1  0.50399539  0.49415379  0.49813245  1
  Co  Co11  1  0.75044030  0.24531243  0.74616781  1
  Co  Co12  1  0.62960926  0.37294144  0.13222011  1
  Co  Co13  1  0.37449829  0.62505650  0.87565662  1
  Co  Co14  1  0.24553253  0.75569267  0.25253274  1
  Co  Co15  1  0.12017415  0.87725705  0.61652830  1
  O  O16  1  0.99255026  0.23207346  0.22445516  1
  O  O17  1  0.85196991  0.37083876  0.63465653  1
  O  O18  1  0.24879178  0.98480297  0.50285262  1
  O  O19  1  0.09262381  0.12263304  0.86919785  1
  O  O20  1  0.48975582  0.73578034  0.74486331  1
  O  O21  1  0.34892571  0.88123953  0.11469603  1
  O  O22  1  0.73689085  0.47874051  0.98354235  1
  O  O23  1  0.61483730  0.62392371  0.36914493  1
  O  O24  1  0.75726536  0.01805301  0.52569743  1
  O  O25  1  0.65761056  0.12697647  0.88144865  1
  O  O26  1  0.01325022  0.77133491  0.76680688  1
  O  O27  1  0.90030418  0.87801546  0.11645688  1
  O  O28  1  0.26060630  0.51165035  0.00230023  1
  O  O29  1  0.13127788  0.62808394  0.37948293  1
  O  O30  1  0.50178325  0.26716170  0.24963462  1
  O  O31  1  0.40218506  0.36830489  0.63460237  1
