# generated using pymatgen
data_MnWO4
_symmetry_space_group_name_H-M   'P 1'
_cell_length_a   6.22046319
_cell_length_b   6.22046275
_cell_length_c   6.22046293
_cell_angle_alpha   143.62926339
_cell_angle_beta   143.62925810
_cell_angle_gamma   52.38204633
_symmetry_Int_Tables_number   1
_chemical_formula_structural   MnWO4
_chemical_formula_sum   'Mn1 W1 O4'
_cell_volume   84.14829353
_cell_formula_units_Z   1
loop_
 _symmetry_equiv_pos_site_id
 _symmetry_equiv_pos_as_xyz
  1  'x, y, z'
loop_
 _atom_site_type_symbol
 _atom_site_label
 _atom_site_symmetry_multiplicity
 _atom_site_fract_x
 _atom_site_fract_y
 _atom_site_fract_z
 _atom_site_occupancy
  Mn  Mn0  1  0.00000000  -0.00000000  -0.00000000  1
  W  W1  1  0.75000000  0.25000000  0.50000000  1
  O  O2  1  0.57731481  0.07731481  0.50000000  1
  O  O3  1  0.23880073  0.23880073  0.00000000  1
  O  O4  1  0.92268519  0.42268519  0.50000000  1
  O  O5  1  0.76119927  0.76119927  1.00000000  1
