# generated using pymatgen
data_Na2BiBAsO7
_symmetry_space_group_name_H-M   'P 1'
_cell_length_a   9.66138606
_cell_length_b   7.24053259
_cell_length_c   5.53304871
_cell_angle_alpha   90.00000000
_cell_angle_beta   91.06781189
_cell_angle_gamma   90.00000000
_symmetry_Int_Tables_number   1
_chemical_formula_structural   Na2BiBAsO7
_chemical_formula_sum   'Na4 Bi2 B2 As2 O14'
_cell_volume   386.98935274
_cell_formula_units_Z   2
loop_
 _symmetry_equiv_pos_site_id
 _symmetry_equiv_pos_as_xyz
  1  'x, y, z'
loop_
 _atom_site_type_symbol
 _atom_site_label
 _atom_site_symmetry_multiplicity
 _atom_site_fract_x
 _atom_site_fract_y
 _atom_site_fract_z
 _atom_site_occupancy
  Na  Na0  1  0.20654875  0.50044378  0.23932534  1
  Na  Na1  1  0.20654875  0.99955622  0.23932534  1
  Na  Na2  1  0.79345125  0.49955622  0.76067466  1
  Na  Na3  1  0.79345125  0.00044378  0.76067466  1
  Bi  Bi4  1  0.36230311  0.75000000  0.78837718  1
  Bi  Bi5  1  0.63769689  0.25000000  0.21162282  1
  B  B6  1  0.08250014  0.75000000  0.74049303  1
  B  B7  1  0.91749986  0.25000000  0.25950697  1
  As  As8  1  0.40223999  0.25000000  0.72885364  1
  As  As9  1  0.59776001  0.75000000  0.27114636  1
  O  O10  1  0.05725343  0.25000000  0.29169692  1
  O  O11  1  0.15349074  0.75000000  0.95962894  1
  O  O12  1  0.16018701  0.75000000  0.53042876  1
  O  O13  1  0.32376537  0.06105971  0.85524655  1
  O  O14  1  0.32376537  0.43894029  0.85524655  1
  O  O15  1  0.42067542  0.75000000  0.19101608  1
  O  O16  1  0.39039041  0.25000000  0.42046611  1
  O  O17  1  0.60960959  0.75000000  0.57953389  1
  O  O18  1  0.57932458  0.25000000  0.80898392  1
  O  O19  1  0.67623463  0.56105971  0.14475345  1
  O  O20  1  0.67623463  0.93894029  0.14475345  1
  O  O21  1  0.83981299  0.25000000  0.46957124  1
  O  O22  1  0.84650926  0.25000000  0.04037106  1
  O  O23  1  0.94274657  0.75000000  0.70830308  1
