# generated using pymatgen
data_Mn3Fe2Co3O16
_symmetry_space_group_name_H-M   'P 1'
_cell_length_a   5.69945953
_cell_length_b   5.71816765
_cell_length_c   9.08084639
_cell_angle_alpha   90.03790595
_cell_angle_beta   91.16929329
_cell_angle_gamma   120.10239976
_symmetry_Int_Tables_number   1
_chemical_formula_structural   Mn3Fe2Co3O16
_chemical_formula_sum   'Mn3 Fe2 Co3 O16'
_cell_volume   255.96085862
_cell_formula_units_Z   1
loop_
 _symmetry_equiv_pos_site_id
 _symmetry_equiv_pos_as_xyz
  1  'x, y, z'
loop_
 _atom_site_type_symbol
 _atom_site_label
 _atom_site_symmetry_multiplicity
 _atom_site_fract_x
 _atom_site_fract_y
 _atom_site_fract_z
 _atom_site_occupancy
  Mn  Mn0  1  0.66397178  0.83326995  0.21496196  1
  Mn  Mn1  1  0.83444756  0.66425858  0.71291474  1
  Mn  Mn2  1  0.83405547  0.16842187  0.71339173  1
  Fe  Fe3  1  0.33317862  0.66620805  0.49097211  1
  Fe  Fe4  1  0.66658477  0.33429365  0.99345855  1
  Co  Co5  1  0.16816217  0.83482771  0.20972533  1
  Co  Co6  1  0.16776559  0.33394541  0.20905897  1
  Co  Co7  1  0.33281625  0.16563978  0.70808113  1
  O  O8  1  0.16568722  0.84167476  0.60336453  1
  O  O9  1  0.04400044  0.52160414  0.32900087  1
  O  O10  1  0.32952141  0.66524236  0.10366767  1
  O  O11  1  0.00749163  0.00465086  0.31741223  1
  O  O12  1  0.00539443  0.00215441  0.81820993  1
  O  O13  1  0.16577954  0.32162127  0.60388789  1
  O  O14  1  0.47719147  0.96321315  0.33415127  1
  O  O15  1  0.47687756  0.51638832  0.33395264  1
  O  O16  1  0.31980261  0.15984834  0.10855484  1
  O  O17  1  0.67256235  0.83555762  0.59835734  1
  O  O18  1  0.51309050  0.47301327  0.83222572  1
  O  O19  1  0.51344985  0.04000376  0.83231493  1
  O  O20  1  0.66363881  0.33091588  0.60309850  1
  O  O21  1  0.84020118  0.67543244  0.10405336  1
  O  O22  1  0.96476710  0.48184257  0.83714863  1
  O  O23  1  0.83956369  0.16617182  0.10375615  1
