# generated using pymatgen
data_Li9Mn2Co5O16
_symmetry_space_group_name_H-M   'P 1'
_cell_length_a   4.97569480
_cell_length_b   5.87940849
_cell_length_c   10.23974384
_cell_angle_alpha   106.16454331
_cell_angle_beta   79.77317260
_cell_angle_gamma   89.63460478
_symmetry_Int_Tables_number   1
_chemical_formula_structural   Li9Mn2Co5O16
_chemical_formula_sum   'Li9 Mn2 Co5 O16'
_cell_volume   282.64744408
_cell_formula_units_Z   1
loop_
 _symmetry_equiv_pos_site_id
 _symmetry_equiv_pos_as_xyz
  1  'x, y, z'
loop_
 _atom_site_type_symbol
 _atom_site_label
 _atom_site_symmetry_multiplicity
 _atom_site_fract_x
 _atom_site_fract_y
 _atom_site_fract_z
 _atom_site_occupancy
  Li  Li0  1  0.24494037  0.12496921  0.24815702  1
  Li  Li1  1  0.24639702  0.61946874  0.75340720  1
  Li  Li2  1  0.75312001  0.38169740  0.24446187  1
  Li  Li3  1  0.75287138  0.88072090  0.75157422  1
  Li  Li4  1  0.24279413  0.62238183  0.24717754  1
  Li  Li5  1  0.24454018  0.13201145  0.75293364  1
  Li  Li6  1  0.75573324  0.86536425  0.24809138  1
  Li  Li7  1  0.75831006  0.37386973  0.75371510  1
  Li  Li8  1  0.00103067  0.49631836  0.00026845  1
  Mn  Mn9  1  -0.00023113  0.00595707  0.00022673  1
  Mn  Mn10  1  0.50077671  0.74009852  0.99980906  1
  Co  Co11  1  0.00000545  0.50003425  0.49992415  1
  Co  Co12  1  0.49983910  0.25199267  0.00017916  1
  Co  Co13  1  0.50413678  0.74949664  0.49725417  1
  Co  Co14  1  0.99968794  0.00026425  0.50017361  1
  Co  Co15  1  0.49563329  0.25048505  0.50270425  1
  O  O16  1  0.13672244  0.82108561  0.11074847  1
  O  O17  1  0.14283184  0.31933439  0.62266273  1
  O  O18  1  0.63129698  0.05266958  0.10893652  1
  O  O19  1  0.63989917  0.56032039  0.61603637  1
  O  O20  1  0.13185238  0.28875847  0.11096547  1
  O  O21  1  0.13242417  0.81714292  0.61071245  1
  O  O22  1  0.60076320  0.55509078  0.11076089  1
  O  O23  1  0.64152065  0.05559378  0.61429712  1
  O  O24  1  0.36004058  0.44010764  0.38339910  1
  O  O25  1  0.36996765  0.94726511  0.89134547  1
  O  O26  1  0.85780260  0.68120464  0.37741778  1
  O  O27  1  0.86737668  0.17967216  0.88862156  1
  O  O28  1  0.35763467  0.94450948  0.38629885  1
  O  O29  1  0.39904532  0.44730423  0.88899474  1
  O  O30  1  0.86685108  0.18262954  0.38939551  1
  O  O31  1  0.86438542  0.71218095  0.88934936  1
