# generated using pymatgen
data_Li9Co7O16
_symmetry_space_group_name_H-M   'P 1'
_cell_length_a   5.72772973
_cell_length_b   9.71999248
_cell_length_c   5.79275333
_cell_angle_alpha   88.61062545
_cell_angle_beta   60.47655410
_cell_angle_gamma   98.25389167
_symmetry_Int_Tables_number   1
_chemical_formula_structural   Li9Co7O16
_chemical_formula_sum   'Li9 Co7 O16'
_cell_volume   276.02551555
_cell_formula_units_Z   1
loop_
 _symmetry_equiv_pos_site_id
 _symmetry_equiv_pos_as_xyz
  1  'x, y, z'
loop_
 _atom_site_type_symbol
 _atom_site_label
 _atom_site_symmetry_multiplicity
 _atom_site_fract_x
 _atom_site_fract_y
 _atom_site_fract_z
 _atom_site_occupancy
  Li  Li0  1  0.74574054  0.24917712  0.13304149  1
  Li  Li1  1  0.74395781  0.74774981  0.37631065  1
  Li  Li2  1  0.74575153  0.24878153  0.62135354  1
  Li  Li3  1  0.25604219  0.25225019  0.62368935  1
  Li  Li4  1  0.25425946  0.75082288  0.86695851  1
  Li  Li5  1  0.25171475  0.24922583  0.12473663  1
  Li  Li6  1  0.74828525  0.75077417  0.87526337  1
  Li  Li7  1  0.25424847  0.75121847  0.37864646  1
  Li  Li8  1  0.50000000  0.00000000  0.50000000  1
  Co  Co9  1  -0.00000000  0.00000000  0.00000000  1
  Co  Co10  1  -0.00000000  0.00000000  0.50000000  1
  Co  Co11  1  0.00045132  0.49991422  0.24981616  1
  Co  Co12  1  -0.00045132  0.50008578  0.75018384  1
  Co  Co13  1  0.49979515  0.49991561  0.75061334  1
  Co  Co14  1  0.50000000  0.00000000  0.00000000  1
  Co  Co15  1  0.50020485  0.50008439  0.24938666  1
  O  O16  1  0.86730119  0.10975895  0.80304416  1
  O  O17  1  0.86053022  0.61600567  0.06927357  1
  O  O18  1  0.88897052  0.11080068  0.31787764  1
  O  O19  1  0.36236694  0.10483388  0.29632034  1
  O  O20  1  0.37718819  0.62123685  0.57929422  1
  O  O21  1  0.35340402  0.10455204  0.84011679  1
  O  O22  1  0.85812452  0.61496656  0.56877265  1
  O  O23  1  0.37590256  0.61978855  0.08036824  1
  O  O24  1  0.62281181  0.37876315  0.42070578  1
  O  O25  1  0.63763306  0.89516612  0.70367966  1
  O  O26  1  0.62409744  0.38021145  0.91963176  1
  O  O27  1  0.13946978  0.38399433  0.93072643  1
  O  O28  1  0.13269881  0.89024105  0.19695584  1
  O  O29  1  0.14187548  0.38503344  0.43122735  1
  O  O30  1  0.64659598  0.89544796  0.15988321  1
  O  O31  1  0.11102948  0.88919932  0.68212236  1
