# generated using pymatgen
data_Mn5VO12
_symmetry_space_group_name_H-M   'P 1'
_cell_length_a   5.05665478
_cell_length_b   5.10128669
_cell_length_c   9.50076253
_cell_angle_alpha   90.07246244
_cell_angle_beta   90.14618787
_cell_angle_gamma   60.28899703
_symmetry_Int_Tables_number   1
_chemical_formula_structural   Mn5VO12
_chemical_formula_sum   'Mn5 V1 O12'
_cell_volume   212.85707335
_cell_formula_units_Z   1
loop_
 _symmetry_equiv_pos_site_id
 _symmetry_equiv_pos_as_xyz
  1  'x, y, z'
loop_
 _atom_site_type_symbol
 _atom_site_label
 _atom_site_symmetry_multiplicity
 _atom_site_fract_x
 _atom_site_fract_y
 _atom_site_fract_z
 _atom_site_occupancy
  Mn  Mn0  1  0.16670571  0.66658757  0.50000000  1
  Mn  Mn1  1  0.66770331  0.66459338  1.00000000  1
  Mn  Mn2  1  0.33229669  0.33540662  0.00000000  1
  Mn  Mn3  1  0.83329429  0.33341243  0.50000000  1
  Mn  Mn4  1  0.50000000  0.00000000  0.50000000  1
  V  V5  1  0.00000000  0.00000000  0.00000000  1
  O  O6  1  0.00506258  0.65834514  0.10203650  1
  O  O7  1  0.33659128  0.65834514  0.89796350  1
  O  O8  1  0.16677815  0.33321521  0.39954034  1
  O  O9  1  0.49999336  0.66678479  0.39954034  1
  O  O10  1  0.50000664  0.33321521  0.60045966  1
  O  O11  1  0.16649416  1.00000000  0.60065040  1
  O  O12  1  0.83322185  0.66678479  0.60045966  1
  O  O13  1  0.66340872  0.34165386  0.10203650  1
  O  O14  1  0.32909124  1.00000000  0.10008637  1
  O  O15  1  0.99493742  0.34165386  0.89796350  1
  O  O16  1  0.67090876  0.00000000  0.89991363  1
  O  O17  1  0.83350584  0.00000000  0.39934960  1
