# generated using pymatgen
data_Yb2PrDyS6
_symmetry_space_group_name_H-M   'P 1'
_cell_length_a   4.13495102
_cell_length_b   10.95720118
_cell_length_c   11.48754520
_cell_angle_alpha   104.84822547
_cell_angle_beta   90.00000000
_cell_angle_gamma   90.00000000
_symmetry_Int_Tables_number   1
_chemical_formula_structural   Yb2PrDyS6
_chemical_formula_sum   'Yb4 Pr2 Dy2 S12'
_cell_volume   503.09226641
_cell_formula_units_Z   2
loop_
 _symmetry_equiv_pos_site_id
 _symmetry_equiv_pos_as_xyz
  1  'x, y, z'
loop_
 _atom_site_type_symbol
 _atom_site_label
 _atom_site_symmetry_multiplicity
 _atom_site_fract_x
 _atom_site_fract_y
 _atom_site_fract_z
 _atom_site_occupancy
  Yb  Yb0  1  0.25000000  0.67322346  0.58554081  1
  Yb  Yb1  1  0.25000000  0.94985229  0.35019872  1
  Yb  Yb2  1  0.75000000  0.05014771  0.64980128  1
  Yb  Yb3  1  0.75000000  0.32677654  0.41445919  1
  Pr  Pr4  1  0.25000000  0.52772874  0.18006081  1
  Pr  Pr5  1  0.75000000  0.47227126  0.81993919  1
  Dy  Dy6  1  0.75000000  0.83072123  0.96632104  1
  Dy  Dy7  1  0.25000000  0.16927877  0.03367896  1
  S  S8  1  0.25000000  0.62870843  0.96644466  1
  S  S9  1  0.75000000  0.59798134  0.38115154  1
  S  S10  1  0.75000000  0.37129157  0.03355534  1
  S  S11  1  0.25000000  0.40201866  0.61884846  1
  S  S12  1  0.75000000  0.09921047  0.43108545  1
  S  S13  1  0.75000000  0.69722813  0.73959990  1
  S  S14  1  0.25000000  0.94817897  0.10248074  1
  S  S15  1  0.75000000  0.05182103  0.89751926  1
  S  S16  1  0.25000000  0.30277187  0.26040010  1
  S  S17  1  0.75000000  0.72469102  0.26938563  1
  S  S18  1  0.25000000  0.90078953  0.56891455  1
  S  S19  1  0.25000000  0.27530898  0.73061437  1
