# generated using pymatgen
data_LiV3OF11
_symmetry_space_group_name_H-M   'P 1'
_cell_length_a   5.30443710
_cell_length_b   5.47413996
_cell_length_c   15.65686896
_cell_angle_alpha   80.63646102
_cell_angle_beta   90.07971459
_cell_angle_gamma   90.16427355
_symmetry_Int_Tables_number   1
_chemical_formula_structural   LiV3OF11
_chemical_formula_sum   'Li2 V6 O2 F22'
_cell_volume   448.57251582
_cell_formula_units_Z   2
loop_
 _symmetry_equiv_pos_site_id
 _symmetry_equiv_pos_as_xyz
  1  'x, y, z'
loop_
 _atom_site_type_symbol
 _atom_site_label
 _atom_site_symmetry_multiplicity
 _atom_site_fract_x
 _atom_site_fract_y
 _atom_site_fract_z
 _atom_site_occupancy
  Li  Li0  1  0.22302522  0.53071423  0.51055152  1
  Li  Li1  1  0.33441497  0.13312435  0.16932351  1
  V  V2  1  0.99864645  0.99661811  0.00423956  1
  V  V3  1  0.99261415  0.67228214  0.67463372  1
  V  V4  1  0.50637501  0.83279703  0.33501419  1
  V  V5  1  0.49883611  0.50397712  0.99289561  1
  V  V6  1  0.47409096  0.20022307  0.66900716  1
  V  V7  1  0.99655910  0.33539425  0.33112404  1
  O  O8  1  0.08811966  0.97700760  0.10679604  1
  O  O9  1  0.28505480  0.45468667  0.64707901  1
  F  F10  1  0.20635501  0.96879198  0.64731953  1
  F  F11  1  0.29801592  0.79815974  0.97458573  1
  F  F12  1  0.71009726  0.86670100  0.68757382  1
  F  F13  1  0.41218847  0.78186470  0.45346380  1
  F  F14  1  0.09057054  0.61968479  0.78257012  1
  F  F15  1  0.57094953  0.88917755  0.21584309  1
  F  F16  1  0.93842126  0.69182033  0.55837410  1
  F  F17  1  0.58716426  0.53744128  0.88324452  1
  F  F18  1  0.19356328  0.63774160  0.31350317  1
  F  F19  1  0.20764809  0.31213559  0.97247823  1
  F  F20  1  0.78832650  0.69195349  0.02155493  1
  F  F21  1  0.70601536  0.51178809  0.35795490  1
  F  F22  1  0.78005692  0.37149255  0.69203204  1
  F  F23  1  0.41376795  0.45294880  0.10848504  1
  F  F24  1  0.09654486  0.29499581  0.44474879  1
  F  F25  1  0.43034601  0.10419490  0.78034425  1
  F  F26  1  0.91744068  0.36939842  0.22017769  1
  F  F27  1  0.92275495  0.04704595  0.88746939  1
  F  F28  1  0.57781586  0.20302623  0.55965564  1
  F  F29  1  0.29365623  0.15154934  0.30350055  1
  F  F30  1  0.69322203  0.20064929  0.02091419  1
  F  F31  1  0.81022359  0.02729702  0.35797010  1
