# generated using pymatgen
data_MnV3Cr2(PO4)6
_symmetry_space_group_name_H-M   'P 1'
_cell_length_a   8.54489692
_cell_length_b   8.65838643
_cell_length_c   8.65838674
_cell_angle_alpha   60.00000340
_cell_angle_beta   59.55967265
_cell_angle_gamma   59.55966597
_symmetry_Int_Tables_number   1
_chemical_formula_structural   MnV3Cr2(PO4)6
_chemical_formula_sum   'Mn1 V3 Cr2 P6 O24'
_cell_volume   449.92798252
_cell_formula_units_Z   1
loop_
 _symmetry_equiv_pos_site_id
 _symmetry_equiv_pos_as_xyz
  1  'x, y, z'
loop_
 _atom_site_type_symbol
 _atom_site_label
 _atom_site_symmetry_multiplicity
 _atom_site_fract_x
 _atom_site_fract_y
 _atom_site_fract_z
 _atom_site_occupancy
  Mn  Mn0  1  0.55626142  0.14791253  0.14791253  1
  V  V1  1  0.06336177  0.64554608  0.64554608  1
  V  V2  1  0.43226991  0.85591003  0.85591003  1
  V  V3  1  0.93252914  0.35582362  0.35582362  1
  Cr  Cr4  1  0.99767346  0.00077551  0.00077551  1
  Cr  Cr5  1  0.49578616  0.50140461  0.50140461  1
  P  P6  1  0.24517283  0.24945662  0.55244240  1
  P  P7  1  0.24517283  0.95292815  0.24945662  1
  P  P8  1  0.24517283  0.55244240  0.95292815  1
  P  P9  1  0.75618351  0.45395531  0.04337268  1
  P  P10  1  0.75618351  0.04337268  0.74648850  1
  P  P11  1  0.75618351  0.74648850  0.45395531  1
  O  O12  1  0.06603552  0.11616761  0.31256701  1
  O  O13  1  0.06603552  0.50522987  0.11616761  1
  O  O14  1  0.06603552  0.31256701  0.50522987  1
  O  O15  1  0.21265249  0.09378002  0.75529325  1
  O  O16  1  0.43336207  0.18280769  0.40726758  1
  O  O17  1  0.25763394  0.41306327  0.57467946  1
  O  O18  1  0.21265249  0.93827324  0.09378002  1
  O  O19  1  0.25763394  0.75462333  0.41306327  1
  O  O20  1  0.57224754  0.60827659  0.00546919  1
  O  O21  1  0.25763394  0.57467946  0.75462333  1
  O  O22  1  0.79619961  0.25538964  0.04870468  1
  O  O23  1  0.57224754  0.00546919  0.81400768  1
  O  O24  1  0.43336207  0.97656267  0.18280769  1
  O  O25  1  0.21265249  0.75529325  0.93827324  1
  O  O26  1  0.73333375  0.43861025  0.24256114  1
  O  O27  1  0.43336207  0.40726758  0.97656267  1
  O  O28  1  0.73333375  0.24256114  0.58549486  1
  O  O29  1  0.79619961  0.04870468  0.89970507  1
  O  O30  1  0.73333375  0.58549486  0.43861025  1
  O  O31  1  0.57224754  0.81400768  0.60827659  1
  O  O32  1  0.79619961  0.89970507  0.25538964  1
  O  O33  1  0.93455012  0.66710163  0.50929080  1
  O  O34  1  0.93455012  0.50929080  0.88905745  1
  O  O35  1  0.93455012  0.88905745  0.66710163  1
