# generated using pymatgen
data_Li4V3Cu3(WO8)2
_symmetry_space_group_name_H-M   'P 1'
_cell_length_a   5.96266771
_cell_length_b   5.91582988
_cell_length_c   9.94760064
_cell_angle_alpha   90.05486761
_cell_angle_beta   87.73685147
_cell_angle_gamma   119.60786284
_symmetry_Int_Tables_number   1
_chemical_formula_structural   Li4V3Cu3(WO8)2
_chemical_formula_sum   'Li4 V3 Cu3 W2 O16'
_cell_volume   304.76836324
_cell_formula_units_Z   1
loop_
 _symmetry_equiv_pos_site_id
 _symmetry_equiv_pos_as_xyz
  1  'x, y, z'
loop_
 _atom_site_type_symbol
 _atom_site_label
 _atom_site_symmetry_multiplicity
 _atom_site_fract_x
 _atom_site_fract_y
 _atom_site_fract_z
 _atom_site_occupancy
  Li  Li0  1  0.33350785  0.66629737  0.91094110  1
  Li  Li1  1  0.98957225  0.99588088  0.98917994  1
  Li  Li2  1  0.99472506  0.99723614  0.47878479  1
  Li  Li3  1  0.68743415  0.34211585  0.40986992  1
  V  V4  1  0.65108272  0.82598438  0.22749454  1
  V  V5  1  0.82126017  0.65808345  0.71596412  1
  V  V6  1  0.81567956  0.16345413  0.71987244  1
  Cu  Cu7  1  0.16320074  0.81995462  0.20734455  1
  Cu  Cu8  1  0.16237223  0.34238994  0.20700055  1
  Cu  Cu9  1  0.33846647  0.16942678  0.70802356  1
  W  W10  1  0.33042393  0.66485344  0.48887422  1
  W  W11  1  0.65610680  0.33001417  0.98968946  1
  O  O12  1  0.15540053  0.81941169  0.58485393  1
  O  O13  1  0.06151280  0.53117563  0.35836663  1
  O  O14  1  0.36295261  0.68065935  0.11902611  1
  O  O15  1  0.99000504  0.99515305  0.28606497  1
  O  O16  1  0.99406105  0.01034569  0.79825919  1
  O  O17  1  0.15841269  0.33833571  0.58420995  1
  O  O18  1  0.52229716  0.97476137  0.36341820  1
  O  O19  1  0.52415141  0.54825368  0.36460043  1
  O  O20  1  0.32654082  0.16195122  0.07128511  1
  O  O21  1  0.64879317  0.83092523  0.60227647  1
  O  O22  1  0.53640531  0.49830693  0.85097116  1
  O  O23  1  0.53324289  0.03488727  0.84897592  1
  O  O24  1  0.68557820  0.33037542  0.61155339  1
  O  O25  1  0.80034808  0.64350460  0.08478406  1
  O  O26  1  0.95912068  0.47128128  0.84251342  1
  O  O27  1  0.79734363  0.15528072  0.08364088  1
