# generated using pymatgen
data_Li8Fe7O15
_symmetry_space_group_name_H-M   'P 1'
_cell_length_a   3.00730031
_cell_length_b   10.81984703
_cell_length_c   8.54654427
_cell_angle_alpha   79.93737959
_cell_angle_beta   90.00000000
_cell_angle_gamma   82.01166540
_symmetry_Int_Tables_number   1
_chemical_formula_structural   Li8Fe7O15
_chemical_formula_sum   'Li8 Fe7 O15'
_cell_volume   271.07311824
_cell_formula_units_Z   1
loop_
 _symmetry_equiv_pos_site_id
 _symmetry_equiv_pos_as_xyz
  1  'x, y, z'
loop_
 _atom_site_type_symbol
 _atom_site_label
 _atom_site_symmetry_multiplicity
 _atom_site_fract_x
 _atom_site_fract_y
 _atom_site_fract_z
 _atom_site_occupancy
  Li  Li0  1  0.86732902  0.26534296  0.06149778  1
  Li  Li1  1  0.99998590  0.00002720  0.99919190  1
  Li  Li2  1  0.06668010  0.86663880  0.46747510  1
  Li  Li3  1  0.19933798  0.60132404  0.40516922  1
  Li  Li4  1  0.93429515  0.13140869  0.53659861  1
  Li  Li5  1  0.79849916  0.40300169  0.60429776  1
  Li  Li6  1  0.13237085  0.73525731  0.93006839  1
  Li  Li7  1  0.26816784  0.46366431  0.86236824  1
  Fe  Fe8  1  0.60034150  0.79931599  0.19911147  1
  Fe  Fe9  1  0.73310705  0.53378490  0.11835944  1
  Fe  Fe10  1  0.33355895  0.33288110  0.34830756  1
  Fe  Fe11  1  0.46632450  0.06735101  0.26755553  1
  Fe  Fe12  1  0.66984888  0.66030224  0.66181297  1
  Fe  Fe13  1  0.53333300  0.93333300  0.73333300  1
  Fe  Fe14  1  0.39681812  0.20636476  0.80485403  1
  O  O15  1  0.16577606  0.66844788  0.16704838  1
  O  O16  1  0.29576212  0.40847475  0.10925716  1
  O  O17  1  0.03333300  0.93333300  0.23333300  1
  O  O18  1  0.43410341  0.13179217  0.03869800  1
  O  O19  1  0.90089094  0.19821812  0.29961862  1
  O  O20  1  0.63256259  0.73487383  0.42796900  1
  O  O21  1  0.77090388  0.45819125  0.35740984  1
  O  O22  1  0.09789422  0.80421156  0.69971081  1
  O  O23  1  0.22655358  0.54689385  0.63518999  1
  O  O24  1  0.36703269  0.26593462  0.56962698  1
  O  O25  1  0.49954671  0.00090558  0.49782449  1
  O  O26  1  0.56711929  0.86576142  0.96884151  1
  O  O27  1  0.96877178  0.06245544  0.76695619  1
  O  O28  1  0.69963431  0.60073238  0.89704002  1
  O  O29  1  0.84011342  0.31977315  0.83147601  1
