# generated using pymatgen
data_LiMnPO4
_symmetry_space_group_name_H-M   'P 1'
_cell_length_a   4.99862832
_cell_length_b   5.51513883
_cell_length_c   6.69676216
_cell_angle_alpha   77.22540090
_cell_angle_beta   90.00000000
_cell_angle_gamma   63.05253159
_symmetry_Int_Tables_number   1
_chemical_formula_structural   LiMnPO4
_chemical_formula_sum   'Li2 Mn2 P2 O8'
_cell_volume   159.42863620
_cell_formula_units_Z   2
loop_
 _symmetry_equiv_pos_site_id
 _symmetry_equiv_pos_as_xyz
  1  'x, y, z'
loop_
 _atom_site_type_symbol
 _atom_site_label
 _atom_site_symmetry_multiplicity
 _atom_site_fract_x
 _atom_site_fract_y
 _atom_site_fract_z
 _atom_site_occupancy
  Li  Li0  1  0.94017629  0.00000000  0.50000000  1
  Li  Li1  1  0.97014507  0.00000000  0.00000000  1
  Mn  Mn2  1  0.64773633  0.71337470  0.72607493  1
  Mn  Mn3  1  0.36111103  0.28662530  0.27392507  1
  P  P4  1  0.68697401  0.64585160  0.22864099  1
  P  P5  1  0.33282561  0.35414840  0.77135901  1
  O  O6  1  0.24927859  0.67036833  0.67711419  1
  O  O7  1  0.69815893  0.82907203  0.37603825  1
  O  O8  1  0.79135769  0.72945488  0.02017097  1
  O  O9  1  0.35954636  0.68727827  0.20746162  1
  O  O10  1  0.04682463  0.31272173  0.79253838  1
  O  O11  1  0.52081257  0.27054512  0.97982903  1
  O  O12  1  0.52723096  0.17092797  0.62396175  1
  O  O13  1  0.91964792  0.32963167  0.32288581  1
