# generated using pymatgen
data_Ca(ClO2)2
_symmetry_space_group_name_H-M   'P 1'
_cell_length_a   5.78997627
_cell_length_b   5.81381293
_cell_length_c   7.17893201
_cell_angle_alpha   113.88623533
_cell_angle_beta   90.00000000
_cell_angle_gamma   90.00000000
_symmetry_Int_Tables_number   1
_chemical_formula_structural   Ca(ClO2)2
_chemical_formula_sum   'Ca2 Cl4 O8'
_cell_volume   220.95851622
_cell_formula_units_Z   2
loop_
 _symmetry_equiv_pos_site_id
 _symmetry_equiv_pos_as_xyz
  1  'x, y, z'
loop_
 _atom_site_type_symbol
 _atom_site_label
 _atom_site_symmetry_multiplicity
 _atom_site_fract_x
 _atom_site_fract_y
 _atom_site_fract_z
 _atom_site_occupancy
  Ca  Ca0  1  0.75000000  0.25000000  0.50000000  1
  Ca  Ca1  1  0.25000000  0.75000000  0.50000000  1
  Cl  Cl2  1  0.25000000  0.08749829  0.17499659  1
  Cl  Cl3  1  0.75000000  0.58749829  0.17499659  1
  Cl  Cl4  1  0.25000000  0.41250171  0.82500341  1
  Cl  Cl5  1  0.75000000  0.91250171  0.82500341  1
  O  O6  1  0.40939554  0.99524060  0.31070461  1
  O  O7  1  0.40939554  0.50475940  0.68929539  1
  O  O8  1  0.59060446  0.00475940  0.68929539  1
  O  O9  1  0.09060446  0.18453599  0.68929539  1
  O  O10  1  0.90939554  0.68453599  0.68929539  1
  O  O11  1  0.90939554  0.81546401  0.31070461  1
  O  O12  1  0.59060446  0.49524060  0.31070461  1
  O  O13  1  0.09060446  0.31546401  0.31070461  1
