# generated using pymatgen
data_LiFe4(BO3)4
_symmetry_space_group_name_H-M   'P 1'
_cell_length_a   5.23909035
_cell_length_b   9.19429066
_cell_length_c   10.12721133
_cell_angle_alpha   90.80188230
_cell_angle_beta   90.33895733
_cell_angle_gamma   88.79150754
_symmetry_Int_Tables_number   1
_chemical_formula_structural   LiFe4(BO3)4
_chemical_formula_sum   'Li2 Fe8 B8 O24'
_cell_volume   487.66094835
_cell_formula_units_Z   2
loop_
 _symmetry_equiv_pos_site_id
 _symmetry_equiv_pos_as_xyz
  1  'x, y, z'
loop_
 _atom_site_type_symbol
 _atom_site_label
 _atom_site_symmetry_multiplicity
 _atom_site_fract_x
 _atom_site_fract_y
 _atom_site_fract_z
 _atom_site_occupancy
  Li  Li0  1  0.81420533  0.83264940  0.16084594  1
  Li  Li1  1  0.66720156  0.67257674  0.89956577  1
  Fe  Fe2  1  0.83202456  0.16666522  0.63093165  1
  Fe  Fe3  1  0.81581630  0.49439280  0.13127542  1
  Fe  Fe4  1  0.68959560  0.00402249  0.87373334  1
  Fe  Fe5  1  0.66852395  0.33666340  0.37561343  1
  Fe  Fe6  1  0.33014161  0.66292028  0.62572021  1
  Fe  Fe7  1  0.32880877  0.00106311  0.12253340  1
  Fe  Fe8  1  0.17691885  0.84003720  0.38324602  1
  Fe  Fe9  1  0.16663637  0.49896815  0.87832179  1
  B  B10  1  0.83906950  0.49971206  0.62777964  1
  B  B11  1  0.83136655  0.16176037  0.13529727  1
  B  B12  1  0.66319965  0.00448632  0.37607515  1
  B  B13  1  0.66596217  0.33880844  0.87075644  1
  B  B14  1  0.34315123  0.00188639  0.62708643  1
  B  B15  1  0.32461123  0.67707640  0.11960259  1
  B  B16  1  0.15774391  0.50171022  0.37893232  1
  B  B17  1  0.17437501  0.82297839  0.88367543  1
  O  O18  1  0.90479680  0.49536485  0.33800265  1
  O  O19  1  0.91594384  0.82528900  0.88785145  1
  O  O20  1  0.79249237  0.21386665  0.82714590  1
  O  O21  1  0.74268448  0.13456989  0.43089320  1
  O  O22  1  0.82708148  0.88807648  0.35698219  1
  O  O23  1  0.80819675  0.45974832  0.91366382  1
  O  O24  1  0.67836505  0.61689724  0.63991157  1
  O  O25  1  0.68925335  0.04034502  0.09378744  1
  O  O26  1  0.75917084  0.36798790  0.57458823  1
  O  O27  1  0.70699931  0.28729416  0.17910411  1
  O  O28  1  0.58559086  0.67514569  0.11053741  1
  O  O29  1  0.59647222  0.00799317  0.66625040  1
  O  O30  1  0.41079402  0.99191709  0.33135084  1
  O  O31  1  0.40735204  0.34968720  0.87329785  1
  O  O32  1  0.31016357  0.69792535  0.83241045  1
  O  O33  1  0.24454986  0.63739021  0.42901536  1
  O  O34  1  0.32072674  0.38677863  0.37466376  1
  O  O35  1  0.32539660  0.93394914  0.93254594  1
  O  O36  1  0.17498022  0.56674772  0.07065256  1
  O  O37  1  0.17969102  0.11647790  0.63155866  1
  O  O38  1  0.25549938  0.86575480  0.57769811  1
  O  O39  1  0.19442501  0.80122652  0.17488100  1
  O  O40  1  0.09021607  0.15069343  0.13211854  1
  O  O41  1  0.09169098  0.50994526  0.67402234  1
