# generated using pymatgen
data_Li4Fe3(NiO4)3
_symmetry_space_group_name_H-M   'P 1'
_cell_length_a   5.90999442
_cell_length_b   5.95663498
_cell_length_c   6.58299676
_cell_angle_alpha   103.42601604
_cell_angle_beta   102.72592441
_cell_angle_gamma   90.68577979
_symmetry_Int_Tables_number   1
_chemical_formula_structural   Li4Fe3(NiO4)3
_chemical_formula_sum   'Li4 Fe3 Ni3 O12'
_cell_volume   219.38789230
_cell_formula_units_Z   1
loop_
 _symmetry_equiv_pos_site_id
 _symmetry_equiv_pos_as_xyz
  1  'x, y, z'
loop_
 _atom_site_type_symbol
 _atom_site_label
 _atom_site_symmetry_multiplicity
 _atom_site_fract_x
 _atom_site_fract_y
 _atom_site_fract_z
 _atom_site_occupancy
  Li  Li0  1  0.16180645  0.17258873  0.67345345  1
  Li  Li1  1  0.50486055  0.49407827  0.99321255  1
  Li  Li2  1  0.83333300  0.83333300  0.33333300  1
  Li  Li3  1  0.33333300  0.83333300  0.33333300  1
  Fe  Fe4  1  0.49974561  0.00274866  0.99850309  1
  Fe  Fe5  1  0.83333300  0.33333300  0.33333300  1
  Fe  Fe6  1  0.16692139  0.66391834  0.66816291  1
  Ni  Ni7  1  0.99830290  0.00331540  0.99689472  1
  Ni  Ni8  1  0.33333300  0.33333300  0.33333300  1
  Ni  Ni9  1  0.66836310  0.66335160  0.66977228  1
  O  O10  1  0.57412286  0.07742406  0.30832081  1
  O  O11  1  0.93024686  0.42841182  0.64507015  1
  O  O12  1  0.06784868  0.10715389  0.32279874  1
  O  O13  1  0.39600232  0.44548544  0.66269311  1
  O  O14  1  0.72894123  0.78177544  0.99110565  1
  O  O15  1  0.26443158  0.76702689  0.98787831  1
  O  O16  1  0.73641914  0.23825518  0.02159585  1
  O  O17  1  0.27066468  0.22118156  0.00397289  1
  O  O18  1  0.59881732  0.55951311  0.34386826  1
  O  O19  1  0.93772577  0.88489056  0.67556135  1
  O  O20  1  0.09254314  0.58924294  0.35834619  1
  O  O21  1  0.40223542  0.89964011  0.67878869  1
