# generated using pymatgen
data_Li9Cr12Fe7O48
_symmetry_space_group_name_H-M   'P 1'
_cell_length_a   5.11148026
_cell_length_b   10.39144075
_cell_length_c   17.52161388
_cell_angle_alpha   90.16208487
_cell_angle_beta   89.81506587
_cell_angle_gamma   89.86624179
_symmetry_Int_Tables_number   1
_chemical_formula_structural   Li9Cr12Fe7O48
_chemical_formula_sum   'Li9 Cr12 Fe7 O48'
_cell_volume   930.66068204
_cell_formula_units_Z   1
loop_
 _symmetry_equiv_pos_site_id
 _symmetry_equiv_pos_as_xyz
  1  'x, y, z'
loop_
 _atom_site_type_symbol
 _atom_site_label
 _atom_site_symmetry_multiplicity
 _atom_site_fract_x
 _atom_site_fract_y
 _atom_site_fract_z
 _atom_site_occupancy
  Li  Li0  1  0.09162930  0.24944162  0.25208579  1
  Li  Li1  1  0.24329025  0.42375354  0.96783694  1
  Li  Li2  1  0.24751590  0.58187316  0.47602962  1
  Li  Li3  1  0.24679006  0.91870113  0.47614264  1
  Li  Li4  1  0.26302794  0.25918650  0.79983492  1
  Li  Li5  1  0.74499698  0.75011056  0.19450986  1
  Li  Li6  1  0.75271930  0.91896568  0.02784286  1
  Li  Li7  1  0.76218997  0.25411700  0.69864843  1
  Li  Li8  1  0.91142139  0.74590157  0.74478251  1
  Cr  Cr9  1  0.22652484  0.75128354  0.94365811  1
  Cr  Cr10  1  0.22542102  0.02940378  0.65640684  1
  Cr  Cr11  1  0.22471742  0.46922483  0.65479150  1
  Cr  Cr12  1  0.28174683  0.52907280  0.15438446  1
  Cr  Cr13  1  0.27895396  0.97199144  0.15509687  1
  Cr  Cr14  1  0.28153478  0.24915860  0.44398526  1
  Cr  Cr15  1  0.72097118  0.75065479  0.55751426  1
  Cr  Cr16  1  0.72326689  0.47177998  0.84352954  1
  Cr  Cr17  1  0.71811629  0.02865805  0.84727508  1
  Cr  Cr18  1  0.77142514  0.53096937  0.34457788  1
  Cr  Cr19  1  0.77022435  0.96921844  0.34443709  1
  Cr  Cr20  1  0.77332437  0.24631535  0.05445683  1
  Fe  Fe21  1  0.24936915  0.75123504  0.30255994  1
  Fe  Fe22  1  0.24262906  0.06939591  0.97341517  1
  Fe  Fe23  1  0.41143169  0.74775607  0.74910397  1
  Fe  Fe24  1  0.58939354  0.25020774  0.25034354  1
  Fe  Fe25  1  0.75311294  0.07171417  0.52839579  1
  Fe  Fe26  1  0.75443723  0.42965344  0.52838289  1
  Fe  Fe27  1  0.75727963  0.57266022  0.02429051  1
  O  O28  1  0.05363587  0.23784499  0.99983433  1
  O  O29  1  0.04855501  0.60950158  0.36757818  1
  O  O30  1  0.04807226  0.89066891  0.36825059  1
  O  O31  1  0.10600318  0.62645849  0.20969819  1
  O  O32  1  0.09688691  0.87705420  0.20957332  1
  O  O33  1  0.09935417  0.12225054  0.46560416  1
  O  O34  1  0.10268743  0.37721793  0.46544822  1
  O  O35  1  0.10188133  0.00379276  0.07503096  1
  O  O36  1  0.10057795  0.49847697  0.07758734  1
  O  O37  1  0.16882596  0.74966418  0.85021658  1
  O  O38  1  0.16701817  0.60854932  0.70135937  1
  O  O39  1  0.17004344  0.88976510  0.70284395  1
  O  O40  1  0.34400485  0.11026812  0.20113621  1
  O  O41  1  0.34592929  0.39064602  0.19976166  1
  O  O42  1  0.34872611  0.24959178  0.35016456  1
  O  O43  1  0.40368915  0.49878407  0.57707318  1
  O  O44  1  0.40598555  0.00116101  0.57819907  1
  O  O45  1  0.39507297  0.88639269  0.96688816  1
  O  O46  1  0.41197469  0.62645625  0.96590915  1
  O  O47  1  0.39533736  0.12541814  0.71154568  1
  O  O48  1  0.40086547  0.37418017  0.70835448  1
  O  O49  1  0.43493320  0.10573279  0.87672392  1
  O  O50  1  0.45246627  0.39559791  0.86972045  1
  O  O51  1  0.45558919  0.75082413  0.50307472  1
  O  O52  1  0.55996894  0.24885563  0.49967627  1
  O  O53  1  0.55950034  0.60589564  0.12703329  1
  O  O54  1  0.54979383  0.89549267  0.13079341  1
  O  O55  1  0.58185095  0.62611005  0.29204224  1
  O  O56  1  0.57929774  0.87294928  0.29258175  1
  O  O57  1  0.57688391  0.12299157  0.03182179  1
  O  O58  1  0.60929912  0.37780743  0.03278704  1
  O  O59  1  0.60126933  0.00235235  0.42288579  1
  O  O60  1  0.60526050  0.49811967  0.42374597  1
  O  O61  1  0.65078520  0.75126159  0.65137305  1
  O  O62  1  0.65849768  0.61137889  0.79781323  1
  O  O63  1  0.65679908  0.89135498  0.80202036  1
  O  O64  1  0.82982173  0.10655224  0.29679790  1
  O  O65  1  0.83112399  0.39337607  0.29664114  1
  O  O66  1  0.83120071  0.24692308  0.14799295  1
  O  O67  1  0.90385841  0.50266103  0.92250493  1
  O  O68  1  0.91277541  0.00079984  0.92424649  1
  O  O69  1  0.90145226  0.62122032  0.53590599  1
  O  O70  1  0.90098563  0.88073358  0.53641281  1
  O  O71  1  0.88184994  0.12330228  0.79196553  1
  O  O72  1  0.90157929  0.37585889  0.78987206  1
  O  O73  1  0.94574748  0.10594165  0.63141653  1
  O  O74  1  0.94403980  0.39224185  0.62916885  1
  O  O75  1  0.95078254  0.74711904  0.99660212  1
