# generated using pymatgen
data_LiFe4(BO3)4
_symmetry_space_group_name_H-M   'P 1'
_cell_length_a   5.23289972
_cell_length_b   9.18009209
_cell_length_c   10.12394138
_cell_angle_alpha   90.85293697
_cell_angle_beta   90.23004716
_cell_angle_gamma   88.90169093
_symmetry_Int_Tables_number   1
_chemical_formula_structural   LiFe4(BO3)4
_chemical_formula_sum   'Li2 Fe8 B8 O24'
_cell_volume   486.19235902
_cell_formula_units_Z   2
loop_
 _symmetry_equiv_pos_site_id
 _symmetry_equiv_pos_as_xyz
  1  'x, y, z'
loop_
 _atom_site_type_symbol
 _atom_site_label
 _atom_site_symmetry_multiplicity
 _atom_site_fract_x
 _atom_site_fract_y
 _atom_site_fract_z
 _atom_site_occupancy
  Li  Li0  1  0.67904570  0.66611004  0.40782412  1
  Li  Li1  1  0.33942001  0.32722988  0.65441635  1
  Fe  Fe2  1  0.83440840  0.15576542  0.62538579  1
  Fe  Fe3  1  0.82947235  0.49727519  0.13174290  1
  Fe  Fe4  1  0.67112569  0.00426358  0.87890854  1
  Fe  Fe5  1  0.65492387  0.33134997  0.37442286  1
  Fe  Fe6  1  0.33965187  0.66720881  0.63154306  1
  Fe  Fe7  1  0.33383691  0.99807321  0.12664249  1
  Fe  Fe8  1  0.17002714  0.84310046  0.37678943  1
  Fe  Fe9  1  0.16853736  0.50803850  0.87942216  1
  B  B10  1  0.83717993  0.49174622  0.62704103  1
  B  B11  1  0.83432828  0.17030899  0.12468374  1
  B  B12  1  0.66605490  0.99331651  0.37971436  1
  B  B13  1  0.67829001  0.33338783  0.87360776  1
  B  B14  1  0.33904106  0.00531673  0.62599666  1
  B  B15  1  0.32589421  0.67026732  0.13021832  1
  B  B16  1  0.16159007  0.50765697  0.37647702  1
  B  B17  1  0.17004713  0.83276338  0.87976650  1
  O  O18  1  0.90591760  0.51289774  0.33108416  1
  O  O19  1  0.91544895  0.85578704  0.87150978  1
  O  O20  1  0.79196275  0.20129278  0.83202869  1
  O  O21  1  0.75960799  0.12056611  0.43406573  1
  O  O22  1  0.80731263  0.86597100  0.37727590  1
  O  O23  1  0.83146178  0.43952025  0.93157443  1
  O  O24  1  0.70536620  0.61657148  0.60323706  1
  O  O25  1  0.67326731  0.06175116  0.07415395  1
  O  O26  1  0.72478051  0.35648849  0.59504854  1
  O  O27  1  0.72181718  0.30029979  0.16774000  1
  O  O28  1  0.58045456  0.64751627  0.14152904  1
  O  O29  1  0.58846306  0.00533782  0.67776179  1
  O  O30  1  0.41774894  0.99501165  0.32680585  1
  O  O31  1  0.42419654  0.35976794  0.85262063  1
  O  O32  1  0.28238335  0.70180935  0.83771766  1
  O  O33  1  0.27258241  0.64287215  0.41318423  1
  O  O34  1  0.29355401  0.38291393  0.39028105  1
  O  O35  1  0.33072817  0.94102720  0.93007905  1
  O  O36  1  0.16943837  0.56192639  0.07628743  1
  O  O37  1  0.19533734  0.13169060  0.63368688  1
  O  O38  1  0.24841921  0.87904194  0.56947186  1
  O  O39  1  0.20859560  0.80140716  0.17293272  1
  O  O40  1  0.08903596  0.14620636  0.13132015  1
  O  O41  1  0.08747472  0.48981539  0.67792735  1
