# generated using pymatgen
data_LiFePCO7
_symmetry_space_group_name_H-M   'P 1'
_cell_length_a   9.44029062
_cell_length_b   8.23308605
_cell_length_c   8.23659074
_cell_angle_alpha   77.07096092
_cell_angle_beta   73.25563749
_cell_angle_gamma   107.12728212
_symmetry_Int_Tables_number   1
_chemical_formula_structural   LiFePCO7
_chemical_formula_sum   'Li4 Fe4 P4 C4 O28'
_cell_volume   551.52860131
_cell_formula_units_Z   4
loop_
 _symmetry_equiv_pos_site_id
 _symmetry_equiv_pos_as_xyz
  1  'x, y, z'
loop_
 _atom_site_type_symbol
 _atom_site_label
 _atom_site_symmetry_multiplicity
 _atom_site_fract_x
 _atom_site_fract_y
 _atom_site_fract_z
 _atom_site_occupancy
  Li  Li0  1  0.89457980  0.69022084  0.55247843  1
  Li  Li1  1  0.71694323  0.45737857  0.00808399  1
  Li  Li2  1  0.11052728  0.81992680  0.93800916  1
  Li  Li3  1  0.10793082  0.31329557  0.43518343  1
  Fe  Fe4  1  0.66455286  0.81192153  0.94647226  1
  Fe  Fe5  1  0.66780597  0.30321744  0.44785815  1
  Fe  Fe6  1  0.33126313  0.19222687  0.05770866  1
  Fe  Fe7  1  0.33549950  0.69591809  0.55485300  1
  P  P8  1  0.57843330  0.55099085  0.69909185  1
  P  P9  1  0.57811345  0.05339630  0.20100623  1
  P  P10  1  0.42240706  0.44471184  0.30303055  1
  P  P11  1  0.42066021  0.94588119  0.80326422  1
  C  C12  1  0.95818850  0.49780257  0.24457676  1
  C  C13  1  0.95772563  -0.00177888  0.75237320  1
  C  C14  1  0.04050238  0.99974784  0.24990624  1
  C  C15  1  0.03942031  0.50607560  0.74934801  1
  O  O16  1  0.92597230  0.85813063  0.88723716  1
  O  O17  1  0.92709251  0.36751263  0.38787310  1
  O  O18  1  0.90061197  0.89542083  0.35495552  1
  O  O19  1  0.83158177  0.51371042  0.21738421  1
  O  O20  1  0.89769982  0.41445820  0.86016162  1
  O  O21  1  0.83256383  0.02224468  0.73115068  1
  O  O22  1  0.67884143  0.97088777  0.08935889  1
  O  O23  1  0.68651031  0.16437202  0.27846068  1
  O  O24  1  0.69213298  0.65455787  0.78088156  1
  O  O25  1  0.69161960  0.48266201  0.57969267  1
  O  O26  1  0.57861108  0.58362054  0.14335149  1
  O  O27  1  0.53420671  0.18985543  0.07739029  1
  O  O28  1  0.52741925  0.67872509  0.58184671  1
  O  O29  1  0.57518390  0.09605640  0.65767578  1
  O  O30  1  0.42068546  0.90720859  0.34738300  1
  O  O31  1  0.47553871  0.32575508  0.42655288  1
  O  O32  1  0.47248802  0.81944954  0.92252171  1
  O  O33  1  0.42610094  0.39942188  0.84668822  1
  O  O34  1  0.31799844  0.52788921  0.41046214  1
  O  O35  1  0.30673372  0.32818099  0.23500859  1
  O  O36  1  0.30810008  0.83364586  0.72928494  1
  O  O37  1  0.31130354  0.01752752  0.92138278  1
  O  O38  1  0.16262232  0.97210384  0.27682755  1
  O  O39  1  0.09482502  0.61003612  0.13661541  1
  O  O40  1  0.15971442  0.47340895  0.77221517  1
  O  O41  1  0.09471034  0.10757926  0.64222718  1
  O  O42  1  0.07682606  0.64010286  0.60566740  1
  O  O43  1  0.08356503  0.13921376  0.10984152  1
