# generated using pymatgen
data_Li6Fe3Co3O16
_symmetry_space_group_name_H-M   'P 1'
_cell_length_a   5.74370140
_cell_length_b   5.75790839
_cell_length_c   9.89590593
_cell_angle_alpha   90.02052534
_cell_angle_beta   89.64387961
_cell_angle_gamma   120.14603682
_symmetry_Int_Tables_number   1
_chemical_formula_structural   Li6Fe3Co3O16
_chemical_formula_sum   'Li6 Fe3 Co3 O16'
_cell_volume   283.00311380
_cell_formula_units_Z   1
loop_
 _symmetry_equiv_pos_site_id
 _symmetry_equiv_pos_as_xyz
  1  'x, y, z'
loop_
 _atom_site_type_symbol
 _atom_site_label
 _atom_site_symmetry_multiplicity
 _atom_site_fract_x
 _atom_site_fract_y
 _atom_site_fract_z
 _atom_site_occupancy
  Li  Li0  1  0.33561190  0.66704859  0.50028762  1
  Li  Li1  1  0.33050161  0.66477113  0.89103296  1
  Li  Li2  1  0.01351193  0.00555399  0.99911780  1
  Li  Li3  1  0.00872232  0.00284938  0.49765816  1
  Li  Li4  1  0.66518610  0.33214779  0.00147192  1
  Li  Li5  1  0.66475770  0.33379803  0.39129016  1
  Fe  Fe6  1  0.66172188  0.83101829  0.21557464  1
  Fe  Fe7  1  0.82956856  0.66173895  0.71546473  1
  Fe  Fe8  1  0.82890231  0.16791322  0.71472112  1
  Co  Co9  1  0.16785844  0.83253673  0.21476664  1
  Co  Co10  1  0.16768651  0.33536006  0.21474958  1
  Co  Co11  1  0.33597147  0.16827580  0.71428365  1
  O  O12  1  0.15891107  0.84921348  0.61382336  1
  O  O13  1  0.03036609  0.51507677  0.31396051  1
  O  O14  1  0.32752546  0.66399577  0.10950997  1
  O  O15  1  0.00612429  0.00293198  0.31385881  1
  O  O16  1  0.00972191  0.00745660  0.81658178  1
  O  O17  1  0.15970402  0.30904258  0.61305318  1
  O  O18  1  0.47757326  0.96604378  0.31894501  1
  O  O19  1  0.47663675  0.51296792  0.31983514  1
  O  O20  1  0.31150746  0.15613565  0.11785378  1
  O  O21  1  0.69050018  0.84589185  0.60989292  1
  O  O22  1  0.50988799  0.47929897  0.81834740  1
  O  O23  1  0.50860486  0.03138931  0.81820258  1
  O  O24  1  0.65710393  0.32716976  0.60285389  1
  O  O25  1  0.84986089  0.69211296  0.11448242  1
  O  O26  1  0.96528856  0.48179739  0.82243584  1
  O  O27  1  0.85068056  0.15676228  0.11378644  1
