# generated using pymatgen
data_Li6NbV3(PO4)6
_symmetry_space_group_name_H-M   'P 1'
_cell_length_a   8.69714264
_cell_length_b   8.70798737
_cell_length_c   8.70628983
_cell_angle_alpha   61.91633588
_cell_angle_beta   61.69042431
_cell_angle_gamma   61.82705081
_symmetry_Int_Tables_number   1
_chemical_formula_structural   Li6NbV3(PO4)6
_chemical_formula_sum   'Li6 Nb1 V3 P6 O24'
_cell_volume   485.15451243
_cell_formula_units_Z   1
loop_
 _symmetry_equiv_pos_site_id
 _symmetry_equiv_pos_as_xyz
  1  'x, y, z'
loop_
 _atom_site_type_symbol
 _atom_site_label
 _atom_site_symmetry_multiplicity
 _atom_site_fract_x
 _atom_site_fract_y
 _atom_site_fract_z
 _atom_site_occupancy
  Li  Li0  1  0.02883586  0.00845064  0.00004614  1
  Li  Li1  1  0.74486225  0.15333364  0.35417629  1
  Li  Li2  1  0.47441505  0.50460440  0.49839472  1
  Li  Li3  1  0.29541137  0.83953158  0.65270703  1
  Li  Li4  1  0.65335141  0.29729011  0.83554204  1
  Li  Li5  1  0.83723371  0.65263796  0.29513251  1
  Nb  Nb6  1  0.85342210  0.85085580  0.85096923  1
  V  V7  1  0.14180139  0.14701196  0.13989330  1
  V  V8  1  0.35802519  0.36126881  0.35371451  1
  V  V9  1  0.64591225  0.64839520  0.64761230  1
  P  P10  1  0.05456933  0.74790314  0.43736548  1
  P  P11  1  0.44142278  0.05569897  0.74754786  1
  P  P12  1  0.74872054  0.44181912  0.05091841  1
  P  P13  1  0.24919895  0.53899802  0.95880839  1
  P  P14  1  0.54018362  0.96400928  0.25085202  1
  P  P15  1  0.95726784  0.24890105  0.53300845  1
  O  O16  1  0.12934428  0.28403181  0.49470009  1
  O  O17  1  0.29944913  0.51167485  0.11725310  1
  O  O18  1  0.06674394  0.91407445  0.25860029  1
  O  O19  1  0.53123127  0.12077631  0.29606058  1
  O  O20  1  0.24043715  0.58957835  0.43055055  1
  O  O21  1  0.00806076  0.80620782  0.60471468  1
  O  O22  1  0.25728376  0.08595719  0.90501077  1
  O  O23  1  0.45376675  0.23361774  0.58017650  1
  O  O24  1  0.59569160  0.42952228  0.24285057  1
  O  O25  1  0.17727901  0.39031181  0.00090616  1
  O  O26  1  0.09664737  0.73631239  0.92188869  1
  O  O27  1  0.37839718  0.01410668  0.19435582  1
  O  O28  1  0.60794252  0.00438096  0.80913062  1
  O  O29  1  0.90187563  0.25195723  0.08082620  1
  O  O30  1  0.81049651  0.60424509  0.00625590  1
  O  O31  1  0.41056488  0.55173375  0.77152275  1
  O  O32  1  0.55153243  0.77946967  0.41270564  1
  O  O33  1  0.73181147  0.92415437  0.09369868  1
  O  O34  1  0.97424673  0.18723456  0.38438567  1
  O  O35  1  0.77592913  0.41429689  0.55139487  1
  O  O36  1  0.46180231  0.89980327  0.69689617  1
  O  O37  1  0.92393320  0.09556609  0.72820715  1
  O  O38  1  0.69201371  0.46665679  0.89825913  1
  O  O39  1  0.89888565  0.69262196  0.46395973  1
