# generated using pymatgen
data_Li3MnV(PO4)3
_symmetry_space_group_name_H-M   'P 1'
_cell_length_a   8.50427239
_cell_length_b   8.89709965
_cell_length_c   12.27748810
_cell_angle_alpha   89.39106234
_cell_angle_beta   88.07769616
_cell_angle_gamma   90.80144034
_symmetry_Int_Tables_number   1
_chemical_formula_structural   Li3MnV(PO4)3
_chemical_formula_sum   'Li12 Mn4 V4 P12 O48'
_cell_volume   928.28514125
_cell_formula_units_Z   4
loop_
 _symmetry_equiv_pos_site_id
 _symmetry_equiv_pos_as_xyz
  1  'x, y, z'
loop_
 _atom_site_type_symbol
 _atom_site_label
 _atom_site_symmetry_multiplicity
 _atom_site_fract_x
 _atom_site_fract_y
 _atom_site_fract_z
 _atom_site_occupancy
  Li  Li0  1  0.00090257  0.00125626  0.99873526  1
  Li  Li1  1  0.01348455  0.10520155  0.25196201  1
  Li  Li2  1  0.00415939  0.00128682  0.50453209  1
  Li  Li3  1  0.99523089  0.89619741  0.74508345  1
  Li  Li4  1  0.29061488  0.80785582  0.04967331  1
  Li  Li5  1  0.28501398  0.19204007  0.54719305  1
  Li  Li6  1  0.50513372  0.50421363  0.99907193  1
  Li  Li7  1  0.50303266  0.39769909  0.25144386  1
  Li  Li8  1  0.50634636  0.49547671  0.50190817  1
  Li  Li9  1  0.50334241  0.60055738  0.75427730  1
  Li  Li10  1  0.71097147  0.80557507  0.45211574  1
  Li  Li11  1  0.71623502  0.19534602  0.94215922  1
  Mn  Mn12  1  0.28949001  0.99052949  0.35747631  1
  Mn  Mn13  1  0.71094290  0.00300626  0.64147325  1
  Mn  Mn14  1  0.78923786  0.50414167  0.35341299  1
  Mn  Mn15  1  0.78869950  0.49768869  0.85341314  1
  V  V16  1  0.21518648  0.50063385  0.14427266  1
  V  V17  1  0.21287488  0.49815842  0.64410229  1
  V  V18  1  0.28453670  0.00557424  0.85748362  1
  V  V19  1  0.71767589  0.99921492  0.14201521  1
  P  P20  1  0.00501505  0.80152194  0.24922022  1
  P  P21  1  0.99873657  0.19700010  0.74936156  1
  P  P22  1  0.14804051  0.35707183  0.39536206  1
  P  P23  1  0.15378699  0.64492149  0.89450697  1
  P  P24  1  0.34975406  0.14845588  0.10421723  1
  P  P25  1  0.34966744  0.85108616  0.60216247  1
  P  P26  1  0.50606222  0.70328628  0.24871921  1
  P  P27  1  0.50227724  0.29586138  0.74825688  1
  P  P28  1  0.64447058  0.14493161  0.39904775  1
  P  P29  1  0.64668169  0.85733308  0.89610254  1
  P  P30  1  0.84290519  0.35649885  0.10473244  1
  P  P31  1  0.84471078  0.64174283  0.60543726  1
  O  O32  1  0.01040282  0.41521715  0.10774058  1
  O  O33  1  0.00814634  0.57633753  0.60800192  1
  O  O34  1  0.07950590  0.90900030  0.33585094  1
  O  O35  1  0.06947344  0.08502443  0.83417144  1
  O  O36  1  0.12725524  0.70581921  0.18811705  1
  O  O37  1  0.12643981  0.29474942  0.69043143  1
  O  O38  1  0.13161110  0.18334378  0.40975569  1
  O  O39  1  0.14661263  0.81979844  0.90923690  1
  O  O40  1  0.24418561  0.40534728  0.29140191  1
  O  O41  1  0.25167231  0.06287897  0.01866367  1
  O  O42  1  0.24838396  0.41035355  0.49200375  1
  O  O43  1  0.24760334  0.59609922  0.79178768  1
  O  O44  1  0.25028496  0.94022419  0.51834087  1
  O  O45  1  0.27136557  0.09841616  0.21474336  1
  O  O46  1  0.25089703  0.59045408  0.99263422  1
  O  O47  1  0.27850888  0.90187431  0.71250488  1
  O  O48  1  0.34625741  0.32199196  0.08944269  1
  O  O49  1  0.33943044  0.67879472  0.58684867  1
  O  O50  1  0.38855251  0.79254265  0.31644082  1
  O  O51  1  0.37863108  0.20036810  0.81108129  1
  O  O52  1  0.43403492  0.59596835  0.16321513  1
  O  O53  1  0.43188948  0.40828374  0.66461438  1
  O  O54  1  0.46670920  0.10175095  0.40981751  1
  O  O55  1  0.47374252  0.90738595  0.90857858  1
  O  O56  1  0.52550198  0.10752907  0.09494209  1
  O  O57  1  0.52790074  0.88669450  0.58857744  1
  O  O58  1  0.58194199  0.59434019  0.33506868  1
  O  O59  1  0.57650289  0.39789187  0.83884026  1
  O  O60  1  0.62260225  0.80439916  0.18495150  1
  O  O61  1  0.61857948  0.20076247  0.68510185  1
  O  O62  1  0.64470324  0.31636042  0.41261629  1
  O  O63  1  0.64002467  0.68552305  0.90957008  1
  O  O64  1  0.72311639  0.09213540  0.29134824  1
  O  O65  1  0.74683664  0.41201914  0.00599954  1
  O  O66  1  0.72524749  0.90775146  0.78466009  1
  O  O67  1  0.74205350  0.05727485  0.48566653  1
  O  O68  1  0.74597712  0.40027484  0.20774728  1
  O  O69  1  0.74201355  0.58872857  0.50986397  1
  O  O70  1  0.74871879  0.94229308  0.98024853  1
  O  O71  1  0.74827550  0.59702083  0.71099708  1
  O  O72  1  0.85389207  0.18174579  0.09008966  1
  O  O73  1  0.86407455  0.81536282  0.59058220  1
  O  O74  1  0.87660630  0.71493916  0.31439695  1
  O  O75  1  0.87266830  0.28240417  0.81286813  1
  O  O76  1  0.93768137  0.91409195  0.16373835  1
  O  O77  1  0.93425230  0.08908338  0.65984771  1
  O  O78  1  0.98081549  0.41859262  0.39367579  1
  O  O79  1  0.98319344  0.58939500  0.89424295  1
