# generated using pymatgen
data_Li3MnV(PO4)3
_symmetry_space_group_name_H-M   'P 1'
_cell_length_a   8.45788792
_cell_length_b   8.86759784
_cell_length_c   12.43399154
_cell_angle_alpha   90.69072268
_cell_angle_beta   88.31605735
_cell_angle_gamma   89.66116251
_symmetry_Int_Tables_number   1
_chemical_formula_structural   Li3MnV(PO4)3
_chemical_formula_sum   'Li12 Mn4 V4 P12 O48'
_cell_volume   932.07484136
_cell_formula_units_Z   4
loop_
 _symmetry_equiv_pos_site_id
 _symmetry_equiv_pos_as_xyz
  1  'x, y, z'
loop_
 _atom_site_type_symbol
 _atom_site_label
 _atom_site_symmetry_multiplicity
 _atom_site_fract_x
 _atom_site_fract_y
 _atom_site_fract_z
 _atom_site_occupancy
  Li  Li0  1  0.00372075  0.99776871  0.00095135  1
  Li  Li1  1  0.00013264  0.10293650  0.24937430  1
  Li  Li2  1  0.00079912  0.99995802  0.49955782  1
  Li  Li3  1  0.00691129  0.89619452  0.75076845  1
  Li  Li4  1  0.29018819  0.80552697  0.04716465  1
  Li  Li5  1  0.29422304  0.19276574  0.54949627  1
  Li  Li6  1  0.49824690  0.50144027  0.99932230  1
  Li  Li7  1  0.49738487  0.39773121  0.25269178  1
  Li  Li8  1  0.50304834  0.49635304  0.49948751  1
  Li  Li9  1  0.50282757  0.60161637  0.75041052  1
  Li  Li10  1  0.70898700  0.80562448  0.44737610  1
  Li  Li11  1  0.70746200  0.19573280  0.95095156  1
  Mn  Mn12  1  0.21012809  0.50182822  0.14728066  1
  Mn  Mn13  1  0.28868371  0.00747642  0.85723037  1
  Mn  Mn14  1  0.78927635  0.50056556  0.35457423  1
  Mn  Mn15  1  0.79080176  0.49757087  0.85272956  1
  V  V16  1  0.21438112  0.50039882  0.64396777  1
  V  V17  1  0.28411619  0.99645191  0.35902641  1
  V  V18  1  0.71528131  0.99730711  0.14199094  1
  V  V19  1  0.71650695  0.00170891  0.64076450  1
  P  P20  1  0.99917732  0.80014443  0.24902094  1
  P  P21  1  0.00485335  0.20086366  0.75005465  1
  P  P22  1  0.15526666  0.35391179  0.39675305  1
  P  P23  1  0.15228845  0.64447706  0.89365724  1
  P  P24  1  0.34797761  0.14800173  0.10512482  1
  P  P25  1  0.34893186  0.85119237  0.60300019  1
  P  P26  1  0.50015151  0.70606212  0.24939655  1
  P  P27  1  0.50506555  0.29540604  0.74944897  1
  P  P28  1  0.64705464  0.14609668  0.39789222  1
  P  P29  1  0.64684711  0.85482962  0.89497875  1
  P  P30  1  0.84653483  0.35602559  0.10681243  1
  P  P31  1  0.84284371  0.64509067  0.60273486  1
  O  O32  1  0.01771245  0.41132694  0.10602400  1
  O  O33  1  0.01266465  0.58910965  0.60481651  1
  O  O34  1  0.07076721  0.91180500  0.33339604  1
  O  O35  1  0.07852551  0.09255480  0.83543545  1
  O  O36  1  0.12562414  0.70434527  0.18723296  1
  O  O37  1  0.12716125  0.29711947  0.69004821  1
  O  O38  1  0.14372468  0.17821501  0.41181761  1
  O  O39  1  0.13580783  0.82030655  0.90672126  1
  O  O40  1  0.25297201  0.40068461  0.29738613  1
  O  O41  1  0.24914571  0.06142742  0.02056786  1
  O  O42  1  0.25011649  0.40830233  0.49590075  1
  O  O43  1  0.24269551  0.59582969  0.78871326  1
  O  O44  1  0.25103739  0.93536476  0.51721160  1
  O  O45  1  0.27602673  0.09741740  0.21435157  1
  O  O46  1  0.25460643  0.59189454  0.98739996  1
  O  O47  1  0.27202577  0.90302190  0.71130818  1
  O  O48  1  0.34700298  0.32311914  0.09389673  1
  O  O49  1  0.34801448  0.67643921  0.58923490  1
  O  O50  1  0.38141936  0.80175624  0.31447528  1
  O  O51  1  0.38786816  0.20429604  0.81723066  1
  O  O52  1  0.42334583  0.59705139  0.16440533  1
  O  O53  1  0.43169004  0.40296815  0.66560049  1
  O  O54  1  0.47114330  0.09876287  0.41085783  1
  O  O55  1  0.46740496  0.89630284  0.90740933  1
  O  O56  1  0.52629385  0.10753402  0.09155678  1
  O  O57  1  0.52649086  0.89182067  0.59137500  1
  O  O58  1  0.57654396  0.60006893  0.33426399  1
  O  O59  1  0.58257673  0.40334637  0.83510871  1
  O  O60  1  0.61513635  0.80218282  0.18383167  1
  O  O61  1  0.61980968  0.19500592  0.68475565  1
  O  O62  1  0.64175469  0.31866849  0.41128818  1
  O  O63  1  0.64653349  0.68115945  0.90716925  1
  O  O64  1  0.72266972  0.09536735  0.28797138  1
  O  O65  1  0.74627151  0.40910538  0.01176665  1
  O  O66  1  0.72144850  0.90636931  0.78713436  1
  O  O67  1  0.74786552  0.06049299  0.48159486  1
  O  O68  1  0.75493999  0.40457643  0.21127614  1
  O  O69  1  0.74747339  0.58967208  0.50394129  1
  O  O70  1  0.74373066  0.94015131  0.98161746  1
  O  O71  1  0.74696297  0.59858651  0.70366324  1
  O  O72  1  0.85800622  0.17940507  0.09391649  1
  O  O73  1  0.85409729  0.82066891  0.58873782  1
  O  O74  1  0.87340853  0.71276402  0.31127700  1
  O  O75  1  0.87644731  0.28923800  0.81460634  1
  O  O76  1  0.93295929  0.90947949  0.16242990  1
  O  O77  1  0.93540320  0.08903805  0.66535009  1
  O  O78  1  0.98348096  0.40966447  0.39502040  1
  O  O79  1  0.98109268  0.58715454  0.89491079  1
