# generated using pymatgen
data_Li3Mn3CrO8
_symmetry_space_group_name_H-M   'P 1'
_cell_length_a   10.42024721
_cell_length_b   10.33883235
_cell_length_c   14.75640333
_cell_angle_alpha   19.36072338
_cell_angle_beta   19.18403677
_cell_angle_gamma   33.18903856
_symmetry_Int_Tables_number   1
_chemical_formula_structural   Li3Mn3CrO8
_chemical_formula_sum   'Li3 Mn3 Cr1 O8'
_cell_volume   150.23593921
_cell_formula_units_Z   1
loop_
 _symmetry_equiv_pos_site_id
 _symmetry_equiv_pos_as_xyz
  1  'x, y, z'
loop_
 _atom_site_type_symbol
 _atom_site_label
 _atom_site_symmetry_multiplicity
 _atom_site_fract_x
 _atom_site_fract_y
 _atom_site_fract_z
 _atom_site_occupancy
  Li  Li0  1  0.00005933  0.50002799  0.49994558  1
  Li  Li1  1  0.50002426  0.00008711  0.49992721  1
  Li  Li2  1  0.50003010  0.50005445  0.49993059  1
  Mn  Mn3  1  -0.00023674  0.50006083  0.00010243  1
  Mn  Mn4  1  0.49992890  -0.00030962  0.00024460  1
  Mn  Mn5  1  0.50008978  0.49998259  0.99994362  1
  Cr  Cr6  1  0.00023365  0.00030203  -0.00036799  1
  O  O7  1  0.00635299  0.04718785  0.21579505  1
  O  O8  1  0.99094389  0.47785579  0.28802671  1
  O  O9  1  0.48671071  0.98588823  0.28288984  1
  O  O10  1  0.99375398  0.95289704  0.78406248  1
  O  O11  1  0.50231856  0.48058187  0.27383267  1
  O  O12  1  0.00901730  0.52214490  0.71197553  1
  O  O13  1  0.51322876  0.01400556  0.71723895  1
  O  O14  1  0.49754353  0.51923238  0.72645273  1
