# generated using pymatgen
data_Li3Fe8(BO3)8
_symmetry_space_group_name_H-M   'P 1'
_cell_length_a   5.22594879
_cell_length_b   9.07445971
_cell_length_c   11.39378480
_cell_angle_alpha   66.93641862
_cell_angle_beta   76.68585466
_cell_angle_gamma   89.37426871
_symmetry_Int_Tables_number   1
_chemical_formula_structural   Li3Fe8(BO3)8
_chemical_formula_sum   'Li3 Fe8 B8 O24'
_cell_volume   481.87288051
_cell_formula_units_Z   1
loop_
 _symmetry_equiv_pos_site_id
 _symmetry_equiv_pos_as_xyz
  1  'x, y, z'
loop_
 _atom_site_type_symbol
 _atom_site_label
 _atom_site_symmetry_multiplicity
 _atom_site_fract_x
 _atom_site_fract_y
 _atom_site_fract_z
 _atom_site_occupancy
  Li  Li0  1  0.71220852  0.72661053  0.90292056  1
  Li  Li1  1  0.51302993  0.49263966  0.66014706  1
  Li  Li2  1  0.22704554  0.24835989  0.16360338  1
  Fe  Fe3  1  0.97822385  0.64437833  0.37881896  1
  Fe  Fe4  1  0.73955237  0.07421973  0.87641704  1
  Fe  Fe5  1  0.51216518  0.85041382  0.62985475  1
  Fe  Fe6  1  0.74320088  0.44798379  0.13467080  1
  Fe  Fe7  1  0.22861673  0.55049317  0.88674603  1
  Fe  Fe8  1  0.48336902  0.14953164  0.38132353  1
  Fe  Fe9  1  0.03720130  0.34017994  0.62743358  1
  Fe  Fe10  1  0.26497774  0.92564973  0.12749565  1
  B  B11  1  0.97856651  0.31686902  0.37284292  1
  B  B12  1  0.73833293  0.40035241  0.87326577  1
  B  B13  1  0.53523333  0.18664172  0.62947832  1
  B  B14  1  0.76171902  0.10328460  0.12995791  1
  B  B15  1  0.47483768  0.81165052  0.37835619  1
  B  B16  1  0.23196145  0.89351339  0.87823044  1
  B  B17  1  0.01589907  0.68472430  0.62618831  1
  B  B18  1  0.26681240  0.60582587  0.12575493  1
  O  O19  1  0.97223973  0.90565012  0.87790363  1
  O  O20  1  0.89297067  0.28501609  0.84463891  1
  O  O21  1  0.83742056  0.50288402  0.92010583  1
  O  O22  1  0.85840396  0.79884922  0.64361641  1
  O  O23  1  0.92870775  0.57738038  0.57938606  1
  O  O24  1  0.75042373  0.15102059  0.68587317  1
  O  O25  1  0.73599521  0.32478898  0.34121483  1
  O  O26  1  0.49235014  0.41223723  0.85104365  1
  O  O27  1  0.38252525  0.79181092  0.82921879  1
  O  O28  1  0.53482220  0.92155329  0.42932702  1
  O  O29  1  0.62879567  0.69186978  0.37822347  1
  O  O30  1  0.36046426  0.97815417  0.93133086  1
  O  O31  1  0.63672804  0.01612388  0.07782906  1
  O  O32  1  0.41066440  0.31940462  0.62138157  1
  O  O33  1  0.45333887  0.07924976  0.57970337  1
  O  O34  1  0.60851493  0.20511089  0.17681916  1
  O  O35  1  0.53290699  0.63300605  0.09911029  1
  O  O36  1  0.26349576  0.66889556  0.65663007  1
  O  O37  1  0.24807234  0.82906375  0.32827261  1
  O  O38  1  0.05097840  0.42369138  0.42088267  1
  O  O39  1  0.14430947  0.20509193  0.35490243  1
  O  O40  1  0.15055561  0.48715033  0.10040982  1
  O  O41  1  0.10490521  0.70690269  0.17424077  1
  O  O42  1  0.02101738  0.08658433  0.13583445  1
