# generated using pymatgen
data_Li3Fe8(BO3)8
_symmetry_space_group_name_H-M   'P 1'
_cell_length_a   5.22769378
_cell_length_b   5.24846731
_cell_length_c   20.23011272
_cell_angle_alpha   89.32209025
_cell_angle_beta   89.74715335
_cell_angle_gamma   60.77460800
_symmetry_Int_Tables_number   1
_chemical_formula_structural   Li3Fe8(BO3)8
_chemical_formula_sum   'Li3 Fe8 B8 O24'
_cell_volume   484.37070029
_cell_formula_units_Z   1
loop_
 _symmetry_equiv_pos_site_id
 _symmetry_equiv_pos_as_xyz
  1  'x, y, z'
loop_
 _atom_site_type_symbol
 _atom_site_label
 _atom_site_symmetry_multiplicity
 _atom_site_fract_x
 _atom_site_fract_y
 _atom_site_fract_z
 _atom_site_occupancy
  Li  Li0  1  0.32540105  0.65116951  0.67354418  1
  Li  Li1  1  0.35189534  0.67383188  0.41636816  1
  Li  Li2  1  0.66715247  0.34315377  0.54863591  1
  Fe  Fe3  1  0.99941422  0.67350146  0.81189185  1
  Fe  Fe4  1  0.98741864  0.67353819  0.30822727  1
  Fe  Fe5  1  0.67268895  0.00023102  0.93593326  1
  Fe  Fe6  1  0.68383042  0.00419905  0.43387403  1
  Fe  Fe7  1  0.32186656  0.00707554  0.56083401  1
  Fe  Fe8  1  0.32568163  0.00331787  0.06075482  1
  Fe  Fe9  1  0.99066076  0.31937784  0.69054876  1
  Fe  Fe10  1  0.00053912  0.32805812  0.18387140  1
  B  B11  1  0.99889184  0.34333166  0.93709320  1
  B  B12  1  0.00442545  0.33407779  0.43446342  1
  B  B13  1  0.33683426  0.00290110  0.81369771  1
  B  B14  1  0.33388026  0.00632823  0.30992811  1
  B  B15  1  0.65504657  0.99797528  0.68739327  1
  B  B16  1  0.66041055  0.00027612  0.18516355  1
  B  B17  1  0.99536285  0.66889045  0.56112271  1
  B  B18  1  0.99786659  0.66279740  0.06124967  1
  O  O19  1  0.11219190  0.27320444  0.79317071  1
  O  O20  1  0.11606886  0.26903562  0.28287528  1
  O  O21  1  0.26731411  0.12636586  0.96351131  1
  O  O22  1  0.98918198  0.60165467  0.91471823  1
  O  O23  1  0.25674358  0.07570648  0.45017296  1
  O  O24  1  0.02706767  0.57593339  0.41010472  1
  O  O25  1  0.59911380  0.98705283  0.83601175  1
  O  O26  1  0.26403271  0.65894006  0.56716818  1
  O  O27  1  0.59802538  0.98535398  0.32907795  1
  O  O28  1  0.23046532  0.70521307  0.06447099  1
  O  O29  1  0.30715057  0.76035640  0.81185035  1
  O  O30  1  0.28663241  0.77454363  0.31925355  1
  O  O31  1  0.64830945  0.26136738  0.68285669  1
  O  O32  1  0.69824062  0.23602679  0.18418023  1
  O  O33  1  0.76610183  0.30019332  0.93484568  1
  O  O34  1  0.41071402  0.97518378  0.66918536  1
  O  O35  1  0.73022993  0.36017933  0.44224077  1
  O  O36  1  0.40330568  0.00953652  0.16239525  1
  O  O37  1  0.97660151  0.42033452  0.57742145  1
  O  O38  1  0.01055843  0.40357848  0.08496604  1
  O  O39  1  0.74777375  0.92366611  0.53929877  1
  O  O40  1  0.73006814  0.87653824  0.03517275  1
  O  O41  1  0.91267785  0.74646887  0.70987856  1
  O  O42  1  0.88238397  0.73056294  0.20987819  1
