# generated using pymatgen
data_Li3V5O12
_symmetry_space_group_name_H-M   'P 1'
_cell_length_a   5.36099745
_cell_length_b   10.80235855
_cell_length_c   9.55136667
_cell_angle_alpha   27.80310441
_cell_angle_beta   50.49843365
_cell_angle_gamma   56.09616697
_symmetry_Int_Tables_number   1
_chemical_formula_structural   Li3V5O12
_chemical_formula_sum   'Li3 V5 O12'
_cell_volume   199.05680481
_cell_formula_units_Z   1
loop_
 _symmetry_equiv_pos_site_id
 _symmetry_equiv_pos_as_xyz
  1  'x, y, z'
loop_
 _atom_site_type_symbol
 _atom_site_label
 _atom_site_symmetry_multiplicity
 _atom_site_fract_x
 _atom_site_fract_y
 _atom_site_fract_z
 _atom_site_occupancy
  Li  Li0  1  0.28267489  0.50369929  0.28431301  1
  Li  Li1  1  0.78712267  0.00406656  0.78095987  1
  Li  Li2  1  0.78250817  0.49713097  0.79085611  1
  V  V3  1  0.00716110  0.00496002  0.99864248  1
  V  V4  1  0.98738200  0.49038124  0.01060048  1
  V  V5  1  0.48012831  0.99600694  0.52197398  1
  V  V6  1  0.51491749  0.51000484  0.47944471  1
  V  V7  1  0.30559990  0.00032077  0.28667440  1
  O  O8  1  0.36876374  0.28858489  0.12117016  1
  O  O9  1  0.22791211  0.12474477  0.61142102  1
  O  O10  1  0.11325080  0.30906754  0.73180535  1
  O  O11  1  0.86490866  0.18065358  0.23177696  1
  O  O12  1  0.34543274  0.81158278  0.11104048  1
  O  O13  1  0.72994479  0.38499851  0.34660871  1
  O  O14  1  0.21650689  0.63565369  0.60799952  1
  O  O15  1  0.60035262  0.17267194  0.87524936  1
  O  O16  1  0.12998689  0.82883517  0.70329047  1
  O  O17  1  0.85443673  0.69213689  0.22693545  1
  O  O18  1  0.73108760  0.87044542  0.35580224  1
  O  O19  1  0.59952289  0.69405419  0.85303524  1
