# generated using pymatgen
data_Li3Co2(SiO4)2
_symmetry_space_group_name_H-M   'P 1'
_cell_length_a   6.11752832
_cell_length_b   11.02829637
_cell_length_c   5.03463753
_cell_angle_alpha   90.00000000
_cell_angle_beta   90.12220833
_cell_angle_gamma   90.00000000
_symmetry_Int_Tables_number   1
_chemical_formula_structural   Li3Co2(SiO4)2
_chemical_formula_sum   'Li6 Co4 Si4 O16'
_cell_volume   339.66565720
_cell_formula_units_Z   2
loop_
 _symmetry_equiv_pos_site_id
 _symmetry_equiv_pos_as_xyz
  1  'x, y, z'
loop_
 _atom_site_type_symbol
 _atom_site_label
 _atom_site_symmetry_multiplicity
 _atom_site_fract_x
 _atom_site_fract_y
 _atom_site_fract_z
 _atom_site_occupancy
  Li  Li0  1  0.00681270  0.08556521  0.68110698  1
  Li  Li1  1  0.49318730  0.58556521  0.81889302  1
  Li  Li2  1  0.49904498  0.92256248  0.33202007  1
  Li  Li3  1  0.49960607  0.41475511  0.18462390  1
  Li  Li4  1  0.00095502  0.42256248  0.16797993  1
  Li  Li5  1  0.00039393  0.91475511  0.31537610  1
  Co  Co6  1  0.24288875  0.66807431  0.32798993  1
  Co  Co7  1  0.25711125  0.16807431  0.17201007  1
  Co  Co8  1  0.75012769  0.32877262  0.67497397  1
  Co  Co9  1  0.74987231  0.82877262  0.82502603  1
  Si  Si10  1  0.24627284  0.33104979  0.66918387  1
  Si  Si11  1  0.25372716  0.83104979  0.83081613  1
  Si  Si12  1  0.74684666  0.66427348  0.32718655  1
  Si  Si13  1  0.75315334  0.16427348  0.17281345  1
  O  O14  1  0.01906253  0.39953020  0.77387010  1
  O  O15  1  0.02753596  0.90329197  0.72410021  1
  O  O16  1  0.25020037  0.33324693  0.34232262  1
  O  O17  1  0.24077401  0.19322351  0.78790915  1
  O  O18  1  0.25922599  0.69322351  0.71209085  1
  O  O19  1  0.24979963  0.83324693  0.15767738  1
  O  O20  1  0.48093747  0.89953020  0.72612990  1
  O  O21  1  0.47246404  0.40329197  0.77589979  1
  O  O22  1  0.53299303  0.08980070  0.24981028  1
  O  O23  1  0.52792050  0.59171562  0.21862464  1
  O  O24  1  0.72890633  0.67897766  0.65423779  1
  O  O25  1  0.77109367  0.17897766  0.84576221  1
  O  O26  1  0.74881204  0.30695043  0.29433745  1
  O  O27  1  0.75118796  0.80695043  0.20566255  1
  O  O28  1  0.97207950  0.09171562  0.28137536  1
  O  O29  1  0.96700697  0.58980070  0.25018972  1
