# generated using pymatgen
data_TlSbO3
_symmetry_space_group_name_H-M   'P 1'
_cell_length_a   5.40304114
_cell_length_b   5.40304124
_cell_length_c   16.24378231
_cell_angle_alpha   90.00000000
_cell_angle_beta   90.00000000
_cell_angle_gamma   119.99999939
_symmetry_Int_Tables_number   1
_chemical_formula_structural   TlSbO3
_chemical_formula_sum   'Tl4 Sb4 O12'
_cell_volume   410.67129887
_cell_formula_units_Z   4
loop_
 _symmetry_equiv_pos_site_id
 _symmetry_equiv_pos_as_xyz
  1  'x, y, z'
loop_
 _atom_site_type_symbol
 _atom_site_label
 _atom_site_symmetry_multiplicity
 _atom_site_fract_x
 _atom_site_fract_y
 _atom_site_fract_z
 _atom_site_occupancy
  Tl  Tl0  1  0.66666700  0.33333300  0.94534696  1
  Tl  Tl1  1  0.66666700  0.33333300  0.55465304  1
  Tl  Tl2  1  0.33333300  0.66666700  0.44534696  1
  Tl  Tl3  1  0.33333300  0.66666700  0.05465304  1
  Sb  Sb4  1  0.33333300  0.66666700  0.25000000  1
  Sb  Sb5  1  0.00000000  0.00000000  0.25000000  1
  Sb  Sb6  1  0.66666700  0.33333300  0.75000000  1
  Sb  Sb7  1  0.00000000  0.00000000  0.75000000  1
  O  O8  1  0.33611189  0.06414704  0.82231396  1
  O  O9  1  0.93585296  0.27196485  0.82231396  1
  O  O10  1  0.93585296  0.66388811  0.67768604  1
  O  O11  1  0.66388811  0.72803515  0.17768604  1
  O  O12  1  0.06414704  0.33611189  0.17768604  1
  O  O13  1  0.06414704  0.72803515  0.32231396  1
  O  O14  1  0.33611189  0.27196485  0.67768604  1
  O  O15  1  0.72803515  0.06414704  0.67768604  1
  O  O16  1  0.72803515  0.66388811  0.82231396  1
  O  O17  1  0.27196485  0.93585296  0.17768604  1
  O  O18  1  0.27196485  0.33611189  0.32231396  1
  O  O19  1  0.66388811  0.93585296  0.32231396  1
