# generated using pymatgen
data_Li4Cr3Cu(PO4)4
_symmetry_space_group_name_H-M   'P 1'
_cell_length_a   4.76901447
_cell_length_b   10.22045208
_cell_length_c   6.24362499
_cell_angle_alpha   90.00000000
_cell_angle_beta   90.00000000
_cell_angle_gamma   89.96290255
_symmetry_Int_Tables_number   1
_chemical_formula_structural   Li4Cr3Cu(PO4)4
_chemical_formula_sum   'Li4 Cr3 Cu1 P4 O16'
_cell_volume   304.32348301
_cell_formula_units_Z   1
loop_
 _symmetry_equiv_pos_site_id
 _symmetry_equiv_pos_as_xyz
  1  'x, y, z'
loop_
 _atom_site_type_symbol
 _atom_site_label
 _atom_site_symmetry_multiplicity
 _atom_site_fract_x
 _atom_site_fract_y
 _atom_site_fract_z
 _atom_site_occupancy
  Li  Li0  1  0.00373378  0.99532905  0.99400101  1
  Li  Li1  1  0.00373378  0.99532905  0.50599899  1
  Li  Li2  1  0.50010443  0.50293481  0.50535916  1
  Li  Li3  1  0.50010443  0.50293481  0.99464084  1
  Cr  Cr4  1  0.45948501  0.21542018  0.75000000  1
  Cr  Cr5  1  0.53124472  0.78025371  0.25000000  1
  Cr  Cr6  1  0.95675379  0.28263357  0.25000000  1
  Cu  Cu7  1  0.04229371  0.71383479  0.75000000  1
  P  P8  1  0.08407930  0.59587807  0.25000000  1
  P  P9  1  0.41790203  0.09317653  0.25000000  1
  P  P10  1  0.58052582  0.90567796  0.75000000  1
  P  P11  1  0.91706838  0.40629374  0.75000000  1
  O  O12  1  0.19347778  0.45202176  0.25000000  1
  O  O13  1  0.22232441  0.66553947  0.05273088  1
  O  O14  1  0.22232441  0.66553947  0.44726912  1
  O  O15  1  0.24187666  0.39818848  0.75000000  1
  O  O16  1  0.25672504  0.90374857  0.75000000  1
  O  O17  1  0.28354813  0.16122572  0.05136913  1
  O  O18  1  0.28354813  0.16122572  0.44863087  1
  O  O19  1  0.30404430  0.94961391  0.25000000  1
  O  O20  1  0.70162204  0.04873918  0.75000000  1
  O  O21  1  0.71125383  0.83895725  0.54738539  1
  O  O22  1  0.71125383  0.83895725  0.95261461  1
  O  O23  1  0.74202792  0.10035747  0.25000000  1
  O  O24  1  0.75927225  0.60269182  0.25000000  1
  O  O25  1  0.78365569  0.33740636  0.55084453  1
  O  O26  1  0.78365569  0.33740636  0.94915547  1
  O  O27  1  0.80236170  0.54868394  0.75000000  1
