# generated using pymatgen
data_Li4Fe2Cu3Sn3O16
_symmetry_space_group_name_H-M   'P 1'
_cell_length_a   6.04514890
_cell_length_b   6.10305216
_cell_length_c   9.64526579
_cell_angle_alpha   90.01871918
_cell_angle_beta   89.66665264
_cell_angle_gamma   120.32360122
_symmetry_Int_Tables_number   1
_chemical_formula_structural   Li4Fe2Cu3Sn3O16
_chemical_formula_sum   'Li4 Fe2 Cu3 Sn3 O16'
_cell_volume   307.15965192
_cell_formula_units_Z   1
loop_
 _symmetry_equiv_pos_site_id
 _symmetry_equiv_pos_as_xyz
  1  'x, y, z'
loop_
 _atom_site_type_symbol
 _atom_site_label
 _atom_site_symmetry_multiplicity
 _atom_site_fract_x
 _atom_site_fract_y
 _atom_site_fract_z
 _atom_site_occupancy
  Li  Li0  1  0.34934405  0.67479797  0.88506415  1
  Li  Li1  1  0.96367070  0.98197358  0.99060467  1
  Li  Li2  1  0.97346770  0.98679193  0.50223990  1
  Li  Li3  1  0.67621431  0.33803536  0.39761599  1
  Fe  Fe4  1  0.33833332  0.66967464  0.49768332  1
  Fe  Fe5  1  0.67730870  0.33870136  0.98645070  1
  Cu  Cu6  1  0.66199766  0.83129629  0.21578601  1
  Cu  Cu7  1  0.83239255  0.66099894  0.71341539  1
  Cu  Cu8  1  0.83249388  0.17153837  0.71365411  1
  Sn  Sn9  1  0.17202623  0.83161148  0.21450231  1
  Sn  Sn10  1  0.17062747  0.33978638  0.21392309  1
  Sn  Sn11  1  0.34106374  0.17022019  0.71339166  1
  O  O12  1  0.16190415  0.83653342  0.59460486  1
  O  O13  1  0.03713212  0.51853548  0.34531931  1
  O  O14  1  0.34795750  0.67379070  0.09965381  1
  O  O15  1  0.98770786  0.99364234  0.31483037  1
  O  O16  1  0.97976594  0.98967925  0.80364820  1
  O  O17  1  0.16195881  0.32543240  0.59423382  1
  O  O18  1  0.48674914  0.96413002  0.34430554  1
  O  O19  1  0.48750022  0.52264106  0.34452154  1
  O  O20  1  0.32337686  0.16189530  0.09204482  1
  O  O21  1  0.65907759  0.82928973  0.60251268  1
  O  O22  1  0.52641087  0.48465319  0.84340436  1
  O  O23  1  0.52644805  0.04181860  0.84342865  1
  O  O24  1  0.68842843  0.34447988  0.60787474  1
  O  O25  1  0.83547474  0.66930426  0.09681117  1
  O  O26  1  0.96410893  0.48209692  0.83946925  1
  O  O27  1  0.83705749  0.16695296  0.09684457  1
