# generated using pymatgen
data_Li3Co2Si3O10
_symmetry_space_group_name_H-M   'P 1'
_cell_length_a   5.41814549
_cell_length_b   5.34744668
_cell_length_c   16.94442222
_cell_angle_alpha   85.17942948
_cell_angle_beta   84.48035342
_cell_angle_gamma   59.74420820
_symmetry_Int_Tables_number   1
_chemical_formula_structural   Li3Co2Si3O10
_chemical_formula_sum   'Li6 Co4 Si6 O20'
_cell_volume   421.73432865
_cell_formula_units_Z   2
loop_
 _symmetry_equiv_pos_site_id
 _symmetry_equiv_pos_as_xyz
  1  'x, y, z'
loop_
 _atom_site_type_symbol
 _atom_site_label
 _atom_site_symmetry_multiplicity
 _atom_site_fract_x
 _atom_site_fract_y
 _atom_site_fract_z
 _atom_site_occupancy
  Li  Li0  1  0.67565938  0.82683122  0.94435818  1
  Li  Li1  1  0.55518859  0.82113958  0.26988159  1
  Li  Li2  1  0.82435856  0.67870497  0.44551590  1
  Li  Li3  1  0.17729535  0.32028644  0.55356924  1
  Li  Li4  1  0.44055540  0.17550688  0.73359753  1
  Li  Li5  1  0.32481595  0.17406582  0.05232943  1
  Co  Co6  1  0.17654402  0.01040646  0.41347129  1
  Co  Co7  1  0.99570254  0.81757743  0.08334395  1
  Co  Co8  1  0.00900802  0.18552405  0.91145637  1
  Co  Co9  1  0.82510074  0.98729383  0.58630434  1
  Si  Si10  1  0.14045096  0.86849862  0.74967649  1
  Si  Si11  1  0.47663977  0.67379346  0.59691731  1
  Si  Si12  1  0.66539097  0.48371886  0.10184179  1
  Si  Si13  1  0.33214308  0.52111426  0.90171369  1
  Si  Si14  1  0.52637287  0.32217325  0.40284183  1
  Si  Si15  1  0.86092254  0.12976907  0.24981051  1
  O  O16  1  0.86393625  0.93590894  0.70333641  1
  O  O17  1  0.88885114  0.88410868  0.19313685  1
  O  O18  1  0.78206783  0.64682878  0.56345005  1
  O  O19  1  0.66201415  0.78004756  0.06552519  1
  O  O20  1  0.40784745  0.81985470  0.68429574  1
  O  O21  1  0.20973154  0.92135947  0.54450908  1
  O  O22  1  0.05747809  0.79859861  0.94807453  1
  O  O23  1  0.53569796  0.62513469  0.39453917  1
  O  O24  1  0.62856754  0.51798131  0.91404385  1
  O  O25  1  0.72383139  0.44758131  0.19742085  1
  O  O26  1  0.26634673  0.55985432  0.80563976  1
  O  O27  1  0.36053781  0.49789495  0.08902422  1
  O  O28  1  0.47118989  0.36869574  0.60348492  1
  O  O29  1  0.93465185  0.20020371  0.05745948  1
  O  O30  1  0.78968284  0.07471718  0.45610439  1
  O  O31  1  0.59880723  0.16768994  0.31564050  1
  O  O32  1  0.34447748  0.21996804  0.93667888  1
  O  O33  1  0.21901710  0.35444412  0.43612018  1
  O  O34  1  0.10842605  0.12538703  0.80087322  1
  O  O35  1  0.14066592  0.05735674  0.29401328  1
