# generated using pymatgen
data_Li3Cu2Ni5O12
_symmetry_space_group_name_H-M   'P 1'
_cell_length_a   5.02385025
_cell_length_b   5.03365925
_cell_length_c   28.70152271
_cell_angle_alpha   85.60012654
_cell_angle_beta   93.89759755
_cell_angle_gamma   63.27841964
_symmetry_Int_Tables_number   1
_chemical_formula_structural   Li3Cu2Ni5O12
_chemical_formula_sum   'Li9 Cu6 Ni15 O36'
_cell_volume   642.09512482
_cell_formula_units_Z   3
loop_
 _symmetry_equiv_pos_site_id
 _symmetry_equiv_pos_as_xyz
  1  'x, y, z'
loop_
 _atom_site_type_symbol
 _atom_site_label
 _atom_site_symmetry_multiplicity
 _atom_site_fract_x
 _atom_site_fract_y
 _atom_site_fract_z
 _atom_site_occupancy
  Li  Li0  1  0.65145193  0.15335153  0.99790645  1
  Li  Li1  1  0.15405493  0.65134618  0.16843864  1
  Li  Li2  1  0.64854725  0.15635462  0.66540054  1
  Li  Li3  1  0.65216587  0.15435436  0.33108475  1
  Li  Li4  1  0.83446157  0.35197661  0.83307348  1
  Li  Li5  1  0.83636007  0.35029404  0.50019971  1
  Li  Li6  1  0.93517596  0.90928924  0.91533159  1
  Li  Li7  1  0.93424118  0.90794976  0.58258935  1
  Li  Li8  1  0.92283518  0.92540079  0.24964880  1
  Cu  Cu9  1  0.26349368  0.25733299  0.91654318  1
  Cu  Cu10  1  0.26126646  0.25603082  0.58343470  1
  Cu  Cu11  1  0.25079463  0.25105843  0.25004096  1
  Cu  Cu12  1  0.74028550  0.74199958  0.74990605  1
  Cu  Cu13  1  0.74374275  0.74265576  0.41633322  1
  Cu  Cu14  1  0.73664513  0.74105171  0.08331738  1
  Ni  Ni15  1  0.08331398  0.07095244  0.75029281  1
  Ni  Ni16  1  0.08524283  0.07273602  0.41655130  1
  Ni  Ni17  1  0.07990242  0.08456136  0.08326509  1
  Ni  Ni18  1  0.40456332  0.41766582  0.75017188  1
  Ni  Ni19  1  0.40537451  0.42062513  0.41671915  1
  Ni  Ni20  1  0.58924817  0.59380617  0.91673704  1
  Ni  Ni21  1  0.40790150  0.41339259  0.08290264  1
  Ni  Ni22  1  0.58776128  0.59117457  0.58380105  1
  Ni  Ni23  1  0.50349679  0.99499677  0.83431923  1
  Ni  Ni24  1  0.58999965  0.59159654  0.25000008  1
  Ni  Ni25  1  0.50513266  0.99881321  0.50065149  1
  Ni  Ni26  1  0.99712293  0.51477825  0.99853212  1
  Ni  Ni27  1  0.50867470  0.99939923  0.16780443  1
  Ni  Ni28  1  0.99548490  0.51358019  0.66594587  1
  Ni  Ni29  1  0.99709046  0.50982104  0.33209096  1
  O  O30  1  0.17539287  0.31044223  0.79466660  1
  O  O31  1  0.00851704  0.78143744  0.71231983  1
  O  O32  1  0.32387736  0.19395209  0.70645811  1
  O  O33  1  0.16535534  0.31899153  0.46081899  1
  O  O34  1  0.31556244  0.51674207  0.95334457  1
  O  O35  1  0.01362022  0.77879549  0.37872884  1
  O  O36  1  0.32827779  0.19355570  0.37294043  1
  O  O37  1  0.18806458  0.32983958  0.12866918  1
  O  O38  1  0.31622653  0.51460318  0.62045477  1
  O  O39  1  0.54754856  0.29164470  0.88187589  1
  O  O40  1  0.25845332  0.95903566  0.88188209  1
  O  O41  1  0.01314522  0.77355771  0.04611364  1
  O  O42  1  0.32577272  0.19324262  0.03777596  1
  O  O43  1  0.31001910  0.51030826  0.28635451  1
  O  O44  1  0.54776966  0.28467113  0.54817670  1
  O  O45  1  0.25503827  0.95771932  0.54902836  1
  O  O46  1  0.75409807  0.02951623  0.78691145  1
  O  O47  1  0.46767200  0.70017378  0.78587065  1
  O  O48  1  0.51103252  0.31322517  0.21370774  1
  O  O49  1  0.26451597  0.94050316  0.21517623  1
  O  O50  1  0.75894638  0.03029430  0.45347650  1
  O  O51  1  0.46849017  0.70699692  0.45259831  1
  O  O52  1  0.72382730  0.44811794  0.71551381  1
  O  O53  1  0.67496553  0.82410613  0.95870368  1
  O  O54  1  0.94683572  0.27217704  0.95120989  1
  O  O55  1  0.76725774  0.01767147  0.12010072  1
  O  O56  1  0.44302499  0.72841714  0.11811783  1
  O  O57  1  0.81594438  0.66270757  0.87326742  1
  O  O58  1  0.72513129  0.44989140  0.38165622  1
  O  O59  1  0.67073708  0.82340650  0.62568489  1
  O  O60  1  0.94616237  0.27025523  0.61851863  1
  O  O61  1  0.81902429  0.65451236  0.54114134  1
  O  O62  1  0.72470445  0.44921398  0.04858660  1
  O  O63  1  0.67143099  0.82186884  0.29249805  1
  O  O64  1  0.93791494  0.26390949  0.28484717  1
  O  O65  1  0.82025763  0.67570991  0.20732047  1
