# generated using pymatgen
data_Cu2SiS3
_symmetry_space_group_name_H-M   'P 1'
_cell_length_a   6.34887450
_cell_length_b   6.34887387
_cell_length_c   6.12718986
_cell_angle_alpha   90.00000000
_cell_angle_beta   90.00000000
_cell_angle_gamma   119.99999809
_symmetry_Int_Tables_number   1
_chemical_formula_structural   Cu2SiS3
_chemical_formula_sum   'Cu4 Si2 S6'
_cell_volume   213.88750735
_cell_formula_units_Z   2
loop_
 _symmetry_equiv_pos_site_id
 _symmetry_equiv_pos_as_xyz
  1  'x, y, z'
loop_
 _atom_site_type_symbol
 _atom_site_label
 _atom_site_symmetry_multiplicity
 _atom_site_fract_x
 _atom_site_fract_y
 _atom_site_fract_z
 _atom_site_occupancy
  Cu  Cu0  1  0.66944670  0.66944670  0.37997655  1
  Cu  Cu1  1  -0.00000000  -0.00000000  0.85864039  1
  Cu  Cu2  1  0.00000000  0.33055330  0.37997655  1
  Cu  Cu3  1  0.33055330  1.00000000  0.37997655  1
  Si  Si4  1  0.66666700  0.33333300  0.85310068  1
  Si  Si5  1  0.33333300  0.66666700  0.85310068  1
  S  S6  1  0.64739097  0.64739097  0.00645138  1
  S  S7  1  0.35260903  0.00000000  0.00645138  1
  S  S8  1  0.33333300  0.66666700  0.51628569  1
  S  S9  1  1.00000000  0.35260903  0.00645138  1
  S  S10  1  -0.00000000  -0.00000000  0.49330306  1
  S  S11  1  0.66666700  0.33333300  0.51628569  1
