# generated using pymatgen
data_BaLaCl5
_symmetry_space_group_name_H-M   'P 1'
_cell_length_a   10.80592227
_cell_length_b   7.81522847
_cell_length_c   7.81522847
_cell_angle_alpha   71.38419641
_cell_angle_beta   69.86561781
_cell_angle_gamma   69.86561781
_symmetry_Int_Tables_number   1
_chemical_formula_structural   BaLaCl5
_chemical_formula_sum   'Ba2 La2 Cl10'
_cell_volume   566.51375963
_cell_formula_units_Z   2
loop_
 _symmetry_equiv_pos_site_id
 _symmetry_equiv_pos_as_xyz
  1  'x, y, z'
loop_
 _atom_site_type_symbol
 _atom_site_label
 _atom_site_symmetry_multiplicity
 _atom_site_fract_x
 _atom_site_fract_y
 _atom_site_fract_z
 _atom_site_occupancy
  Ba  Ba0  1  0.75000000  0.54512016  0.45487984  1
  Ba  Ba1  1  0.25000000  0.45487984  0.54512016  1
  La  La2  1  0.50000000  -0.00000000  0.00000000  1
  La  La3  1  -0.00000000  -0.00000000  0.00000000  1
  Cl  Cl4  1  0.87784360  0.25754980  0.21539258  1
  Cl  Cl5  1  0.96969679  0.29445701  0.68260545  1
  Cl  Cl6  1  0.37784360  0.21539258  0.25754980  1
  Cl  Cl7  1  0.75000000  0.90314667  0.09685333  1
  Cl  Cl8  1  0.53030321  0.31739455  0.70554299  1
  Cl  Cl9  1  0.46969679  0.68260545  0.29445701  1
  Cl  Cl10  1  0.25000000  0.09685333  0.90314667  1
  Cl  Cl11  1  0.62215640  0.78460742  0.74245020  1
  Cl  Cl12  1  0.03030321  0.70554299  0.31739455  1
  Cl  Cl13  1  0.12215640  0.74245020  0.78460742  1
