# generated using pymatgen
data_FeOF
_symmetry_space_group_name_H-M   'P 1'
_cell_length_a   14.19824044
_cell_length_b   9.45686065
_cell_length_c   3.09815499
_cell_angle_alpha   90.00000000
_cell_angle_beta   90.00000000
_cell_angle_gamma   90.22440164
_symmetry_Int_Tables_number   1
_chemical_formula_structural   FeOF
_chemical_formula_sum   'Fe12 O12 F12'
_cell_volume   415.98850073
_cell_formula_units_Z   12
loop_
 _symmetry_equiv_pos_site_id
 _symmetry_equiv_pos_as_xyz
  1  'x, y, z'
loop_
 _atom_site_type_symbol
 _atom_site_label
 _atom_site_symmetry_multiplicity
 _atom_site_fract_x
 _atom_site_fract_y
 _atom_site_fract_z
 _atom_site_occupancy
  Fe  Fe0  1  0.00020540  0.00277286  0.00000000  1
  Fe  Fe1  1  0.00820932  0.49640809  0.00000000  1
  Fe  Fe2  1  0.16672181  0.28004580  0.50000000  1
  Fe  Fe3  1  0.14743475  0.75029988  0.50000000  1
  Fe  Fe4  1  0.33758098  0.00490028  0.00000000  1
  Fe  Fe5  1  0.33928072  0.48781768  0.00000000  1
  Fe  Fe6  1  0.52096328  0.75389943  0.50000000  1
  Fe  Fe7  1  0.48894681  0.24620630  0.50000000  1
  Fe  Fe8  1  0.67561314  0.98995310  0.00000000  1
  Fe  Fe9  1  0.66607178  0.51440872  -0.00000000  1
  Fe  Fe10  1  0.83086114  0.22081899  0.50000000  1
  Fe  Fe11  1  0.81901765  0.74514300  0.50000000  1
  O  O12  1  0.05832692  0.39896736  0.50000000  1
  O  O13  1  0.06814388  0.90918137  0.50000000  1
  O  O14  1  0.10167976  0.64970816  0.00000000  1
  O  O15  1  0.23489940  0.35097569  -0.00000000  1
  O  O16  1  0.40477390  0.40818977  0.50000000  1
  O  O17  1  0.42969567  0.14692121  0.00000000  1
  O  O18  1  0.56285804  0.85564067  0.00000000  1
  O  O19  1  0.59904956  0.58824422  0.50000000  1
  O  O20  1  0.73207479  0.89925333  0.50000000  1
  O  O21  1  0.76361727  0.15253288  0.00000000  1
  O  O22  1  0.76988661  0.64696147  0.00000000  1
  O  O23  1  0.93848023  0.09890679  0.50000000  1
  F  F24  1  0.11121723  0.15489302  0.00000000  1
  F  F25  1  0.23859438  0.85210765  0.00000000  1
  F  F26  1  0.26654625  0.09163782  0.50000000  1
  F  F27  1  0.27298375  0.60619938  0.50000000  1
  F  F28  1  0.39501667  0.90033229  0.50000000  1
  F  F29  1  0.43158733  0.66330373  0.00000000  1
  F  F30  1  0.56627139  0.33603851  0.00000000  1
  F  F31  1  0.59731683  0.10261215  0.50000000  1
  F  F32  1  0.72992148  0.39930535  0.50000000  1
  F  F33  1  0.89289324  0.35575601  -0.00000000  1
  F  F34  1  0.89982253  0.83982663  0.00000000  1
  F  F35  1  0.93343410  0.59983041  0.50000000  1
