# generated using pymatgen
data_Li2VCu(PO4)2
_symmetry_space_group_name_H-M   'P 1'
_cell_length_a   10.30202893
_cell_length_b   6.08338356
_cell_length_c   4.75273978
_cell_angle_alpha   89.99795424
_cell_angle_beta   90.89572932
_cell_angle_gamma   89.99652728
_symmetry_Int_Tables_number   1
_chemical_formula_structural   Li2VCu(PO4)2
_chemical_formula_sum   'Li4 V2 Cu2 P4 O16'
_cell_volume   297.82347536
_cell_formula_units_Z   2
loop_
 _symmetry_equiv_pos_site_id
 _symmetry_equiv_pos_as_xyz
  1  'x, y, z'
loop_
 _atom_site_type_symbol
 _atom_site_label
 _atom_site_symmetry_multiplicity
 _atom_site_fract_x
 _atom_site_fract_y
 _atom_site_fract_z
 _atom_site_occupancy
  Li  Li0  1  0.00116668  0.99880857  0.00183736  1
  Li  Li1  1  0.00115894  0.50118727  0.00182538  1
  Li  Li2  1  0.49944240  0.99889043  0.49982278  1
  Li  Li3  1  0.49943771  0.50111165  0.49981805  1
  V  V4  1  0.21966526  0.74999322  0.48410512  1
  V  V5  1  0.78008244  0.24999251  0.51650769  1
  Cu  Cu6  1  0.28384416  0.25001840  0.95054461  1
  Cu  Cu7  1  0.71646972  0.74995377  0.04647345  1
  P  P8  1  0.09204769  0.24999656  0.42327164  1
  P  P9  1  0.40400229  0.75000132  0.91381370  1
  P  P10  1  0.59569069  0.25000187  0.08718623  1
  P  P11  1  0.90795856  0.75001399  0.57510912  1
  O  O12  1  0.04689202  0.74999499  0.71485708  1
  O  O13  1  0.09068518  0.24998153  0.74598922  1
  O  O14  1  0.16059571  0.04169775  0.29895724  1
  O  O15  1  0.16059850  0.45829415  0.29897491  1
  O  O16  1  0.33064898  0.55161060  0.76826823  1
  O  O17  1  0.33063767  0.94839551  0.76825427  1
  O  O18  1  0.39716657  0.74999890  0.23700445  1
  O  O19  1  0.45574376  0.24999372  0.19664605  1
  O  O20  1  0.54405061  0.75000737  0.80256282  1
  O  O21  1  0.60355522  0.25001184  0.76419483  1
  O  O22  1  0.66921886  0.05168392  0.23362841  1
  O  O23  1  0.66918635  0.44831992  0.23369044  1
  O  O24  1  0.83850200  0.54167470  0.69821017  1
  O  O25  1  0.83850287  0.95834267  0.69821713  1
  O  O26  1  0.91066595  0.75000804  0.25318998  1
  O  O27  1  0.95238422  0.25001384  0.28703764  1
