# generated using pymatgen
data_Li19V8(BO3)16
_symmetry_space_group_name_H-M   'P 1'
_cell_length_a   5.19809479
_cell_length_b   8.87598195
_cell_length_c   19.82396822
_cell_angle_alpha   89.60638372
_cell_angle_beta   91.92355579
_cell_angle_gamma   90.97818434
_symmetry_Int_Tables_number   1
_chemical_formula_structural   Li19V8(BO3)16
_chemical_formula_sum   'Li19 V8 B16 O48'
_cell_volume   913.97535841
_cell_formula_units_Z   1
loop_
 _symmetry_equiv_pos_site_id
 _symmetry_equiv_pos_as_xyz
  1  'x, y, z'
loop_
 _atom_site_type_symbol
 _atom_site_label
 _atom_site_symmetry_multiplicity
 _atom_site_fract_x
 _atom_site_fract_y
 _atom_site_fract_z
 _atom_site_occupancy
  Li  Li0  1  0.12906750  0.95607353  0.83762732  1
  Li  Li1  1  0.16833394  0.66554780  0.31043533  1
  Li  Li2  1  0.17593847  0.98568906  0.03544666  1
  Li  Li3  1  0.32342327  0.48368613  0.71292695  1
  Li  Li4  1  0.36876285  0.46049772  0.91107535  1
  Li  Li5  1  0.31351291  0.13584310  0.44035103  1
  Li  Li6  1  0.35887346  0.47635363  0.41578606  1
  Li  Li7  1  0.63528379  0.54050208  0.58673752  1
  Li  Li8  1  0.71537825  0.52087674  0.81008989  1
  Li  Li9  1  0.66942047  0.85513678  0.55930661  1
  Li  Li10  1  0.64668127  0.52615474  0.08745617  1
  Li  Li11  1  0.64573906  0.52590610  0.29072826  1
  Li  Li12  1  0.67358230  0.84313565  0.05756655  1
  Li  Li13  1  0.79137540  0.01952336  0.93692937  1
  Li  Li14  1  0.82843556  0.34756082  0.69230867  1
  Li  Li15  1  0.83430051  0.02453181  0.45950816  1
  Li  Li16  1  0.85536001  0.03228443  0.66486421  1
  Li  Li17  1  0.83944747  0.35197437  0.19082905  1
  Li  Li18  1  0.85750897  0.03194642  0.16333892  1
  V  V19  1  0.13615113  0.30942734  0.56116810  1
  V  V20  1  0.15173656  0.32135518  0.06203068  1
  V  V21  1  0.35198671  0.82165542  0.68838766  1
  V  V22  1  0.35712683  0.82061994  0.18543858  1
  V  V23  1  0.62603831  0.20007351  0.81596426  1
  V  V24  1  0.64841208  0.16911050  0.31252066  1
  V  V25  1  0.87298250  0.69982352  0.93434262  1
  V  V26  1  0.87220140  0.69897757  0.44034360  1
  B  B27  1  0.17673468  0.29879799  0.80531516  1
  B  B28  1  0.15645840  0.65540955  0.56842057  1
  B  B29  1  0.16832857  0.33218516  0.31047635  1
  B  B30  1  0.14906843  0.65720240  0.06606583  1
  B  B31  1  0.32639832  0.79952725  0.94442815  1
  B  B32  1  0.34861696  0.15696050  0.68340531  1
  B  B33  1  0.32918740  0.82150923  0.44073468  1
  B  B34  1  0.33878204  0.15713527  0.18557535  1
  B  B35  1  0.65077652  0.85213329  0.81500183  1
  B  B36  1  0.66425822  0.19528851  0.56257020  1
  B  B37  1  0.67507085  0.83303103  0.31182666  1
  B  B38  1  0.67175373  0.18046929  0.06172913  1
  B  B39  1  0.84670589  0.35136538  0.93559241  1
  B  B40  1  0.82862004  0.68129603  0.68962135  1
  B  B41  1  0.83239257  0.34321903  0.43431262  1
  B  B42  1  0.83353871  0.68391635  0.18563976  1
  O  O43  1  0.09100820  0.33732777  0.96855026  1
  O  O44  1  0.09372585  0.66591902  0.69710201  1
  O  O45  1  0.08178698  0.31649568  0.46169743  1
  O  O46  1  0.09283523  0.68362721  0.20317962  1
  O  O47  1  0.12284831  0.90120861  0.94202696  1
  O  O48  1  0.14484432  0.92728880  0.44444441  1
  O  O49  1  0.19255639  0.27609675  0.66219832  1
  O  O50  1  0.23322184  0.01144782  0.67596074  1
  O  O51  1  0.24600473  0.65175901  0.93587501  1
  O  O52  1  0.17843480  0.26657553  0.16199736  1
  O  O53  1  0.23069853  0.00882042  0.18276496  1
  O  O54  1  0.24204284  0.67536355  0.42437982  1
  O  O55  1  0.25083001  0.15094636  0.81310079  1
  O  O56  1  0.29456390  0.19368348  0.32000506  1
  O  O57  1  0.24784663  0.50348934  0.56858488  1
  O  O58  1  0.34032222  0.75797957  0.59084136  1
  O  O59  1  0.38403105  0.40124099  0.80794363  1
  O  O60  1  0.26757394  0.51462654  0.07316196  1
  O  O61  1  0.30258269  0.78060969  0.08642568  1
  O  O62  1  0.30073302  0.46231462  0.31711496  1
  O  O63  1  0.40651608  0.83655395  0.78234409  1
  O  O64  1  0.40401321  0.17843725  0.54522341  1
  O  O65  1  0.43866224  0.80887542  0.27990474  1
  O  O66  1  0.40571055  0.16670303  0.05396542  1
  O  O67  1  0.57868983  0.84050082  0.95785858  1
  O  O68  1  0.59863984  0.17231483  0.70519426  1
  O  O69  1  0.59161903  0.84778949  0.45340388  1
  O  O70  1  0.58946933  0.17432798  0.21060272  1
  O  O71  1  0.66829056  0.55773711  0.69093559  1
  O  O72  1  0.71773012  0.22347226  0.91474415  1
  O  O73  1  0.74477432  0.48963322  0.92185196  1
  O  O74  1  0.68777862  0.55692558  0.18845929  1
  O  O75  1  0.68815657  0.21602684  0.41155111  1
  O  O76  1  0.73486207  0.48465524  0.43121128  1
  O  O77  1  0.72466408  0.82438217  0.67652376  1
  O  O78  1  0.72028374  0.82308250  0.16769558  1
  O  O79  1  0.77051200  0.33752655  0.57761948  1
  O  O80  1  0.75402586  0.99151045  0.82918299  1
  O  O81  1  0.78071335  0.72573369  0.83552322  1
  O  O82  1  0.78162486  0.32276769  0.07670398  1
  O  O83  1  0.76796108  0.98285109  0.31842737  1
  O  O84  1  0.81371386  0.71493333  0.33529082  1
  O  O85  1  0.82767982  0.07754506  0.56109024  1
  O  O86  1  0.82974562  0.05880778  0.06044071  1
  O  O87  1  0.92673475  0.34105473  0.79218891  1
  O  O88  1  0.91033124  0.68171390  0.54570689  1
  O  O89  1  0.90068588  0.32528584  0.29604833  1
  O  O90  1  0.89959069  0.66886193  0.04414043  1
