# generated using pymatgen
data_Li2Fe3CuO8
_symmetry_space_group_name_H-M   'P 1'
_cell_length_a   8.39293584
_cell_length_b   8.41845631
_cell_length_c   8.35225126
_cell_angle_alpha   89.98092697
_cell_angle_beta   89.94705203
_cell_angle_gamma   90.01503098
_symmetry_Int_Tables_number   1
_chemical_formula_structural   Li2Fe3CuO8
_chemical_formula_sum   'Li8 Fe12 Cu4 O32'
_cell_volume   590.13271557
_cell_formula_units_Z   4
loop_
 _symmetry_equiv_pos_site_id
 _symmetry_equiv_pos_as_xyz
  1  'x, y, z'
loop_
 _atom_site_type_symbol
 _atom_site_label
 _atom_site_symmetry_multiplicity
 _atom_site_fract_x
 _atom_site_fract_y
 _atom_site_fract_z
 _atom_site_occupancy
  Li  Li0  1  0.12078185  0.87652785  0.37744225  1
  Li  Li1  1  0.24998270  0.75186003  0.74732866  1
  Li  Li2  1  0.24906849  0.25050901  0.24742965  1
  Li  Li3  1  0.37812709  0.12221406  0.87881573  1
  Li  Li4  1  0.62298256  0.62289455  0.62075558  1
  Li  Li5  1  0.75048977  0.74930394  0.25077305  1
  Li  Li6  1  0.75026872  0.25250801  0.75061451  1
  Li  Li7  1  0.87746189  0.37898818  0.12309646  1
  Fe  Fe8  1  0.12002708  0.62399517  0.12424810  1
  Fe  Fe9  1  0.12330910  0.37608823  0.88030375  1
  Fe  Fe10  1  0.12408548  0.11982290  0.62401611  1
  Fe  Fe11  1  0.37565080  0.87959257  0.12315690  1
  Fe  Fe12  1  0.37575563  0.62350340  0.37957275  1
  Fe  Fe13  1  0.37991753  0.37656184  0.62435089  1
  Fe  Fe14  1  0.62040227  0.87622046  0.87611680  1
  Fe  Fe15  1  0.62353379  0.12421411  0.12006749  1
  Fe  Fe16  1  0.62523484  0.38114726  0.37602946  1
  Fe  Fe17  1  0.87602762  0.61999887  0.87646708  1
  Fe  Fe18  1  0.87680355  0.87526530  0.61984329  1
  Fe  Fe19  1  0.88015555  0.12373473  0.37543921  1
  Cu  Cu20  1  0.99735637  0.50138503  0.49804424  1
  Cu  Cu21  1  0.50429955  0.49650537  0.99769919  1
  Cu  Cu22  1  0.49557681  0.99543510  0.50342190  1
  Cu  Cu23  1  0.00266408  0.00189070  0.00347240  1
  O  O24  1  0.10278673  0.12621302  0.38710375  1
  O  O25  1  0.10772894  0.89480682  0.62800699  1
  O  O26  1  0.11449378  0.61459633  0.88381785  1
  O  O27  1  0.12590163  0.39286164  0.10505366  1
  O  O28  1  0.11925403  0.14307480  0.86859440  1
  O  O29  1  0.13687536  0.36169676  0.63927325  1
  O  O30  1  0.13643795  0.61950953  0.35990102  1
  O  O31  1  0.13961819  0.86017984  0.11884650  1
  O  O32  1  0.35838111  0.13641137  0.61923422  1
  O  O33  1  0.36261716  0.38203722  0.86035638  1
  O  O34  1  0.36086083  0.63523371  0.13854208  1
  O  O35  1  0.37923582  0.85639958  0.36472041  1
  O  O36  1  0.37246180  0.61046405  0.60304298  1
  O  O37  1  0.38420852  0.38710732  0.38409236  1
  O  O38  1  0.39294866  0.10567535  0.12904378  1
  O  O39  1  0.39617207  0.87223322  0.88867811  1
  O  O40  1  0.60614133  0.37382217  0.60736364  1
  O  O41  1  0.60792187  0.60605843  0.37135001  1
  O  O42  1  0.61587113  0.88486098  0.11392692  1
  O  O43  1  0.62741650  0.11163783  0.89643865  1
  O  O44  1  0.62195866  0.36014800  0.13805876  1
  O  O45  1  0.63983868  0.13731831  0.36148752  1
  O  O46  1  0.63848692  0.87928744  0.64095818  1
  O  O47  1  0.64293810  0.63343629  0.88155471  1
  O  O48  1  0.86034867  0.36311857  0.37958187  1
  O  O49  1  0.86193030  0.12099995  0.13933203  1
  O  O50  1  0.86206581  0.86027186  0.86281544  1
  O  O51  1  0.88014909  0.64129336  0.63570180  1
  O  O52  1  0.87263848  0.89054384  0.39521886  1
  O  O53  1  0.88538839  0.11415267  0.61549818  1
  O  O54  1  0.89052960  0.39699260  0.87331914  1
  O  O55  1  0.89643076  0.62746849  0.11066109  1
