# generated using pymatgen
data_Li2CrCu(PO4)2
_symmetry_space_group_name_H-M   'P 1'
_cell_length_a   10.18698609
_cell_length_b   6.12847504
_cell_length_c   4.76663304
_cell_angle_alpha   90.00000000
_cell_angle_beta   89.98280528
_cell_angle_gamma   90.00000000
_symmetry_Int_Tables_number   1
_chemical_formula_structural   Li2CrCu(PO4)2
_chemical_formula_sum   'Li4 Cr2 Cu2 P4 O16'
_cell_volume   297.58417605
_cell_formula_units_Z   2
loop_
 _symmetry_equiv_pos_site_id
 _symmetry_equiv_pos_as_xyz
  1  'x, y, z'
loop_
 _atom_site_type_symbol
 _atom_site_label
 _atom_site_symmetry_multiplicity
 _atom_site_fract_x
 _atom_site_fract_y
 _atom_site_fract_z
 _atom_site_occupancy
  Li  Li0  1  0.00000000  0.00000000  0.00000000  1
  Li  Li1  1  0.00000000  0.50000000  0.00000000  1
  Li  Li2  1  0.50000000  0.00000000  0.50000000  1
  Li  Li3  1  0.50000000  0.50000000  0.50000000  1
  Cr  Cr4  1  0.21990279  0.75000000  0.48131030  1
  Cr  Cr5  1  0.78009721  0.25000000  0.51868970  1
  Cu  Cu6  1  0.28345473  0.25000000  0.95805706  1
  Cu  Cu7  1  0.71654527  0.75000000  0.04194294  1
  P  P8  1  0.09205938  0.25000000  0.42258757  1
  P  P9  1  0.40382079  0.75000000  0.91451060  1
  P  P10  1  0.59617921  0.25000000  0.08548940  1
  P  P11  1  0.90794062  0.75000000  0.57741243  1
  O  O12  1  0.05065656  0.75000000  0.70545679  1
  O  O13  1  0.09238567  0.25000000  0.74364432  1
  O  O14  1  0.15972417  0.04409828  0.29248507  1
  O  O15  1  0.15972417  0.45590172  0.29248507  1
  O  O16  1  0.33141352  0.55183626  0.77295806  1
  O  O17  1  0.33141352  0.94816374  0.77295806  1
  O  O18  1  0.39574155  0.75000000  0.23860480  1
  O  O19  1  0.45389339  0.25000000  0.19606458  1
  O  O20  1  0.54610661  0.75000000  0.80393542  1
  O  O21  1  0.60425845  0.25000000  0.76139520  1
  O  O22  1  0.66858648  0.05183626  0.22704194  1
  O  O23  1  0.66858648  0.44816374  0.22704194  1
  O  O24  1  0.84027583  0.54409828  0.70751493  1
  O  O25  1  0.84027583  0.95590172  0.70751493  1
  O  O26  1  0.90761433  0.75000000  0.25635568  1
  O  O27  1  0.94934344  0.25000000  0.29454321  1
