# generated using pymatgen
data_Li2Mn2P2(H4O5)3
_symmetry_space_group_name_H-M   'P 1'
_cell_length_a   4.89277017
_cell_length_b   11.42760231
_cell_length_c   12.12123404
_cell_angle_alpha   86.19489525
_cell_angle_beta   90.00000000
_cell_angle_gamma   77.63862631
_symmetry_Int_Tables_number   1
_chemical_formula_structural   Li2Mn2P2(H4O5)3
_chemical_formula_sum   'Li4 Mn4 P4 H24 O30'
_cell_volume   660.48860247
_cell_formula_units_Z   2
loop_
 _symmetry_equiv_pos_site_id
 _symmetry_equiv_pos_as_xyz
  1  'x, y, z'
loop_
 _atom_site_type_symbol
 _atom_site_label
 _atom_site_symmetry_multiplicity
 _atom_site_fract_x
 _atom_site_fract_y
 _atom_site_fract_z
 _atom_site_occupancy
  Li  Li0  1  0.97577787  0.78221199  0.92912592  1
  Li  Li1  1  0.24200913  0.78221199  0.42912592  1
  Li  Li2  1  0.75799087  0.21778801  0.57087408  1
  Li  Li3  1  0.02422213  0.21778801  0.07087408  1
  Mn  Mn4  1  0.07554462  0.50017301  0.87581440  1
  Mn  Mn5  1  0.57571663  0.49982699  0.62418560  1
  Mn  Mn6  1  0.42428337  0.50017301  0.37581440  1
  Mn  Mn7  1  0.92445538  0.49982699  0.12418560  1
  P  P8  1  0.51115732  0.66948099  0.78720530  1
  P  P9  1  0.81936169  0.66948099  0.28720530  1
  P  P10  1  0.18063831  0.33051901  0.71279470  1
  P  P11  1  0.48884268  0.33051901  0.21279470  1
  H  H12  1  0.56735790  0.96455234  0.84902519  1
  H  H13  1  0.23234391  0.92643400  0.77250383  1
  H  H14  1  0.46808975  0.96455234  0.34902519  1
  H  H15  1  0.11381915  0.86852874  0.62524738  1
  H  H16  1  0.84122109  0.92643400  0.27250383  1
  H  H17  1  0.01765211  0.86852874  0.12524738  1
  H  H18  1  0.96203240  0.76588681  0.60811222  1
  H  H19  1  0.27208179  0.76588681  0.10811222  1
  H  H20  1  0.63618784  0.46415936  0.93200642  1
  H  H21  1  0.10034720  0.53584064  0.56799358  1
  H  H22  1  0.89965180  0.46415936  0.43200642  1
  H  H23  1  0.36381216  0.53584064  0.06799358  1
  H  H24  1  0.72791821  0.23411319  0.89188778  1
  H  H25  1  0.03796760  0.23411319  0.39188778  1
  H  H26  1  0.98234789  0.13147126  0.87475262  1
  H  H27  1  0.15877891  0.07356600  0.72749617  1
  H  H28  1  0.88618085  0.13147126  0.37475262  1
  H  H29  1  0.53191025  0.03544766  0.65097481  1
  H  H30  1  0.72770327  0.01095526  0.94112803  1
  H  H31  1  0.76765609  0.07356600  0.22749617  1
  H  H32  1  0.73865853  0.98904474  0.55887197  1
  H  H33  1  0.43264210  0.03544766  0.15097481  1
  H  H34  1  0.26134147  0.01095526  0.44112803  1
  H  H35  1  0.27229673  0.98904474  0.05887197  1
  O  O36  1  0.71846365  0.93762626  0.90499484  1
  O  O37  1  0.34391110  0.93762626  0.40499484  1
  O  O38  1  0.01671143  0.83492926  0.56890552  1
  O  O39  1  0.28589250  0.77601936  0.81461859  1
  O  O40  1  0.14835931  0.83492926  0.06890552  1
  O  O41  1  0.58836796  0.66619198  0.66163003  1
  O  O42  1  0.93808914  0.77601936  0.31461859  1
  O  O43  1  0.78586430  0.65702759  0.85708577  1
  O  O44  1  0.74544007  0.66619198  0.16163003  1
  O  O45  1  0.55710811  0.65702759  0.35708577  1
  O  O46  1  0.40609093  0.54708733  0.80917944  1
  O  O47  1  0.25304425  0.56513850  0.53099549  1
  O  O48  1  0.04682174  0.54708733  0.30917944  1
  O  O49  1  0.81818276  0.43486150  0.96900451  1
  O  O50  1  0.18181724  0.56513850  0.03099549  1
  O  O51  1  0.95317826  0.45291267  0.69082056  1
  O  O52  1  0.74695575  0.43486150  0.46900451  1
  O  O53  1  0.59390907  0.45291267  0.19082056  1
  O  O54  1  0.44289189  0.34297241  0.64291423  1
  O  O55  1  0.25455993  0.33380802  0.83836997  1
  O  O56  1  0.21413570  0.34297241  0.14291423  1
  O  O57  1  0.06191086  0.22398064  0.68538141  1
  O  O58  1  0.41163204  0.33380802  0.33836997  1
  O  O59  1  0.85164069  0.16507074  0.93109448  1
  O  O60  1  0.71410750  0.22398064  0.18538141  1
  O  O61  1  0.98328857  0.16507074  0.43109448  1
  O  O62  1  0.65608890  0.06237374  0.59500516  1
  O  O63  1  0.30264038  0.00000000  0.75000000  1
  O  O64  1  0.28153635  0.06237374  0.09500516  1
  O  O65  1  0.69735962  0.00000000  0.25000000  1
