# generated using pymatgen
data_Fe10O11F9
_symmetry_space_group_name_H-M   'P 1'
_cell_length_a   4.72743679
_cell_length_b   4.73123704
_cell_length_c   15.36402164
_cell_angle_alpha   89.70417292
_cell_angle_beta   89.70164412
_cell_angle_gamma   89.05277748
_symmetry_Int_Tables_number   1
_chemical_formula_structural   Fe10O11F9
_chemical_formula_sum   'Fe10 O11 F9'
_cell_volume   343.58524805
_cell_formula_units_Z   1
loop_
 _symmetry_equiv_pos_site_id
 _symmetry_equiv_pos_as_xyz
  1  'x, y, z'
loop_
 _atom_site_type_symbol
 _atom_site_label
 _atom_site_symmetry_multiplicity
 _atom_site_fract_x
 _atom_site_fract_y
 _atom_site_fract_z
 _atom_site_occupancy
  Fe  Fe0  1  0.98030352  0.95634176  0.00666547  1
  Fe  Fe1  1  0.04455502  0.01991635  0.19460810  1
  Fe  Fe2  1  0.98540235  0.95010544  0.39767072  1
  Fe  Fe3  1  0.04854274  0.00328792  0.59901944  1
  Fe  Fe4  1  0.04444203  0.00318847  0.80228653  1
  Fe  Fe5  1  0.50968991  0.48943735  0.10048980  1
  Fe  Fe6  1  0.48487683  0.51911674  0.49927682  1
  Fe  Fe7  1  0.48169874  0.52529293  0.29960221  1
  Fe  Fe8  1  0.45892910  0.49093241  0.69978251  1
  Fe  Fe9  1  0.47762649  0.51856313  0.90082483  1
  O  O10  1  0.20792562  0.79209870  0.10065301  1
  O  O11  1  0.19021780  0.81711416  0.29675817  1
  O  O12  1  0.18823815  0.80636304  0.49823124  1
  O  O13  1  0.19798958  0.81314412  0.70052721  1
  O  O14  1  0.18134413  0.80617468  0.90379900  1
  O  O15  1  0.32896070  0.31849454  0.19857066  1
  O  O16  1  0.31316658  0.31249940  0.59704331  1
  O  O17  1  0.31004042  0.31328979  0.80285152  1
  O  O18  1  0.68082788  0.67106721  0.00245128  1
  O  O19  1  0.68282288  0.68036253  0.39915846  1
  O  O20  1  0.81010164  0.19027732  0.10068295  1
  F  F21  1  0.29455417  0.29115365  0.99918703  1
  F  F22  1  0.29119457  0.29849796  0.39889352  1
  F  F23  1  0.70880573  0.70544634  0.20174035  1
  F  F24  1  0.70034938  0.70480015  0.60053172  1
  F  F25  1  0.69721124  0.70546680  0.79953700  1
  F  F26  1  0.79780074  0.19428957  0.49919701  1
  F  F27  1  0.80012074  0.20184359  0.30048730  1
  F  F28  1  0.79484756  0.19502351  0.89976922  1
  F  F29  1  0.80741477  0.20640948  0.69970358  1
