# generated using pymatgen
data_Li12Cr3CoP4(CO7)4
_symmetry_space_group_name_H-M   'P 1'
_cell_length_a   8.63028712
_cell_length_b   10.00250059
_cell_length_c   6.46531980
_cell_angle_alpha   90.00000000
_cell_angle_beta   90.00000000
_cell_angle_gamma   85.48581620
_symmetry_Int_Tables_number   1
_chemical_formula_structural   Li12Cr3CoP4(CO7)4
_chemical_formula_sum   'Li12 Cr3 Co1 P4 C4 O28'
_cell_volume   556.38384827
_cell_formula_units_Z   1
loop_
 _symmetry_equiv_pos_site_id
 _symmetry_equiv_pos_as_xyz
  1  'x, y, z'
loop_
 _atom_site_type_symbol
 _atom_site_label
 _atom_site_symmetry_multiplicity
 _atom_site_fract_x
 _atom_site_fract_y
 _atom_site_fract_z
 _atom_site_occupancy
  Li  Li0  1  0.09711962  0.38490759  0.25000000  1
  Li  Li1  1  0.10372729  0.88205764  0.25000000  1
  Li  Li2  1  0.27342594  0.12694130  0.02416648  1
  Li  Li3  1  0.27342594  0.12694130  0.47583352  1
  Li  Li4  1  0.27427752  0.62679040  0.02355142  1
  Li  Li5  1  0.27427752  0.62679040  0.47644858  1
  Li  Li6  1  0.72676658  0.37467255  0.52513548  1
  Li  Li7  1  0.72676658  0.37467255  0.97486452  1
  Li  Li8  1  0.72693723  0.87232232  0.52396504  1
  Li  Li9  1  0.72693723  0.87232232  0.97603496  1
  Li  Li10  1  0.89831737  0.11664248  0.75000000  1
  Li  Li11  1  0.89767778  0.61733261  0.75000000  1
  Cr  Cr12  1  0.33407440  0.39528024  0.75000000  1
  Cr  Cr13  1  0.33553130  0.89265862  0.75000000  1
  Cr  Cr14  1  0.66664201  0.10633951  0.25000000  1
  Co  Co15  1  0.66813276  0.60291343  0.25000000  1
  P  P16  1  0.41100961  0.36196633  0.25000000  1
  P  P17  1  0.41548350  0.85807805  0.25000000  1
  P  P18  1  0.58891004  0.14017074  0.75000000  1
  P  P19  1  0.58973724  0.63916291  0.75000000  1
  C  C20  1  0.03176409  0.35240829  0.75000000  1
  C  C21  1  0.03212216  0.85249277  0.75000000  1
  C  C22  1  0.96947256  0.14718674  0.25000000  1
  C  C23  1  0.96045277  0.64902769  0.25000000  1
  O  O24  1  0.05876931  0.47705218  0.75000000  1
  O  O25  1  0.11061724  0.18501282  0.25000000  1
  O  O26  1  0.06059768  0.97676538  0.75000000  1
  O  O27  1  0.14955825  0.26116693  0.75000000  1
  O  O28  1  0.10359960  0.68192519  0.25000000  1
  O  O29  1  0.14892948  0.76025095  0.75000000  1
  O  O30  1  0.31108745  0.41789748  0.06330937  1
  O  O31  1  0.31108745  0.41789748  0.43669063  1
  O  O32  1  0.31320701  0.91126926  0.06375690  1
  O  O33  1  0.31320701  0.91126926  0.43624310  1
  O  O34  1  0.42209157  0.09309319  0.75000000  1
  O  O35  1  0.42033961  0.20635546  0.25000000  1
  O  O36  1  0.42223708  0.59329879  0.75000000  1
  O  O37  1  0.43225486  0.70162186  0.25000000  1
  O  O38  1  0.57986903  0.29578848  0.75000000  1
  O  O39  1  0.57785059  0.40904581  0.25000000  1
  O  O40  1  0.58059531  0.79499487  0.75000000  1
  O  O41  1  0.57880758  0.91030966  0.25000000  1
  O  O42  1  0.68841167  0.08401909  0.93666877  1
  O  O43  1  0.68841167  0.08401909  0.56333123  1
  O  O44  1  0.68898825  0.58374213  0.56237122  1
  O  O45  1  0.68898825  0.58374213  0.93762878  1
  O  O46  1  0.85183177  0.23875241  0.25000000  1
  O  O47  1  0.89055500  0.31501695  0.75000000  1
  O  O48  1  0.84476618  0.74172784  0.25000000  1
  O  O49  1  0.94271209  0.02269349  0.25000000  1
  O  O50  1  0.89050036  0.81606563  0.75000000  1
  O  O51  1  0.92714260  0.52513042  0.25000000  1
