# generated using pymatgen
data_H3CO3
_symmetry_space_group_name_H-M   'P 1'
_cell_length_a   10.06342075
_cell_length_b   5.07117225
_cell_length_c   5.16346503
_cell_angle_alpha   90.00000000
_cell_angle_beta   99.16725843
_cell_angle_gamma   90.00000000
_symmetry_Int_Tables_number   1
_chemical_formula_structural   H3CO3
_chemical_formula_sum   'H12 C4 O12'
_cell_volume   260.14319116
_cell_formula_units_Z   4
loop_
 _symmetry_equiv_pos_site_id
 _symmetry_equiv_pos_as_xyz
  1  'x, y, z'
loop_
 _atom_site_type_symbol
 _atom_site_label
 _atom_site_symmetry_multiplicity
 _atom_site_fract_x
 _atom_site_fract_y
 _atom_site_fract_z
 _atom_site_occupancy
  H  H0  1  0.71797803  0.62118729  0.30944594  1
  H  H1  1  0.78202197  0.12118729  0.69055406  1
  H  H2  1  0.28202197  0.37881271  0.69055406  1
  H  H3  1  0.21797803  0.87881271  0.30944594  1
  H  H4  1  0.84936205  0.67628478  -0.00024340  1
  H  H5  1  0.65063795  0.17628478  0.00024340  1
  H  H6  1  0.15063795  0.32371522  0.00024340  1
  H  H7  1  0.34936205  0.82371522  -0.00024340  1
  H  H8  1  0.89543333  0.44221826  0.20309892  1
  H  H9  1  0.60456667  0.94221826  0.79690108  1
  H  H10  1  0.10456667  0.55778174  0.79690108  1
  H  H11  1  0.39543333  0.05778174  0.20309892  1
  C  C12  1  0.55078776  0.47793715  0.40413282  1
  C  C13  1  0.94921224  0.97793715  0.59586718  1
  C  C14  1  0.44921224  0.52206285  0.59586718  1
  C  C15  1  0.05078776  0.02206285  0.40413282  1
  O  O16  1  0.64718061  0.65270470  0.43502134  1
  O  O17  1  0.85281939  0.15270470  0.56497866  1
  O  O18  1  0.35281939  0.34729530  0.56497866  1
  O  O19  1  0.14718061  0.84729530  0.43502134  1
  O  O20  1  0.53699754  0.29487874  0.24317956  1
  O  O21  1  0.96300246  0.79487874  0.75682044  1
  O  O22  1  0.46300246  0.70512126  0.75682044  1
  O  O23  1  0.03699754  0.20512126  0.24317956  1
  O  O24  1  0.82698312  0.58042215  0.15263925  1
  O  O25  1  0.67301688  0.08042215  0.84736075  1
  O  O26  1  0.17301688  0.41957785  0.84736075  1
  O  O27  1  0.32698312  0.91957785  0.15263925  1
