# generated using pymatgen
data_Hg4N3O10
_symmetry_space_group_name_H-M   'P 1'
_cell_length_a   11.71058028
_cell_length_b   11.44596362
_cell_length_c   11.44596362
_cell_angle_alpha   124.79860267
_cell_angle_beta   90.00000000
_cell_angle_gamma   90.00000000
_symmetry_Int_Tables_number   1
_chemical_formula_structural   Hg4N3O10
_chemical_formula_sum   'Hg16 N12 O40'
_cell_volume   1259.83183320
_cell_formula_units_Z   4
loop_
 _symmetry_equiv_pos_site_id
 _symmetry_equiv_pos_as_xyz
  1  'x, y, z'
loop_
 _atom_site_type_symbol
 _atom_site_label
 _atom_site_symmetry_multiplicity
 _atom_site_fract_x
 _atom_site_fract_y
 _atom_site_fract_z
 _atom_site_occupancy
  Hg  Hg0  1  0.59088631  0.03892355  0.96399742  1
  Hg  Hg1  1  0.40911369  0.96399742  0.03892355  1
  Hg  Hg2  1  0.90911369  0.53892355  0.46399742  1
  Hg  Hg3  1  0.09088631  0.46399742  0.53892355  1
  Hg  Hg4  1  0.90380326  0.02201465  0.95820382  1
  Hg  Hg5  1  0.09619674  0.95820382  0.02201465  1
  Hg  Hg6  1  0.59619674  0.52201465  0.45820382  1
  Hg  Hg7  1  0.40380326  0.45820382  0.52201465  1
  Hg  Hg8  1  0.76374743  0.17176153  0.78857058  1
  Hg  Hg9  1  0.23625257  0.78857058  0.17176153  1
  Hg  Hg10  1  0.73625257  0.67176153  0.28857058  1
  Hg  Hg11  1  0.26374743  0.28857058  0.67176153  1
  Hg  Hg12  1  0.76284052  0.25660509  0.62176407  1
  Hg  Hg13  1  0.23715948  0.62176407  0.25660509  1
  Hg  Hg14  1  0.73715948  0.75660509  0.12176407  1
  Hg  Hg15  1  0.26284052  0.12176407  0.75660509  1
  N  N16  1  0.78051404  0.21276691  0.33491017  1
  N  N17  1  0.21948596  0.33491017  0.21276691  1
  N  N18  1  0.71948596  0.71276691  0.83491017  1
  N  N19  1  0.28051404  0.83491017  0.71276691  1
  N  N20  1  0.96302722  0.43416170  0.08674380  1
  N  N21  1  0.03697278  0.08674380  0.43416170  1
  N  N22  1  0.53697278  0.93416170  0.58674380  1
  N  N23  1  0.46302722  0.58674380  0.93416170  1
  N  N24  1  0.00035183  0.61952490  0.91073834  1
  N  N25  1  0.99964817  0.91073834  0.61952490  1
  N  N26  1  0.49964817  0.11952490  0.41073834  1
  N  N27  1  0.50035183  0.41073834  0.11952490  1
  O  O28  1  0.75032562  0.07024185  0.89434749  1
  O  O29  1  0.24967438  0.89434749  0.07024185  1
  O  O30  1  0.74967438  0.57024185  0.39434749  1
  O  O31  1  0.25032562  0.39434749  0.57024185  1
  O  O32  1  0.75398559  0.31747544  0.46884457  1
  O  O33  1  0.24601441  0.46884457  0.31747544  1
  O  O34  1  0.74601441  0.81747544  0.96884457  1
  O  O35  1  0.25398559  0.96884457  0.81747544  1
  O  O36  1  0.76081360  0.23766457  0.24417986  1
  O  O37  1  0.23918640  0.24417986  0.23766457  1
  O  O38  1  0.73918640  0.73766457  0.74417986  1
  O  O39  1  0.26081360  0.74417986  0.73766457  1
  O  O40  1  0.82337982  0.10144526  0.30930126  1
  O  O41  1  0.17662018  0.30930126  0.10144526  1
  O  O42  1  0.67662018  0.60144526  0.80930126  1
  O  O43  1  0.32337982  0.80930126  0.60144526  1
  O  O44  1  0.01492646  0.41100612  0.98077077  1
  O  O45  1  0.98507354  0.98077077  0.41100612  1
  O  O46  1  0.48507354  0.91100612  0.48077077  1
  O  O47  1  0.51492646  0.48077077  0.91100612  1
  O  O48  1  0.99457093  0.53335210  0.21155898  1
  O  O49  1  0.00542907  0.21155898  0.53335210  1
  O  O50  1  0.50542907  0.03335210  0.71155898  1
  O  O51  1  0.49457093  0.71155898  0.03335210  1
  O  O52  1  0.87700685  0.36096907  0.07374933  1
  O  O53  1  0.12299315  0.07374933  0.36096907  1
  O  O54  1  0.62299315  0.86096907  0.57374933  1
  O  O55  1  0.37700685  0.57374933  0.86096907  1
  O  O56  1  0.99499325  0.71870596  0.04293728  1
  O  O57  1  0.00500675  0.04293728  0.71870596  1
  O  O58  1  0.50500675  0.21870596  0.54293728  1
  O  O59  1  0.49499325  0.54293728  0.21870596  1
  O  O60  1  0.91145734  0.55552273  0.84380611  1
  O  O61  1  0.08854266  0.84380611  0.55552273  1
  O  O62  1  0.58854266  0.05552273  0.34380611  1
  O  O63  1  0.41145734  0.34380611  0.05552273  1
  O  O64  1  0.09612670  0.58921067  0.84902207  1
  O  O65  1  0.90387330  0.84902207  0.58921067  1
  O  O66  1  0.40387330  0.08921067  0.34902207  1
  O  O67  1  0.59612670  0.34902207  0.08921067  1
