# generated using pymatgen
data_Ba8CuSi16
_symmetry_space_group_name_H-M   'P 1'
_cell_length_a   8.42489421
_cell_length_b   7.03655534
_cell_length_c   12.32113359
_cell_angle_alpha   93.63067826
_cell_angle_beta   86.20976422
_cell_angle_gamma   93.66467245
_symmetry_Int_Tables_number   1
_chemical_formula_structural   Ba8CuSi16
_chemical_formula_sum   'Ba8 Cu1 Si16'
_cell_volume   726.05426459
_cell_formula_units_Z   1
loop_
 _symmetry_equiv_pos_site_id
 _symmetry_equiv_pos_as_xyz
  1  'x, y, z'
loop_
 _atom_site_type_symbol
 _atom_site_label
 _atom_site_symmetry_multiplicity
 _atom_site_fract_x
 _atom_site_fract_y
 _atom_site_fract_z
 _atom_site_occupancy
  Ba  Ba0  1  0.99165454  0.23250034  0.70489217  1
  Ba  Ba1  1  0.49297271  0.72746710  0.20765680  1
  Ba  Ba2  1  0.99474862  0.74421046  0.29685606  1
  Ba  Ba3  1  0.46884075  0.33845561  0.78087144  1
  Ba  Ba4  1  0.81107422  0.23501938  0.07422921  1
  Ba  Ba5  1  0.67077275  0.77030761  0.58419724  1
  Ba  Ba6  1  0.20977198  0.73681324  0.92694428  1
  Ba  Ba7  1  0.31926010  0.27895124  0.42696202  1
  Cu  Cu8  1  0.03551208  0.25212618  0.26834966  1
  Si  Si9  1  0.42761275  0.24629018  0.07890379  1
  Si  Si10  1  0.06425826  0.76837540  0.57530747  1
  Si  Si11  1  0.60869355  0.75609107  0.92831589  1
  Si  Si12  1  0.92364371  0.28357112  0.43938051  1
  Si  Si13  1  0.18594679  0.22176092  0.97609563  1
  Si  Si14  1  0.32004494  0.77468559  0.46847335  1
  Si  Si15  1  0.83088148  0.73092779  0.04143941  1
  Si  Si16  1  0.66838912  0.25015614  0.52113192  1
  Si  Si17  1  0.19460247  0.06003928  0.14226353  1
  Si  Si18  1  0.30099865  0.94848488  0.64198424  1
  Si  Si19  1  0.81698508  0.54333045  0.86895197  1
  Si  Si20  1  0.70131526  0.40134260  0.35457343  1
  Si  Si21  1  0.89214864  0.87698276  0.86678149  1
  Si  Si22  1  0.67682611  0.03728953  0.82813504  1
  Si  Si23  1  0.19395017  0.42614149  0.13820543  1
  Si  Si24  1  0.28319526  0.60867965  0.63399803  1
