# generated using pymatgen
data_NiAs2S6(NF3)6
_symmetry_space_group_name_H-M   'P 1'
_cell_length_a   9.56288540
_cell_length_b   9.17039567
_cell_length_c   13.28212261
_cell_angle_alpha   90.00000000
_cell_angle_beta   90.24688536
_cell_angle_gamma   90.00000000
_symmetry_Int_Tables_number   1
_chemical_formula_structural   NiAs2S6(NF3)6
_chemical_formula_sum   'Ni2 As4 S12 N12 F36'
_cell_volume   1164.77081165
_cell_formula_units_Z   2
loop_
 _symmetry_equiv_pos_site_id
 _symmetry_equiv_pos_as_xyz
  1  'x, y, z'
loop_
 _atom_site_type_symbol
 _atom_site_label
 _atom_site_symmetry_multiplicity
 _atom_site_fract_x
 _atom_site_fract_y
 _atom_site_fract_z
 _atom_site_occupancy
  Ni  Ni0  1  0.00000000  0.00000000  0.00000000  1
  Ni  Ni1  1  0.50000000  0.50000000  0.50000000  1
  As  As2  1  0.99823754  0.44916793  0.25515750  1
  As  As3  1  0.00176246  0.55083207  0.74484250  1
  As  As4  1  0.50176246  0.94916793  0.24484250  1
  As  As5  1  0.49823754  0.05083207  0.75515750  1
  S  S6  1  0.41782584  0.50290633  0.24421344  1
  S  S7  1  0.70368360  0.19058424  0.45793913  1
  S  S8  1  0.58217416  0.49709367  0.75578656  1
  S  S9  1  0.79631640  0.69058424  0.04206087  1
  S  S10  1  0.08217416  0.00290633  0.25578656  1
  S  S11  1  0.29631640  0.80941576  0.54206087  1
  S  S12  1  0.91782584  0.99709367  0.74421344  1
  S  S13  1  0.80560272  0.70076059  0.46047822  1
  S  S14  1  0.19439728  0.29923941  0.53952178  1
  S  S15  1  0.20368360  0.30941576  0.95793913  1
  S  S16  1  0.30560272  0.79923941  0.96047822  1
  S  S17  1  0.69439728  0.20076059  0.03952178  1
  N  N18  1  0.81585246  0.10923128  0.03409272  1
  N  N19  1  0.10121813  0.19526598  0.96471845  1
  N  N20  1  0.93226595  0.98885198  0.85166760  1
  N  N21  1  0.43226595  0.51114802  0.35166760  1
  N  N22  1  0.31585246  0.39076872  0.53409272  1
  N  N23  1  0.39878187  0.69526598  0.53528155  1
  N  N24  1  0.68414754  0.60923128  0.46590728  1
  N  N25  1  0.89878187  0.80473402  0.03528155  1
  N  N26  1  0.56773405  0.48885198  0.64833240  1
  N  N27  1  0.18414754  0.89076872  0.96590728  1
  N  N28  1  0.60121813  0.30473402  0.46471845  1
  N  N29  1  0.06773405  0.01114802  0.14833240  1
  F  F30  1  0.61390777  0.79580930  0.23003535  1
  F  F31  1  0.85206548  0.56825777  0.25576597  1
  F  F32  1  0.14548558  0.33012805  0.25454446  1
  F  F33  1  0.01677116  0.56772917  0.87787578  1
  F  F34  1  0.98322884  0.43227083  0.12212422  1
  F  F35  1  0.64793452  0.06825777  0.24423403  1
  F  F36  1  0.64548558  0.16987195  0.75454446  1
  F  F37  1  0.84149646  0.20765724  0.53577623  1
  F  F38  1  0.11390777  0.70419070  0.73003535  1
  F  F39  1  0.35451442  0.83012805  0.24545554  1
  F  F40  1  0.14793452  0.43174223  0.74423403  1
  F  F41  1  0.29718064  0.64581500  0.02972585  1
  F  F42  1  0.56195332  0.44934267  0.18257001  1
  F  F43  1  0.51124610  0.03668469  0.88862173  1
  F  F44  1  0.11150090  0.60030325  0.24086979  1
  F  F45  1  0.35206548  0.93174223  0.75576597  1
  F  F46  1  0.65850354  0.70765724  0.96422377  1
  F  F47  1  0.70281936  0.35418500  0.97027415  1
  F  F48  1  0.48322884  0.06772917  0.62212422  1
  F  F49  1  0.01124610  0.46331531  0.38862173  1
  F  F50  1  0.06195332  0.05065733  0.68257001  1
  F  F51  1  0.79718064  0.85418500  0.52972585  1
  F  F52  1  0.88609223  0.29580930  0.26996465  1
  F  F53  1  0.43804668  0.55065733  0.81742999  1
  F  F54  1  0.48875390  0.96331531  0.11137827  1
  F  F55  1  0.15850354  0.79234276  0.46422377  1
  F  F56  1  0.38609223  0.20419070  0.76996465  1
  F  F57  1  0.38849910  0.10030325  0.25913021  1
  F  F58  1  0.20281936  0.14581500  0.47027415  1
  F  F59  1  0.88849910  0.39969675  0.75913021  1
  F  F60  1  0.61150090  0.89969675  0.74086979  1
  F  F61  1  0.34149646  0.29234276  0.03577623  1
  F  F62  1  0.98875390  0.53668469  0.61137827  1
  F  F63  1  0.51677116  0.93227083  0.37787578  1
  F  F64  1  0.85451442  0.66987195  0.74545554  1
  F  F65  1  0.93804668  0.94934267  0.31742999  1
