# generated using pymatgen
data_SmH12(NO5)3
_symmetry_space_group_name_H-M   'P 1'
_cell_length_a   9.82578595
_cell_length_b   11.85278423
_cell_length_c   7.60463311
_cell_angle_alpha   98.47052033
_cell_angle_beta   112.01455611
_cell_angle_gamma   104.08885577
_symmetry_Int_Tables_number   1
_chemical_formula_structural   SmH12(NO5)3
_chemical_formula_sum   'Sm2 H24 N6 O30'
_cell_volume   767.84958249
_cell_formula_units_Z   2
loop_
 _symmetry_equiv_pos_site_id
 _symmetry_equiv_pos_as_xyz
  1  'x, y, z'
loop_
 _atom_site_type_symbol
 _atom_site_label
 _atom_site_symmetry_multiplicity
 _atom_site_fract_x
 _atom_site_fract_y
 _atom_site_fract_z
 _atom_site_occupancy
  Sm  Sm0  1  0.62295203  0.80093708  0.90705300  1
  Sm  Sm1  1  0.37704797  0.19906292  0.09294700  1
  H  H2  1  0.59049701  0.00146780  0.71387379  1
  H  H3  1  0.40950299  0.99853220  0.28612621  1
  H  H4  1  0.43847935  0.98016748  0.74757573  1
  H  H5  1  0.56152065  0.01983252  0.25242427  1
  H  H6  1  0.21436150  0.52420618  0.82450302  1
  H  H7  1  0.78563850  0.47579382  0.17549698  1
  H  H8  1  0.58622518  0.57408240  0.67768765  1
  H  H9  1  0.41377482  0.42591760  0.32231235  1
  H  H10  1  0.90926159  0.77033570  0.73072506  1
  H  H11  1  0.09073841  0.22966430  0.26927494  1
  H  H12  1  0.71641038  0.84151078  0.58442909  1
  H  H13  1  0.28358962  0.15848922  0.41557091  1
  H  H14  1  0.19871792  0.03247327  0.25846668  1
  H  H15  1  0.80128208  0.96752673  0.74153332  1
  H  H16  1  0.38186018  0.58589399  0.44999887  1
  H  H17  1  0.61813982  0.41410601  0.55000113  1
  H  H18  1  0.17332156  0.89401218  0.39350022  1
  H  H19  1  0.82667844  0.10598782  0.60649978  1
  H  H20  1  0.16419004  0.82576840  0.19369555  1
  H  H21  1  0.83580996  0.17423160  0.80630445  1
  H  H22  1  0.15741710  0.34508547  0.43795496  1
  H  H23  1  0.84258290  0.65491453  0.56204504  1
  H  H24  1  0.20907451  0.50510189  0.29592504  1
  H  H25  1  0.79092549  0.49489811  0.70407496  1
  N  N26  1  0.80694165  0.66758393  0.13806903  1
  N  N27  1  0.19305835  0.33241607  0.86193097  1
  N  N28  1  0.82413731  0.01282790  0.27360076  1
  N  N29  1  0.17586269  0.98717210  0.72639924  1
  N  N30  1  0.28549912  0.69877545  0.95384082  1
  N  N31  1  0.71450088  0.30122455  0.04615918  1
  O  O32  1  0.51938049  0.94403052  0.74745827  1
  O  O33  1  0.48061951  0.05596948  0.25254173  1
  O  O34  1  0.92781213  0.69509098  0.69116349  1
  O  O35  1  0.07218787  0.30490902  0.30883651  1
  O  O36  1  0.77055130  0.87759741  0.72597296  1
  O  O37  1  0.22944870  0.12240259  0.27402704  1
  O  O38  1  0.54423442  0.64213636  0.67539273  1
  O  O39  1  0.45576558  0.35786364  0.32460727  1
  O  O40  1  0.21774362  0.90176052  0.29681203  1
  O  O41  1  0.78225638  0.09823948  0.70318797  1
  O  O42  1  0.31297747  0.54335392  0.30791137  1
  O  O43  1  0.68702253  0.45664608  0.69208863  1
  O  O44  1  0.66835677  0.64830937  0.11847663  1
  O  O45  1  0.33164323  0.35169063  0.88152337  1
  O  O46  1  0.86742257  0.75649185  0.08554822  1
  O  O47  1  0.13257743  0.24350815  0.91445178  1
  O  O48  1  0.88517488  0.60152255  0.20795505  1
  O  O49  1  0.11482512  0.39847745  0.79204495  1
  O  O50  1  0.69307118  0.93950314  0.25391444  1
  O  O51  1  0.30692882  0.06049686  0.74608556  1
  O  O52  1  0.85675674  0.99860578  0.12808059  1
  O  O53  1  0.14324326  0.00139422  0.87191941  1
  O  O54  1  0.91083539  0.09200366  0.43030716  1
  O  O55  1  0.08916461  0.90799634  0.56969284  1
  O  O56  1  0.38965333  0.79665173  0.98930168  1
  O  O57  1  0.61034667  0.20334827  0.01069832  1
  O  O58  1  0.29264571  0.60613482  0.83518571  1
  O  O59  1  0.70735429  0.39386518  0.16481429  1
  O  O60  1  0.18694196  0.68430274  0.01535871  1
  O  O61  1  0.81305804  0.31569726  0.98464129  1
