# generated using pymatgen
data_AlRh3
_symmetry_space_group_name_H-M   'P 1'
_cell_length_a   5.46508511
_cell_length_b   5.46511309
_cell_length_c   4.37596539
_cell_angle_alpha   89.99920692
_cell_angle_beta   90.00082928
_cell_angle_gamma   119.99871392
_symmetry_Int_Tables_number   1
_chemical_formula_structural   AlRh3
_chemical_formula_sum   'Al2 Rh6'
_cell_volume   113.18952077
_cell_formula_units_Z   2
loop_
 _symmetry_equiv_pos_site_id
 _symmetry_equiv_pos_as_xyz
  1  'x, y, z'
loop_
 _atom_site_type_symbol
 _atom_site_label
 _atom_site_symmetry_multiplicity
 _atom_site_fract_x
 _atom_site_fract_y
 _atom_site_fract_z
 _atom_site_occupancy
  Al  Al0  1  0.33333295  0.66667065  0.74999319  1
  Al  Al1  1  0.66667033  0.33333457  0.25000224  1
  Rh  Rh2  1  0.16771721  0.33542258  0.24999064  1
  Rh  Rh3  1  0.66458064  0.83228082  0.24999395  1
  Rh  Rh4  1  0.16769948  0.83229253  0.25002749  1
  Rh  Rh5  1  0.83228465  0.66458214  0.75000767  1
  Rh  Rh6  1  0.33542269  0.16771825  0.75000529  1
  Rh  Rh7  1  0.83229405  0.16770045  0.74997153  1
