# generated using pymatgen
data_Ba2YbBiO6
_symmetry_space_group_name_H-M   'P 1'
_cell_length_a   10.36100916
_cell_length_b   8.62245472
_cell_length_c   6.07672649
_cell_angle_alpha   133.19047068
_cell_angle_beta   147.95734402
_cell_angle_gamma   35.38638957
_symmetry_Int_Tables_number   1
_chemical_formula_structural   Ba2YbBiO6
_chemical_formula_sum   'Ba2 Yb1 Bi1 O6'
_cell_volume   166.75245802
_cell_formula_units_Z   1
loop_
 _symmetry_equiv_pos_site_id
 _symmetry_equiv_pos_as_xyz
  1  'x, y, z'
loop_
 _atom_site_type_symbol
 _atom_site_label
 _atom_site_symmetry_multiplicity
 _atom_site_fract_x
 _atom_site_fract_y
 _atom_site_fract_z
 _atom_site_occupancy
  Ba  Ba0  1  0.50992207  0.74543125  0.01942932  1
  Ba  Ba1  1  0.49007793  0.25456875  0.98057068  1
  Yb  Yb2  1  0.00000000  0.50000000  -0.00000000  1
  Bi  Bi3  1  0.00000000  -0.00000000  -0.00000000  1
  O  O4  1  0.92331455  0.77279301  0.87092985  1
  O  O5  1  0.48538025  0.68002171  0.39854459  1
  O  O6  1  0.93431794  0.82510055  0.45664015  1
  O  O7  1  0.07668545  0.22720699  0.12907015  1
  O  O8  1  0.51461975  0.31997829  0.60145541  1
  O  O9  1  0.06568206  0.17489945  0.54335985  1
