# generated using pymatgen
data_GaSn3
_symmetry_space_group_name_H-M   'P 1'
_cell_length_a   6.58399646
_cell_length_b   6.58399764
_cell_length_c   5.51838324
_cell_angle_alpha   90.00000000
_cell_angle_beta   90.00000000
_cell_angle_gamma   120.00000074
_symmetry_Int_Tables_number   1
_chemical_formula_structural   GaSn3
_chemical_formula_sum   'Ga2 Sn6'
_cell_volume   207.16755549
_cell_formula_units_Z   2
loop_
 _symmetry_equiv_pos_site_id
 _symmetry_equiv_pos_as_xyz
  1  'x, y, z'
loop_
 _atom_site_type_symbol
 _atom_site_label
 _atom_site_symmetry_multiplicity
 _atom_site_fract_x
 _atom_site_fract_y
 _atom_site_fract_z
 _atom_site_occupancy
  Ga  Ga0  1  0.33333400  0.66666700  0.75000200  1
  Ga  Ga1  1  0.66666800  0.33333400  0.25000000  1
  Sn  Sn2  1  0.16912535  0.33824970  0.25000000  1
  Sn  Sn3  1  0.66175030  0.83087565  0.25000000  1
  Sn  Sn4  1  0.16912535  0.83087565  0.25000000  1
  Sn  Sn5  1  0.83087465  0.66174930  0.75000200  1
  Sn  Sn6  1  0.33824970  0.16912435  0.75000200  1
  Sn  Sn7  1  0.83087365  0.16912435  0.75000200  1
