# generated using pymatgen
data_Eu5Mg
_symmetry_space_group_name_H-M   'P 1'
_cell_length_a   4.00556773
_cell_length_b   9.82864712
_cell_length_c   6.16969224
_cell_angle_alpha   90.00000000
_cell_angle_beta   90.00000000
_cell_angle_gamma   78.24249818
_symmetry_Int_Tables_number   1
_chemical_formula_structural   Eu5Mg
_chemical_formula_sum   'Eu5 Mg1'
_cell_volume   237.80027642
_cell_formula_units_Z   1
loop_
 _symmetry_equiv_pos_site_id
 _symmetry_equiv_pos_as_xyz
  1  'x, y, z'
loop_
 _atom_site_type_symbol
 _atom_site_label
 _atom_site_symmetry_multiplicity
 _atom_site_fract_x
 _atom_site_fract_y
 _atom_site_fract_z
 _atom_site_occupancy
  Eu  Eu0  1  0.99659994  0.00679713  -0.00000000  1
  Eu  Eu1  1  0.32497541  0.35005017  -0.00000000  1
  Eu  Eu2  1  0.66492114  0.67015671  -0.00000000  1
  Eu  Eu3  1  0.43940251  0.12119598  0.49999900  1
  Eu  Eu4  1  0.12527776  0.74944649  0.49999900  1
  Mg  Mg5  1  0.78215624  0.43568653  0.49999900  1
