# generated using pymatgen
data_Cd3Pb
_symmetry_space_group_name_H-M   'P 1'
_cell_length_a   6.67588631
_cell_length_b   6.67741292
_cell_length_c   5.34787555
_cell_angle_alpha   90.00000000
_cell_angle_beta   90.00000000
_cell_angle_gamma   120.06176303
_symmetry_Int_Tables_number   1
_chemical_formula_structural   Cd3Pb
_chemical_formula_sum   'Cd6 Pb2'
_cell_volume   206.32814002
_cell_formula_units_Z   2
loop_
 _symmetry_equiv_pos_site_id
 _symmetry_equiv_pos_as_xyz
  1  'x, y, z'
loop_
 _atom_site_type_symbol
 _atom_site_label
 _atom_site_symmetry_multiplicity
 _atom_site_fract_x
 _atom_site_fract_y
 _atom_site_fract_z
 _atom_site_occupancy
  Cd  Cd0  1  0.83936364  0.16059514  0.75000100  1
  Cd  Cd1  1  0.32122616  0.16060390  0.75000100  1
  Cd  Cd2  1  0.83937641  0.67877415  0.75000100  1
  Cd  Cd3  1  0.16062704  0.83939352  0.25000100  1
  Cd  Cd4  1  0.67876254  0.83938454  0.25000100  1
  Cd  Cd5  1  0.16061352  0.32121501  0.25000100  1
  Pb  Pb6  1  0.66662900  0.33332383  0.25000100  1
  Pb  Pb7  1  0.33340468  0.66671092  0.75000100  1
