# generated using pymatgen
data_Mg16Al12Cr
_symmetry_space_group_name_H-M   'P 1'
_cell_length_a   9.17950640
_cell_length_b   9.03998167
_cell_length_c   9.03998255
_cell_angle_alpha   109.15646803
_cell_angle_beta   109.78417662
_cell_angle_gamma   109.78417478
_symmetry_Int_Tables_number   1
_chemical_formula_structural   Mg16Al12Cr
_chemical_formula_sum   'Mg16 Al12 Cr1'
_cell_volume   575.22873920
_cell_formula_units_Z   1
loop_
 _symmetry_equiv_pos_site_id
 _symmetry_equiv_pos_as_xyz
  1  'x, y, z'
loop_
 _atom_site_type_symbol
 _atom_site_label
 _atom_site_symmetry_multiplicity
 _atom_site_fract_x
 _atom_site_fract_y
 _atom_site_fract_z
 _atom_site_occupancy
  Mg  Mg0  1  0.59077035  0.29776437  0.99999900  1
  Mg  Mg1  1  0.00393025  0.35045125  0.00000000  1
  Mg  Mg2  1  0.31859873  0.60152680  0.00000000  1
  Mg  Mg3  1  0.99265806  0.00000100  0.00000100  1
  Mg  Mg4  1  0.68398263  0.68158059  0.28207058  1
  Mg  Mg5  1  0.59076935  -0.00000000  0.29776537  1
  Mg  Mg6  1  0.00240203  0.60048999  0.31841941  1
  Mg  Mg7  1  0.00393025  0.99999900  0.35045225  1
  Mg  Mg8  1  0.71707293  0.39847420  0.39847420  1
  Mg  Mg9  1  0.40191305  0.71793042  0.39951001  1
  Mg  Mg10  1  0.00240203  0.31841941  0.60048999  1
  Mg  Mg11  1  0.31859873  0.00000100  0.60152680  1
  Mg  Mg12  1  0.65347699  0.64954775  0.64954675  1
  Mg  Mg13  1  0.68398163  0.28207058  0.68158059  1
  Mg  Mg14  1  0.29300498  0.70223463  0.70223463  1
  Mg  Mg15  1  0.40191205  0.39951101  0.71793042  1
  Al  Al16  1  0.64043846  0.81254610  0.99999900  1
  Al  Al17  1  0.81395814  0.62501841  1.00000000  1
  Al  Al18  1  0.36763147  0.36419903  0.18119935  1
  Al  Al19  1  0.18643112  0.81879965  0.18299868  1
  Al  Al20  1  0.82789036  0.18745390  0.18745290  1
  Al  Al21  1  0.36763247  0.18119935  0.36419903  1
  Al  Al22  1  0.18893973  0.37498159  0.37498159  1
  Al  Al23  1  0.81395814  -0.00000000  0.62501841  1
  Al  Al24  1  0.00343344  0.81700132  0.63580197  1
  Al  Al25  1  0.64043746  1.00000000  0.81254610  1
  Al  Al26  1  0.00343344  0.63580197  0.81700132  1
  Al  Al27  1  0.18643212  0.18299868  0.81879965  1
  Cr  Cr28  1  0.29998162  0.00000000  1.00000000  1
