# generated using pymatgen
data_Fe3B7IO13
_symmetry_space_group_name_H-M   'P 1'
_cell_length_a   8.71374870
_cell_length_b   8.71374947
_cell_length_c   8.71374891
_cell_angle_alpha   61.92061689
_cell_angle_beta   61.92061412
_cell_angle_gamma   61.92061784
_symmetry_Int_Tables_number   1
_chemical_formula_structural   Fe3B7IO13
_chemical_formula_sum   'Fe6 B14 I2 O26'
_cell_volume   487.95285715
_cell_formula_units_Z   2
loop_
 _symmetry_equiv_pos_site_id
 _symmetry_equiv_pos_as_xyz
  1  'x, y, z'
loop_
 _atom_site_type_symbol
 _atom_site_label
 _atom_site_symmetry_multiplicity
 _atom_site_fract_x
 _atom_site_fract_y
 _atom_site_fract_z
 _atom_site_occupancy
  Fe  Fe0  1  0.00809508  0.53270294  0.51920136  1
  Fe  Fe1  1  0.03270294  0.50809508  0.01920136  1
  Fe  Fe2  1  0.01920136  0.03270294  0.50809508  1
  Fe  Fe3  1  0.50809508  0.01920136  0.03270294  1
  Fe  Fe4  1  0.53270294  0.51920136  0.00809508  1
  Fe  Fe5  1  0.51920136  0.00809508  0.53270294  1
  B  B6  1  0.34432323  0.67448158  0.44682039  1
  B  B7  1  0.75038711  0.73586963  0.28190358  1
  B  B8  1  0.78190358  0.23586963  0.25038711  1
  B  B9  1  0.67448158  0.44682039  0.34432323  1
  B  B10  1  0.84432323  0.94682039  0.17448158  1
  B  B11  1  0.44682039  0.34432323  0.67448158  1
  B  B12  1  0.23586963  0.25038711  0.78190358  1
  B  B13  1  0.94682039  0.17448158  0.84432323  1
  B  B14  1  0.10698355  0.10698355  0.10698355  1
  B  B15  1  0.60698355  0.60698355  0.60698355  1
  B  B16  1  0.73586963  0.28190358  0.75038711  1
  B  B17  1  0.28190358  0.75038711  0.73586963  1
  B  B18  1  0.25038711  0.78190358  0.23586963  1
  B  B19  1  0.17448158  0.84432323  0.94682039  1
  I  I20  1  0.26996075  0.26996075  0.26996075  1
  I  I21  1  0.76996075  0.76996075  0.76996075  1
  O  O22  1  0.71374331  0.91451911  0.13485034  1
  O  O23  1  0.10304693  0.95950866  0.26553699  1
  O  O24  1  0.13485034  0.71374331  0.91451911  1
  O  O25  1  0.95950866  0.26553699  0.10304693  1
  O  O26  1  0.07481858  0.27859776  0.74947489  1
  O  O27  1  0.45950866  0.60304693  0.76553699  1
  O  O28  1  0.74893288  0.28180955  0.91374752  1
  O  O29  1  0.91451911  0.13485034  0.71374331  1
  O  O30  1  0.77859776  0.57481858  0.24947489  1
  O  O31  1  0.24893288  0.41374752  0.78180955  1
  O  O32  1  0.00028329  0.00028329  0.00028329  1
  O  O33  1  0.91374752  0.74893288  0.28180955  1
  O  O34  1  0.26553699  0.10304693  0.95950866  1
  O  O35  1  0.27859776  0.74947489  0.07481858  1
  O  O36  1  0.41374752  0.78180955  0.24893288  1
  O  O37  1  0.78180955  0.24893288  0.41374752  1
  O  O38  1  0.41451911  0.21374331  0.63485034  1
  O  O39  1  0.24947489  0.77859776  0.57481858  1
  O  O40  1  0.28180955  0.91374752  0.74893288  1
  O  O41  1  0.63485034  0.41451911  0.21374331  1
  O  O42  1  0.60304693  0.76553699  0.45950866  1
  O  O43  1  0.50028329  0.50028329  0.50028329  1
  O  O44  1  0.21374331  0.63485034  0.41451911  1
  O  O45  1  0.57481858  0.24947489  0.77859776  1
  O  O46  1  0.74947489  0.07481858  0.27859776  1
  O  O47  1  0.76553699  0.45950866  0.60304693  1
