# generated using pymatgen
data_YbZn3
_symmetry_space_group_name_H-M   'P 1'
_cell_length_a   6.21756599
_cell_length_b   6.21667642
_cell_length_c   4.64722195
_cell_angle_alpha   90.00000000
_cell_angle_beta   90.00000000
_cell_angle_gamma   119.97331442
_symmetry_Int_Tables_number   1
_chemical_formula_structural   YbZn3
_chemical_formula_sum   'Yb2 Zn6'
_cell_volume   155.60352542
_cell_formula_units_Z   2
loop_
 _symmetry_equiv_pos_site_id
 _symmetry_equiv_pos_as_xyz
  1  'x, y, z'
loop_
 _atom_site_type_symbol
 _atom_site_label
 _atom_site_symmetry_multiplicity
 _atom_site_fract_x
 _atom_site_fract_y
 _atom_site_fract_z
 _atom_site_occupancy
  Yb  Yb0  1  0.33341752  0.66659216  0.75000100  1
  Yb  Yb1  1  0.66658477  0.33341037  0.25000100  1
  Zn  Zn2  1  0.15022937  0.30048149  0.25000100  1
  Zn  Zn3  1  0.69950972  0.84978603  0.25000100  1
  Zn  Zn4  1  0.15027946  0.84975024  0.25000100  1
  Zn  Zn5  1  0.84977442  0.69952016  0.75000100  1
  Zn  Zn6  1  0.30048809  0.15021727  0.75000100  1
  Zn  Zn7  1  0.84971865  0.15025028  0.75000100  1
