# generated using pymatgen
data_Sm2Fe17N3
_symmetry_space_group_name_H-M   'P 1'
_cell_length_a   6.53068537
_cell_length_b   6.53068537
_cell_length_c   6.53068532
_cell_angle_alpha   83.29040102
_cell_angle_beta   83.29040102
_cell_angle_gamma   83.29039175
_symmetry_Int_Tables_number   1
_chemical_formula_structural   Sm2Fe17N3
_chemical_formula_sum   'Sm2 Fe17 N3'
_cell_volume   273.22304551
_cell_formula_units_Z   1
loop_
 _symmetry_equiv_pos_site_id
 _symmetry_equiv_pos_as_xyz
  1  'x, y, z'
loop_
 _atom_site_type_symbol
 _atom_site_label
 _atom_site_symmetry_multiplicity
 _atom_site_fract_x
 _atom_site_fract_y
 _atom_site_fract_z
 _atom_site_occupancy
  Sm  Sm0  1  0.65821835  0.65821835  0.65821835  1
  Sm  Sm1  1  0.34178165  0.34178165  0.34178165  1
  Fe  Fe2  1  0.00000000  0.00000000  0.50000000  1
  Fe  Fe3  1  0.00000000  0.50000000  0.00000000  1
  Fe  Fe4  1  0.50000000  0.00000000  0.00000000  1
  Fe  Fe5  1  0.28218588  0.71781412  0.00000000  1
  Fe  Fe6  1  0.71781412  1.00000000  0.28218588  1
  Fe  Fe7  1  0.00000000  0.28218588  0.71781412  1
  Fe  Fe8  1  0.28218588  0.00000000  0.71781412  1
  Fe  Fe9  1  1.00000000  0.71781412  0.28218588  1
  Fe  Fe10  1  0.71781412  0.28218588  0.00000000  1
  Fe  Fe11  1  0.34235130  0.34235130  0.85706891  1
  Fe  Fe12  1  0.34235130  0.85706891  0.34235130  1
  Fe  Fe13  1  0.85706891  0.34235130  0.34235130  1
  Fe  Fe14  1  0.65764870  0.65764870  0.14293109  1
  Fe  Fe15  1  0.65764870  0.14293109  0.65764870  1
  Fe  Fe16  1  0.14293109  0.65764870  0.65764870  1
  Fe  Fe17  1  0.90593773  0.90593773  0.90593773  1
  Fe  Fe18  1  0.09406227  0.09406227  0.09406227  1
  N  N19  1  0.50000000  0.50000000  0.00000000  1
  N  N20  1  0.50000000  0.00000000  0.50000000  1
  N  N21  1  0.00000000  0.50000000  0.50000000  1
