# generated using pymatgen
data_Li(RuO2)2
_symmetry_space_group_name_H-M   'P 1'
_cell_length_a   2.77247344
_cell_length_b   9.36898672
_cell_length_c   11.09514603
_cell_angle_alpha   90.00000000
_cell_angle_beta   90.00000000
_cell_angle_gamma   90.00000000
_symmetry_Int_Tables_number   1
_chemical_formula_structural   Li(RuO2)2
_chemical_formula_sum   'Li4 Ru8 O16'
_cell_volume   288.19937877
_cell_formula_units_Z   4
loop_
 _symmetry_equiv_pos_site_id
 _symmetry_equiv_pos_as_xyz
  1  'x, y, z'
loop_
 _atom_site_type_symbol
 _atom_site_label
 _atom_site_symmetry_multiplicity
 _atom_site_fract_x
 _atom_site_fract_y
 _atom_site_fract_z
 _atom_site_occupancy
  Li  Li0  1  0.75000000  0.74453521  0.13266085  1
  Li  Li1  1  0.75000000  0.24453521  0.36733915  1
  Li  Li2  1  0.25000000  0.25546479  0.86733915  1
  Li  Li3  1  0.25000000  0.75546479  0.63266085  1
  Ru  Ru4  1  0.75000000  0.09080426  0.60425798  1
  Ru  Ru5  1  0.75000000  0.59080426  0.89574202  1
  Ru  Ru6  1  0.25000000  0.90919574  0.39574202  1
  Ru  Ru7  1  0.25000000  0.40919574  0.10425798  1
  Ru  Ru8  1  0.75000000  0.05664928  0.12015254  1
  Ru  Ru9  1  0.75000000  0.55664928  0.37984746  1
  Ru  Ru10  1  0.25000000  0.94335072  0.87984746  1
  Ru  Ru11  1  0.25000000  0.44335072  0.62015254  1
  O  O12  1  0.75000000  0.96359349  0.27752774  1
  O  O13  1  0.75000000  0.46359349  0.22247226  1
  O  O14  1  0.25000000  0.03640651  0.72247226  1
  O  O15  1  0.25000000  0.53640651  0.77752774  1
  O  O16  1  0.75000000  0.09466549  0.93787973  1
  O  O17  1  0.75000000  0.59466549  0.56212027  1
  O  O18  1  0.25000000  0.90533451  0.06212027  1
  O  O19  1  0.25000000  0.40533451  0.43787973  1
  O  O20  1  0.75000000  0.29555124  0.66811525  1
  O  O21  1  0.75000000  0.79555124  0.83188475  1
  O  O22  1  0.25000000  0.70444876  0.33188475  1
  O  O23  1  0.25000000  0.20444876  0.16811525  1
  O  O24  1  0.75000000  0.88511287  0.53537840  1
  O  O25  1  0.75000000  0.38511287  0.96462160  1
  O  O26  1  0.25000000  0.11488713  0.46462160  1
  O  O27  1  0.25000000  0.61488713  0.03537840  1
