# generated using pymatgen
data_SmCO4
_symmetry_space_group_name_H-M   'P 1'
_cell_length_a   4.93787200
_cell_length_b   7.24591640
_cell_length_c   8.42993141
_cell_angle_alpha   90.00000000
_cell_angle_beta   90.00000000
_cell_angle_gamma   90.00000000
_symmetry_Int_Tables_number   1
_chemical_formula_structural   SmCO4
_chemical_formula_sum   'Sm4 C4 O16'
_cell_volume   301.61795285
_cell_formula_units_Z   4
loop_
 _symmetry_equiv_pos_site_id
 _symmetry_equiv_pos_as_xyz
  1  'x, y, z'
loop_
 _atom_site_type_symbol
 _atom_site_label
 _atom_site_symmetry_multiplicity
 _atom_site_fract_x
 _atom_site_fract_y
 _atom_site_fract_z
 _atom_site_occupancy
  Sm  Sm0  1  0.75000000  0.14251296  0.16547834  1
  Sm  Sm1  1  0.75000000  0.64251296  0.33452166  1
  Sm  Sm2  1  0.25000000  0.85748704  0.83452166  1
  Sm  Sm3  1  0.25000000  0.35748704  0.66547834  1
  C  C4  1  0.75000000  0.19913220  0.82203040  1
  C  C5  1  0.75000000  0.69913220  0.67796960  1
  C  C6  1  0.25000000  0.80086780  0.17796960  1
  C  C7  1  0.25000000  0.30086780  0.32203040  1
  O  O8  1  0.75000000  0.46146576  0.10330067  1
  O  O9  1  0.75000000  0.96146576  0.39669933  1
  O  O10  1  0.25000000  0.53853424  0.89669933  1
  O  O11  1  0.25000000  0.03853424  0.60330067  1
  O  O12  1  0.25000000  0.20359790  0.19516724  1
  O  O13  1  0.25000000  0.70359790  0.30483276  1
  O  O14  1  0.75000000  0.79640210  0.80483276  1
  O  O15  1  0.75000000  0.29640210  0.69516724  1
  O  O16  1  0.02248074  0.84700942  0.11095832  1
  O  O17  1  0.47751926  0.34700942  0.38904168  1
  O  O18  1  0.52248074  0.15299058  0.88904168  1
  O  O19  1  0.97751926  0.65299058  0.61095832  1
  O  O20  1  0.97751926  0.15299058  0.88904168  1
  O  O21  1  0.52248074  0.65299058  0.61095832  1
  O  O22  1  0.47751926  0.84700942  0.11095832  1
  O  O23  1  0.02248074  0.34700942  0.38904168  1
