# generated using pymatgen
data_Ba2FeSe3
_symmetry_space_group_name_H-M   'P 1'
_cell_length_a   4.45420794
_cell_length_b   12.68645140
_cell_length_c   12.97447086
_cell_angle_alpha   90.00000000
_cell_angle_beta   90.00000000
_cell_angle_gamma   90.00000000
_symmetry_Int_Tables_number   1
_chemical_formula_structural   Ba2FeSe3
_chemical_formula_sum   'Ba8 Fe4 Se12'
_cell_volume   733.16260023
_cell_formula_units_Z   4
loop_
 _symmetry_equiv_pos_site_id
 _symmetry_equiv_pos_as_xyz
  1  'x, y, z'
loop_
 _atom_site_type_symbol
 _atom_site_label
 _atom_site_symmetry_multiplicity
 _atom_site_fract_x
 _atom_site_fract_y
 _atom_site_fract_z
 _atom_site_occupancy
  Ba  Ba0  1  0.75000000  0.17582341  0.51897653  1
  Ba  Ba1  1  0.75000000  0.67582341  0.98102347  1
  Ba  Ba2  1  0.25000000  0.82417659  0.48102347  1
  Ba  Ba3  1  0.25000000  0.32417659  0.01897653  1
  Ba  Ba4  1  0.75000000  0.51163753  0.32492911  1
  Ba  Ba5  1  0.75000000  0.01163753  0.17507089  1
  Ba  Ba6  1  0.25000000  0.48836247  0.67507089  1
  Ba  Ba7  1  0.25000000  0.98836247  0.82492911  1
  Fe  Fe8  1  0.75000000  0.25468078  0.80124415  1
  Fe  Fe9  1  0.75000000  0.75468078  0.69875585  1
  Fe  Fe10  1  0.25000000  0.74531922  0.19875585  1
  Fe  Fe11  1  0.25000000  0.24531922  0.30124415  1
  Se  Se12  1  0.75000000  0.13367416  0.94608594  1
  Se  Se13  1  0.75000000  0.63367416  0.55391406  1
  Se  Se14  1  0.25000000  0.86632584  0.05391406  1
  Se  Se15  1  0.25000000  0.36632584  0.44608594  1
  Se  Se16  1  0.75000000  0.43764214  0.85940789  1
  Se  Se17  1  0.75000000  0.93764214  0.64059211  1
  Se  Se18  1  0.25000000  0.56235786  0.14059211  1
  Se  Se19  1  0.25000000  0.06235786  0.35940789  1
  Se  Se20  1  0.75000000  0.77549041  0.28855650  1
  Se  Se21  1  0.75000000  0.27549041  0.21144350  1
  Se  Se22  1  0.25000000  0.22450959  0.71144350  1
  Se  Se23  1  0.25000000  0.72450959  0.78855650  1
