# generated using pymatgen
data_UCu4(MoO8)2
_symmetry_space_group_name_H-M   'P 1'
_cell_length_a   5.35974896
_cell_length_b   5.96327171
_cell_length_c   10.95714500
_cell_angle_alpha   105.79033625
_cell_angle_beta   101.97016826
_cell_angle_gamma   90.00000000
_symmetry_Int_Tables_number   1
_chemical_formula_structural   UCu4(MoO8)2
_chemical_formula_sum   'U1 Cu4 Mo2 O16'
_cell_volume   329.07211748
_cell_formula_units_Z   1
loop_
 _symmetry_equiv_pos_site_id
 _symmetry_equiv_pos_as_xyz
  1  'x, y, z'
loop_
 _atom_site_type_symbol
 _atom_site_label
 _atom_site_symmetry_multiplicity
 _atom_site_fract_x
 _atom_site_fract_y
 _atom_site_fract_z
 _atom_site_occupancy
  U  U0  1  -0.00000000  0.00000000  -0.00000000  1
  Cu  Cu1  1  0.49716731  0.74850474  0.49700948  1
  Cu  Cu2  1  0.50283269  0.25149526  0.50299052  1
  Cu  Cu3  1  -0.00000000  0.00000000  0.50000000  1
  Cu  Cu4  1  -0.00000000  0.50000000  0.50000000  1
  Mo  Mo5  1  0.69634215  0.58295104  0.16590208  1
  Mo  Mo6  1  0.30365785  0.41704896  0.83409792  1
  O  O7  1  0.70772831  0.02961669  0.57076499  1
  O  O8  1  0.70772831  0.54114830  0.57076499  1
  O  O9  1  0.29227169  0.97038331  0.42923501  1
  O  O10  1  0.29227169  0.45885170  0.42923501  1
  O  O11  1  0.63213086  0.44952402  0.89904804  1
  O  O12  1  0.36786914  0.55047598  0.10095196  1
  O  O13  1  0.86430914  0.20619720  0.41239441  1
  O  O14  1  0.13569086  0.79380280  0.58760559  1
  O  O15  1  0.70168492  0.93960657  0.87921314  1
  O  O16  1  0.29831508  0.06039343  0.12078686  1
  O  O17  1  0.84806572  0.81528493  0.12293732  1
  O  O18  1  0.84806572  0.30765239  0.12293732  1
  O  O19  1  0.15193428  0.18471507  0.87706268  1
  O  O20  1  0.15193428  0.69234761  0.87706268  1
  O  O21  1  0.73790019  0.67019077  0.34038153  1
  O  O22  1  0.26209981  0.32980923  0.65961847  1
