# generated using pymatgen
data_V5As3C
_symmetry_space_group_name_H-M   'P 1'
_cell_length_a   5.24465999
_cell_length_b   7.14752144
_cell_length_c   7.14619866
_cell_angle_alpha   120.01624201
_cell_angle_beta   89.99662901
_cell_angle_gamma   90.00401739
_symmetry_Int_Tables_number   1
_chemical_formula_structural   V5As3C
_chemical_formula_sum   'V10 As6 C2'
_cell_volume   231.95696560
_cell_formula_units_Z   2
loop_
 _symmetry_equiv_pos_site_id
 _symmetry_equiv_pos_as_xyz
  1  'x, y, z'
loop_
 _atom_site_type_symbol
 _atom_site_label
 _atom_site_symmetry_multiplicity
 _atom_site_fract_x
 _atom_site_fract_y
 _atom_site_fract_z
 _atom_site_occupancy
  V  V0  1  0.49997371  0.33333124  0.66656417  1
  V  V1  1  0.49999479  0.66662489  0.33337415  1
  V  V2  1  0.00002852  0.66660843  0.33335254  1
  V  V3  1  0.00000478  0.33335039  0.66658346  1
  V  V4  1  0.75000226  0.22281826  0.00018958  1
  V  V5  1  0.75000566  0.77682722  0.77682039  1
  V  V6  1  0.75000892  0.00025552  0.22298510  1
  V  V7  1  0.25000090  0.77716984  0.99982215  1
  V  V8  1  0.24999412  0.22318311  0.22324313  1
  V  V9  1  0.24998704  0.99981744  0.77706046  1
  As  As10  1  0.75007031  0.59761102  -0.00031377  1
  As  As11  1  0.75007197  0.40234267  0.40252747  1
  As  As12  1  0.75007152  0.00003562  0.59771076  1
  As  As13  1  0.24992401  0.40220158  0.99999866  1
  As  As14  1  0.24992995  0.59738522  0.59756833  1
  As  As15  1  0.24993141  0.00035048  0.40238997  1
  C  C16  1  0.49990875  0.00004451  0.00006085  1
  C  C17  1  0.00009136  0.00004256  0.00006259  1
