# generated using pymatgen
data_Sm(CrSi)2
_symmetry_space_group_name_H-M   'P 1'
_cell_length_a   3.89926768
_cell_length_b   3.89926737
_cell_length_c   6.04579396
_cell_angle_alpha   108.81283393
_cell_angle_beta   108.81283224
_cell_angle_gamma   90.00000199
_symmetry_Int_Tables_number   1
_chemical_formula_structural   Sm(CrSi)2
_chemical_formula_sum   'Sm1 Cr2 Si2'
_cell_volume   81.80624367
_cell_formula_units_Z   1
loop_
 _symmetry_equiv_pos_site_id
 _symmetry_equiv_pos_as_xyz
  1  'x, y, z'
loop_
 _atom_site_type_symbol
 _atom_site_label
 _atom_site_symmetry_multiplicity
 _atom_site_fract_x
 _atom_site_fract_y
 _atom_site_fract_z
 _atom_site_occupancy
  Sm  Sm0  1  0.00000000  0.00000000  0.00000000  1
  Cr  Cr1  1  0.25000000  0.75000000  0.50000000  1
  Cr  Cr2  1  0.75000000  0.25000000  0.50000000  1
  Si  Si3  1  0.38168142  0.38168142  0.76336285  1
  Si  Si4  1  0.61831858  0.61831858  0.23663715  1
