# generated using pymatgen
data_Er3GaCoS7
_symmetry_space_group_name_H-M   'P 1'
_cell_length_a   6.12143488
_cell_length_b   9.47840120
_cell_length_c   9.47857643
_cell_angle_alpha   120.00350587
_cell_angle_beta   90.00000000
_cell_angle_gamma   90.00000000
_symmetry_Int_Tables_number   1
_chemical_formula_structural   Er3GaCoS7
_chemical_formula_sum   'Er6 Ga2 Co2 S14'
_cell_volume   476.26287064
_cell_formula_units_Z   2
loop_
 _symmetry_equiv_pos_site_id
 _symmetry_equiv_pos_as_xyz
  1  'x, y, z'
loop_
 _atom_site_type_symbol
 _atom_site_label
 _atom_site_symmetry_multiplicity
 _atom_site_fract_x
 _atom_site_fract_y
 _atom_site_fract_z
 _atom_site_occupancy
  Er  Er0  1  0.82245499  0.15502590  0.78151750  1
  Er  Er1  1  0.82246093  0.21847329  0.37347978  1
  Er  Er2  1  0.82245408  0.62650175  0.84499374  1
  Er  Er3  1  0.32245499  0.84497410  0.21848250  1
  Er  Er4  1  0.32246093  0.78152671  0.62652022  1
  Er  Er5  1  0.32245408  0.37349825  0.15500626  1
  Ga  Ga6  1  0.89437774  0.66663787  0.33332847  1
  Ga  Ga7  1  0.39437774  0.33336213  0.66667153  1
  Co  Co8  1  0.48899589  0.00000369  0.00001666  1
  Co  Co9  1  0.98899589  0.99999631  0.99998334  1
  S  S10  1  0.55450986  0.43390201  0.91561171  1
  S  S11  1  0.55449135  0.08440322  0.51827009  1
  S  S12  1  0.55451241  0.48173061  0.56611118  1
  S  S13  1  0.05450986  0.56609799  0.08438829  1
  S  S14  1  0.05449135  0.91559678  0.48172991  1
  S  S15  1  0.05451241  0.51826939  0.43388882  1
  S  S16  1  0.52620552  0.66666594  0.33334767  1
  S  S17  1  0.02620552  0.33333406  0.66665233  1
  S  S18  1  0.73188548  0.87170700  0.77432304  1
  S  S19  1  0.73190394  0.22576440  0.09742732  1
  S  S20  1  0.73192782  0.90256294  0.12834857  1
  S  S21  1  0.23188548  0.12829300  0.22567696  1
  S  S22  1  0.23190394  0.77423560  0.90257268  1
  S  S23  1  0.23192782  0.09743706  0.87165143  1
