# generated using pymatgen
data_SrCoO3
_symmetry_space_group_name_H-M   'P 1'
_cell_length_a   4.90392724
_cell_length_b   5.50677285
_cell_length_c   9.55275035
_cell_angle_alpha   90.00000000
_cell_angle_beta   93.24165735
_cell_angle_gamma   90.00000000
_symmetry_Int_Tables_number   1
_chemical_formula_structural   SrCoO3
_chemical_formula_sum   'Sr4 Co4 O12'
_cell_volume   257.55746607
_cell_formula_units_Z   4
loop_
 _symmetry_equiv_pos_site_id
 _symmetry_equiv_pos_as_xyz
  1  'x, y, z'
loop_
 _atom_site_type_symbol
 _atom_site_label
 _atom_site_symmetry_multiplicity
 _atom_site_fract_x
 _atom_site_fract_y
 _atom_site_fract_z
 _atom_site_occupancy
  Sr  Sr0  1  0.97802062  0.25000000  0.34286062  1
  Sr  Sr1  1  0.02197938  0.75000000  0.65713938  1
  Sr  Sr2  1  0.47066773  0.75000000  0.34599356  1
  Sr  Sr3  1  0.52933227  0.25000000  0.65400644  1
  Co  Co4  1  0.00172996  0.25000000  0.99521221  1
  Co  Co5  1  0.99827004  0.75000000  0.00478779  1
  Co  Co6  1  0.50000000  -0.00000000  -0.00000000  1
  Co  Co7  1  0.50000000  0.50000000  -0.00000000  1
  O  O8  1  0.69060895  0.25000000  0.10014895  1
  O  O9  1  0.30939105  0.75000000  0.89985105  1
  O  O10  1  0.68003896  0.75000000  0.10420794  1
  O  O11  1  0.31996104  0.25000000  0.89579206  1
  O  O12  1  0.17794221  0.00216344  0.10538051  1
  O  O13  1  0.82205779  0.50216344  0.89461949  1
  O  O14  1  0.82205779  0.99783656  0.89461949  1
  O  O15  1  0.17794221  0.49783656  0.10538051  1
  O  O16  1  0.97393864  0.75000000  0.39591547  1
  O  O17  1  0.02606136  0.25000000  0.60408453  1
  O  O18  1  0.48037317  0.25000000  0.39376137  1
  O  O19  1  0.51962683  0.75000000  0.60623863  1
