# generated using pymatgen
data_Mn3(Co10B3)2
_symmetry_space_group_name_H-M   'P 1'
_cell_length_a   7.31510639
_cell_length_b   7.31510639
_cell_length_c   7.31510639
_cell_angle_alpha   60.00000000
_cell_angle_beta   60.00000000
_cell_angle_gamma   60.00000000
_symmetry_Int_Tables_number   1
_chemical_formula_structural   Mn3(Co10B3)2
_chemical_formula_sum   'Mn3 Co20 B6'
_cell_volume   276.78779874
_cell_formula_units_Z   1
loop_
 _symmetry_equiv_pos_site_id
 _symmetry_equiv_pos_as_xyz
  1  'x, y, z'
loop_
 _atom_site_type_symbol
 _atom_site_label
 _atom_site_symmetry_multiplicity
 _atom_site_fract_x
 _atom_site_fract_y
 _atom_site_fract_z
 _atom_site_occupancy
  Mn  Mn0  1  -0.00000000  -0.00000000  0.00000000  1
  Mn  Mn1  1  0.25000000  0.25000000  0.25000000  1
  Mn  Mn2  1  0.75000000  0.75000000  0.75000000  1
  Co  Co3  1  0.86260313  0.37913229  0.37913229  1
  Co  Co4  1  0.37913229  0.86260313  0.37913229  1
  Co  Co5  1  0.37913229  0.37913229  0.86260313  1
  Co  Co6  1  0.37913229  0.37913229  0.37913229  1
  Co  Co7  1  0.13739687  0.62086771  0.62086771  1
  Co  Co8  1  0.62086771  0.13739687  0.62086771  1
  Co  Co9  1  0.62086771  0.62086771  0.13739687  1
  Co  Co10  1  0.62086771  0.62086771  0.62086771  1
  Co  Co11  1  0.66388559  0.00000000  -0.00000000  1
  Co  Co12  1  0.66388559  -0.00000000  0.33611441  1
  Co  Co13  1  0.66388559  0.33611441  -0.00000000  1
  Co  Co14  1  -0.00000000  0.66388559  0.33611441  1
  Co  Co15  1  -0.00000000  0.66388559  0.00000000  1
  Co  Co16  1  0.33611441  0.66388559  0.00000000  1
  Co  Co17  1  -0.00000000  0.33611441  0.66388559  1
  Co  Co18  1  0.33611441  0.00000000  0.66388559  1
  Co  Co19  1  -0.00000000  0.00000000  0.66388559  1
  Co  Co20  1  0.33611441  0.00000000  -0.00000000  1
  Co  Co21  1  0.00000000  0.33611441  -0.00000000  1
  Co  Co22  1  0.00000000  -0.00000000  0.33611441  1
  B  B23  1  0.72403926  0.27596074  0.27596074  1
  B  B24  1  0.72403926  0.27596074  0.72403926  1
  B  B25  1  0.72403926  0.72403926  0.27596074  1
  B  B26  1  0.27596074  0.72403926  0.72403926  1
  B  B27  1  0.27596074  0.72403926  0.27596074  1
  B  B28  1  0.27596074  0.27596074  0.72403926  1
