# generated using pymatgen
data_Zn3As2
_symmetry_space_group_name_H-M   'P 1'
_cell_length_a   11.91209520
_cell_length_b   11.91209520
_cell_length_c   14.64813084
_cell_angle_alpha   113.99193378
_cell_angle_beta   113.99193378
_cell_angle_gamma   90.00000000
_symmetry_Int_Tables_number   1
_chemical_formula_structural   Zn3As2
_chemical_formula_sum   'Zn48 As32'
_cell_volume   1700.52043026
_cell_formula_units_Z   16
loop_
 _symmetry_equiv_pos_site_id
 _symmetry_equiv_pos_as_xyz
  1  'x, y, z'
loop_
 _atom_site_type_symbol
 _atom_site_label
 _atom_site_symmetry_multiplicity
 _atom_site_fract_x
 _atom_site_fract_y
 _atom_site_fract_z
 _atom_site_occupancy
  Zn  Zn0  1  0.33223536  0.55976669  0.36915346  1
  Zn  Zn1  1  0.53691810  0.05976669  0.36915346  1
  Zn  Zn2  1  0.05976669  0.83223536  0.86915346  1
  Zn  Zn3  1  0.30938677  0.33223536  0.86915346  1
  Zn  Zn4  1  0.66776464  0.44023331  0.63084654  1
  Zn  Zn5  1  0.46308190  0.94023331  0.63084654  1
  Zn  Zn6  1  0.94023331  0.16776464  0.13084654  1
  Zn  Zn7  1  0.69061323  0.66776464  0.13084654  1
  Zn  Zn8  1  0.83223536  0.80938677  0.36915346  1
  Zn  Zn9  1  0.03691810  0.30938677  0.36915346  1
  Zn  Zn10  1  0.55976669  0.03691810  0.86915346  1
  Zn  Zn11  1  0.80938677  0.53691810  0.86915346  1
  Zn  Zn12  1  0.16776464  0.19061323  0.63084654  1
  Zn  Zn13  1  0.96308190  0.69061323  0.63084654  1
  Zn  Zn14  1  0.44023331  0.96308190  0.13084654  1
  Zn  Zn15  1  0.19061323  0.46308190  0.13084654  1
  Zn  Zn16  1  0.29876301  0.81780805  0.36456677  1
  Zn  Zn17  1  0.56580376  0.31780805  0.36456677  1
  Zn  Zn18  1  0.31780805  0.79876301  0.86456677  1
  Zn  Zn19  1  0.04675873  0.29876301  0.86456677  1
  Zn  Zn20  1  0.70123699  0.18219195  0.63543323  1
  Zn  Zn21  1  0.43419624  0.68219195  0.63543323  1
  Zn  Zn22  1  0.68219195  0.20123699  0.13543323  1
  Zn  Zn23  1  0.95324127  0.70123699  0.13543323  1
  Zn  Zn24  1  0.79876301  0.54675873  0.36456677  1
  Zn  Zn25  1  0.06580376  0.04675873  0.36456677  1
  Zn  Zn26  1  0.81780805  0.06580376  0.86456677  1
  Zn  Zn27  1  0.54675873  0.56580376  0.86456677  1
  Zn  Zn28  1  0.20123699  0.45324127  0.63543323  1
  Zn  Zn29  1  0.93419624  0.95324127  0.63543323  1
  Zn  Zn30  1  0.18219195  0.93419624  0.13543323  1
  Zn  Zn31  1  0.45324127  0.43419624  0.13543323  1
  Zn  Zn32  1  0.07511986  0.58427057  0.39381855  1
  Zn  Zn33  1  0.81869869  0.08427057  0.39381855  1
  Zn  Zn34  1  0.08427057  0.57511986  0.89381855  1
  Zn  Zn35  1  0.30954798  0.07511986  0.89381855  1
  Zn  Zn36  1  0.92488014  0.41572943  0.60618145  1
  Zn  Zn37  1  0.18130131  0.91572943  0.60618145  1
  Zn  Zn38  1  0.91572943  0.42488014  0.10618145  1
  Zn  Zn39  1  0.69045202  0.92488014  0.10618145  1
  Zn  Zn40  1  0.57511986  0.80954798  0.39381855  1
  Zn  Zn41  1  0.31869869  0.30954798  0.39381855  1
  Zn  Zn42  1  0.58427057  0.31869869  0.89381855  1
  Zn  Zn43  1  0.80954798  0.81869869  0.89381855  1
  Zn  Zn44  1  0.42488014  0.19045202  0.60618145  1
  Zn  Zn45  1  0.68130131  0.69045202  0.60618145  1
  Zn  Zn46  1  0.41572943  0.68130131  0.10618145  1
  Zn  Zn47  1  0.19045202  0.18130131  0.10618145  1
  As  As48  1  0.87500000  0.12500000  0.75000000  1
  As  As49  1  0.37500000  0.62500000  0.75000000  1
  As  As50  1  0.62500000  0.37500000  0.25000000  1
  As  As51  1  0.12500000  0.87500000  0.25000000  1
  As  As52  1  0.12500000  0.37500000  0.25000000  1
  As  As53  1  0.62500000  0.87500000  0.25000000  1
  As  As54  1  0.87500000  0.62500000  0.75000000  1
  As  As55  1  0.37500000  0.12500000  0.75000000  1
  As  As56  1  -0.00000000  0.50000000  0.50000000  1
  As  As57  1  -0.00000000  0.00000000  0.50000000  1
  As  As58  1  -0.00000000  0.50000000  0.00000000  1
  As  As59  1  0.50000000  0.00000000  0.00000000  1
  As  As60  1  0.50000000  0.00000000  0.50000000  1
  As  As61  1  0.50000000  0.50000000  0.50000000  1
  As  As62  1  0.50000000  0.50000000  0.00000000  1
  As  As63  1  -0.00000000  0.00000000  0.00000000  1
  As  As64  1  0.75000000  0.23009723  0.00000000  1
  As  As65  1  0.75000000  0.73009723  0.00000000  1
  As  As66  1  0.73009723  0.25000000  0.50000000  1
  As  As67  1  0.26990277  0.75000000  0.50000000  1
  As  As68  1  0.25000000  0.76990277  0.00000000  1
  As  As69  1  0.25000000  0.26990277  0.00000000  1
  As  As70  1  0.23009723  0.25000000  0.50000000  1
  As  As71  1  0.76990277  0.75000000  0.50000000  1
  As  As72  1  0.38437265  0.63437265  0.25000000  1
  As  As73  1  0.36562735  0.13437265  0.25000000  1
  As  As74  1  0.13437265  0.88437265  0.75000000  1
  As  As75  1  0.11562735  0.38437265  0.75000000  1
  As  As76  1  0.61562735  0.36562735  0.75000000  1
  As  As77  1  0.63437265  0.86562735  0.75000000  1
  As  As78  1  0.86562735  0.11562735  0.25000000  1
  As  As79  1  0.88437265  0.61562735  0.25000000  1
