# generated using pymatgen
data_Na2Fe2P2O8F
_symmetry_space_group_name_H-M   'P 1'
_cell_length_a   5.17789821
_cell_length_b   11.16812660
_cell_length_c   14.45781926
_cell_angle_alpha   90.00000000
_cell_angle_beta   90.00000000
_cell_angle_gamma   90.00000000
_symmetry_Int_Tables_number   1
_chemical_formula_structural   Na2Fe2P2O8F
_chemical_formula_sum   'Na8 Fe8 P8 O32 F4'
_cell_volume   836.05842612
_cell_formula_units_Z   4
loop_
 _symmetry_equiv_pos_site_id
 _symmetry_equiv_pos_as_xyz
  1  'x, y, z'
loop_
 _atom_site_type_symbol
 _atom_site_label
 _atom_site_symmetry_multiplicity
 _atom_site_fract_x
 _atom_site_fract_y
 _atom_site_fract_z
 _atom_site_occupancy
  Na  Na0  1  0.74510988  0.15502539  0.24577910  1
  Na  Na1  1  0.75489012  0.65502539  0.25422090  1
  Na  Na2  1  0.24510988  0.84497461  0.25422090  1
  Na  Na3  1  0.25489012  0.34497461  0.24577910  1
  Na  Na4  1  0.25489012  0.84497461  0.75422090  1
  Na  Na5  1  0.24510988  0.34497461  0.74577910  1
  Na  Na6  1  0.75489012  0.15502539  0.74577910  1
  Na  Na7  1  0.74510988  0.65502539  0.75422090  1
  Fe  Fe8  1  0.82145252  0.16325422  0.01018431  1
  Fe  Fe9  1  0.67854748  0.66325422  0.48981569  1
  Fe  Fe10  1  0.32145252  0.83674578  0.48981569  1
  Fe  Fe11  1  0.17854748  0.33674578  0.01018431  1
  Fe  Fe12  1  0.17854748  0.83674578  0.98981569  1
  Fe  Fe13  1  0.32145252  0.33674578  0.51018431  1
  Fe  Fe14  1  0.67854748  0.16325422  0.51018431  1
  Fe  Fe15  1  0.82145252  0.66325422  0.98981569  1
  P  P16  1  0.82939634  0.40946796  0.38688501  1
  P  P17  1  0.67060366  0.90946796  0.11311499  1
  P  P18  1  0.32939634  0.59053204  0.11311499  1
  P  P19  1  0.17060366  0.09053204  0.38688501  1
  P  P20  1  0.17060366  0.59053204  0.61311499  1
  P  P21  1  0.32939634  0.09053204  0.88688501  1
  P  P22  1  0.67060366  0.40946796  0.88688501  1
  P  P23  1  0.82939634  0.90946796  0.61311499  1
  O  O24  1  0.77410106  0.54569970  0.39645201  1
  O  O25  1  0.72589894  0.04569970  0.10354799  1
  O  O26  1  0.27410106  0.45430030  0.10354799  1
  O  O27  1  0.22589894  0.95430030  0.39645201  1
  O  O28  1  0.22589894  0.45430030  0.60354799  1
  O  O29  1  0.27410106  0.95430030  0.89645201  1
  O  O30  1  0.72589894  0.54569970  0.89645201  1
  O  O31  1  0.77410106  0.04569970  0.60354799  1
  O  O32  1  0.73577255  0.36299603  0.29438871  1
  O  O33  1  0.76422745  0.86299603  0.20561129  1
  O  O34  1  0.23577255  0.63700397  0.20561129  1
  O  O35  1  0.26422745  0.13700397  0.29438871  1
  O  O36  1  0.26422745  0.63700397  0.70561129  1
  O  O37  1  0.23577255  0.13700397  0.79438871  1
  O  O38  1  0.76422745  0.36299603  0.79438871  1
  O  O39  1  0.73577255  0.86299603  0.70561129  1
  O  O40  1  0.12489717  0.38683736  0.40043562  1
  O  O41  1  0.37510283  0.88683736  0.09956438  1
  O  O42  1  0.62489717  0.61316264  0.09956438  1
  O  O43  1  0.87510283  0.11316264  0.40043562  1
  O  O44  1  0.87510283  0.61316264  0.59956438  1
  O  O45  1  0.62489717  0.11316264  0.90043562  1
  O  O46  1  0.37510283  0.38683736  0.90043562  1
  O  O47  1  0.12489717  0.88683736  0.59956438  1
  O  O48  1  0.69445071  0.34407435  0.47225886  1
  O  O49  1  0.80554929  0.84407435  0.02774114  1
  O  O50  1  0.19445071  0.65592565  0.02774114  1
  O  O51  1  0.30554929  0.15592565  0.47225886  1
  O  O52  1  0.30554929  0.65592565  0.52774114  1
  O  O53  1  0.19445071  0.15592565  0.97225886  1
  O  O54  1  0.80554929  0.34407435  0.97225886  1
  O  O55  1  0.69445071  0.84407435  0.52774114  1
  F  F56  1  -0.00000000  0.25000000  0.12190301  1
  F  F57  1  0.50000000  0.75000000  0.37809699  1
  F  F58  1  0.00000000  0.75000000  0.87809699  1
  F  F59  1  0.50000000  0.25000000  0.62190301  1
