# generated using pymatgen
data_Ni3W3C
_symmetry_space_group_name_H-M   'P 1'
_cell_length_a   7.83970738
_cell_length_b   7.83970738
_cell_length_c   7.83970738
_cell_angle_alpha   60.00000000
_cell_angle_beta   60.00000000
_cell_angle_gamma   60.00000000
_symmetry_Int_Tables_number   1
_chemical_formula_structural   Ni3W3C
_chemical_formula_sum   'Ni12 W12 C4'
_cell_volume   340.70974880
_cell_formula_units_Z   4
loop_
 _symmetry_equiv_pos_site_id
 _symmetry_equiv_pos_as_xyz
  1  'x, y, z'
loop_
 _atom_site_type_symbol
 _atom_site_label
 _atom_site_symmetry_multiplicity
 _atom_site_fract_x
 _atom_site_fract_y
 _atom_site_fract_z
 _atom_site_occupancy
  Ni  Ni0  1  0.50000000  0.50000000  -0.00000000  1
  Ni  Ni1  1  0.50000000  -0.00000000  0.50000000  1
  Ni  Ni2  1  0.00000000  0.50000000  0.50000000  1
  Ni  Ni3  1  0.50000000  0.50000000  0.50000000  1
  Ni  Ni4  1  0.70986040  0.70986040  0.37041879  1
  Ni  Ni5  1  0.70986040  0.37041879  0.70986040  1
  Ni  Ni6  1  0.37041879  0.70986040  0.70986040  1
  Ni  Ni7  1  0.70986040  0.70986040  0.70986040  1
  Ni  Ni8  1  0.29013960  0.29013960  0.62958121  1
  Ni  Ni9  1  0.29013960  0.62958121  0.29013960  1
  Ni  Ni10  1  0.62958121  0.29013960  0.29013960  1
  Ni  Ni11  1  0.29013960  0.29013960  0.29013960  1
  W  W12  1  0.33196226  0.91803774  0.91803774  1
  W  W13  1  0.91803774  0.33196226  0.33196226  1
  W  W14  1  0.91803774  0.33196226  0.91803774  1
  W  W15  1  0.33196226  0.91803774  0.33196226  1
  W  W16  1  0.91803774  0.91803774  0.33196226  1
  W  W17  1  0.33196226  0.33196226  0.91803774  1
  W  W18  1  0.66803774  0.08196226  0.08196226  1
  W  W19  1  0.08196226  0.66803774  0.66803774  1
  W  W20  1  0.08196226  0.66803774  0.08196226  1
  W  W21  1  0.66803774  0.08196226  0.66803774  1
  W  W22  1  0.08196226  0.08196226  0.66803774  1
  W  W23  1  0.66803774  0.66803774  0.08196226  1
  C  C24  1  0.00000000  -0.00000000  0.50000000  1
  C  C25  1  0.00000000  0.50000000  -0.00000000  1
  C  C26  1  0.50000000  -0.00000000  -0.00000000  1
  C  C27  1  0.00000000  -0.00000000  -0.00000000  1
