# generated using pymatgen
data_Mo4H12N2O15
_symmetry_space_group_name_H-M   'P 1'
_cell_length_a   8.04694084
_cell_length_b   10.39780826
_cell_length_c   10.86346727
_cell_angle_alpha   114.40245254
_cell_angle_beta   99.68377004
_cell_angle_gamma   105.87432241
_symmetry_Int_Tables_number   1
_chemical_formula_structural   Mo4H12N2O15
_chemical_formula_sum   'Mo8 H24 N4 O30'
_cell_volume   754.03743258
_cell_formula_units_Z   2
loop_
 _symmetry_equiv_pos_site_id
 _symmetry_equiv_pos_as_xyz
  1  'x, y, z'
loop_
 _atom_site_type_symbol
 _atom_site_label
 _atom_site_symmetry_multiplicity
 _atom_site_fract_x
 _atom_site_fract_y
 _atom_site_fract_z
 _atom_site_occupancy
  Mo  Mo0  1  0.25520297  0.44865321  0.43637271  1
  Mo  Mo1  1  0.74479703  0.55134679  0.56362729  1
  Mo  Mo2  1  0.40309453  0.18084028  0.42306865  1
  Mo  Mo3  1  0.59690547  0.81915972  0.57693135  1
  Mo  Mo4  1  0.61981836  0.37742121  0.77290783  1
  Mo  Mo5  1  0.38018164  0.62257879  0.22709217  1
  Mo  Mo6  1  0.46580637  0.64699735  0.77992427  1
  Mo  Mo7  1  0.53419363  0.35300265  0.22007573  1
  H  H8  1  0.85699822  0.17019818  0.32249593  1
  H  H9  1  0.14300178  0.82980182  0.67750407  1
  H  H10  1  0.66074451  0.04001810  0.24388945  1
  H  H11  1  0.33925549  0.95998190  0.75611055  1
  H  H12  1  0.80617395  0.75240288  0.04360742  1
  H  H13  1  0.19382605  0.24759712  0.95639258  1
  H  H14  1  0.87022592  0.92426827  0.16205410  1
  H  H15  1  0.12977408  0.07573173  0.83794590  1
  H  H16  1  0.02360831  0.20094226  0.74128559  1
  H  H17  1  0.97639169  0.79905774  0.25871441  1
  H  H18  1  0.04441203  0.18812354  0.58358101  1
  H  H19  1  0.95558797  0.81187646  0.41641899  1
  H  H20  1  0.06836594  0.35598502  0.71535863  1
  H  H21  1  0.93163406  0.64401498  0.28464137  1
  H  H22  1  0.85980508  0.21261742  0.62869210  1
  H  H23  1  0.14019492  0.78738258  0.37130790  1
  H  H24  1  0.07287043  0.84234238  0.01444713  1
  H  H25  1  0.92712957  0.15765762  0.98555287  1
  H  H26  1  0.20772147  0.88645362  0.91637410  1
  H  H27  1  0.79227853  0.11354638  0.08362590  1
  H  H28  1  0.15708989  0.71670492  0.91370657  1
  H  H29  1  0.84291011  0.28329508  0.08629343  1
  H  H30  1  0.29435685  0.87710048  0.06423011  1
  H  H31  1  0.70564315  0.12289952  0.93576989  1
  N  N32  1  0.99780539  0.23868312  0.66666589  1
  N  N33  1  0.00219461  0.76131688  0.33333411  1
  N  N34  1  0.18176245  0.83071876  0.97600371  1
  N  N35  1  0.81823755  0.16928124  0.02399629  1
  O  O36  1  0.45719927  0.43330677  0.58481410  1
  O  O37  1  0.54280073  0.56669323  0.41518590  1
  O  O38  1  0.30058499  0.27039800  0.30897695  1
  O  O39  1  0.69941501  0.72960200  0.69102305  1
  O  O40  1  0.58893551  0.21600323  0.58321613  1
  O  O41  1  0.41106449  0.78399677  0.41678387  1
  O  O42  1  0.63382602  0.58903933  0.87344355  1
  O  O43  1  0.36617398  0.41096067  0.12655645  1
  O  O44  1  0.35061592  0.65405589  0.60191968  1
  O  O45  1  0.64938408  0.34594411  0.39808032  1
  O  O46  1  0.05803412  0.35309026  0.45835521  1
  O  O47  1  0.94196588  0.64690974  0.54164479  1
  O  O48  1  0.17696410  0.49629189  0.30334912  1
  O  O49  1  0.82303590  0.50370811  0.69665088  1
  O  O50  1  0.20435581  0.10400892  0.45526688  1
  O  O51  1  0.79564419  0.89599108  0.54473312  1
  O  O52  1  0.42262040  0.02770870  0.28524675  1
  O  O53  1  0.57737960  0.97229130  0.71475325  1
  O  O54  1  0.41708135  0.28864996  0.79199186  1
  O  O55  1  0.58291865  0.71135004  0.20800814  1
  O  O56  1  0.78867317  0.36512987  0.88372320  1
  O  O57  1  0.21132683  0.63487013  0.11627680  1
  O  O58  1  0.25919867  0.55551337  0.79575488  1
  O  O59  1  0.74080133  0.44448663  0.20424512  1
  O  O60  1  0.53486240  0.83665312  0.90619402  1
  O  O61  1  0.46513760  0.16334688  0.09380598  1
  O  O62  1  0.78356791  0.07173026  0.23561832  1
  O  O63  1  0.21643209  0.92826974  0.76438168  1
  O  O64  1  0.91544648  0.84202763  0.11681281  1
  O  O65  1  0.08455352  0.15797237  0.88318719  1
