# generated using pymatgen
data_Tm3Ge13Pt4
_symmetry_space_group_name_H-M   'P 1'
_cell_length_a   9.06221838
_cell_length_b   9.06221838
_cell_length_c   9.17067097
_cell_angle_alpha   90.36434192
_cell_angle_beta   90.36434192
_cell_angle_gamma   89.73701211
_symmetry_Int_Tables_number   1
_chemical_formula_structural   Tm3Ge13Pt4
_chemical_formula_sum   'Tm6 Ge26 Pt8'
_cell_volume   753.09211760
_cell_formula_units_Z   2
loop_
 _symmetry_equiv_pos_site_id
 _symmetry_equiv_pos_as_xyz
  1  'x, y, z'
loop_
 _atom_site_type_symbol
 _atom_site_label
 _atom_site_symmetry_multiplicity
 _atom_site_fract_x
 _atom_site_fract_y
 _atom_site_fract_z
 _atom_site_occupancy
  Tm  Tm0  1  0.00031145  0.00036952  0.50432497  1
  Tm  Tm1  1  0.00036952  0.00031145  0.00432497  1
  Tm  Tm2  1  0.50021094  0.25592362  0.25144665  1
  Tm  Tm3  1  0.25592362  0.50021094  0.75144665  1
  Tm  Tm4  1  0.74224144  0.49950712  0.75445958  1
  Tm  Tm5  1  0.49950712  0.74224144  0.25445958  1
  Ge  Ge6  1  0.50492811  0.99163322  0.75408624  1
  Ge  Ge7  1  0.99163322  0.50492811  0.25408624  1
  Ge  Ge8  1  0.82747795  0.85529917  0.25972986  1
  Ge  Ge9  1  0.85529917  0.82747795  0.75972986  1
  Ge  Ge10  1  0.15327950  0.83497741  0.75574980  1
  Ge  Ge11  1  0.83497741  0.15327950  0.25574980  1
  Ge  Ge12  1  0.49559054  0.33330033  0.60525850  1
  Ge  Ge13  1  0.33330033  0.49559054  0.10525850  1
  Ge  Ge14  1  0.99551071  0.61009343  0.51946760  1
  Ge  Ge15  1  0.61009343  0.99551071  0.01946760  1
  Ge  Ge16  1  0.33188127  0.99889163  0.10797160  1
  Ge  Ge17  1  0.99889163  0.33188127  0.60797160  1
  Ge  Ge18  1  0.73383445  0.49595163  0.13992590  1
  Ge  Ge19  1  0.49595163  0.73383445  0.63992590  1
  Ge  Ge20  1  0.32947992  0.99761825  0.39990892  1
  Ge  Ge21  1  0.99761825  0.32947992  0.89990892  1
  Ge  Ge22  1  0.11604211  0.77193047  0.25347167  1
  Ge  Ge23  1  0.77193047  0.11604211  0.75347167  1
  Ge  Ge24  1  0.00204338  0.61386990  0.97899240  1
  Ge  Ge25  1  0.61386990  0.00204338  0.47899240  1
  Ge  Ge26  1  0.49822990  0.33049653  0.90749369  1
  Ge  Ge27  1  0.33049653  0.49822990  0.40749369  1
  Ge  Ge28  1  0.25135461  0.11086185  0.75235744  1
  Ge  Ge29  1  0.11086185  0.25135461  0.25235744  1
  Ge  Ge30  1  0.65463448  0.50378071  0.41659258  1
  Ge  Ge31  1  0.50378071  0.65463448  0.91659258  1
  Pt  Pt32  1  0.74832475  0.24956322  0.50637198  1
  Pt  Pt33  1  0.24956322  0.74832475  0.00637198  1
  Pt  Pt34  1  0.24780740  0.74734016  0.50476982  1
  Pt  Pt35  1  0.74734016  0.24780740  0.00476982  1
  Pt  Pt36  1  0.24414554  0.24321446  0.50285510  1
  Pt  Pt37  1  0.24321446  0.24414554  0.00285510  1
  Pt  Pt38  1  0.75144576  0.74960320  0.01136570  1
  Pt  Pt39  1  0.74960320  0.75144576  0.51136570  1
