# generated using pymatgen
data_Cs(SeO3)3
_symmetry_space_group_name_H-M   'P 1'
_cell_length_a   9.70596197
_cell_length_b   9.98203740
_cell_length_c   11.29973818
_cell_angle_alpha   106.63329041
_cell_angle_beta   90.00000000
_cell_angle_gamma   90.00000000
_symmetry_Int_Tables_number   1
_chemical_formula_structural   Cs(SeO3)3
_chemical_formula_sum   'Cs4 Se12 O36'
_cell_volume   1048.96880381
_cell_formula_units_Z   4
loop_
 _symmetry_equiv_pos_site_id
 _symmetry_equiv_pos_as_xyz
  1  'x, y, z'
loop_
 _atom_site_type_symbol
 _atom_site_label
 _atom_site_symmetry_multiplicity
 _atom_site_fract_x
 _atom_site_fract_y
 _atom_site_fract_z
 _atom_site_occupancy
  Cs  Cs0  1  0.76654552  0.22191115  0.51420246  1
  Cs  Cs1  1  0.26654552  0.77808885  0.98579754  1
  Cs  Cs2  1  0.23345448  0.77808885  0.48579754  1
  Cs  Cs3  1  0.73345448  0.22191115  0.01420246  1
  Se  Se4  1  0.73576396  0.78146309  0.96632290  1
  Se  Se5  1  0.23576396  0.21853691  0.53367710  1
  Se  Se6  1  0.26423604  0.21853691  0.03367710  1
  Se  Se7  1  0.76423604  0.78146309  0.46632290  1
  Se  Se8  1  0.95236838  0.47065470  0.28644676  1
  Se  Se9  1  0.45236838  0.52934530  0.21355324  1
  Se  Se10  1  0.04763162  0.52934530  0.71355324  1
  Se  Se11  1  0.54763162  0.47065470  0.78644676  1
  Se  Se12  1  0.46077447  0.08718074  0.30043702  1
  Se  Se13  1  0.96077447  0.91281926  0.19956298  1
  Se  Se14  1  0.53922553  0.91281926  0.69956298  1
  Se  Se15  1  0.03922553  0.08718074  0.80043702  1
  O  O16  1  0.68297647  0.60827422  0.91986485  1
  O  O17  1  0.18297647  0.39172578  0.58013515  1
  O  O18  1  0.31702353  0.39172578  0.08013515  1
  O  O19  1  0.81702353  0.60827422  0.41986485  1
  O  O20  1  0.88177567  0.76509294  0.05925084  1
  O  O21  1  0.38177567  0.23490706  0.44074916  1
  O  O22  1  0.11822433  0.23490706  0.94074916  1
  O  O23  1  0.61822433  0.76509294  0.55925084  1
  O  O24  1  0.62130356  0.88721298  0.05244941  1
  O  O25  1  0.12130356  0.11278702  0.44755059  1
  O  O26  1  0.37869644  0.11278702  0.94755059  1
  O  O27  1  0.87869644  0.88721298  0.55244941  1
  O  O28  1  0.10105579  0.50268694  0.35713048  1
  O  O29  1  0.60105579  0.49731306  0.14286952  1
  O  O30  1  0.89894421  0.49731306  0.64286952  1
  O  O31  1  0.39894421  0.50268694  0.85713048  1
  O  O32  1  0.87320282  0.32835013  0.29335727  1
  O  O33  1  0.37320282  0.67164987  0.20664273  1
  O  O34  1  0.12679718  0.67164987  0.70664273  1
  O  O35  1  0.62679718  0.32835013  0.79335727  1
  O  O36  1  0.93184944  0.51602851  0.16011991  1
  O  O37  1  0.43184944  0.48397149  0.33988009  1
  O  O38  1  0.06815056  0.48397149  0.83988009  1
  O  O39  1  0.56815056  0.51602851  0.66011991  1
  O  O40  1  0.33041527  0.04095170  0.20429228  1
  O  O41  1  0.83041527  0.95904830  0.29570772  1
  O  O42  1  0.66958473  0.95904830  0.79570772  1
  O  O43  1  0.16958473  0.04095170  0.70429228  1
  O  O44  1  0.57712292  0.18854139  0.26519441  1
  O  O45  1  0.07712292  0.81145861  0.23480559  1
  O  O46  1  0.42287708  0.81145861  0.73480559  1
  O  O47  1  0.92287708  0.18854139  0.76519441  1
  O  O48  1  0.51609523  0.97163936  0.36674918  1
  O  O49  1  0.01609523  0.02836064  0.13325082  1
  O  O50  1  0.48390477  0.02836064  0.63325082  1
  O  O51  1  0.98390477  0.97163936  0.86674918  1
