# generated using pymatgen
data_Ca2AlP2O9
_symmetry_space_group_name_H-M   'P 1'
_cell_length_a   5.67060935
_cell_length_b   7.65117956
_cell_length_c   8.31557882
_cell_angle_alpha   113.03146831
_cell_angle_beta   90.00000000
_cell_angle_gamma   90.00000000
_symmetry_Int_Tables_number   1
_chemical_formula_structural   Ca2AlP2O9
_chemical_formula_sum   'Ca4 Al2 P4 O18'
_cell_volume   332.02850152
_cell_formula_units_Z   2
loop_
 _symmetry_equiv_pos_site_id
 _symmetry_equiv_pos_as_xyz
  1  'x, y, z'
loop_
 _atom_site_type_symbol
 _atom_site_label
 _atom_site_symmetry_multiplicity
 _atom_site_fract_x
 _atom_site_fract_y
 _atom_site_fract_z
 _atom_site_occupancy
  Ca  Ca0  1  0.25000000  0.79477063  0.75303194  1
  Ca  Ca1  1  0.75000000  0.20522937  0.24696806  1
  Ca  Ca2  1  0.25000000  0.17729847  0.58595962  1
  Ca  Ca3  1  0.75000000  0.82270153  0.41404038  1
  Al  Al4  1  0.00000000  0.50000000  0.00000000  1
  Al  Al5  1  0.50000000  0.50000000  0.00000000  1
  P  P6  1  0.75000000  0.07722664  0.81609955  1
  P  P7  1  0.25000000  0.92277336  0.18390045  1
  P  P8  1  0.75000000  0.49985436  0.66733887  1
  P  P9  1  0.25000000  0.50014564  0.33266113  1
  O  O10  1  0.02651505  0.44648409  0.20834923  1
  O  O11  1  0.52651505  0.55351591  0.79165077  1
  O  O12  1  0.97348495  0.55351591  0.79165077  1
  O  O13  1  0.47348495  0.44648409  0.20834923  1
  O  O14  1  0.75000000  0.28653838  0.55349582  1
  O  O15  1  0.25000000  0.71346162  0.44650418  1
  O  O16  1  0.75000000  0.61957491  0.55843134  1
  O  O17  1  0.25000000  0.38042509  0.44156866  1
  O  O18  1  0.52935765  0.01276271  0.69636643  1
  O  O19  1  0.02935765  0.98723729  0.30363357  1
  O  O20  1  0.47064235  0.98723729  0.30363357  1
  O  O21  1  0.97064235  0.01276271  0.69636643  1
  O  O22  1  0.75000000  0.99485361  0.95638452  1
  O  O23  1  0.25000000  0.00514639  0.04361548  1
  O  O24  1  0.75000000  0.30386200  0.91323592  1
  O  O25  1  0.25000000  0.69613800  0.08676408  1
  O  O26  1  0.75000000  0.65019978  0.10805518  1
  O  O27  1  0.25000000  0.34980022  0.89194482  1
