# generated using pymatgen
data_VPH11O9
_symmetry_space_group_name_H-M   'P 1'
_cell_length_a   6.40475499
_cell_length_b   11.52242817
_cell_length_c   11.52242817
_cell_angle_alpha   90.00000000
_cell_angle_beta   90.00000000
_cell_angle_gamma   90.00000000
_symmetry_Int_Tables_number   1
_chemical_formula_structural   VPH11O9
_chemical_formula_sum   'V4 P4 H44 O36'
_cell_volume   850.33594864
_cell_formula_units_Z   4
loop_
 _symmetry_equiv_pos_site_id
 _symmetry_equiv_pos_as_xyz
  1  'x, y, z'
loop_
 _atom_site_type_symbol
 _atom_site_label
 _atom_site_symmetry_multiplicity
 _atom_site_fract_x
 _atom_site_fract_y
 _atom_site_fract_z
 _atom_site_occupancy
  V  V0  1  0.75230944  0.44753077  0.83753780  1
  V  V1  1  0.25230944  0.55246923  0.16246220  1
  V  V2  1  0.50230944  0.83753780  0.55246923  1
  V  V3  1  0.00230944  0.16246220  0.44753077  1
  P  P4  1  0.75241479  0.57380516  0.08869461  1
  P  P5  1  0.25241479  0.42619484  0.91130539  1
  P  P6  1  0.50241479  0.08869461  0.42619484  1
  P  P7  1  0.00241479  0.91130539  0.57380516  1
  H  H8  1  0.87529907  0.20728796  0.89684818  1
  H  H9  1  0.37529907  0.79271204  0.10315182  1
  H  H10  1  0.62529907  0.89684818  0.79271204  1
  H  H11  1  0.12529907  0.10315182  0.20728796  1
  H  H12  1  0.63664153  0.21632836  0.85449950  1
  H  H13  1  0.13664153  0.78367164  0.14550050  1
  H  H14  1  0.38664153  0.85449950  0.78367164  1
  H  H15  1  0.88664153  0.14550050  0.21632836  1
  H  H16  1  0.85723167  0.30870812  0.65137898  1
  H  H17  1  0.35723167  0.69129188  0.34862102  1
  H  H18  1  0.60723167  0.65137898  0.69129188  1
  H  H19  1  0.10723167  0.34862102  0.30870812  1
  H  H20  1  0.63015900  0.36771948  0.62761764  1
  H  H21  1  0.13015900  0.63228052  0.37238236  1
  H  H22  1  0.38015900  0.62761764  0.63228052  1
  H  H23  1  0.88015900  0.37238236  0.36771948  1
  H  H24  1  0.86888625  0.69256593  0.49850744  1
  H  H25  1  0.36888625  0.30743407  0.50149256  1
  H  H26  1  0.61888625  0.49850744  0.30743407  1
  H  H27  1  0.11888625  0.50149256  0.69256593  1
  H  H28  1  0.82496029  0.56814963  0.43375748  1
  H  H29  1  0.32496029  0.43185037  0.56624252  1
  H  H30  1  0.57496029  0.43375748  0.43185037  1
  H  H31  1  0.07496029  0.56624252  0.56814963  1
  H  H32  1  0.93536436  0.84938629  0.88192179  1
  H  H33  1  0.43536436  0.15061371  0.11807821  1
  H  H34  1  0.68536436  0.88192179  0.15061371  1
  H  H35  1  0.18536436  0.11807821  0.84938629  1
  H  H36  1  0.90426846  0.98289250  0.89644491  1
  H  H37  1  0.40426846  0.01710750  0.10355509  1
  H  H38  1  0.65426846  0.89644491  0.01710750  1
  H  H39  1  0.15426846  0.10355509  0.98289250  1
  H  H40  1  0.44624248  0.08101145  0.71877659  1
  H  H41  1  0.94624248  0.91898855  0.28122341  1
  H  H42  1  0.19624248  0.71877659  0.91898855  1
  H  H43  1  0.69624248  0.28122341  0.08101145  1
  H  H44  1  0.36722526  0.20988346  0.71132216  1
  H  H45  1  0.86722526  0.79011654  0.28867784  1
  H  H46  1  0.11722526  0.71132216  0.79011654  1
  H  H47  1  0.61722526  0.28867784  0.20988346  1
  H  H48  1  0.73232669  0.67047588  0.01471076  1
  H  H49  1  0.23232669  0.32952412  0.98528924  1
  H  H50  1  0.48232669  0.01471076  0.32952412  1
  H  H51  1  0.98232669  0.98528924  0.67047588  1
  O  O52  1  0.75778613  0.46506257  0.01132159  1
  O  O53  1  0.25778613  0.53493743  0.98867841  1
  O  O54  1  0.50778613  0.01132159  0.53493743  1
  O  O55  1  0.00778613  0.98867841  0.46506257  1
  O  O56  1  0.56343951  0.57494287  0.17234507  1
  O  O57  1  0.06343951  0.42505713  0.82765493  1
  O  O58  1  0.31343951  0.17234507  0.42505713  1
  O  O59  1  0.81343951  0.82765493  0.57494287  1
  O  O60  1  0.94728463  0.58957158  0.16410712  1
  O  O61  1  0.44728463  0.41042842  0.83589288  1
  O  O62  1  0.69728463  0.16410712  0.41042842  1
  O  O63  1  0.19728463  0.83589288  0.58957158  1
  O  O64  1  0.74335525  0.58597555  0.79746835  1
  O  O65  1  0.24335525  0.41402445  0.20253165  1
  O  O66  1  0.49335525  0.79746835  0.41402445  1
  O  O67  1  0.99335525  0.20253165  0.58597555  1
  O  O68  1  0.74760602  0.25725419  0.89760531  1
  O  O69  1  0.24760602  0.74274581  0.10239469  1
  O  O70  1  0.49760602  0.89760531  0.74274581  1
  O  O71  1  0.99760602  0.10239469  0.25725419  1
  O  O72  1  0.76065168  0.37269404  0.67574633  1
  O  O73  1  0.26065168  0.62730596  0.32425367  1
  O  O74  1  0.51065168  0.67574633  0.62730596  1
  O  O75  1  0.01065168  0.32425367  0.37269404  1
  O  O76  1  0.93496272  0.62356865  0.46273823  1
  O  O77  1  0.43496272  0.37643135  0.53726177  1
  O  O78  1  0.68496272  0.46273823  0.37643135  1
  O  O79  1  0.18496272  0.53726177  0.62356865  1
  O  O80  1  0.82407675  0.90894032  0.89377499  1
  O  O81  1  0.32407675  0.09105968  0.10622501  1
  O  O82  1  0.57407675  0.89377499  0.09105968  1
  O  O83  1  0.07407675  0.10622501  0.90894032  1
  O  O84  1  0.41140804  0.14983215  0.76576364  1
  O  O85  1  0.91140804  0.85016785  0.23423636  1
  O  O86  1  0.16140804  0.76576364  0.85016785  1
  O  O87  1  0.66140804  0.23423636  0.14983215  1
