# generated using pymatgen
data_PH13AuC4SeN2Cl
_symmetry_space_group_name_H-M   'P 1'
_cell_length_a   11.14236771
_cell_length_b   11.14236771
_cell_length_c   19.99935302
_cell_angle_alpha   90.00000000
_cell_angle_beta   90.00000000
_cell_angle_gamma   90.00000000
_symmetry_Int_Tables_number   1
_chemical_formula_structural   PH13AuC4SeN2Cl
_chemical_formula_sum   'P8 H104 Au8 C32 Se8 N16 Cl8'
_cell_volume   2482.96683960
_cell_formula_units_Z   8
loop_
 _symmetry_equiv_pos_site_id
 _symmetry_equiv_pos_as_xyz
  1  'x, y, z'
loop_
 _atom_site_type_symbol
 _atom_site_label
 _atom_site_symmetry_multiplicity
 _atom_site_fract_x
 _atom_site_fract_y
 _atom_site_fract_z
 _atom_site_occupancy
  P  P0  1  0.29794081  0.62077922  0.31174773  1
  P  P1  1  0.79794081  0.87922078  0.18825227  1
  P  P2  1  0.70205919  0.37922078  0.31174773  1
  P  P3  1  0.20205919  0.12077922  0.18825227  1
  P  P4  1  0.62077922  0.70205919  0.68825227  1
  P  P5  1  0.87922078  0.20205919  0.81174773  1
  P  P6  1  0.37922078  0.29794081  0.68825227  1
  P  P7  1  0.12077922  0.79794081  0.81174773  1
  H  H8  1  0.20753599  0.02916085  0.45843889  1
  H  H9  1  0.70753599  0.47083915  0.04156111  1
  H  H10  1  0.79246401  0.97083915  0.45843889  1
  H  H11  1  0.29246401  0.52916085  0.04156111  1
  H  H12  1  0.02916085  0.79246401  0.54156111  1
  H  H13  1  0.47083915  0.29246401  0.95843889  1
  H  H14  1  0.97083915  0.20753599  0.54156111  1
  H  H15  1  0.52916085  0.70753599  0.95843889  1
  H  H16  1  0.35880692  0.05316932  0.48291188  1
  H  H17  1  0.85880692  0.44683068  0.01708812  1
  H  H18  1  0.64119308  0.94683068  0.48291188  1
  H  H19  1  0.14119308  0.55316932  0.01708812  1
  H  H20  1  0.05316932  0.64119308  0.51708812  1
  H  H21  1  0.44683068  0.14119308  0.98291188  1
  H  H22  1  0.94683068  0.35880692  0.51708812  1
  H  H23  1  0.55316932  0.85880692  0.98291188  1
  H  H24  1  0.09518836  0.17728916  0.41716340  1
  H  H25  1  0.59518836  0.32271084  0.08283660  1
  H  H26  1  0.90481164  0.82271084  0.41716340  1
  H  H27  1  0.40481164  0.67728916  0.08283660  1
  H  H28  1  0.17728916  0.90481164  0.58283660  1
  H  H29  1  0.32271084  0.40481164  0.91716340  1
  H  H30  1  0.82271084  0.09518836  0.58283660  1
  H  H31  1  0.67728916  0.59518836  0.91716340  1
  H  H32  1  0.14765209  0.32752090  0.41486523  1
  H  H33  1  0.64765209  0.17247910  0.08513477  1
  H  H34  1  0.85234791  0.67247910  0.41486523  1
  H  H35  1  0.35234791  0.82752090  0.08513477  1
  H  H36  1  0.32752090  0.85234791  0.58513477  1
  H  H37  1  0.17247910  0.35234791  0.91486523  1
  H  H38  1  0.67247910  0.14765209  0.58513477  1
  H  H39  1  0.82752090  0.64765209  0.91486523  1
  H  H40  1  0.22880734  0.50297445  0.21714679  1
  H  H41  1  0.72880734  0.99702555  0.28285321  1
  H  H42  1  0.77119266  0.49702555  0.21714679  1
  H  H43  1  0.27119266  0.00297445  0.28285321  1
  H  H44  1  0.50297445  0.77119266  0.78285321  1
  H  H45  1  0.99702555  0.27119266  0.71714679  1
  H  H46  1  0.49702555  0.22880734  0.78285321  1
  H  H47  1  0.00297445  0.72880734  0.71714679  1
  H  H48  1  0.10871973  0.54368767  0.27254176  1
  H  H49  1  0.60871973  0.95631233  0.22745824  1
  H  H50  1  0.89128027  0.45631233  0.27254176  1
  H  H51  1  0.39128027  0.04368767  0.22745824  1
  H  H52  1  0.54368767  0.89128027  0.72745824  1
  H  H53  1  0.95631233  0.39128027  0.77254176  1
  H  H54  1  0.45631233  0.10871973  0.72745824  1
  H  H55  1  0.04368767  0.60871973  0.77254176  1
  H  H56  1  0.17042010  0.65222065  0.21547133  1
  H  H57  1  0.67042010  0.84777935  0.28452867  1
  H  H58  1  0.82957990  0.34777935  0.21547133  1
  H  H59  1  0.32957990  0.15222065  0.28452867  1
  H  H60  1  0.65222065  0.82957990  0.78452867  1
  H  H61  1  0.84777935  0.32957990  0.71547133  1
  H  H62  1  0.34777935  0.17042010  0.78452867  1
  H  H63  1  0.15222065  0.67042010  0.71547133  1
  H  H64  1  0.48337466  0.73046976  0.29910718  1
  H  H65  1  0.98337466  0.76953024  0.20089282  1
  H  H66  1  0.51662534  0.26953024  0.29910718  1
  H  H67  1  0.01662534  0.23046976  0.20089282  1
  H  H68  1  0.73046976  0.51662534  0.70089282  1
  H  H69  1  0.76953024  0.01662534  0.79910718  1
  H  H70  1  0.26953024  0.48337466  0.70089282  1
  H  H71  1  0.23046976  0.98337466  0.79910718  1
  H  H72  1  0.45674034  0.63315175  0.22902937  1
  H  H73  1  0.95674034  0.86684825  0.27097063  1
  H  H74  1  0.54325966  0.36684825  0.22902937  1
  H  H75  1  0.04325966  0.13315175  0.27097063  1
  H  H76  1  0.63315175  0.54325966  0.77097063  1
  H  H77  1  0.86684825  0.04325966  0.72902937  1
  H  H78  1  0.36684825  0.45674034  0.77097063  1
  H  H79  1  0.13315175  0.95674034  0.72902937  1
  H  H80  1  0.37449319  0.77050625  0.23641277  1
  H  H81  1  0.87449319  0.72949375  0.26358723  1
  H  H82  1  0.62550681  0.22949375  0.23641277  1
  H  H83  1  0.12550681  0.27050625  0.26358723  1
  H  H84  1  0.77050625  0.62550681  0.76358723  1
  H  H85  1  0.72949375  0.12550681  0.73641277  1
  H  H86  1  0.22949375  0.37449319  0.76358723  1
  H  H87  1  0.27050625  0.87449319  0.73641277  1
  H  H88  1  0.18170137  0.80380041  0.32062483  1
  H  H89  1  0.68170137  0.69619959  0.17937517  1
  H  H90  1  0.81829863  0.19619959  0.32062483  1
  H  H91  1  0.31829863  0.30380041  0.17937517  1
  H  H92  1  0.80380041  0.81829863  0.67937517  1
  H  H93  1  0.69619959  0.31829863  0.82062483  1
  H  H94  1  0.19619959  0.18170137  0.67937517  1
  H  H95  1  0.30380041  0.68170137  0.82062483  1
  H  H96  1  0.14776025  0.69962273  0.38627660  1
  H  H97  1  0.64776025  0.80037727  0.11372340  1
  H  H98  1  0.85223975  0.30037727  0.38627660  1
  H  H99  1  0.35223975  0.19962273  0.11372340  1
  H  H100  1  0.69962273  0.85223975  0.61372340  1
  H  H101  1  0.80037727  0.35223975  0.88627660  1
  H  H102  1  0.30037727  0.14776025  0.61372340  1
  H  H103  1  0.19962273  0.64776025  0.88627660  1
  H  H104  1  0.28256194  0.78654908  0.38991880  1
  H  H105  1  0.78256194  0.71345092  0.11008120  1
  H  H106  1  0.71743806  0.21345092  0.38991880  1
  H  H107  1  0.21743806  0.28654908  0.11008120  1
  H  H108  1  0.78654908  0.71743806  0.61008120  1
  H  H109  1  0.71345092  0.21743806  0.88991880  1
  H  H110  1  0.21345092  0.28256194  0.61008120  1
  H  H111  1  0.28654908  0.78256194  0.88991880  1
  Au  Au112  1  0.35805390  0.46568815  0.37882156  1
  Au  Au113  1  0.85805390  0.03431185  0.12117844  1
  Au  Au114  1  0.64194610  0.53431185  0.37882156  1
  Au  Au115  1  0.14194610  0.96568815  0.12117844  1
  Au  Au116  1  0.46568815  0.64194610  0.62117844  1
  Au  Au117  1  0.03431185  0.14194610  0.87882156  1
  Au  Au118  1  0.53431185  0.35805390  0.62117844  1
  Au  Au119  1  0.96568815  0.85805390  0.87882156  1
  C  C120  1  0.27117832  0.19744109  0.44171876  1
  C  C121  1  0.77117832  0.30255891  0.05828124  1
  C  C122  1  0.72882168  0.80255891  0.44171876  1
  C  C123  1  0.22882168  0.69744109  0.05828124  1
  C  C124  1  0.19744109  0.72882168  0.55828124  1
  C  C125  1  0.30255891  0.22882168  0.94171876  1
  C  C126  1  0.80255891  0.27117832  0.55828124  1
  C  C127  1  0.69744109  0.77117832  0.94171876  1
  C  C128  1  0.19085426  0.57512680  0.24785304  1
  C  C129  1  0.69085426  0.92487320  0.25214696  1
  C  C130  1  0.80914574  0.42487320  0.24785304  1
  C  C131  1  0.30914574  0.07512680  0.25214696  1
  C  C132  1  0.57512680  0.80914574  0.75214696  1
  C  C133  1  0.92487320  0.30914574  0.74785304  1
  C  C134  1  0.42487320  0.19085426  0.75214696  1
  C  C135  1  0.07512680  0.69085426  0.74785304  1
  C  C136  1  0.41516418  0.69608511  0.26447300  1
  C  C137  1  0.91516418  0.80391489  0.23552700  1
  C  C138  1  0.58483582  0.30391489  0.26447300  1
  C  C139  1  0.08483582  0.19608511  0.23552700  1
  C  C140  1  0.69608511  0.58483582  0.73552700  1
  C  C141  1  0.80391489  0.08483582  0.76447300  1
  C  C142  1  0.30391489  0.41516418  0.73552700  1
  C  C143  1  0.19608511  0.91516418  0.76447300  1
  C  C144  1  0.22019097  0.73967647  0.35644261  1
  C  C145  1  0.72019097  0.76032353  0.14355739  1
  C  C146  1  0.77980903  0.26032353  0.35644261  1
  C  C147  1  0.27980903  0.23967647  0.14355739  1
  C  C148  1  0.73967647  0.77980903  0.64355739  1
  C  C149  1  0.76032353  0.27980903  0.85644261  1
  C  C150  1  0.26032353  0.22019097  0.64355739  1
  C  C151  1  0.23967647  0.72019097  0.85644261  1
  Se  Se152  1  0.41314976  0.29219852  0.44846099  1
  Se  Se153  1  0.91314976  0.20780148  0.05153901  1
  Se  Se154  1  0.58685024  0.70780148  0.44846099  1
  Se  Se155  1  0.08685024  0.79219852  0.05153901  1
  Se  Se156  1  0.29219852  0.58685024  0.55153901  1
  Se  Se157  1  0.20780148  0.08685024  0.94846099  1
  Se  Se158  1  0.70780148  0.41314976  0.55153901  1
  Se  Se159  1  0.79219852  0.91314976  0.94846099  1
  N  N160  1  0.28272485  0.08202355  0.45863780  1
  N  N161  1  0.78272485  0.41797645  0.04136220  1
  N  N162  1  0.71727515  0.91797645  0.45863780  1
  N  N163  1  0.21727515  0.58202355  0.04136220  1
  N  N164  1  0.08202355  0.71727515  0.54136220  1
  N  N165  1  0.41797645  0.21727515  0.95863780  1
  N  N166  1  0.91797645  0.28272485  0.54136220  1
  N  N167  1  0.58202355  0.78272485  0.95863780  1
  N  N168  1  0.16515985  0.23799779  0.42138989  1
  N  N169  1  0.66515985  0.26200221  0.07861011  1
  N  N170  1  0.83484015  0.76200221  0.42138989  1
  N  N171  1  0.33484015  0.73799779  0.07861011  1
  N  N172  1  0.23799779  0.83484015  0.57861011  1
  N  N173  1  0.26200221  0.33484015  0.92138989  1
  N  N174  1  0.76200221  0.16515985  0.57861011  1
  N  N175  1  0.73799779  0.66515985  0.92138989  1
  Cl  Cl176  1  0.50000000  -0.00000000  0.56765956  1
  Cl  Cl177  1  -0.00000000  0.50000000  0.93234044  1
  Cl  Cl178  1  -0.00000000  0.50000000  0.43234044  1
  Cl  Cl179  1  0.50000000  -0.00000000  0.06765956  1
  Cl  Cl180  1  -0.00000000  -0.00000000  0.40090455  1
  Cl  Cl181  1  0.50000000  0.50000000  0.09909545  1
  Cl  Cl182  1  -0.00000000  -0.00000000  0.59909545  1
  Cl  Cl183  1  0.50000000  0.50000000  0.90090455  1
