# generated using pymatgen
data_P3CN2Cl13
_symmetry_space_group_name_H-M   'P 1'
_cell_length_a   10.88622574
_cell_length_b   12.57807008
_cell_length_c   17.45580525
_cell_angle_alpha   90.00000000
_cell_angle_beta   97.50963817
_cell_angle_gamma   90.00000000
_symmetry_Int_Tables_number   1
_chemical_formula_structural   P3CN2Cl13
_chemical_formula_sum   'P12 C4 N8 Cl52'
_cell_volume   2369.68257736
_cell_formula_units_Z   4
loop_
 _symmetry_equiv_pos_site_id
 _symmetry_equiv_pos_as_xyz
  1  'x, y, z'
loop_
 _atom_site_type_symbol
 _atom_site_label
 _atom_site_symmetry_multiplicity
 _atom_site_fract_x
 _atom_site_fract_y
 _atom_site_fract_z
 _atom_site_occupancy
  P  P0  1  0.27856752  0.54030957  0.66015041  1
  P  P1  1  0.72143248  0.04030957  0.33984959  1
  P  P2  1  0.64620676  0.43961810  0.80546330  1
  P  P3  1  0.35379324  0.93961810  0.19453670  1
  P  P4  1  0.85755192  0.91620060  0.70655078  1
  P  P5  1  0.14244808  0.41620060  0.29344922  1
  P  P6  1  0.21234628  0.07316836  0.85052254  1
  P  P7  1  0.78765372  0.57316836  0.14947746  1
  P  P8  1  0.80346668  0.00430249  0.99987584  1
  P  P9  1  0.19653332  0.50430249  0.00012416  1
  P  P10  1  0.73369116  0.49985372  0.48609176  1
  P  P11  1  0.26630884  0.99985372  0.51390824  1
  C  C12  1  0.49134007  0.58717771  0.74682433  1
  C  C13  1  0.50865993  0.08717771  0.25317567  1
  C  C14  1  0.00865065  0.08162826  0.74759900  1
  C  C15  1  0.99134935  0.58162826  0.25240100  1
  N  N16  1  0.40359600  0.52212716  0.71591798  1
  N  N17  1  0.59640400  0.02212716  0.28408202  1
  N  N18  1  0.59762674  0.55669034  0.78596742  1
  N  N19  1  0.40237326  0.05669034  0.21403258  1
  N  N20  1  0.96787727  0.98350928  0.74920661  1
  N  N21  1  0.03212273  0.48350928  0.25079339  1
  N  N22  1  0.11382662  0.11683050  0.78383487  1
  N  N23  1  0.88617338  0.61683050  0.21616513  1
  Cl  Cl24  1  0.47379986  0.72399065  0.73806573  1
  Cl  Cl25  1  0.52620014  0.22399065  0.26193427  1
  Cl  Cl26  1  0.29888550  0.61268413  0.56172594  1
  Cl  Cl27  1  0.70111450  0.11268413  0.43827406  1
  Cl  Cl28  1  0.14867247  0.61951618  0.70642517  1
  Cl  Cl29  1  0.85132753  0.11951618  0.29357483  1
  Cl  Cl30  1  0.21067046  0.39727017  0.63382243  1
  Cl  Cl31  1  0.78932954  0.89727017  0.36617757  1
  Cl  Cl32  1  0.61603229  0.33264659  0.72083808  1
  Cl  Cl33  1  0.38396771  0.83264659  0.27916192  1
  Cl  Cl34  1  0.57853249  0.37753451  0.89572190  1
  Cl  Cl35  1  0.42146751  0.87753451  0.10427810  1
  Cl  Cl36  1  0.82739413  0.44915472  0.83335396  1
  Cl  Cl37  1  0.17260587  0.94915472  0.16664604  1
  Cl  Cl38  1  0.92256414  0.17978606  0.69435704  1
  Cl  Cl39  1  0.07743586  0.67978606  0.30564296  1
  Cl  Cl40  1  0.89110611  0.86722602  0.60347835  1
  Cl  Cl41  1  0.10889389  0.36722602  0.39652165  1
  Cl  Cl42  1  0.68949677  0.98172912  0.69097371  1
  Cl  Cl43  1  0.31050323  0.48172912  0.30902629  1
  Cl  Cl44  1  0.84201490  0.78729582  0.76917062  1
  Cl  Cl45  1  0.15798510  0.28729582  0.23082938  1
  Cl  Cl46  1  0.37707105  0.12523645  0.83195970  1
  Cl  Cl47  1  0.62292895  0.62523645  0.16804030  1
  Cl  Cl48  1  0.17503717  0.13307620  0.94994072  1
  Cl  Cl49  1  0.82496283  0.63307620  0.05005928  1
  Cl  Cl50  1  0.23217461  0.91686843  0.86717879  1
  Cl  Cl51  1  0.76782539  0.41686843  0.13282121  1
  Cl  Cl52  1  0.64992495  0.91357651  0.94487283  1
  Cl  Cl53  1  0.35007505  0.41357651  0.05512717  1
  Cl  Cl54  1  0.91025281  0.14736654  0.07668832  1
  Cl  Cl55  1  0.08974719  0.64736654  0.92331168  1
  Cl  Cl56  1  0.79208815  0.11558417  0.89730248  1
  Cl  Cl57  1  0.20791185  0.61558417  0.10269752  1
  Cl  Cl58  1  0.79823871  0.91823042  0.11244216  1
  Cl  Cl59  1  0.20176129  0.41823042  0.88755784  1
  Cl  Cl60  1  0.64900074  0.16684726  0.06716362  1
  Cl  Cl61  1  0.35099926  0.66684726  0.93283638  1
  Cl  Cl62  1  0.95078173  0.91744904  0.97000068  1
  Cl  Cl63  1  0.04921827  0.41744904  0.02999932  1
  Cl  Cl64  1  0.70152918  0.58719936  0.59356433  1
  Cl  Cl65  1  0.29847082  0.08719936  0.40643567  1
  Cl  Cl66  1  0.73605478  0.44241003  0.36276356  1
  Cl  Cl67  1  0.26394522  0.94241003  0.63723644  1
  Cl  Cl68  1  0.85271342  0.38508434  0.53884618  1
  Cl  Cl69  1  0.14728658  0.88508434  0.46115382  1
  Cl  Cl70  1  0.53961688  0.65906003  0.96120498  1
  Cl  Cl71  1  0.46038312  0.15906003  0.03879502  1
  Cl  Cl72  1  0.55805140  0.40881954  0.49031170  1
  Cl  Cl73  1  0.44194860  0.90881954  0.50968830  1
  Cl  Cl74  1  0.88189198  0.62068161  0.46753020  1
  Cl  Cl75  1  0.11810802  0.12068161  0.53246980  1
