# generated using pymatgen
data_Mg5(SiO3)6
_symmetry_space_group_name_H-M   'P 1'
_cell_length_a   5.37259367
_cell_length_b   9.46325547
_cell_length_c   27.62127229
_cell_angle_alpha   90.00000000
_cell_angle_beta   89.99995945
_cell_angle_gamma   90.00000000
_symmetry_Int_Tables_number   1
_chemical_formula_structural   Mg5(SiO3)6
_chemical_formula_sum   'Mg20 Si24 O72'
_cell_volume   1404.32698021
_cell_formula_units_Z   4
loop_
 _symmetry_equiv_pos_site_id
 _symmetry_equiv_pos_as_xyz
  1  'x, y, z'
loop_
 _atom_site_type_symbol
 _atom_site_label
 _atom_site_symmetry_multiplicity
 _atom_site_fract_x
 _atom_site_fract_y
 _atom_site_fract_z
 _atom_site_occupancy
  Mg  Mg0  1  0.74998958  0.50000591  0.52552155  1
  Mg  Mg1  1  0.25001042  0.00000591  0.97447845  1
  Mg  Mg2  1  0.25001042  0.49999409  0.47447845  1
  Mg  Mg3  1  0.74998958  -0.00000591  0.02552155  1
  Mg  Mg4  1  0.74997151  0.00000443  0.91436488  1
  Mg  Mg5  1  0.25002849  0.50000443  0.58563512  1
  Mg  Mg6  1  0.25002849  -0.00000443  0.08563512  1
  Mg  Mg7  1  0.74997151  0.49999557  0.41436488  1
  Mg  Mg8  1  0.74998977  0.50000438  0.64660054  1
  Mg  Mg9  1  0.25001023  0.00000438  0.85339946  1
  Mg  Mg10  1  0.25001023  0.49999562  0.35339946  1
  Mg  Mg11  1  0.74998977  -0.00000438  0.14660054  1
  Mg  Mg12  1  0.74999899  -0.00000069  0.79717191  1
  Mg  Mg13  1  0.25000101  0.49999931  0.70282809  1
  Mg  Mg14  1  0.25000101  0.00000069  0.20282809  1
  Mg  Mg15  1  0.74999899  0.50000069  0.29717191  1
  Mg  Mg16  1  0.74999992  0.50000004  0.75557523  1
  Mg  Mg17  1  0.25000008  0.00000004  0.74442477  1
  Mg  Mg18  1  0.25000008  0.49999996  0.24442477  1
  Mg  Mg19  1  0.74999992  -0.00000004  0.25557523  1
  Si  Si20  1  0.91257063  0.29024045  0.97211825  1
  Si  Si21  1  0.41256833  0.20976189  0.52788146  1
  Si  Si22  1  0.08742937  0.79024045  0.52788175  1
  Si  Si23  1  0.58743167  0.70976189  0.97211854  1
  Si  Si24  1  0.08742937  0.70975955  0.02788175  1
  Si  Si25  1  0.58743167  0.79023811  0.47211854  1
  Si  Si26  1  0.91257063  0.20975955  0.47211825  1
  Si  Si27  1  0.41256833  0.29023811  0.02788146  1
  Si  Si28  1  0.92348126  0.28721398  0.86034365  1
  Si  Si29  1  0.42347842  0.21279048  0.63965681  1
  Si  Si30  1  0.07651874  0.78721398  0.63965635  1
  Si  Si31  1  0.57652158  0.71279048  0.86034319  1
  Si  Si32  1  0.07651874  0.71278602  0.13965635  1
  Si  Si33  1  0.57652158  0.78720952  0.36034319  1
  Si  Si34  1  0.92348126  0.21278602  0.36034365  1
  Si  Si35  1  0.42347842  0.28720952  0.13965681  1
  Si  Si36  1  0.92070389  0.20439667  0.69718477  1
  Si  Si37  1  0.42070256  0.29560314  0.80281523  1
  Si  Si38  1  0.07929611  0.70439667  0.80281523  1
  Si  Si39  1  0.57929744  0.79560314  0.69718477  1
  Si  Si40  1  0.07929611  0.79560333  0.30281523  1
  Si  Si41  1  0.57929744  0.70439686  0.19718477  1
  Si  Si42  1  0.92070389  0.29560333  0.19718477  1
  Si  Si43  1  0.42070256  0.20439686  0.30281523  1
  O  O44  1  0.89824732  0.41061057  0.58582942  1
  O  O45  1  0.39825390  0.08938781  0.91417134  1
  O  O46  1  0.10175268  0.91061057  0.91417058  1
  O  O47  1  0.60174610  0.58938781  0.58582866  1
  O  O48  1  0.10175268  0.58938943  0.41417058  1
  O  O49  1  0.60174610  0.91061219  0.08582866  1
  O  O50  1  0.89824732  0.08938943  0.08582942  1
  O  O51  1  0.39825390  0.41061219  0.41417134  1
  O  O52  1  0.66302625  0.34702666  0.00018712  1
  O  O53  1  0.16302524  0.15297326  0.49981282  1
  O  O54  1  0.33697375  0.84702666  0.49981288  1
  O  O55  1  0.83697476  0.65297326  0.00018718  1
  O  O56  1  0.33697375  0.65297334  0.99981288  1
  O  O57  1  0.83697476  0.84702674  0.50018718  1
  O  O58  1  0.66302625  0.15297334  0.50018712  1
  O  O59  1  0.16302524  0.34702674  0.99981282  1
  O  O60  1  0.91207282  0.11699254  0.97189104  1
  O  O61  1  0.41207291  0.38300390  0.52810867  1
  O  O62  1  0.08792718  0.61699254  0.52810896  1
  O  O63  1  0.58792709  0.88300390  0.97189133  1
  O  O64  1  0.08792718  0.88300746  0.02810896  1
  O  O65  1  0.58792709  0.61699610  0.47189133  1
  O  O66  1  0.91207282  0.38300746  0.47189104  1
  O  O67  1  0.41207291  0.11699610  0.02810867  1
  O  O68  1  0.90882863  0.34644397  0.91592322  1
  O  O69  1  0.40882833  0.15355572  0.58407682  1
  O  O70  1  0.09117137  0.84644397  0.58407678  1
  O  O71  1  0.59117167  0.65355572  0.91592318  1
  O  O72  1  0.09117137  0.65355603  0.08407678  1
  O  O73  1  0.59117167  0.84644428  0.41592318  1
  O  O74  1  0.90882863  0.15355603  0.41592322  1
  O  O75  1  0.40882833  0.34644428  0.08407682  1
  O  O76  1  0.91247137  0.11471836  0.85780193  1
  O  O77  1  0.41247163  0.38527513  0.64219838  1
  O  O78  1  0.08752863  0.61471836  0.64219807  1
  O  O79  1  0.58752837  0.88527513  0.85780162  1
  O  O80  1  0.08752863  0.88528164  0.14219807  1
  O  O81  1  0.58752837  0.61472487  0.35780162  1
  O  O82  1  0.91247137  0.38528164  0.35780193  1
  O  O83  1  0.41247163  0.11472487  0.14219838  1
  O  O84  1  0.67953019  0.15479465  0.66457977  1
  O  O85  1  0.17953023  0.34520527  0.83542016  1
  O  O86  1  0.32046981  0.65479465  0.83542023  1
  O  O87  1  0.82046977  0.84520527  0.66457984  1
  O  O88  1  0.32046981  0.84520535  0.33542023  1
  O  O89  1  0.82046977  0.65479473  0.16457984  1
  O  O90  1  0.67953019  0.34520535  0.16457977  1
  O  O91  1  0.17953023  0.15479473  0.33542016  1
  O  O92  1  0.68670644  0.35033529  0.82884873  1
  O  O93  1  0.18670557  0.14966417  0.67115133  1
  O  O94  1  0.31329356  0.85033529  0.67115127  1
  O  O95  1  0.81329443  0.64966417  0.82884867  1
  O  O96  1  0.31329356  0.64966471  0.17115127  1
  O  O97  1  0.81329443  0.85033583  0.32884867  1
  O  O98  1  0.68670644  0.14966471  0.32884873  1
  O  O99  1  0.18670557  0.35033583  0.17115133  1
  O  O100  1  0.92000158  0.37817067  0.70093837  1
  O  O101  1  0.42000139  0.12182909  0.79906165  1
  O  O102  1  0.07999842  0.87817067  0.79906163  1
  O  O103  1  0.57999861  0.62182909  0.70093835  1
  O  O104  1  0.07999842  0.62182933  0.29906163  1
  O  O105  1  0.57999861  0.87817091  0.20093835  1
  O  O106  1  0.92000158  0.12182933  0.20093837  1
  O  O107  1  0.42000139  0.37817091  0.29906165  1
  O  O108  1  0.93589650  0.11876038  0.74749985  1
  O  O109  1  0.43589673  0.38123956  0.75250017  1
  O  O110  1  0.06410350  0.61876038  0.75250015  1
  O  O111  1  0.56410327  0.88123956  0.74749983  1
  O  O112  1  0.06410350  0.88123962  0.25250015  1
  O  O113  1  0.56410327  0.61876044  0.24749983  1
  O  O114  1  0.93589650  0.38123962  0.24749985  1
  O  O115  1  0.43589673  0.11876044  0.25250017  1
