# generated using pymatgen
data_H4S4N
_symmetry_space_group_name_H-M   'P 1'
_cell_length_a   12.62267645
_cell_length_b   12.19821716
_cell_length_c   12.43762355
_cell_angle_alpha   97.56063607
_cell_angle_beta   59.50659128
_cell_angle_gamma   58.84209646
_symmetry_Int_Tables_number   1
_chemical_formula_structural   H4S4N
_chemical_formula_sum   'H16 S16 N4'
_cell_volume   1193.51038913
_cell_formula_units_Z   4
loop_
 _symmetry_equiv_pos_site_id
 _symmetry_equiv_pos_as_xyz
  1  'x, y, z'
loop_
 _atom_site_type_symbol
 _atom_site_label
 _atom_site_symmetry_multiplicity
 _atom_site_fract_x
 _atom_site_fract_y
 _atom_site_fract_z
 _atom_site_occupancy
  H  H0  1  0.11348145  0.80960162  0.55726940  1
  H  H1  1  0.51964753  0.80960162  0.55726940  1
  H  H2  1  0.88651855  0.19039838  0.44273060  1
  H  H3  1  0.48035247  0.19039838  0.44273060  1
  H  H4  1  0.06621401  0.79428650  0.45619089  1
  H  H5  1  0.68330861  0.79428650  0.45619089  1
  H  H6  1  0.93378599  0.20571350  0.54380911  1
  H  H7  1  0.31669139  0.20571350  0.54380911  1
  H  H8  1  0.26681463  0.64294798  0.39002990  1
  H  H9  1  0.70020749  0.64294798  0.39002990  1
  H  H10  1  0.73318537  0.35705202  0.60997010  1
  H  H11  1  0.29979251  0.35705202  0.60997010  1
  H  H12  1  0.08671621  0.68989406  0.53495825  1
  H  H13  1  0.68843148  0.68989406  0.53495825  1
  H  H14  1  -0.08671621  0.31010594  0.46504175  1
  H  H15  1  0.31156852  0.31010594  0.46504175  1
  S  S16  1  0.47165791  0.54042034  0.78025498  1
  S  S17  1  0.20766677  0.54042034  0.78025498  1
  S  S18  1  0.52834209  0.45957966  0.21974502  1
  S  S19  1  0.79233323  0.45957966  0.21974502  1
  S  S20  1  0.43864230  0.62969725  0.66734766  1
  S  S21  1  0.26431279  0.62969725  0.66734766  1
  S  S22  1  0.56135770  0.37030275  0.33265234  1
  S  S23  1  0.73568721  0.37030275  0.33265234  1
  S  S24  1  0.34144404  0.00614000  0.51381318  1
  S  S25  1  0.13860278  0.00614000  0.51381318  1
  S  S26  1  0.65855596  -0.00614000  0.48618682  1
  S  S27  1  0.86139722  -0.00614000  0.48618682  1
  S  S28  1  0.50284955  0.90716431  0.30037655  1
  S  S29  1  0.28960959  0.90716431  0.30037655  1
  S  S30  1  0.49715045  0.09283569  0.69962345  1
  S  S31  1  0.71039041  0.09283569  0.69962345  1
  N  N32  1  0.13309635  0.73322603  0.48439292  1
  N  N33  1  0.64928471  0.73322603  0.48439292  1
  N  N34  1  0.86690365  0.26677397  0.51560708  1
  N  N35  1  0.35071529  0.26677397  0.51560708  1
