# generated using pymatgen
data_Gd2Fe14C
_symmetry_space_group_name_H-M   'P 1'
_cell_length_a   8.63720881
_cell_length_b   8.63720881
_cell_length_c   11.60581244
_cell_angle_alpha   90.00000000
_cell_angle_beta   90.00000000
_cell_angle_gamma   90.00000000
_symmetry_Int_Tables_number   1
_chemical_formula_structural   Gd2Fe14C
_chemical_formula_sum   'Gd8 Fe56 C4'
_cell_volume   865.80957794
_cell_formula_units_Z   4
loop_
 _symmetry_equiv_pos_site_id
 _symmetry_equiv_pos_as_xyz
  1  'x, y, z'
loop_
 _atom_site_type_symbol
 _atom_site_label
 _atom_site_symmetry_multiplicity
 _atom_site_fract_x
 _atom_site_fract_y
 _atom_site_fract_z
 _atom_site_occupancy
  Gd  Gd0  1  0.23863707  0.76136293  0.50000000  1
  Gd  Gd1  1  0.76136293  0.23863707  0.50000000  1
  Gd  Gd2  1  0.26136293  0.26136293  0.00000000  1
  Gd  Gd3  1  0.73863707  0.73863707  0.00000000  1
  Gd  Gd4  1  0.64232303  0.64232303  0.50000000  1
  Gd  Gd5  1  0.35767697  0.35767697  0.50000000  1
  Gd  Gd6  1  0.85767697  0.14232303  0.00000000  1
  Gd  Gd7  1  0.14232303  0.85767697  0.00000000  1
  Fe  Fe8  1  0.00000000  0.50000000  0.50000000  1
  Fe  Fe9  1  0.50000000  0.00000000  0.00000000  1
  Fe  Fe10  1  0.50000000  0.00000000  0.50000000  1
  Fe  Fe11  1  0.00000000  0.50000000  0.00000000  1
  Fe  Fe12  1  0.50000000  0.50000000  0.10821258  1
  Fe  Fe13  1  0.00000000  0.00000000  0.60821258  1
  Fe  Fe14  1  0.50000000  0.50000000  0.89178742  1
  Fe  Fe15  1  0.00000000  0.00000000  0.39178742  1
  Fe  Fe16  1  0.18462799  0.81537201  0.25494356  1
  Fe  Fe17  1  0.81537201  0.18462799  0.25494356  1
  Fe  Fe18  1  0.31537201  0.31537201  0.75494356  1
  Fe  Fe19  1  0.68462799  0.68462799  0.75494356  1
  Fe  Fe20  1  0.81537201  0.18462799  0.74505644  1
  Fe  Fe21  1  0.18462799  0.81537201  0.74505644  1
  Fe  Fe22  1  0.68462799  0.68462799  0.24505644  1
  Fe  Fe23  1  0.31537201  0.31537201  0.24505644  1
  Fe  Fe24  1  0.40476894  0.59523106  0.29326105  1
  Fe  Fe25  1  0.59523106  0.40476894  0.29326105  1
  Fe  Fe26  1  0.09523106  0.09523106  0.79326105  1
  Fe  Fe27  1  0.90476894  0.90476894  0.79326105  1
  Fe  Fe28  1  0.59523106  0.40476894  0.70673895  1
  Fe  Fe29  1  0.40476894  0.59523106  0.70673895  1
  Fe  Fe30  1  0.90476894  0.90476894  0.20673895  1
  Fe  Fe31  1  0.09523106  0.09523106  0.20673895  1
  Fe  Fe32  1  0.14545132  0.53328066  0.31935996  1
  Fe  Fe33  1  0.85454868  0.46671934  0.31935996  1
  Fe  Fe34  1  0.35454868  0.03328066  0.81935996  1
  Fe  Fe35  1  0.64545132  0.96671934  0.81935996  1
  Fe  Fe36  1  0.85454868  0.46671934  0.68064004  1
  Fe  Fe37  1  0.14545132  0.53328066  0.68064004  1
  Fe  Fe38  1  0.64545132  0.96671934  0.18064004  1
  Fe  Fe39  1  0.35454868  0.03328066  0.18064004  1
  Fe  Fe40  1  0.53328066  0.14545132  0.31935996  1
  Fe  Fe41  1  0.46671934  0.85454868  0.31935996  1
  Fe  Fe42  1  0.03328066  0.35454868  0.81935996  1
  Fe  Fe43  1  0.96671934  0.64545132  0.81935996  1
  Fe  Fe44  1  0.46671934  0.85454868  0.68064004  1
  Fe  Fe45  1  0.53328066  0.14545132  0.68064004  1
  Fe  Fe46  1  0.96671934  0.64545132  0.18064004  1
  Fe  Fe47  1  0.03328066  0.35454868  0.18064004  1
  Fe  Fe48  1  0.93410341  0.72687047  0.37637169  1
  Fe  Fe49  1  0.06589659  0.27312953  0.37637169  1
  Fe  Fe50  1  0.56589659  0.22687047  0.87637169  1
  Fe  Fe51  1  0.43410341  0.77312953  0.87637169  1
  Fe  Fe52  1  0.06589659  0.27312953  0.62362831  1
  Fe  Fe53  1  0.93410341  0.72687047  0.62362831  1
  Fe  Fe54  1  0.43410341  0.77312953  0.12362831  1
  Fe  Fe55  1  0.56589659  0.22687047  0.12362831  1
  Fe  Fe56  1  0.72687047  0.93410341  0.37637169  1
  Fe  Fe57  1  0.27312953  0.06589659  0.37637169  1
  Fe  Fe58  1  0.22687047  0.56589659  0.87637169  1
  Fe  Fe59  1  0.77312953  0.43410341  0.87637169  1
  Fe  Fe60  1  0.27312953  0.06589659  0.62362831  1
  Fe  Fe61  1  0.72687047  0.93410341  0.62362831  1
  Fe  Fe62  1  0.77312953  0.43410341  0.12362831  1
  Fe  Fe63  1  0.22687047  0.56589659  0.12362831  1
  C  C64  1  0.87240605  0.87240605  0.50000000  1
  C  C65  1  0.12759395  0.12759395  0.50000000  1
  C  C66  1  0.62759395  0.37240605  0.00000000  1
  C  C67  1  0.37240605  0.62759395  0.00000000  1
