# generated using pymatgen
data_TlH12C4Br4N5
_symmetry_space_group_name_H-M   'P 1'
_cell_length_a   7.31215825
_cell_length_b   11.16378348
_cell_length_c   21.20894091
_cell_angle_alpha   88.74720324
_cell_angle_beta   90.00000000
_cell_angle_gamma   90.00000000
_symmetry_Int_Tables_number   1
_chemical_formula_structural   TlH12C4Br4N5
_chemical_formula_sum   'Tl4 H48 C16 Br16 N20'
_cell_volume   1730.90065793
_cell_formula_units_Z   4
loop_
 _symmetry_equiv_pos_site_id
 _symmetry_equiv_pos_as_xyz
  1  'x, y, z'
loop_
 _atom_site_type_symbol
 _atom_site_label
 _atom_site_symmetry_multiplicity
 _atom_site_fract_x
 _atom_site_fract_y
 _atom_site_fract_z
 _atom_site_occupancy
  Tl  Tl0  1  0.00430184  0.20558101  0.57234843  1
  Tl  Tl1  1  0.99569816  0.79441899  0.42765157  1
  Tl  Tl2  1  0.49569816  0.70558101  0.07234843  1
  Tl  Tl3  1  0.50430184  0.29441899  0.92765157  1
  H  H4  1  0.49569943  0.97819153  0.25201080  1
  H  H5  1  0.99818499  0.05151312  0.08921935  1
  H  H6  1  0.49818499  0.44848688  0.41078065  1
  H  H7  1  0.15772991  0.07136412  0.19258215  1
  H  H8  1  0.90238153  0.51487217  0.17304213  1
  H  H9  1  0.44466939  0.92549372  0.59547583  1
  H  H10  1  0.55533061  0.07450628  0.40452417  1
  H  H11  1  0.51397345  0.48002423  0.24410469  1
  H  H12  1  0.35983578  0.31789010  0.41216984  1
  H  H13  1  0.00008193  0.27025299  0.29774243  1
  H  H14  1  0.76690631  0.67333199  0.88978967  1
  H  H15  1  0.57892982  0.17692976  0.13085026  1
  H  H16  1  0.14016422  0.81789010  0.91216984  1
  H  H17  1  0.42107018  0.82307024  0.86914974  1
  H  H18  1  0.07892982  0.32307024  0.36914974  1
  H  H19  1  0.00181501  0.94848688  0.91078065  1
  H  H20  1  0.74291095  0.53563250  0.58887316  1
  H  H21  1  0.24291095  0.96436750  0.91112684  1
  H  H22  1  0.00430057  0.47819153  0.75201080  1
  H  H23  1  0.50430057  0.02180847  0.74798920  1
  H  H24  1  0.75708905  0.03563250  0.08887316  1
  H  H25  1  0.34227009  0.57136412  0.69258215  1
  H  H26  1  0.53795270  0.56727579  0.31342418  1
  H  H27  1  0.01397345  0.01997577  0.25589531  1
  H  H28  1  0.50181501  0.55151312  0.58921935  1
  H  H29  1  0.92107018  0.67692976  0.63085026  1
  H  H30  1  0.65772991  0.42863588  0.30741785  1
  H  H31  1  0.05533061  0.42549372  0.09547583  1
  H  H32  1  0.46204730  0.43272421  0.68657582  1
  H  H33  1  0.85983578  0.18210990  0.08783016  1
  H  H34  1  0.50008193  0.22974701  0.20225757  1
  H  H35  1  0.64016422  0.68210990  0.58783016  1
  H  H36  1  0.23309369  0.32666801  0.11021033  1
  H  H37  1  0.96204730  0.06727579  0.81342418  1
  H  H38  1  0.94466939  0.57450628  0.90452417  1
  H  H39  1  0.84227009  0.92863588  0.80741785  1
  H  H40  1  0.98602655  0.98002423  0.74410469  1
  H  H41  1  0.73309369  0.17333199  0.38978967  1
  H  H42  1  0.99991807  0.72974701  0.70225757  1
  H  H43  1  0.09761847  0.48512783  0.82695787  1
  H  H44  1  0.26690631  0.82666801  0.61021033  1
  H  H45  1  0.59761847  0.01487217  0.67304213  1
  H  H46  1  0.40238153  0.98512783  0.32695787  1
  H  H47  1  0.49991807  0.77025299  0.79774243  1
  H  H48  1  0.99569943  0.52180847  0.24798920  1
  H  H49  1  0.48602655  0.51997577  0.75589531  1
  H  H50  1  0.03795270  0.93272421  0.18657582  1
  H  H51  1  0.25708905  0.46436750  0.41112684  1
  C  C52  1  0.62923012  0.58989421  0.60663792  1
  C  C53  1  0.73877511  0.13253883  0.20925364  1
  C  C54  1  0.12923012  0.91010579  0.89336208  1
  C  C55  1  0.37531833  0.90524789  0.68868199  1
  C  C56  1  0.46983266  0.52399313  0.70470118  1
  C  C57  1  0.26122489  0.86746117  0.79074636  1
  C  C58  1  0.12468167  0.40524789  0.18868199  1
  C  C59  1  0.03016734  0.02399313  0.20470118  1
  C  C60  1  0.23877511  0.36746117  0.29074636  1
  C  C61  1  0.37076988  0.41010579  0.39336208  1
  C  C62  1  0.62468167  0.09475211  0.31131801  1
  C  C63  1  0.53016734  0.47600687  0.29529882  1
  C  C64  1  0.87076988  0.08989421  0.10663792  1
  C  C65  1  0.87531833  0.59475211  0.81131801  1
  C  C66  1  0.76122489  0.63253883  0.70925364  1
  C  C67  1  0.96983266  0.97600687  0.79529882  1
  Br  Br68  1  0.11117114  0.70580388  0.32066131  1
  Br  Br69  1  0.14377873  0.00948244  0.42173240  1
  Br  Br70  1  0.36680100  0.16652725  0.02283790  1
  Br  Br71  1  0.35799949  0.22174133  0.56619552  1
  Br  Br72  1  0.13319800  0.66652725  0.52283790  1
  Br  Br73  1  0.88882886  0.29419612  0.67933869  1
  Br  Br74  1  0.35622127  0.50948244  0.92173240  1
  Br  Br75  1  0.85622127  0.99051756  0.57826760  1
  Br  Br76  1  0.86680100  0.33347275  0.47716210  1
  Br  Br77  1  0.63319900  0.83347275  0.97716210  1
  Br  Br78  1  0.38882886  0.20580388  0.82066131  1
  Br  Br79  1  0.85799949  0.27825867  0.93380448  1
  Br  Br80  1  0.61117114  0.79419612  0.17933869  1
  Br  Br81  1  0.64200051  0.77825867  0.43380448  1
  Br  Br82  1  0.14200051  0.72174133  0.06619552  1
  Br  Br83  1  0.64377873  0.49051756  0.07826760  1
  N  N84  1  0.40745453  0.82028608  0.82148201  1
  N  N85  1  0.87207717  0.62432664  0.87271855  1
  N  N86  1  0.01352200  0.52170252  0.79342583  1
  N  N87  1  0.51352200  0.97829748  0.70657417  1
  N  N88  1  0.59254547  0.17971392  0.17851799  1
  N  N89  1  0.62409294  0.58694320  0.67550099  1
  N  N90  1  0.37207717  0.87567336  0.62728145  1
  N  N91  1  0.24659604  0.86174008  0.72703129  1
  N  N92  1  0.12792283  0.37567336  0.12728145  1
  N  N93  1  0.37590706  0.41305680  0.32449901  1
  N  N94  1  0.74659604  0.63825992  0.77296871  1
  N  N95  1  0.48647800  0.02170252  0.29342583  1
  N  N96  1  0.12409294  0.91305680  0.82449901  1
  N  N97  1  0.09254547  0.32028608  0.32148201  1
  N  N98  1  0.87590706  0.08694320  0.17550099  1
  N  N99  1  0.90745453  0.67971392  0.67851799  1
  N  N100  1  0.62792283  0.12432664  0.37271855  1
  N  N101  1  0.98647800  0.47829748  0.20657417  1
  N  N102  1  0.25340396  0.36174008  0.22703129  1
  N  N103  1  0.75340396  0.13825992  0.27296871  1
