# generated using pymatgen
data_K2CeS3O13
_symmetry_space_group_name_H-M   'P 1'
_cell_length_a   7.27278595
_cell_length_b   11.20608003
_cell_length_c   15.83560878
_cell_angle_alpha   83.35784374
_cell_angle_beta   76.72448138
_cell_angle_gamma   71.06460885
_symmetry_Int_Tables_number   1
_chemical_formula_structural   K2CeS3O13
_chemical_formula_sum   'K8 Ce4 S12 O52'
_cell_volume   1186.94296354
_cell_formula_units_Z   4
loop_
 _symmetry_equiv_pos_site_id
 _symmetry_equiv_pos_as_xyz
  1  'x, y, z'
loop_
 _atom_site_type_symbol
 _atom_site_label
 _atom_site_symmetry_multiplicity
 _atom_site_fract_x
 _atom_site_fract_y
 _atom_site_fract_z
 _atom_site_occupancy
  K  K0  1  0.43822622  0.01130445  0.70908935  1
  K  K1  1  0.15862003  0.98869555  0.29091065  1
  K  K2  1  0.59547227  0.59716934  0.83808441  1
  K  K3  1  0.03072602  0.40283066  0.16191559  1
  K  K4  1  0.99074458  1.00000000  1.00000000  1
  K  K5  1  0.37361057  0.50000000  0.50000000  1
  K  K6  1  0.05916698  0.72280694  0.72923430  1
  K  K7  1  0.51120822  0.27719306  0.27076570  1
  Ce  Ce8  1  0.43385394  0.24980642  0.91462314  1
  Ce  Ce9  1  0.59828350  0.75019358  0.08537686  1
  Ce  Ce10  1  0.91610543  0.17807501  0.57961455  1
  Ce  Ce11  1  0.67379499  0.82192499  0.42038545  1
  S  S12  1  0.44132281  0.36436333  0.72374156  1
  S  S13  1  0.52942771  0.63563667  0.27625844  1
  S  S14  1  0.91502980  0.08806159  0.77289371  1
  S  S15  1  0.77598509  0.91193841  0.22710629  1
  S  S16  1  0.57239720  0.89119845  0.90426312  1
  S  S17  1  0.36785878  0.10880155  0.09573688  1
  S  S18  1  0.05417451  0.57506169  0.94501309  1
  S  S19  1  0.57424930  0.42493831  0.05498691  1
  S  S20  1  0.64074074  0.70767005  0.61268810  1
  S  S21  1  0.96109889  0.29232995  0.38731190  1
  S  S22  1  0.48109426  0.14953190  0.50056525  1
  S  S23  1  0.13119141  0.85046810  0.49943475  1
  O  O24  1  0.39318408  0.24497134  0.76330712  1
  O  O25  1  0.40146255  0.75502866  0.23669288  1
  O  O26  1  0.28762531  0.44984976  0.68206855  1
  O  O27  1  0.41954362  0.55015024  0.31793145  1
  O  O28  1  0.46722049  0.41859435  0.80106035  1
  O  O29  1  0.68687519  0.58140565  0.19893965  1
  O  O30  1  0.63579792  0.32759774  0.66045546  1
  O  O31  1  0.62385112  0.67240226  0.33954454  1
  O  O32  1  0.80852478  0.05415203  0.71309003  1
  O  O33  1  0.57576685  0.94584797  0.28690997  1
  O  O34  1  0.05482359  0.97789083  0.80730515  1
  O  O35  1  0.84001956  0.02210917  0.19269485  1
  O  O36  1  0.02114011  0.17351497  0.71714382  1
  O  O37  1  0.91179891  0.82648503  0.28285618  1
  O  O38  1  0.76676306  0.15937140  0.84721812  1
  O  O39  1  0.77335259  0.84062860  0.15278188  1
  O  O40  1  0.45756412  0.02764181  0.89549182  1
  O  O41  1  0.38069774  0.97235819  0.10450818  1
  O  O42  1  0.72429577  0.87248365  0.95931752  1
  O  O43  1  0.55609694  0.12751635  0.04068248  1
  O  O44  1  0.43637429  0.81877930  0.95447179  1
  O  O45  1  0.20962537  0.18122070  0.04552821  1
  O  O46  1  0.66203950  0.84020334  0.81816075  1
  O  O47  1  0.32040360  0.15979666  0.18183925  1
  O  O48  1  0.20266758  0.64102561  0.92075881  1
  O  O49  1  0.76445200  0.35897439  0.07924119  1
  O  O50  1  0.92171510  0.61755704  0.03155323  1
  O  O51  1  0.57082537  0.38244296  0.96844677  1
  O  O52  1  0.15996322  0.43356819  0.96111745  1
  O  O53  1  0.55464886  0.56643181  0.03888255  1
  O  O54  1  0.93670022  0.58724174  0.87939238  1
  O  O55  1  0.40333434  0.41275826  0.12060762  1
  O  O56  1  0.66100424  0.83511732  0.57548359  1
  O  O57  1  0.07160515  0.16488268  0.42451641  1
  O  O58  1  0.64426875  0.64654074  0.52943768  1
  O  O59  1  0.82024718  0.35345926  0.47056232  1
  O  O60  1  0.44655736  0.72506149  0.67123673  1
  O  O61  1  0.84285558  0.27493851  0.32876327  1
  O  O62  1  0.80392328  0.63405176  0.65404463  1
  O  O63  1  0.09201967  0.36594824  0.34595537  1
  O  O64  1  0.56383717  0.03607768  0.44586982  1
  O  O65  1  0.04578467  0.96392232  0.55413018  1
  O  O66  1  0.29374723  0.14115446  0.56139240  1
  O  O67  1  0.99629410  0.85884554  0.43860760  1
  O  O68  1  0.62960973  0.14074797  0.55506083  1
  O  O69  1  0.32541853  0.85925203  0.44493917  1
  O  O70  1  0.44705398  0.26495756  0.44644614  1
  O  O71  1  0.15845767  0.73504244  0.55355386  1
  O  O72  1  0.02266402  0.35830575  0.56958334  1
  O  O73  1  0.95055311  0.64169425  0.43041666  1
  O  O74  1  0.11912498  0.26691638  0.89743524  1
  O  O75  1  0.28347660  0.73308362  0.10256476  1
