# generated using pymatgen
data_ZnH12C4N5Cl3
_symmetry_space_group_name_H-M   'P 1'
_cell_length_a   7.80986161
_cell_length_b   13.22764544
_cell_length_c   13.52742528
_cell_angle_alpha   113.93924663
_cell_angle_beta   90.00000000
_cell_angle_gamma   90.00000000
_symmetry_Int_Tables_number   1
_chemical_formula_structural   ZnH12C4N5Cl3
_chemical_formula_sum   'Zn4 H48 C16 N20 Cl12'
_cell_volume   1277.25004440
_cell_formula_units_Z   4
loop_
 _symmetry_equiv_pos_site_id
 _symmetry_equiv_pos_as_xyz
  1  'x, y, z'
loop_
 _atom_site_type_symbol
 _atom_site_label
 _atom_site_symmetry_multiplicity
 _atom_site_fract_x
 _atom_site_fract_y
 _atom_site_fract_z
 _atom_site_occupancy
  Zn  Zn0  1  0.64602058  0.72012479  0.20718113  1
  Zn  Zn1  1  0.14602058  0.27987521  0.29281887  1
  Zn  Zn2  1  0.35397942  0.27987521  0.79281887  1
  Zn  Zn3  1  0.85397942  0.72012479  0.70718113  1
  H  H4  1  0.05107632  0.59196055  0.88224612  1
  H  H5  1  0.55107632  0.40803945  0.61775388  1
  H  H6  1  0.94892368  0.40803945  0.11775388  1
  H  H7  1  0.44892368  0.59196055  0.38224612  1
  H  H8  1  0.15567168  0.66122166  0.00619631  1
  H  H9  1  0.65567168  0.33877834  0.49380369  1
  H  H10  1  0.84432832  0.33877834  0.99380369  1
  H  H11  1  0.34432832  0.66122166  0.50619631  1
  H  H12  1  0.94026227  0.86189828  0.04622167  1
  H  H13  1  0.44026227  0.13810172  0.45377833  1
  H  H14  1  0.05973773  0.13810172  0.95377833  1
  H  H15  1  0.55973773  0.86189828  0.54622167  1
  H  H16  1  0.09128571  0.93698644  0.14144534  1
  H  H17  1  0.59128571  0.06301356  0.35855466  1
  H  H18  1  0.90871429  0.06301356  0.85855466  1
  H  H19  1  0.40871429  0.93698644  0.64144534  1
  H  H20  1  0.63714727  0.62001000  0.98809856  1
  H  H21  1  0.13714727  0.37999000  0.51190144  1
  H  H22  1  0.36285273  0.37999000  0.01190144  1
  H  H23  1  0.86285273  0.62001000  0.48809856  1
  H  H24  1  0.76923967  0.54527281  0.87834574  1
  H  H25  1  0.26923967  0.45472719  0.62165426  1
  H  H26  1  0.23076033  0.45472719  0.12165426  1
  H  H27  1  0.73076033  0.54527281  0.37834574  1
  H  H28  1  0.06402009  0.00109992  0.31749126  1
  H  H29  1  0.56402009  0.99890008  0.18250874  1
  H  H30  1  0.93597991  0.99890008  0.68250874  1
  H  H31  1  0.43597991  0.00109992  0.81749126  1
  H  H32  1  0.14938899  0.94420628  0.40571403  1
  H  H33  1  0.64938899  0.05579372  0.09428597  1
  H  H34  1  0.85061101  0.05579372  0.59428597  1
  H  H35  1  0.35061101  0.94420628  0.90571403  1
  H  H36  1  0.26787947  0.93097655  0.28825628  1
  H  H37  1  0.76787947  0.06902345  0.21174372  1
  H  H38  1  0.73212053  0.06902345  0.71174372  1
  H  H39  1  0.23212053  0.93097655  0.78825628  1
  H  H40  1  0.00332102  0.66772823  0.25081069  1
  H  H41  1  0.50332102  0.33227177  0.24918931  1
  H  H42  1  0.99667898  0.33227177  0.74918931  1
  H  H43  1  0.49667898  0.66772823  0.75081069  1
  H  H44  1  0.20585831  0.72533565  0.30754098  1
  H  H45  1  0.70585831  0.27466435  0.19245902  1
  H  H46  1  0.79414169  0.27466435  0.69245902  1
  H  H47  1  0.29414169  0.72533565  0.80754098  1
  H  H48  1  0.01317050  0.77293139  0.38536946  1
  H  H49  1  0.51317050  0.22706861  0.11463054  1
  H  H50  1  0.98682950  0.22706861  0.61463054  1
  H  H51  1  0.48682950  0.77293139  0.88536946  1
  C  C52  1  0.89234474  0.64879261  0.01420373  1
  C  C53  1  0.39234474  0.35120739  0.48579627  1
  C  C54  1  0.10765526  0.35120739  0.98579627  1
  C  C55  1  0.60765526  0.64879261  0.51420373  1
  C  C56  1  0.98065867  0.80591525  0.16538945  1
  C  C57  1  0.48065867  0.19408475  0.33461055  1
  C  C58  1  0.01934133  0.19408475  0.83461055  1
  C  C59  1  0.51934133  0.80591525  0.66538945  1
  C  C60  1  0.13848772  0.93221317  0.32095015  1
  C  C61  1  0.63848772  0.06778683  0.17904985  1
  C  C62  1  0.86151228  0.06778683  0.67904985  1
  C  C63  1  0.36151228  0.93221317  0.82095015  1
  C  C64  1  0.06897169  0.74311394  0.30403225  1
  C  C65  1  0.56897169  0.25688606  0.19596775  1
  C  C66  1  0.93102831  0.25688606  0.69596775  1
  C  C67  1  0.43102831  0.74311394  0.80403225  1
  N  N68  1  0.04500544  0.63262340  0.96419902  1
  N  N69  1  0.54500544  0.36737660  0.53580098  1
  N  N70  1  0.95499456  0.36737660  0.03580098  1
  N  N71  1  0.45499456  0.63262340  0.46419902  1
  N  N72  1  0.87381415  0.71628368  0.12029063  1
  N  N73  1  0.37381415  0.28371632  0.37970937  1
  N  N74  1  0.12618585  0.28371632  0.87970937  1
  N  N75  1  0.62618585  0.71628368  0.62029063  1
  N  N76  1  0.05179906  0.82760198  0.26142034  1
  N  N77  1  0.55179906  0.17239802  0.23857966  1
  N  N78  1  0.94820094  0.17239802  0.73857966  1
  N  N79  1  0.44820094  0.82760198  0.76142034  1
  N  N80  1  0.00132194  0.87637789  0.11749622  1
  N  N81  1  0.50132194  0.12362211  0.38250378  1
  N  N82  1  0.99867806  0.12362211  0.88250378  1
  N  N83  1  0.49867806  0.87637789  0.61749622  1
  N  N84  1  0.75697957  0.59187142  0.95901482  1
  N  N85  1  0.25697957  0.40812858  0.54098518  1
  N  N86  1  0.24302043  0.40812858  0.04098518  1
  N  N87  1  0.74302043  0.59187142  0.45901482  1
  Cl  Cl88  1  0.65700592  0.86591289  0.37139903  1
  Cl  Cl89  1  0.15700592  0.13408711  0.12860097  1
  Cl  Cl90  1  0.34299408  0.13408711  0.62860097  1
  Cl  Cl91  1  0.84299408  0.86591289  0.87139903  1
  Cl  Cl92  1  0.61404072  0.55065174  0.21033982  1
  Cl  Cl93  1  0.11404072  0.44934826  0.28966018  1
  Cl  Cl94  1  0.38595928  0.44934826  0.78966018  1
  Cl  Cl95  1  0.88595928  0.55065174  0.71033982  1
  Cl  Cl96  1  0.44255763  0.74873624  0.09812906  1
  Cl  Cl97  1  0.94255763  0.25126376  0.40187094  1
  Cl  Cl98  1  0.55744237  0.25126376  0.90187094  1
  Cl  Cl99  1  0.05744237  0.74873624  0.59812906  1
