# generated using pymatgen
data_Mg2P2H28C(ClO10)2
_symmetry_space_group_name_H-M   'P 1'
_cell_length_a   7.87863672
_cell_length_b   12.79874345
_cell_length_c   20.71522539
_cell_angle_alpha   90.00000000
_cell_angle_beta   90.00000000
_cell_angle_gamma   97.55246601
_symmetry_Int_Tables_number   1
_chemical_formula_structural   Mg2P2H28C(ClO10)2
_chemical_formula_sum   'Mg8 P8 H112 C4 Cl8 O80'
_cell_volume   2070.73296398
_cell_formula_units_Z   4
loop_
 _symmetry_equiv_pos_site_id
 _symmetry_equiv_pos_as_xyz
  1  'x, y, z'
loop_
 _atom_site_type_symbol
 _atom_site_label
 _atom_site_symmetry_multiplicity
 _atom_site_fract_x
 _atom_site_fract_y
 _atom_site_fract_z
 _atom_site_occupancy
  Mg  Mg0  1  0.57404460  0.94531630  0.75000000  1
  Mg  Mg1  1  0.42595540  0.05468370  0.25000000  1
  Mg  Mg2  1  0.06689796  0.96115868  0.75000000  1
  Mg  Mg3  1  0.93310204  0.03884132  0.25000000  1
  Mg  Mg4  1  0.29993675  0.79043313  0.54547587  1
  Mg  Mg5  1  0.70006325  0.20956687  0.04547587  1
  Mg  Mg6  1  0.70006325  0.20956687  0.45452413  1
  Mg  Mg7  1  0.29993675  0.79043313  0.95452413  1
  P  P8  1  0.36634944  0.11091478  0.67363532  1
  P  P9  1  0.63365056  0.88908522  0.17363532  1
  P  P10  1  0.63365056  0.88908522  0.32636468  1
  P  P11  1  0.36634944  0.11091478  0.82636468  1
  P  P12  1  0.79721807  0.78279601  0.67368676  1
  P  P13  1  0.20278193  0.21720399  0.17368676  1
  P  P14  1  0.20278193  0.21720399  0.32631324  1
  P  P15  1  0.79721807  0.78279601  0.82631324  1
  H  H16  1  0.27351594  0.82338061  0.71144737  1
  H  H17  1  0.72648406  0.17661939  0.21144737  1
  H  H18  1  0.72648406  0.17661939  0.28855263  1
  H  H19  1  0.27351594  0.82338061  0.78855263  1
  H  H20  1  0.84256704  0.08974675  0.71155578  1
  H  H21  1  0.15743296  0.91025325  0.21155578  1
  H  H22  1  0.15743296  0.91025325  0.28844422  1
  H  H23  1  0.84256704  0.08974675  0.78844422  1
  H  H24  1  0.45209849  0.77608030  0.65743446  1
  H  H25  1  0.54790151  0.22391970  0.15743446  1
  H  H26  1  0.54790151  0.22391970  0.34256554  1
  H  H27  1  0.45209849  0.77608030  0.84256554  1
  H  H28  1  0.30279739  0.67580853  0.65393160  1
  H  H29  1  0.69720261  0.32419147  0.15393160  1
  H  H30  1  0.69720261  0.32419147  0.34606840  1
  H  H31  1  0.30279739  0.67580853  0.84606840  1
  H  H32  1  0.59540677  0.69435081  0.56162212  1
  H  H33  1  0.40459323  0.30564919  0.06162212  1
  H  H34  1  0.40459323  0.30564919  0.43837788  1
  H  H35  1  0.59540677  0.69435081  0.93837788  1
  H  H36  1  0.52042627  0.65644669  0.49351528  1
  H  H37  1  0.47957373  0.34355331  0.99351528  1
  H  H38  1  0.47957373  0.34355331  0.50648472  1
  H  H39  1  0.52042627  0.65644669  0.00648472  1
  H  H40  1  0.41675509  0.81357217  0.42262812  1
  H  H41  1  0.58324491  0.18642783  0.92262812  1
  H  H42  1  0.58324491  0.18642783  0.57737188  1
  H  H43  1  0.41675509  0.81357217  0.07737188  1
  H  H44  1  0.21560648  0.82021444  0.41832261  1
  H  H45  1  0.78439352  0.17978556  0.91832261  1
  H  H46  1  0.78439352  0.17978556  0.58167739  1
  H  H47  1  0.21560648  0.82021444  0.08167739  1
  H  H48  1  0.06061284  0.88961258  0.60454524  1
  H  H49  1  0.93938716  0.11038742  0.10454524  1
  H  H50  1  0.93938716  0.11038742  0.39545476  1
  H  H51  1  0.06061284  0.88961258  0.89545476  1
  H  H52  1  0.14971178  0.96326420  0.54723811  1
  H  H53  1  0.85028822  0.03673580  0.04723811  1
  H  H54  1  0.85028822  0.03673580  0.45276189  1
  H  H55  1  0.14971178  0.96326420  0.95276189  1
  H  H56  1  0.50639891  0.95572597  0.60212217  1
  H  H57  1  0.49360109  0.04427403  0.10212217  1
  H  H58  1  0.49360109  0.04427403  0.39787783  1
  H  H59  1  0.50639891  0.95572597  0.89787783  1
  H  H60  1  0.59968710  0.92279220  0.53778511  1
  H  H61  1  0.40031290  0.07720780  0.03778511  1
  H  H62  1  0.40031290  0.07720780  0.46221489  1
  H  H63  1  0.59968710  0.92279220  0.96221489  1
  H  H64  1  0.10930026  0.59654680  0.54926415  1
  H  H65  1  0.89069974  0.40345320  0.04926415  1
  H  H66  1  0.89069974  0.40345320  0.45073585  1
  H  H67  1  0.10930026  0.59654680  0.95073585  1
  H  H68  1  0.98973519  0.68416941  0.57025985  1
  H  H69  1  0.01026481  0.31583059  0.07025985  1
  H  H70  1  0.01026481  0.31583059  0.42974015  1
  H  H71  1  0.98973519  0.68416941  0.92974015  1
  H  H72  1  0.40817086  0.32395302  0.61111046  1
  H  H73  1  0.59182914  0.67604698  0.11111046  1
  H  H74  1  0.59182914  0.67604698  0.38888954  1
  H  H75  1  0.40817086  0.32395302  0.88888954  1
  H  H76  1  0.54033551  0.43342576  0.60112083  1
  H  H77  1  0.45966449  0.56657424  0.10112083  1
  H  H78  1  0.45966449  0.56657424  0.39887917  1
  H  H79  1  0.54033551  0.43342576  0.89887917  1
  H  H80  1  0.02863014  0.13735995  0.64910825  1
  H  H81  1  0.97136986  0.86264005  0.14910825  1
  H  H82  1  0.97136986  0.86264005  0.35089175  1
  H  H83  1  0.02863014  0.13735995  0.85089175  1
  H  H84  1  0.94512220  0.24421941  0.65843130  1
  H  H85  1  0.05487780  0.75578059  0.15843130  1
  H  H86  1  0.05487780  0.75578059  0.34156870  1
  H  H87  1  0.94512220  0.24421941  0.84156870  1
  H  H88  1  0.11874401  0.11309108  0.49373712  1
  H  H89  1  0.88125599  0.88690892  0.99373712  1
  H  H90  1  0.88125599  0.88690892  0.50626288  1
  H  H91  1  0.11874401  0.11309108  0.00626288  1
  H  H92  1  0.26346557  0.12979236  0.54965837  1
  H  H93  1  0.73653443  0.87020764  0.04965837  1
  H  H94  1  0.73653443  0.87020764  0.45034163  1
  H  H95  1  0.26346557  0.12979236  0.95034163  1
  H  H96  1  0.26135476  0.44392335  0.55176702  1
  H  H97  1  0.73864524  0.55607665  0.05176702  1
  H  H98  1  0.73864524  0.55607665  0.44823298  1
  H  H99  1  0.26135476  0.44392335  0.94823298  1
  H  H100  1  0.06835735  0.41194890  0.53204937  1
  H  H101  1  0.93164265  0.58805110  0.03204937  1
  H  H102  1  0.93164265  0.58805110  0.46795063  1
  H  H103  1  0.06835735  0.41194890  0.96795063  1
  H  H104  1  0.36225297  0.54426728  0.70360957  1
  H  H105  1  0.63774703  0.45573272  0.20360957  1
  H  H106  1  0.63774703  0.45573272  0.29639043  1
  H  H107  1  0.36225297  0.54426728  0.79639043  1
  H  H108  1  0.30619986  0.48653393  0.64151317  1
  H  H109  1  0.69380014  0.51346607  0.14151317  1
  H  H110  1  0.69380014  0.51346607  0.35848683  1
  H  H111  1  0.30619986  0.48653393  0.85848683  1
  H  H112  1  0.77551924  0.50220439  0.55560244  1
  H  H113  1  0.22448076  0.49779561  0.05560244  1
  H  H114  1  0.22448076  0.49779561  0.44439756  1
  H  H115  1  0.77551924  0.50220439  0.94439756  1
  H  H116  1  0.75105096  0.57398854  0.61482925  1
  H  H117  1  0.24894904  0.42601146  0.11482925  1
  H  H118  1  0.24894904  0.42601146  0.38517075  1
  H  H119  1  0.75105096  0.57398854  0.88517075  1
  H  H120  1  0.87110815  0.42042027  0.65077761  1
  H  H121  1  0.12889185  0.57957973  0.15077761  1
  H  H122  1  0.12889185  0.57957973  0.34922239  1
  H  H123  1  0.87110815  0.42042027  0.84922239  1
  H  H124  1  0.05032893  0.43114638  0.68450866  1
  H  H125  1  0.94967107  0.56885362  0.18450866  1
  H  H126  1  0.94967107  0.56885362  0.31549134  1
  H  H127  1  0.05032893  0.43114638  0.81549134  1
  C  C128  1  0.40484640  0.19018826  0.75000000  1
  C  C129  1  0.59515360  0.80981174  0.25000000  1
  C  C130  1  0.80813365  0.70370500  0.75000000  1
  C  C131  1  0.19186635  0.29629500  0.25000000  1
  Cl  Cl132  1  0.61583654  0.26068901  0.75000000  1
  Cl  Cl133  1  0.38416346  0.73931099  0.25000000  1
  Cl  Cl134  1  0.25326420  0.28365378  0.75000000  1
  Cl  Cl135  1  0.74673580  0.71634622  0.25000000  1
  Cl  Cl136  1  0.62695486  0.59795378  0.75000000  1
  Cl  Cl137  1  0.37304514  0.40204622  0.25000000  1
  Cl  Cl138  1  0.99422252  0.63998080  0.75000000  1
  Cl  Cl139  1  0.00577748  0.36001920  0.25000000  1
  O  O140  1  0.28534960  0.87106053  0.75000000  1
  O  O141  1  0.71465040  0.12893947  0.25000000  1
  O  O142  1  0.83032457  0.04061372  0.75000000  1
  O  O143  1  0.16967543  0.95938628  0.25000000  1
  O  O144  1  0.32734822  0.75295024  0.64576172  1
  O  O145  1  0.67265178  0.24704976  0.14576172  1
  O  O146  1  0.67265178  0.24704976  0.35423828  1
  O  O147  1  0.32734822  0.75295024  0.85423828  1
  O  O148  1  0.48764015  0.67892330  0.53660475  1
  O  O149  1  0.51235985  0.32107670  0.03660475  1
  O  O150  1  0.51235985  0.32107670  0.46339525  1
  O  O151  1  0.48764015  0.67892330  0.96339525  1
  O  O152  1  0.30774941  0.80348815  0.44791199  1
  O  O153  1  0.69225059  0.19651185  0.94791199  1
  O  O154  1  0.69225059  0.19651185  0.55208801  1
  O  O155  1  0.30774941  0.80348815  0.05208801  1
  O  O156  1  0.10622716  0.88893276  0.55938911  1
  O  O157  1  0.89377284  0.11106724  0.05938911  1
  O  O158  1  0.89377284  0.11106724  0.44061089  1
  O  O159  1  0.10622716  0.88893276  0.94061089  1
  O  O160  1  0.48831016  0.91699984  0.56080238  1
  O  O161  1  0.51168984  0.08300016  0.06080238  1
  O  O162  1  0.51168984  0.08300016  0.43919762  1
  O  O163  1  0.48831016  0.91699984  0.93919762  1
  O  O164  1  0.08699224  0.67040001  0.54243268  1
  O  O165  1  0.91300776  0.32959999  0.04243268  1
  O  O166  1  0.91300776  0.32959999  0.45756732  1
  O  O167  1  0.08699224  0.67040001  0.95756732  1
  O  O168  1  0.49726523  0.03186365  0.67487996  1
  O  O169  1  0.50273477  0.96813635  0.17487996  1
  O  O170  1  0.50273477  0.96813635  0.32512004  1
  O  O171  1  0.49726523  0.03186365  0.82512004  1
  O  O172  1  0.17940986  0.05905256  0.67801348  1
  O  O173  1  0.82059014  0.94094744  0.17801348  1
  O  O174  1  0.82059014  0.94094744  0.32198652  1
  O  O175  1  0.17940986  0.05905256  0.82198652  1
  O  O176  1  0.39215292  0.18699646  0.61597451  1
  O  O177  1  0.60784708  0.81300354  0.11597451  1
  O  O178  1  0.60784708  0.81300354  0.38402549  1
  O  O179  1  0.39215292  0.18699646  0.88402549  1
  O  O180  1  0.63178014  0.83340468  0.68184074  1
  O  O181  1  0.36821986  0.16659532  0.18184074  1
  O  O182  1  0.36821986  0.16659532  0.31815926  1
  O  O183  1  0.63178014  0.83340468  0.81815926  1
  O  O184  1  0.79139333  0.70816534  0.61563179  1
  O  O185  1  0.20860667  0.29183466  0.11563179  1
  O  O186  1  0.20860667  0.29183466  0.38436821  1
  O  O187  1  0.79139333  0.70816534  0.88436821  1
  O  O188  1  0.95921755  0.86298410  0.67638617  1
  O  O189  1  0.04078245  0.13701590  0.17638617  1
  O  O190  1  0.04078245  0.13701590  0.32361383  1
  O  O191  1  0.95921755  0.86298410  0.82361383  1
  O  O192  1  0.41899058  0.39837000  0.59500669  1
  O  O193  1  0.58100942  0.60163000  0.09500669  1
  O  O194  1  0.58100942  0.60163000  0.40499331  1
  O  O195  1  0.41899058  0.39837000  0.90499331  1
  O  O196  1  0.91888122  0.16812611  0.64684205  1
  O  O197  1  0.08111878  0.83187389  0.14684205  1
  O  O198  1  0.08111878  0.83187389  0.35315795  1
  O  O199  1  0.91888122  0.16812611  0.85315795  1
  O  O200  1  0.21724454  0.08457566  0.51275534  1
  O  O201  1  0.78275546  0.91542434  0.01275534  1
  O  O202  1  0.78275546  0.91542434  0.48724466  1
  O  O203  1  0.21724454  0.08457566  0.98724466  1
  O  O204  1  0.16230044  0.47025165  0.53000567  1
  O  O205  1  0.83769956  0.52974835  0.03000567  1
  O  O206  1  0.83769956  0.52974835  0.46999433  1
  O  O207  1  0.16230044  0.47025165  0.96999433  1
  O  O208  1  0.26764179  0.53731889  0.67288617  1
  O  O209  1  0.73235821  0.46268111  0.17288617  1
  O  O210  1  0.73235821  0.46268111  0.32711383  1
  O  O211  1  0.26764179  0.53731889  0.82711383  1
  O  O212  1  0.73772433  0.49817784  0.60125806  1
  O  O213  1  0.26227567  0.50182216  0.10125806  1
  O  O214  1  0.26227567  0.50182216  0.39874194  1
  O  O215  1  0.73772433  0.49817784  0.89874194  1
  O  O216  1  0.95807071  0.37920743  0.66844926  1
  O  O217  1  0.04192929  0.62079257  0.16844926  1
  O  O218  1  0.04192929  0.62079257  0.33155074  1
  O  O219  1  0.95807071  0.37920743  0.83155074  1
