# generated using pymatgen
data_LiPH3NO3
_symmetry_space_group_name_H-M   'P 1'
_cell_length_a   5.07828962
_cell_length_b   8.60424748
_cell_length_c   8.99535332
_cell_angle_alpha   100.74271529
_cell_angle_beta   103.79628650
_cell_angle_gamma   94.61915685
_symmetry_Int_Tables_number   1
_chemical_formula_structural   LiPH3NO3
_chemical_formula_sum   'Li4 P4 H12 N4 O12'
_cell_volume   371.78988941
_cell_formula_units_Z   4
loop_
 _symmetry_equiv_pos_site_id
 _symmetry_equiv_pos_as_xyz
  1  'x, y, z'
loop_
 _atom_site_type_symbol
 _atom_site_label
 _atom_site_symmetry_multiplicity
 _atom_site_fract_x
 _atom_site_fract_y
 _atom_site_fract_z
 _atom_site_occupancy
  Li  Li0  1  0.64415553  0.13272174  0.98995557  1
  Li  Li1  1  0.35584447  0.86727826  0.01004443  1
  Li  Li2  1  0.68502665  0.43000238  0.57172211  1
  Li  Li3  1  0.31497335  0.56999762  0.42827789  1
  P  P4  1  0.89990088  0.76962302  0.50881434  1
  P  P5  1  0.10009912  0.23037698  0.49118566  1
  P  P6  1  0.96579213  0.92687980  0.23248071  1
  P  P7  1  0.03420787  0.07312020  0.76751929  1
  H  H8  1  0.59599018  0.82434713  0.29757913  1
  H  H9  1  0.40400982  0.17565287  0.70242087  1
  H  H10  1  0.63639198  0.90224895  0.65066986  1
  H  H11  1  0.36360802  0.09775105  0.34933014  1
  H  H12  1  0.00258124  0.54348439  0.82911514  1
  H  H13  1  0.99741876  0.45651561  0.17088486  1
  H  H14  1  0.84578776  0.37534321  0.82694833  1
  H  H15  1  0.15421224  0.62465679  0.17305167  1
  H  H16  1  0.30879721  0.70455010  0.74349087  1
  H  H17  1  0.69120279  0.29544990  0.25650913  1
  H  H18  1  0.50320470  0.61148969  0.84783703  1
  H  H19  1  0.49679530  0.38851031  0.15216297  1
  N  N20  1  0.83754721  0.90905580  0.64990395  1
  N  N21  1  0.16245279  0.09094420  0.35009605  1
  N  N22  1  0.80374992  0.83092145  0.33833051  1
  N  N23  1  0.19625008  0.16907855  0.66166949  1
  O  O24  1  0.70692414  0.62076608  0.49158990  1
  O  O25  1  0.29307586  0.37923392  0.50841010  1
  O  O26  1  0.20369398  0.75809904  0.54786642  1
  O  O27  1  0.79630602  0.24190096  0.45213358  1
  O  O28  1  0.83267761  0.17262584  0.82991370  1
  O  O29  1  0.16732239  0.82737416  0.17008630  1
  O  O30  1  0.73440310  0.97020115  0.11282711  1
  O  O31  1  0.26559690  0.02979885  0.88717289  1
  O  O32  1  0.81917068  0.48174980  0.80065794  1
  O  O33  1  0.18082932  0.51825020  0.19934206  1
  O  O34  1  0.34771531  0.67289985  0.84644032  1
  O  O35  1  0.65228469  0.32710015  0.15355968  1
