# generated using pymatgen
data_FeB2P2(HO4)3
_symmetry_space_group_name_H-M   'P 1'
_cell_length_a   6.60415757
_cell_length_b   6.88850185
_cell_length_c   9.08433280
_cell_angle_alpha   100.23435023
_cell_angle_beta   111.31478517
_cell_angle_gamma   90.00000030
_symmetry_Int_Tables_number   1
_chemical_formula_structural   FeB2P2(HO4)3
_chemical_formula_sum   'Fe2 B4 P4 H6 O24'
_cell_volume   377.93552830
_cell_formula_units_Z   2
loop_
 _symmetry_equiv_pos_site_id
 _symmetry_equiv_pos_as_xyz
  1  'x, y, z'
loop_
 _atom_site_type_symbol
 _atom_site_label
 _atom_site_symmetry_multiplicity
 _atom_site_fract_x
 _atom_site_fract_y
 _atom_site_fract_z
 _atom_site_occupancy
  Fe  Fe0  1  0.00000000  0.00000000  0.50000000  1
  Fe  Fe1  1  0.50000000  0.50000000  0.50000000  1
  B  B2  1  0.83444350  0.65522964  0.18354955  1
  B  B3  1  0.65089395  0.84477036  0.81645045  1
  B  B4  1  0.16555650  0.34477036  0.81645045  1
  B  B5  1  0.34910605  0.15522964  0.18354955  1
  P  P6  1  0.23017293  0.67862046  0.71761862  1
  P  P7  1  0.51255432  0.82137954  0.28238138  1
  P  P8  1  0.76982707  0.32137954  0.28238138  1
  P  P9  1  0.48744568  0.17862046  0.71761862  1
  H  H10  1  0.00000000  0.50000000  -0.00000000  1
  H  H11  1  0.00000000  0.00000000  -0.00000000  1
  H  H12  1  0.15177331  0.73642471  0.32900137  1
  H  H13  1  0.82277194  0.76357529  0.67099863  1
  H  H14  1  0.84822669  0.26357529  0.67099863  1
  H  H15  1  0.17722806  0.23642471  0.32900137  1
  O  O16  1  0.88645563  0.65136814  0.02604669  1
  O  O17  1  0.86040894  0.84863186  0.97395331  1
  O  O18  1  0.11354437  0.34863186  0.97395331  1
  O  O19  1  0.13959106  0.15136814  0.02604669  1
  O  O20  1  0.61839677  0.71605946  0.16361265  1
  O  O21  1  0.45478412  0.78394054  0.83638735  1
  O  O22  1  0.38160323  0.28394054  0.83638735  1
  O  O23  1  0.54521588  0.21605946  0.16361265  1
  O  O24  1  0.00124250  0.77605096  0.31964518  1
  O  O25  1  0.68159732  0.72394904  0.68035482  1
  O  O26  1  0.99875750  0.22394904  0.68035482  1
  O  O27  1  0.31840268  0.27605096  0.31964518  1
  O  O28  1  0.25556976  0.54670204  0.57267348  1
  O  O29  1  0.68289628  0.95329796  0.42732652  1
  O  O30  1  0.74443024  0.45329796  0.42732652  1
  O  O31  1  0.31710372  0.04670204  0.57267348  1
  O  O32  1  0.05552625  0.82590273  0.66790579  1
  O  O33  1  0.38762046  0.67409727  0.33209421  1
  O  O34  1  0.94447375  0.17409727  0.33209421  1
  O  O35  1  0.61237954  0.32590273  0.66790579  1
  O  O36  1  0.14916233  0.55662164  0.81775541  1
  O  O37  1  0.33140691  0.94337836  0.18224459  1
  O  O38  1  0.85083767  0.44337836  0.18224459  1
  O  O39  1  0.66859309  0.05662164  0.81775541  1
