# generated using pymatgen
data_CaFe5P5O22
_symmetry_space_group_name_H-M   'P 1'
_cell_length_a   6.44283723
_cell_length_b   7.92967670
_cell_length_c   15.82998541
_cell_angle_alpha   84.69710931
_cell_angle_beta   90.31639127
_cell_angle_gamma   79.05637323
_symmetry_Int_Tables_number   1
_chemical_formula_structural   CaFe5P5O22
_chemical_formula_sum   'Ca2 Fe10 P10 O44'
_cell_volume   790.42175781
_cell_formula_units_Z   2
loop_
 _symmetry_equiv_pos_site_id
 _symmetry_equiv_pos_as_xyz
  1  'x, y, z'
loop_
 _atom_site_type_symbol
 _atom_site_label
 _atom_site_symmetry_multiplicity
 _atom_site_fract_x
 _atom_site_fract_y
 _atom_site_fract_z
 _atom_site_occupancy
  Ca  Ca0  1  0.97713853  0.59739366  0.85945310  1
  Ca  Ca1  1  0.02286147  0.40260634  0.14054690  1
  Fe  Fe2  1  0.59692875  0.39851178  0.36864047  1
  Fe  Fe3  1  0.40307125  0.60148822  0.63135953  1
  Fe  Fe4  1  0.96199533  0.20712778  0.51153908  1
  Fe  Fe5  1  0.03800467  0.79287222  0.48846092  1
  Fe  Fe6  1  0.60611707  0.89709808  0.71879967  1
  Fe  Fe7  1  0.39388293  0.10290192  0.28120033  1
  Fe  Fe8  1  0.71320373  0.73057989  0.24237298  1
  Fe  Fe9  1  0.28679627  0.26942011  0.75762702  1
  Fe  Fe10  1  0.71275423  0.23071113  0.99434116  1
  Fe  Fe11  1  0.28724577  0.76928887  0.00565884  1
  P  P12  1  0.91329147  0.05370154  0.32073906  1
  P  P13  1  0.08670853  0.94629846  0.67926094  1
  P  P14  1  0.91586985  0.52363857  0.64045006  1
  P  P15  1  0.08413015  0.47636143  0.35954994  1
  P  P16  1  0.46566195  0.21289312  0.56021621  1
  P  P17  1  0.53433805  0.78710688  0.43978379  1
  P  P18  1  0.20922670  0.19031737  0.95603887  1
  P  P19  1  0.79077330  0.80968263  0.04396113  1
  P  P20  1  0.51258881  0.56192953  0.84751434  1
  P  P21  1  0.48741119  0.43807047  0.15248566  1
  O  O22  1  0.98473187  0.02371533  0.41754899  1
  O  O23  1  0.01526813  0.97628467  0.58245101  1
  O  O24  1  0.07690690  0.62420519  0.59260442  1
  O  O25  1  0.92309310  0.37579481  0.40739558  1
  O  O26  1  0.88316399  0.37291588  0.59286560  1
  O  O27  1  0.11683601  0.62708412  0.40713440  1
  O  O28  1  0.37854835  0.73344423  0.50967585  1
  O  O29  1  0.62145165  0.26655577  0.49032415  1
  O  O30  1  0.69256419  0.18249285  0.31347246  1
  O  O31  1  0.30743581  0.81750715  0.68652754  1
  O  O32  1  0.69466071  0.64391372  0.64664967  1
  O  O33  1  0.30533929  0.35608628  0.35335033  1
  O  O34  1  0.57566648  0.64742757  0.37381611  1
  O  O35  1  0.42433352  0.35257243  0.62618389  1
  O  O36  1  0.07514967  0.13919693  0.26961839  1
  O  O37  1  0.92485033  0.86080307  0.73038161  1
  O  O38  1  0.43411793  0.95911304  0.39207940  1
  O  O39  1  0.56588207  0.04088696  0.60792060  1
  O  O40  1  0.62778864  0.70861646  0.81426015  1
  O  O41  1  0.37221136  0.29138354  0.18573985  1
  O  O42  1  0.48520953  0.91745656  0.21607870  1
  O  O43  1  0.51479047  0.08254344  0.78392130  1
  O  O44  1  0.01839446  0.46796068  0.72869814  1
  O  O45  1  0.98160554  0.53203932  0.27130186  1
  O  O46  1  0.83921396  0.70060571  0.13125315  1
  O  O47  1  0.16078604  0.29939429  0.86874685  1
  O  O48  1  0.43667809  0.47958199  0.76946027  1
  O  O49  1  0.56332191  0.52041801  0.23053973  1
  O  O50  1  0.88321187  0.88450942  0.29040923  1
  O  O51  1  0.11678813  0.11549058  0.70959077  1
  O  O52  1  0.25701837  0.21071538  0.51562165  1
  O  O53  1  0.74298163  0.78928462  0.48437835  1
  O  O54  1  0.41548026  0.22218652  0.99385455  1
  O  O55  1  0.58451974  0.77781348  0.00614545  1
  O  O56  1  0.78748230  -0.00015068  0.05623491  1
  O  O57  1  0.21251770  0.00015068  0.94376509  1
  O  O58  1  0.02383725  0.26275687  0.01371465  1
  O  O59  1  0.97616275  0.73724313  0.98628535  1
  O  O60  1  0.78752638  0.09415723  0.88740116  1
  O  O61  1  0.21247362  0.90584277  0.11259884  1
  O  O62  1  0.68388941  0.43580391  0.90336442  1
  O  O63  1  0.31611059  0.56419609  0.09663558  1
  O  O64  1  0.68271970  0.36860955  0.10068497  1
  O  O65  1  0.31728030  0.63139045  0.89931503  1
