# generated using pymatgen
data_KH(CO2)2
_symmetry_space_group_name_H-M   'P 1'
_cell_length_a   4.48989130
_cell_length_b   7.99029126
_cell_length_c   12.92375672
_cell_angle_alpha   90.00000000
_cell_angle_beta   90.00000000
_cell_angle_gamma   105.45828036
_symmetry_Int_Tables_number   1
_chemical_formula_structural   KH(CO2)2
_chemical_formula_sum   'K4 H4 C8 O16'
_cell_volume   446.87422086
_cell_formula_units_Z   4
loop_
 _symmetry_equiv_pos_site_id
 _symmetry_equiv_pos_as_xyz
  1  'x, y, z'
loop_
 _atom_site_type_symbol
 _atom_site_label
 _atom_site_symmetry_multiplicity
 _atom_site_fract_x
 _atom_site_fract_y
 _atom_site_fract_z
 _atom_site_occupancy
  K  K0  1  0.68619986  0.27277129  0.56728630  1
  K  K1  1  0.31380014  0.22722871  0.06728630  1
  K  K2  1  0.31380014  0.72722871  0.43271370  1
  K  K3  1  0.68619986  0.77277129  0.93271370  1
  H  H4  1  0.35969068  0.51771979  0.72469968  1
  H  H5  1  0.64030932  0.98228021  0.22469968  1
  H  H6  1  0.64030932  0.48228021  0.27530032  1
  H  H7  1  0.35969068  0.01771979  0.77530032  1
  C  C8  1  0.81420492  0.21112161  0.84758329  1
  C  C9  1  0.18579508  0.28887839  0.34758329  1
  C  C10  1  0.18579508  0.78887839  0.15241671  1
  C  C11  1  0.81420492  0.71112161  0.65241671  1
  C  C12  1  0.09749357  0.37078218  0.82792189  1
  C  C13  1  0.90250643  0.12921782  0.32792189  1
  C  C14  1  0.90250643  0.62921782  0.17207811  1
  C  C15  1  0.09749357  0.87078218  0.67207811  1
  O  O16  1  0.79106731  0.14458898  0.93615275  1
  O  O17  1  0.20893269  0.35541102  0.43615275  1
  O  O18  1  0.20893269  0.85541102  0.06384725  1
  O  O19  1  0.79106731  0.64458898  0.56384725  1
  O  O20  1  0.63166839  0.16356687  0.77112879  1
  O  O21  1  0.36833161  0.33643313  0.27112879  1
  O  O22  1  0.36833161  0.83643313  0.22887121  1
  O  O23  1  0.63166839  0.66356687  0.72887121  1
  O  O24  1  0.25138345  0.44776195  0.90092304  1
  O  O25  1  0.74861655  0.05223805  0.40092304  1
  O  O26  1  0.74861655  0.55223805  0.09907696  1
  O  O27  1  0.25138345  0.94776195  0.59907696  1
  O  O28  1  0.15509325  0.41198733  0.72939575  1
  O  O29  1  0.84490675  0.08801267  0.22939575  1
  O  O30  1  0.84490675  0.58801267  0.27060425  1
  O  O31  1  0.15509325  0.91198733  0.77060425  1
