# generated using pymatgen
data_KU(SeO4)2
_symmetry_space_group_name_H-M   'P 1'
_cell_length_a   9.05021606
_cell_length_b   9.76590675
_cell_length_c   10.24024135
_cell_angle_alpha   90.00000000
_cell_angle_beta   90.00000000
_cell_angle_gamma   93.89128203
_symmetry_Int_Tables_number   1
_chemical_formula_structural   KU(SeO4)2
_chemical_formula_sum   'K4 U4 Se8 O32'
_cell_volume   902.98251740
_cell_formula_units_Z   4
loop_
 _symmetry_equiv_pos_site_id
 _symmetry_equiv_pos_as_xyz
  1  'x, y, z'
loop_
 _atom_site_type_symbol
 _atom_site_label
 _atom_site_symmetry_multiplicity
 _atom_site_fract_x
 _atom_site_fract_y
 _atom_site_fract_z
 _atom_site_occupancy
  K  K0  1  0.27674913  0.55874616  0.44877697  1
  K  K1  1  0.77674913  0.05874616  0.05122303  1
  K  K2  1  0.72325087  0.44125384  0.55122303  1
  K  K3  1  0.22325087  0.94125384  0.94877697  1
  U  U4  1  0.88047667  0.69024326  0.20318779  1
  U  U5  1  0.38047667  0.19024326  0.29681221  1
  U  U6  1  0.11952333  0.30975674  0.79681221  1
  U  U7  1  0.61952333  0.80975674  0.70318779  1
  Se  Se8  1  0.49233452  0.69686788  0.04062102  1
  Se  Se9  1  0.99233452  0.19686788  0.45937898  1
  Se  Se10  1  0.50766548  0.30313212  0.95937898  1
  Se  Se11  1  0.00766548  0.80313212  0.54062102  1
  Se  Se12  1  0.88101200  0.59976871  0.87023494  1
  Se  Se13  1  0.38101200  0.09976871  0.62976506  1
  Se  Se14  1  0.11898800  0.40023129  0.12976506  1
  Se  Se15  1  0.61898800  0.90023129  0.37023494  1
  O  O16  1  0.36015106  0.74552735  0.14039552  1
  O  O17  1  0.86015106  0.24552735  0.35960448  1
  O  O18  1  0.63984894  0.25447265  0.85960448  1
  O  O19  1  0.13984894  0.75447265  0.64039552  1
  O  O20  1  0.65983381  0.76914470  0.09353922  1
  O  O21  1  0.15983381  0.26914470  0.40646078  1
  O  O22  1  0.34016619  0.23085530  0.90646078  1
  O  O23  1  0.84016619  0.73085530  0.59353922  1
  O  O24  1  0.83652656  0.54196757  0.02684738  1
  O  O25  1  0.33652656  0.04196757  0.47315262  1
  O  O26  1  0.16347344  0.45803243  0.97315262  1
  O  O27  1  0.66347344  0.95803243  0.52684738  1
  O  O28  1  0.70381337  0.61525274  0.80879854  1
  O  O29  1  0.20381337  0.11525274  0.69120146  1
  O  O30  1  0.29618663  0.38474726  0.19120146  1
  O  O31  1  0.79618663  0.88474726  0.30879854  1
  O  O32  1  0.07379195  0.54531563  0.21202105  1
  O  O33  1  0.57379195  0.04531563  0.28797895  1
  O  O34  1  0.92620805  0.45468437  0.78797895  1
  O  O35  1  0.42620805  0.95468437  0.71202105  1
  O  O36  1  0.04023983  0.73002465  0.39223175  1
  O  O37  1  0.54023983  0.23002465  0.10776825  1
  O  O38  1  0.95976017  0.26997535  0.60776825  1
  O  O39  1  0.45976017  0.76997535  0.89223175  1
  O  O40  1  0.98437370  0.81132613  0.09392809  1
  O  O41  1  0.48437370  0.31132613  0.40607191  1
  O  O42  1  0.01562630  0.18867387  0.90607191  1
  O  O43  1  0.51562630  0.68867387  0.59392809  1
  O  O44  1  0.76034051  0.57773355  0.30530282  1
  O  O45  1  0.26034051  0.07773355  0.19469718  1
  O  O46  1  0.23965949  0.42226645  0.69469718  1
  O  O47  1  0.73965949  0.92226645  0.80530282  1
