# generated using pymatgen
data_Sr3Al2
_symmetry_space_group_name_H-M   'P 1'
_cell_length_a   13.01385226
_cell_length_b   13.01385226
_cell_length_c   13.01385226
_cell_angle_alpha   90.00000000
_cell_angle_beta   90.00000000
_cell_angle_gamma   90.00000000
_symmetry_Int_Tables_number   1
_chemical_formula_structural   Sr3Al2
_chemical_formula_sum   'Sr36 Al24'
_cell_volume   2204.03058200
_cell_formula_units_Z   12
loop_
 _symmetry_equiv_pos_site_id
 _symmetry_equiv_pos_as_xyz
  1  'x, y, z'
loop_
 _atom_site_type_symbol
 _atom_site_label
 _atom_site_symmetry_multiplicity
 _atom_site_fract_x
 _atom_site_fract_y
 _atom_site_fract_z
 _atom_site_occupancy
  Sr  Sr0  1  0.06017467  0.56017467  0.93982533  1
  Sr  Sr1  1  0.56017467  0.93982533  0.06017467  1
  Sr  Sr2  1  0.93982533  0.06017467  0.56017467  1
  Sr  Sr3  1  0.43982533  0.43982533  0.43982533  1
  Sr  Sr4  1  0.67976262  0.17976262  0.32023738  1
  Sr  Sr5  1  0.17976262  0.32023738  0.67976262  1
  Sr  Sr6  1  0.32023738  0.67976262  0.17976262  1
  Sr  Sr7  1  0.82023738  0.82023738  0.82023738  1
  Sr  Sr8  1  0.32531629  0.82531629  0.67468371  1
  Sr  Sr9  1  0.82531629  0.67468371  0.32531629  1
  Sr  Sr10  1  0.67468371  0.32531629  0.82531629  1
  Sr  Sr11  1  0.17468371  0.17468371  0.17468371  1
  Sr  Sr12  1  0.48213045  0.22512634  0.06042260  1
  Sr  Sr13  1  0.93957740  0.98213045  0.27487366  1
  Sr  Sr14  1  0.72512634  0.43957740  0.51786955  1
  Sr  Sr15  1  0.98213045  0.27487366  0.93957740  1
  Sr  Sr16  1  0.43957740  0.51786955  0.72512634  1
  Sr  Sr17  1  0.22512634  0.06042260  0.48213045  1
  Sr  Sr18  1  0.51786955  0.72512634  0.43957740  1
  Sr  Sr19  1  0.06042260  0.48213045  0.22512634  1
  Sr  Sr20  1  0.27487366  0.93957740  0.98213045  1
  Sr  Sr21  1  0.01786955  0.77487366  0.56042260  1
  Sr  Sr22  1  0.56042260  0.01786955  0.77487366  1
  Sr  Sr23  1  0.77487366  0.56042260  0.01786955  1
  Sr  Sr24  1  0.56651644  0.47445113  0.19772767  1
  Sr  Sr25  1  0.80227233  0.06651644  0.02554887  1
  Sr  Sr26  1  0.97445113  0.30227233  0.43348356  1
  Sr  Sr27  1  0.06651644  0.02554887  0.80227233  1
  Sr  Sr28  1  0.30227233  0.43348356  0.97445113  1
  Sr  Sr29  1  0.47445113  0.19772767  0.56651644  1
  Sr  Sr30  1  0.43348356  0.97445113  0.30227233  1
  Sr  Sr31  1  0.19772767  0.56651644  0.47445113  1
  Sr  Sr32  1  0.02554887  0.80227233  0.06651644  1
  Sr  Sr33  1  0.93348356  0.52554887  0.69772767  1
  Sr  Sr34  1  0.69772767  0.93348356  0.52554887  1
  Sr  Sr35  1  0.52554887  0.69772767  0.93348356  1
  Al  Al36  1  0.90762142  0.26585053  0.69154064  1
  Al  Al37  1  0.30845936  0.40762142  0.23414947  1
  Al  Al38  1  0.76585053  0.80845936  0.09237858  1
  Al  Al39  1  0.40762142  0.23414947  0.30845936  1
  Al  Al40  1  0.80845936  0.09237858  0.76585053  1
  Al  Al41  1  0.26585053  0.69154064  0.90762142  1
  Al  Al42  1  0.09237858  0.76585053  0.80845936  1
  Al  Al43  1  0.69154064  0.90762142  0.26585053  1
  Al  Al44  1  0.23414947  0.30845936  0.40762142  1
  Al  Al45  1  0.59237858  0.73414947  0.19154064  1
  Al  Al46  1  0.19154064  0.59237858  0.73414947  1
  Al  Al47  1  0.73414947  0.19154064  0.59237858  1
  Al  Al48  1  0.91265966  0.24500866  0.19009304  1
  Al  Al49  1  0.80990696  0.41265966  0.25499134  1
  Al  Al50  1  0.74500866  0.30990696  0.08734034  1
  Al  Al51  1  0.41265966  0.25499134  0.80990696  1
  Al  Al52  1  0.30990696  0.08734034  0.74500866  1
  Al  Al53  1  0.24500866  0.19009304  0.91265966  1
  Al  Al54  1  0.08734034  0.74500866  0.30990696  1
  Al  Al55  1  0.19009304  0.91265966  0.24500866  1
  Al  Al56  1  0.25499134  0.80990696  0.41265966  1
  Al  Al57  1  0.58734034  0.75499134  0.69009304  1
  Al  Al58  1  0.69009304  0.58734034  0.75499134  1
  Al  Al59  1  0.75499134  0.69009304  0.58734034  1
