# generated using pymatgen
data_Na4Sn2Ge5O17
_symmetry_space_group_name_H-M   'P 1'
_cell_length_a   5.45799667
_cell_length_b   7.09419160
_cell_length_c   20.49152855
_cell_angle_alpha   93.31460701
_cell_angle_beta   90.00000000
_cell_angle_gamma   90.00000000
_symmetry_Int_Tables_number   1
_chemical_formula_structural   Na4Sn2Ge5O17
_chemical_formula_sum   'Na8 Sn4 Ge10 O34'
_cell_volume   792.10617590
_cell_formula_units_Z   2
loop_
 _symmetry_equiv_pos_site_id
 _symmetry_equiv_pos_as_xyz
  1  'x, y, z'
loop_
 _atom_site_type_symbol
 _atom_site_label
 _atom_site_symmetry_multiplicity
 _atom_site_fract_x
 _atom_site_fract_y
 _atom_site_fract_z
 _atom_site_occupancy
  Na  Na0  1  0.00028878  0.54448399  0.29056999  1
  Na  Na1  1  0.00028878  0.95551601  0.20943001  1
  Na  Na2  1  -0.00028878  0.45551601  0.70943001  1
  Na  Na3  1  -0.00028878  0.04448399  0.79056999  1
  Na  Na4  1  0.75532032  0.86206117  0.47202801  1
  Na  Na5  1  0.75532032  0.63793883  0.02797199  1
  Na  Na6  1  0.24467968  0.13793883  0.52797199  1
  Na  Na7  1  0.24467968  0.36206117  0.97202801  1
  Sn  Sn8  1  0.76065444  0.20339730  0.08890808  1
  Sn  Sn9  1  0.76065444  0.29660270  0.41109192  1
  Sn  Sn10  1  0.23934556  0.79660270  0.91109192  1
  Sn  Sn11  1  0.23934556  0.70339730  0.58890808  1
  Ge  Ge12  1  0.49604069  0.25000000  0.25000000  1
  Ge  Ge13  1  0.50395931  0.75000000  0.75000000  1
  Ge  Ge14  1  0.28474611  0.60975645  0.42365132  1
  Ge  Ge15  1  0.28474611  0.89024355  0.07634868  1
  Ge  Ge16  1  0.71525389  0.39024355  0.57634868  1
  Ge  Ge17  1  0.71525389  0.10975645  0.92365132  1
  Ge  Ge18  1  0.25168813  0.48318333  0.13450521  1
  Ge  Ge19  1  0.25168813  0.01681667  0.36549479  1
  Ge  Ge20  1  0.74831187  0.51681667  0.86549479  1
  Ge  Ge21  1  0.74831187  0.98318333  0.63450521  1
  O  O22  1  0.69289464  0.75000000  0.25000000  1
  O  O23  1  0.30710536  0.25000000  0.75000000  1
  O  O24  1  0.94083542  0.45747813  0.11250267  1
  O  O25  1  0.94083542  0.04252187  0.38749733  1
  O  O26  1  0.05916458  0.54252187  0.88749733  1
  O  O27  1  0.05916458  0.95747813  0.61250267  1
  O  O28  1  0.67947500  0.34753599  0.31318170  1
  O  O29  1  0.67947500  0.15246401  0.18681830  1
  O  O30  1  0.32052500  0.65246401  0.68681830  1
  O  O31  1  0.32052500  0.84753599  0.81318170  1
  O  O32  1  0.59610975  0.55349789  0.43676175  1
  O  O33  1  0.59610975  0.94650211  0.06323825  1
  O  O34  1  0.40389025  0.44650211  0.56323825  1
  O  O35  1  0.40389025  0.05349789  0.93676175  1
  O  O36  1  0.45948050  0.38532257  0.07609119  1
  O  O37  1  0.45948050  0.11467743  0.42390881  1
  O  O38  1  0.54051950  0.61467743  0.92390881  1
  O  O39  1  0.54051950  0.88532257  0.57609119  1
  O  O40  1  0.29008009  0.76501662  0.35576249  1
  O  O41  1  0.29008009  0.73498338  0.14423751  1
  O  O42  1  0.70991991  0.23498338  0.64423751  1
  O  O43  1  0.70991991  0.26501662  0.85576249  1
  O  O44  1  0.29237097  0.42062967  0.21803933  1
  O  O45  1  0.29237097  0.07937033  0.28196067  1
  O  O46  1  0.70762903  0.57937033  0.78196067  1
  O  O47  1  0.70762903  0.92062967  0.71803933  1
  O  O48  1  0.16097577  0.74610873  0.49109400  1
  O  O49  1  0.16097577  0.75389127  0.00890600  1
  O  O50  1  0.83902423  0.25389127  0.50890600  1
  O  O51  1  0.83902423  0.24610873  0.99109400  1
  O  O52  1  0.09531399  0.42608747  0.39195907  1
  O  O53  1  0.09531399  0.07391253  0.10804093  1
  O  O54  1  0.90468601  0.57391253  0.60804093  1
  O  O55  1  0.90468601  0.92608747  0.89195907  1
