# generated using pymatgen
data_BaH6(C2O5)2
_symmetry_space_group_name_H-M   'P 1'
_cell_length_a   5.54726833
_cell_length_b   7.76381973
_cell_length_c   11.84012685
_cell_angle_alpha   77.94437934
_cell_angle_beta   76.45216129
_cell_angle_gamma   69.06851747
_symmetry_Int_Tables_number   1
_chemical_formula_structural   BaH6(C2O5)2
_chemical_formula_sum   'Ba2 H12 C8 O20'
_cell_volume   458.60607328
_cell_formula_units_Z   2
loop_
 _symmetry_equiv_pos_site_id
 _symmetry_equiv_pos_as_xyz
  1  'x, y, z'
loop_
 _atom_site_type_symbol
 _atom_site_label
 _atom_site_symmetry_multiplicity
 _atom_site_fract_x
 _atom_site_fract_y
 _atom_site_fract_z
 _atom_site_occupancy
  Ba  Ba0  1  0.81624929  0.25000000  0.75000000  1
  Ba  Ba1  1  0.18375071  0.75000000  0.25000000  1
  H  H2  1  0.20467888  0.32180577  0.46195907  1
  H  H3  1  0.98844372  0.17819423  0.03804093  1
  H  H4  1  0.79532112  0.67819423  0.53804093  1
  H  H5  1  0.01155628  0.82180577  0.96195907  1
  H  H6  1  0.44479770  0.94546587  0.68894839  1
  H  H7  1  0.07921195  0.55453413  0.81105161  1
  H  H8  1  0.55520230  0.05453413  0.31105161  1
  H  H9  1  0.92078805  0.44546587  0.18894839  1
  H  H10  1  0.30354574  0.80403066  0.75835133  1
  H  H11  1  0.86592773  0.69596934  0.74164867  1
  H  H12  1  0.69645426  0.19596934  0.24164867  1
  H  H13  1  0.13407227  0.30403066  0.25835133  1
  C  C14  1  0.92281783  0.93303802  0.53628778  1
  C  C15  1  0.39214363  0.56696198  0.96371222  1
  C  C16  1  0.07718217  0.06696198  0.46371222  1
  C  C17  1  0.60785637  0.43303802  0.03628778  1
  C  C18  1  0.41924412  0.43233274  0.51890957  1
  C  C19  1  0.37048643  0.06766726  0.98109043  1
  C  C20  1  0.58075588  0.56766726  0.48109043  1
  C  C21  1  0.62951357  0.93233274  0.01890957  1
  O  O22  1  0.39091823  0.35239185  0.61989202  1
  O  O23  1  0.36320211  0.14760815  0.88010798  1
  O  O24  1  0.60908177  0.64760815  0.38010798  1
  O  O25  1  0.63679789  0.85239185  0.11989202  1
  O  O26  1  0.77942311  0.97287081  0.63284417  1
  O  O27  1  0.38513809  0.52712919  0.86715583  1
  O  O28  1  0.22057689  0.02712919  0.36715583  1
  O  O29  1  0.61486191  0.47287081  0.13284417  1
  O  O30  1  0.04208366  0.21122916  0.50976226  1
  O  O31  1  0.76307508  0.28877084  0.99023774  1
  O  O32  1  0.95791634  0.78877084  0.49023774  1
  O  O33  1  0.23692492  0.71122916  0.00976226  1
  O  O34  1  0.27073411  0.93029843  0.71619067  1
  O  O35  1  0.91722322  0.56970157  0.78380933  1
  O  O36  1  0.72926589  0.06970157  0.28380933  1
  O  O37  1  0.08277678  0.43029843  0.21619067  1
  O  O38  1  0.32223699  0.41479385  0.43210460  1
  O  O39  1  0.16913544  0.08520615  0.06789540  1
  O  O40  1  0.67776301  0.58520615  0.56789540  1
  O  O41  1  0.83086456  0.91479385  0.93210460  1
