# generated using pymatgen
data_Zn7P10
_symmetry_space_group_name_H-M   'P 1'
_cell_length_a   4.42337291
_cell_length_b   11.08825607
_cell_length_c   13.27054871
_cell_angle_alpha   88.09498905
_cell_angle_beta   80.40624743
_cell_angle_gamma   78.49449833
_symmetry_Int_Tables_number   1
_chemical_formula_structural   Zn7P10
_chemical_formula_sum   'Zn14 P20'
_cell_volume   628.88766673
_cell_formula_units_Z   2
loop_
 _symmetry_equiv_pos_site_id
 _symmetry_equiv_pos_as_xyz
  1  'x, y, z'
loop_
 _atom_site_type_symbol
 _atom_site_label
 _atom_site_symmetry_multiplicity
 _atom_site_fract_x
 _atom_site_fract_y
 _atom_site_fract_z
 _atom_site_occupancy
  Zn  Zn0  1  0.81393550  0.76164266  0.16007253  1
  Zn  Zn1  1  0.73565069  0.23835734  0.83992747  1
  Zn  Zn2  1  0.72400803  0.26164266  0.33992747  1
  Zn  Zn3  1  0.32557817  0.73835734  0.66007253  1
  Zn  Zn4  1  0.67285377  0.99791171  0.59404891  1
  Zn  Zn5  1  0.26481440  0.00208829  0.40595109  1
  Zn  Zn6  1  0.01690268  0.49791171  0.90595109  1
  Zn  Zn7  1  0.42076549  0.50208829  0.09404891  1
  Zn  Zn8  1  0.99894314  0.00000000  0.00000000  1
  Zn  Zn9  1  0.74894314  0.50000000  0.50000000  1
  Zn  Zn10  1  0.22896906  0.27129818  0.07609408  1
  Zn  Zn11  1  0.57636132  0.72870182  0.92390592  1
  Zn  Zn12  1  0.05506314  0.77129818  0.42390592  1
  Zn  Zn13  1  0.25026724  0.22870182  0.57609408  1
  P  P14  1  0.11923489  0.66280834  0.00500315  1
  P  P15  1  0.78704638  0.33719166  0.99499685  1
  P  P16  1  0.87423803  0.16280834  0.49499685  1
  P  P17  1  0.53204323  0.83719166  0.50500315  1
  P  P18  1  0.34205949  0.91083871  0.12129728  1
  P  P19  1  0.37419547  0.08916129  0.87870272  1
  P  P20  1  0.21335677  0.41083871  0.37870272  1
  P  P21  1  0.00289820  0.58916129  0.62129728  1
  P  P22  1  0.40351744  0.58136961  0.37774841  1
  P  P23  1  0.36263546  0.41863039  0.62225159  1
  P  P24  1  0.53126584  0.08136961  0.12225159  1
  P  P25  1  0.73488705  0.91863039  0.87774841  1
  P  P26  1  0.02789552  0.40378100  0.23631182  1
  P  P27  1  0.66798834  0.59621900  0.76368818  1
  P  P28  1  0.01420734  0.90378100  0.26368818  1
  P  P29  1  0.18167652  0.09621900  0.73631182  1
  P  P30  1  0.66980725  0.57294319  0.22414144  1
  P  P31  1  0.46689188  0.42705681  0.77585856  1
  P  P32  1  0.64394869  0.07294319  0.27585856  1
  P  P33  1  0.99275044  0.92705681  0.72414144  1
