# generated using pymatgen
data_UH10C4S(NO3)3
_symmetry_space_group_name_H-M   'P 1'
_cell_length_a   7.95944182
_cell_length_b   9.16912947
_cell_length_c   9.85196840
_cell_angle_alpha   111.20713066
_cell_angle_beta   89.77134423
_cell_angle_gamma   93.64997284
_symmetry_Int_Tables_number   1
_chemical_formula_structural   UH10C4S(NO3)3
_chemical_formula_sum   'U2 H20 C8 S2 N6 O18'
_cell_volume   668.81617211
_cell_formula_units_Z   2
loop_
 _symmetry_equiv_pos_site_id
 _symmetry_equiv_pos_as_xyz
  1  'x, y, z'
loop_
 _atom_site_type_symbol
 _atom_site_label
 _atom_site_symmetry_multiplicity
 _atom_site_fract_x
 _atom_site_fract_y
 _atom_site_fract_z
 _atom_site_occupancy
  U  U0  1  0.79778320  0.27403476  0.12171599  1
  U  U1  1  0.20221680  0.72596524  0.87828401  1
  H  H2  1  0.70900952  0.99006886  0.58611332  1
  H  H3  1  0.29099048  0.00993114  0.41388668  1
  H  H4  1  0.79492450  0.99435427  0.74216119  1
  H  H5  1  0.20507550  0.00564573  0.25783881  1
  H  H6  1  0.87826691  0.88846333  0.57901762  1
  H  H7  1  0.12173309  0.11153667  0.42098238  1
  H  H8  1  0.89467797  0.08999822  0.64020983  1
  H  H9  1  0.10532203  0.91000178  0.35979017  1
  H  H10  1  0.38340673  0.41265098  0.26165080  1
  H  H11  1  0.61659327  0.58734902  0.73834920  1
  H  H12  1  0.20836198  0.49214546  0.22641423  1
  H  H13  1  0.79163802  0.50785454  0.77358577  1
  H  H14  1  0.37680948  0.60995734  0.31410722  1
  H  H15  1  0.62319052  0.39004266  0.68589278  1
  H  H16  1  0.38900365  0.49624086  0.13448951  1
  H  H17  1  0.61099635  0.50375914  0.86551049  1
  H  H18  1  0.51615213  0.75109246  0.50910521  1
  H  H19  1  0.48384787  0.24890754  0.49089479  1
  H  H20  1  0.33050144  0.79722255  0.53915563  1
  H  H21  1  0.66949856  0.20277745  0.46084437  1
  C  C22  1  0.15259694  0.21819800  0.89135041  1
  C  C23  1  0.84740306  0.78180200  0.10864959  1
  C  C24  1  0.94049966  0.61780050  0.36409238  1
  C  C25  1  0.05950034  0.38219950  0.63590762  1
  C  C26  1  0.76704437  0.58061278  0.42222468  1
  C  C27  1  0.23295563  0.41938722  0.57777532  1
  C  C28  1  0.55061455  0.96032942  0.93113932  1
  C  C29  1  0.44938545  0.03967058  0.06886068  1
  S  S30  1  0.31887053  0.19555503  0.79569547  1
  S  S31  1  0.68112947  0.80444497  0.20430453  1
  N  N32  1  0.02826169  0.23539530  0.96234753  1
  N  N33  1  0.97173831  0.76460470  0.03765247  1
  N  N34  1  0.82134949  0.99136172  0.63768660  1
  N  N35  1  0.17865051  0.00863828  0.36231340  1
  N  N36  1  0.34046354  0.50122715  0.23277532  1
  N  N37  1  0.65953646  0.49877285  0.76722468  1
  O  O38  1  0.99107835  0.50132083  0.25576742  1
  O  O39  1  0.00892165  0.49867917  0.74423258  1
  O  O40  1  0.01596486  0.74963375  0.42229680  1
  O  O41  1  0.98403514  0.25036625  0.57770320  1
  O  O42  1  0.69575058  0.44638810  0.34527586  1
  O  O43  1  0.30424942  0.55361190  0.65472414  1
  O  O44  1  0.70985927  0.67809276  0.53420849  1
  O  O45  1  0.29014073  0.32190724  0.46579151  1
  O  O46  1  0.69072026  0.03052976  0.92128254  1
  O  O47  1  0.30927974  0.96947024  0.07871746  1
  O  O48  1  0.51284346  0.16711118  0.15977544  1
  O  O49  1  0.48715654  0.83288882  0.84022456  1
  O  O50  1  0.88873460  0.15975701  0.21488550  1
  O  O51  1  0.11126540  0.84024299  0.78511450  1
  O  O52  1  0.69558386  0.38348491  0.02816477  1
  O  O53  1  0.30441614  0.61651509  0.97183523  1
  O  O54  1  0.42049895  0.78933817  0.46976919  1
  O  O55  1  0.57950105  0.21066183  0.53023081  1
