# generated using pymatgen
data_ZnP2H13C2(N3O4)2
_symmetry_space_group_name_H-M   'P 1'
_cell_length_a   10.24644473
_cell_length_b   10.63436422
_cell_length_c   12.61929787
_cell_angle_alpha   90.00000000
_cell_angle_beta   90.00000000
_cell_angle_gamma   90.00000000
_symmetry_Int_Tables_number   1
_chemical_formula_structural   ZnP2H13C2(N3O4)2
_chemical_formula_sum   'Zn4 P8 H52 C8 N24 O32'
_cell_volume   1375.05453907
_cell_formula_units_Z   4
loop_
 _symmetry_equiv_pos_site_id
 _symmetry_equiv_pos_as_xyz
  1  'x, y, z'
loop_
 _atom_site_type_symbol
 _atom_site_label
 _atom_site_symmetry_multiplicity
 _atom_site_fract_x
 _atom_site_fract_y
 _atom_site_fract_z
 _atom_site_occupancy
  Zn  Zn0  1  0.01320809  0.02094506  0.13277630  1
  Zn  Zn1  1  0.51320809  0.97905494  0.86722370  1
  Zn  Zn2  1  0.01320809  0.52094506  0.36722370  1
  Zn  Zn3  1  0.51320809  0.47905494  0.63277630  1
  P  P4  1  0.10514915  0.26671310  0.25604019  1
  P  P5  1  0.60514915  0.73328690  0.74395981  1
  P  P6  1  0.10514915  0.76671310  0.24395981  1
  P  P7  1  0.60514915  0.23328690  0.75604019  1
  P  P8  1  0.27183139  0.49531884  0.48285521  1
  P  P9  1  0.77183139  0.50468116  0.51714479  1
  P  P10  1  0.27183139  0.99531884  0.01714479  1
  P  P11  1  0.77183139  0.00468116  0.98285521  1
  H  H12  1  0.26844251  0.16724391  0.83088250  1
  H  H13  1  0.76844251  0.83275609  0.16911750  1
  H  H14  1  0.26844251  0.66724391  0.66911750  1
  H  H15  1  0.76844251  0.33275609  0.33088250  1
  H  H16  1  0.31284156  0.27924066  0.73691043  1
  H  H17  1  0.81284156  0.72075934  0.26308957  1
  H  H18  1  0.31284156  0.77924066  0.76308957  1
  H  H19  1  0.81284156  0.22075934  0.23691043  1
  H  H20  1  0.20797063  0.29995080  0.42984371  1
  H  H21  1  0.70797063  0.70004920  0.57015629  1
  H  H22  1  0.20797063  0.79995080  0.07015629  1
  H  H23  1  0.70797063  0.20004920  0.92984371  1
  H  H24  1  0.98721595  0.15558445  0.44915159  1
  H  H25  1  0.48721595  0.84441555  0.55084841  1
  H  H26  1  0.98721595  0.65558445  0.05084841  1
  H  H27  1  0.48721595  0.34441555  0.94915159  1
  H  H28  1  0.54989113  0.36096420  0.37824426  1
  H  H29  1  0.04989113  0.63903580  0.62175574  1
  H  H30  1  0.54989113  0.86096420  0.12175574  1
  H  H31  1  0.04989113  0.13903580  0.87824426  1
  H  H32  1  0.48247955  0.12396707  0.17999529  1
  H  H33  1  0.98247955  0.87603293  0.82000471  1
  H  H34  1  0.48247955  0.62396707  0.32000471  1
  H  H35  1  0.98247955  0.37603293  0.67999529  1
  H  H36  1  0.38084473  0.16825515  0.53712680  1
  H  H37  1  0.88084473  0.83174485  0.46287320  1
  H  H38  1  0.38084473  0.66825515  0.96287320  1
  H  H39  1  0.88084473  0.33174485  0.03712680  1
  H  H40  1  0.26418345  0.44009032  0.14590722  1
  H  H41  1  0.76418345  0.55990968  0.85409278  1
  H  H42  1  0.26418345  0.94009032  0.35409278  1
  H  H43  1  0.76418345  0.05990968  0.64590722  1
  H  H44  1  0.38567054  0.30114128  0.05509310  1
  H  H45  1  0.88567054  0.69885872  0.94490690  1
  H  H46  1  0.38567054  0.80114128  0.44490690  1
  H  H47  1  0.88567054  0.19885872  0.55509310  1
  H  H48  1  0.42737078  0.27954917  0.30993865  1
  H  H49  1  0.92737078  0.72045083  0.69006135  1
  H  H50  1  0.42737078  0.77954917  0.19006135  1
  H  H51  1  0.92737078  0.22045083  0.80993865  1
  H  H52  1  0.47309395  0.06314749  0.61117641  1
  H  H53  1  0.97309395  0.93685251  0.38882359  1
  H  H54  1  0.47309395  0.56314749  0.88882359  1
  H  H55  1  0.97309395  0.43685251  0.11117641  1
  H  H56  1  0.64636873  0.10325605  0.15125763  1
  H  H57  1  0.14636873  0.89674395  0.84874237  1
  H  H58  1  0.64636873  0.60325605  0.34874237  1
  H  H59  1  0.14636873  0.39674395  0.65125763  1
  H  H60  1  0.24856991  0.09705135  0.39307549  1
  H  H61  1  0.74856991  0.90294865  0.60692451  1
  H  H62  1  0.24856991  0.59705135  0.10692451  1
  H  H63  1  0.74856991  0.40294865  0.89307549  1
  C  C64  1  0.61414782  0.23505092  0.26574193  1
  C  C65  1  0.11414782  0.76494908  0.73425807  1
  C  C66  1  0.61414782  0.73505092  0.23425807  1
  C  C67  1  0.11414782  0.26494908  0.76574193  1
  C  C68  1  0.37577204  0.48694419  0.01861531  1
  C  C69  1  0.87577204  0.51305581  0.98138469  1
  C  C70  1  0.37577204  0.98694419  0.48138469  1
  C  C71  1  0.87577204  0.01305581  0.51861531  1
  N  N72  1  0.41295573  0.07884210  0.54785184  1
  N  N73  1  0.91295573  0.92115790  0.45214816  1
  N  N74  1  0.41295573  0.57884210  0.95214816  1
  N  N75  1  0.91295573  0.42115790  0.04785184  1
  N  N76  1  0.29583752  0.01284032  0.40058879  1
  N  N77  1  0.79583752  0.98715968  0.59941121  1
  N  N78  1  0.29583752  0.51284032  0.09941121  1
  N  N79  1  0.79583752  0.48715968  0.90058879  1
  N  N80  1  0.52365264  0.29584451  0.32266895  1
  N  N81  1  0.02365264  0.70415549  0.67733105  1
  N  N82  1  0.52365264  0.79584451  0.17733105  1
  N  N83  1  0.02365264  0.20415549  0.82266895  1
  N  N84  1  0.57800177  0.14559790  0.19712988  1
  N  N85  1  0.07800177  0.85440210  0.80287012  1
  N  N86  1  0.57800177  0.64559790  0.30287012  1
  N  N87  1  0.07800177  0.35440210  0.69712988  1
  N  N88  1  0.74034146  0.26374111  0.27876289  1
  N  N89  1  0.24034146  0.73625889  0.72123711  1
  N  N90  1  0.74034146  0.76374111  0.22123711  1
  N  N91  1  0.24034146  0.23625889  0.77876289  1
  N  N92  1  0.41915713  0.36934807  0.00554204  1
  N  N93  1  0.91915713  0.63065193  0.99445796  1
  N  N94  1  0.41915713  0.86934807  0.49445796  1
  N  N95  1  0.91915713  0.13065193  0.50554204  1
  O  O96  1  0.12600933  0.03350348  0.00799321  1
  O  O97  1  0.62600933  0.96649652  0.99200679  1
  O  O98  1  0.12600933  0.53350348  0.49200679  1
  O  O99  1  0.62600933  0.46649652  0.50799321  1
  O  O100  1  0.00116478  0.18531446  0.19998201  1
  O  O101  1  0.50116478  0.81468554  0.80001799  1
  O  O102  1  0.00116478  0.68531446  0.30001799  1
  O  O103  1  0.50116478  0.31468554  0.69998201  1
  O  O104  1  0.28172606  0.34604734  0.47572536  1
  O  O105  1  0.78172606  0.65395266  0.52427464  1
  O  O106  1  0.28172606  0.84604734  0.02427464  1
  O  O107  1  0.78172606  0.15395266  0.97572536  1
  O  O108  1  0.33539111  0.05214937  0.11598441  1
  O  O109  1  0.83539111  0.94785063  0.88401559  1
  O  O110  1  0.33539111  0.55214937  0.38401559  1
  O  O111  1  0.83539111  0.44785063  0.61598441  1
  O  O112  1  0.11857354  0.22450659  0.37341379  1
  O  O113  1  0.61857354  0.77549341  0.62658621  1
  O  O114  1  0.11857354  0.72450659  0.12658621  1
  O  O115  1  0.61857354  0.27549341  0.87341379  1
  O  O116  1  0.23967957  0.26910990  0.19977698  1
  O  O117  1  0.73967957  0.73089010  0.80022302  1
  O  O118  1  0.23967957  0.76910990  0.30022302  1
  O  O119  1  0.73967957  0.23089010  0.69977698  1
  O  O120  1  0.05736892  0.40625083  0.24986749  1
  O  O121  1  0.55736892  0.59374917  0.75013251  1
  O  O122  1  0.05736892  0.90625083  0.25013251  1
  O  O123  1  0.55736892  0.09374917  0.74986749  1
  O  O124  1  0.33638854  0.52914523  0.59013670  1
  O  O125  1  0.83638854  0.47085477  0.40986330  1
  O  O126  1  0.33638854  0.02914523  0.90986330  1
  O  O127  1  0.83638854  0.97085477  0.09013670  1
