# generated using pymatgen
data_Tl2Ni(CN)4
_symmetry_space_group_name_H-M   'P 1'
_cell_length_a   6.31324222
_cell_length_b   7.38498637
_cell_length_c   9.48205380
_cell_angle_alpha   90.00000000
_cell_angle_beta   105.70701362
_cell_angle_gamma   90.00000000
_symmetry_Int_Tables_number   1
_chemical_formula_structural   Tl2Ni(CN)4
_chemical_formula_sum   'Tl4 Ni2 C8 N8'
_cell_volume   425.57574413
_cell_formula_units_Z   2
loop_
 _symmetry_equiv_pos_site_id
 _symmetry_equiv_pos_as_xyz
  1  'x, y, z'
loop_
 _atom_site_type_symbol
 _atom_site_label
 _atom_site_symmetry_multiplicity
 _atom_site_fract_x
 _atom_site_fract_y
 _atom_site_fract_z
 _atom_site_occupancy
  Tl  Tl0  1  0.72228632  0.34729738  0.42021305  1
  Tl  Tl1  1  0.22228632  0.15270262  0.92021305  1
  Tl  Tl2  1  0.77771368  0.84729738  0.07978695  1
  Tl  Tl3  1  0.27771368  0.65270262  0.57978695  1
  Ni  Ni4  1  0.00000000  0.50000000  0.00000000  1
  Ni  Ni5  1  0.50000000  0.00000000  0.50000000  1
  C  C6  1  0.30968424  0.15418676  0.55905696  1
  C  C7  1  0.18335231  0.50110871  0.18837981  1
  C  C8  1  0.81664769  0.49889129  0.81162019  1
  C  C9  1  0.69031576  0.84581324  0.44094304  1
  C  C10  1  0.31664769  1.00110871  0.31162019  1
  C  C11  1  0.19031576  0.65418676  0.94094304  1
  C  C12  1  0.68335231  -0.00110871  0.68837981  1
  C  C13  1  0.80968424  0.34581324  0.05905696  1
  N  N14  1  0.70068129  0.49822958  0.69150179  1
  N  N15  1  0.80844085  0.74516656  0.40247004  1
  N  N16  1  0.29931871  0.50177042  0.30849821  1
  N  N17  1  0.79931871  0.99822958  0.80849821  1
  N  N18  1  0.30844085  0.75483344  0.90247004  1
  N  N19  1  0.20068129  0.00177042  0.19150179  1
  N  N20  1  0.69155915  0.24516656  0.09752996  1
  N  N21  1  0.19155915  0.25483344  0.59752996  1
