# generated using pymatgen
data_HfAsPd
_symmetry_space_group_name_H-M   'P 1'
_cell_length_a   3.96172329
_cell_length_b   6.74003661
_cell_length_c   6.74003661
_cell_angle_alpha   119.99999759
_cell_angle_beta   90.00000000
_cell_angle_gamma   90.00000000
_symmetry_Int_Tables_number   1
_chemical_formula_structural   HfAsPd
_chemical_formula_sum   'Hf3 As3 Pd3'
_cell_volume   155.86165823
_cell_formula_units_Z   3
loop_
 _symmetry_equiv_pos_site_id
 _symmetry_equiv_pos_as_xyz
  1  'x, y, z'
loop_
 _atom_site_type_symbol
 _atom_site_label
 _atom_site_symmetry_multiplicity
 _atom_site_fract_x
 _atom_site_fract_y
 _atom_site_fract_z
 _atom_site_occupancy
  Hf  Hf0  1  -0.00000000  0.40454872  0.40454872  1
  Hf  Hf1  1  0.00000000  1.00000000  0.59545128  1
  Hf  Hf2  1  0.00000000  0.59545128  1.00000000  1
  As  As3  1  0.50000000  0.66666700  0.33333300  1
  As  As4  1  0.50000000  0.33333300  0.66666700  1
  As  As5  1  0.00000000  -0.00000000  -0.00000000  1
  Pd  Pd6  1  0.50000000  0.73607350  0.73607350  1
  Pd  Pd7  1  0.50000000  0.00000000  0.26392650  1
  Pd  Pd8  1  0.50000000  0.26392650  0.00000000  1
