# generated using pymatgen
data_TlCSN
_symmetry_space_group_name_H-M   'P 1'
_cell_length_a   6.89400056
_cell_length_b   6.80142343
_cell_length_c   7.85072202
_cell_angle_alpha   90.00000000
_cell_angle_beta   90.00000000
_cell_angle_gamma   90.00000000
_symmetry_Int_Tables_number   1
_chemical_formula_structural   TlCSN
_chemical_formula_sum   'Tl4 C4 S4 N4'
_cell_volume   368.11263775
_cell_formula_units_Z   4
loop_
 _symmetry_equiv_pos_site_id
 _symmetry_equiv_pos_as_xyz
  1  'x, y, z'
loop_
 _atom_site_type_symbol
 _atom_site_label
 _atom_site_symmetry_multiplicity
 _atom_site_fract_x
 _atom_site_fract_y
 _atom_site_fract_z
 _atom_site_occupancy
  Tl  Tl0  1  0.71018626  0.25000000  0.00000000  1
  Tl  Tl1  1  0.28981374  0.75000000  0.00000000  1
  Tl  Tl2  1  0.28981374  0.75000000  0.50000000  1
  Tl  Tl3  1  0.71018626  0.25000000  0.50000000  1
  C  C4  1  0.26730430  0.21443409  0.25000000  1
  C  C5  1  0.73269570  0.78556591  0.75000000  1
  C  C6  1  0.73269570  0.71443409  0.25000000  1
  C  C7  1  0.26730430  0.28556591  0.75000000  1
  S  S8  1  0.10572743  0.38974799  0.25000000  1
  S  S9  1  0.89427257  0.61025201  0.75000000  1
  S  S10  1  0.89427257  0.88974799  0.25000000  1
  S  S11  1  0.10572743  0.11025201  0.75000000  1
  N  N12  1  0.38545264  0.08600147  0.25000000  1
  N  N13  1  0.61454736  0.91399853  0.75000000  1
  N  N14  1  0.61454736  0.58600147  0.25000000  1
  N  N15  1  0.38545264  0.41399853  0.75000000  1
