# generated using pymatgen
data_KUVIO10
_symmetry_space_group_name_H-M   'P 1'
_cell_length_a   5.03613749
_cell_length_b   10.15168027
_cell_length_c   17.30065812
_cell_angle_alpha   90.00000000
_cell_angle_beta   90.00000000
_cell_angle_gamma   90.00000000
_symmetry_Int_Tables_number   1
_chemical_formula_structural   KUVIO10
_chemical_formula_sum   'K4 U4 V4 I4 O40'
_cell_volume   884.50060293
_cell_formula_units_Z   4
loop_
 _symmetry_equiv_pos_site_id
 _symmetry_equiv_pos_as_xyz
  1  'x, y, z'
loop_
 _atom_site_type_symbol
 _atom_site_label
 _atom_site_symmetry_multiplicity
 _atom_site_fract_x
 _atom_site_fract_y
 _atom_site_fract_z
 _atom_site_occupancy
  K  K0  1  0.68961461  0.27259155  0.39809391  1
  K  K1  1  0.68961461  0.72740845  0.60190609  1
  K  K2  1  0.68961461  0.22740845  0.89809391  1
  K  K3  1  0.68961461  0.77259155  0.10190609  1
  U  U4  1  0.25358697  0.58696316  0.26553353  1
  U  U5  1  0.25358697  0.41303684  0.73446647  1
  U  U6  1  0.25358697  0.91303684  0.76553353  1
  U  U7  1  0.25358697  0.08696316  0.23446647  1
  V  V8  1  0.24625561  0.35843451  0.05635112  1
  V  V9  1  0.24625561  0.64156549  0.94364888  1
  V  V10  1  0.24625561  0.14156549  0.55635112  1
  V  V11  1  0.24625561  0.85843451  0.44364888  1
  I  I12  1  0.75955948  0.35236621  0.16596244  1
  I  I13  1  0.75955948  0.64763379  0.83403756  1
  I  I14  1  0.75955948  0.14763379  0.66596244  1
  I  I15  1  0.75955948  0.85236621  0.33403756  1
  O  O16  1  0.06659684  0.24275440  0.14656243  1
  O  O17  1  0.06659684  0.75724560  0.85343757  1
  O  O18  1  0.06659684  0.25724560  0.64656243  1
  O  O19  1  0.06659684  0.74275440  0.35343757  1
  O  O20  1  0.56737539  0.27247080  0.07917474  1
  O  O21  1  0.56737539  0.72752920  0.92082526  1
  O  O22  1  0.56737539  0.22752920  0.57917474  1
  O  O23  1  0.56737539  0.77247080  0.42082526  1
  O  O24  1  0.35583057  0.50000000  -0.00000000  1
  O  O25  1  0.35583057  0.00000000  0.50000000  1
  O  O26  1  0.91667860  0.43975508  0.24950248  1
  O  O27  1  0.91667860  0.56024492  0.75049752  1
  O  O28  1  0.91667860  0.06024492  0.74950248  1
  O  O29  1  0.91667860  0.93975508  0.25049752  1
  O  O30  1  0.61850042  0.22381105  0.23143994  1
  O  O31  1  0.61850042  0.77618895  0.76856006  1
  O  O32  1  0.61850042  0.27618895  0.73143994  1
  O  O33  1  0.61850042  0.72381105  0.26856006  1
  O  O34  1  0.46130126  0.46533494  0.16831243  1
  O  O35  1  0.46130126  0.53466506  0.83168757  1
  O  O36  1  0.46130126  0.03466506  0.66831243  1
  O  O37  1  0.46130126  0.96533494  0.33168757  1
  O  O38  1  0.93889491  0.45785946  0.09128693  1
  O  O39  1  0.93889491  0.54214054  0.90871307  1
  O  O40  1  0.93889491  0.04214054  0.59128693  1
  O  O41  1  0.93889491  0.95785946  0.40871307  1
  O  O42  1  0.14502425  0.25963107  0.98829541  1
  O  O43  1  0.14502425  0.74036893  0.01170459  1
  O  O44  1  0.14502425  0.24036893  0.48829541  1
  O  O45  1  0.14502425  0.75963107  0.51170459  1
  O  O46  1  0.14374661  0.68606176  0.18453854  1
  O  O47  1  0.14374661  0.31393824  0.81546146  1
  O  O48  1  0.14374661  0.81393824  0.68453854  1
  O  O49  1  0.14374661  0.18606176  0.31546146  1
  O  O50  1  0.36898666  0.48948757  0.34665564  1
  O  O51  1  0.36898666  0.51051243  0.65334436  1
  O  O52  1  0.36898666  0.01051243  0.84665564  1
  O  O53  1  0.36898666  0.98948757  0.15334436  1
  O  O54  1  0.80522623  0.50000000  0.50000000  1
  O  O55  1  0.80522623  0.00000000  -0.00000000  1
