# generated using pymatgen
data_Na5Sr2B10(CO13)2
_symmetry_space_group_name_H-M   'P 1'
_cell_length_a   6.64612587
_cell_length_b   6.64612587
_cell_length_c   27.29151752
_cell_angle_alpha   86.10813466
_cell_angle_beta   86.10813466
_cell_angle_gamma   59.85105856
_symmetry_Int_Tables_number   1
_chemical_formula_structural   Na5Sr2B10(CO13)2
_chemical_formula_sum   'Na10 Sr4 B20 C4 O52'
_cell_volume   1039.21584924
_cell_formula_units_Z   2
loop_
 _symmetry_equiv_pos_site_id
 _symmetry_equiv_pos_as_xyz
  1  'x, y, z'
loop_
 _atom_site_type_symbol
 _atom_site_label
 _atom_site_symmetry_multiplicity
 _atom_site_fract_x
 _atom_site_fract_y
 _atom_site_fract_z
 _atom_site_occupancy
  Na  Na0  1  0.29775547  0.70224453  0.75000000  1
  Na  Na1  1  0.70224453  0.29775547  0.25000000  1
  Na  Na2  1  0.27760145  0.26196269  0.56946558  1
  Na  Na3  1  0.72239855  0.73803731  0.43053442  1
  Na  Na4  1  0.73803731  0.72239855  0.93053442  1
  Na  Na5  1  0.26196269  0.27760145  0.06946558  1
  Na  Na6  1  0.72788089  0.21947363  0.94951526  1
  Na  Na7  1  0.27211911  0.78052637  0.05048474  1
  Na  Na8  1  0.78052637  0.27211911  0.55048474  1
  Na  Na9  1  0.21947363  0.72788089  0.44951526  1
  Sr  Sr10  1  0.69471608  0.84044359  0.66471005  1
  Sr  Sr11  1  0.30528392  0.15955641  0.33528995  1
  Sr  Sr12  1  0.15955641  0.30528392  0.83528995  1
  Sr  Sr13  1  0.84044359  0.69471608  0.16471005  1
  B  B14  1  0.12246386  0.94126592  0.65306097  1
  B  B15  1  0.87753614  0.05873408  0.34693903  1
  B  B16  1  0.05873408  0.87753614  0.84693903  1
  B  B17  1  0.94126592  0.12246386  0.15306097  1
  B  B18  1  0.49313842  0.65075113  0.84894959  1
  B  B19  1  0.50686158  0.34924887  0.15105041  1
  B  B20  1  0.34924887  0.50686158  0.65105041  1
  B  B21  1  0.65075113  0.49313842  0.34894959  1
  B  B22  1  0.66800744  0.21921606  0.82709940  1
  B  B23  1  0.33199256  0.78078394  0.17290060  1
  B  B24  1  0.78078394  0.33199256  0.67290060  1
  B  B25  1  0.21921606  0.66800744  0.32709940  1
  B  B26  1  0.31907227  0.74242022  0.57398991  1
  B  B27  1  0.68092773  0.25757978  0.42601009  1
  B  B28  1  0.25757978  0.68092773  0.92601009  1
  B  B29  1  0.74242022  0.31907227  0.07398991  1
  B  B30  1  0.75391601  0.81767026  0.80627145  1
  B  B31  1  0.24608399  0.18232974  0.19372855  1
  B  B32  1  0.18232974  0.24608399  0.69372855  1
  B  B33  1  0.81767026  0.75391601  0.30627145  1
  C  C34  1  0.23776780  0.19750798  0.94904315  1
  C  C35  1  0.76223220  0.80249202  0.05095685  1
  C  C36  1  0.80249202  0.76223220  0.55095685  1
  C  C37  1  0.19750798  0.23776780  0.44904315  1
  O  O38  1  0.88430592  0.13425053  0.84544989  1
  O  O39  1  0.11569408  0.86574947  0.15455011  1
  O  O40  1  0.86574947  0.11569408  0.65455011  1
  O  O41  1  0.13425053  0.88430592  0.34544989  1
  O  O42  1  0.35276580  0.75653094  0.52446022  1
  O  O43  1  0.64723420  0.24346906  0.47553978  1
  O  O44  1  0.24346906  0.64723420  0.97553978  1
  O  O45  1  0.75653094  0.35276580  0.02446022  1
  O  O46  1  0.31364407  0.03371404  0.43147231  1
  O  O47  1  0.68635593  0.96628596  0.56852769  1
  O  O48  1  0.96628596  0.68635593  0.06852769  1
  O  O49  1  0.03371404  0.31364407  0.93147231  1
  O  O50  1  0.41989722  0.14824673  0.92133233  1
  O  O51  1  0.58010278  0.85175327  0.07866767  1
  O  O52  1  0.85175327  0.58010278  0.57866767  1
  O  O53  1  0.14824673  0.41989722  0.42133233  1
  O  O54  1  0.50477072  0.44987164  0.82344382  1
  O  O55  1  0.49522928  0.55012836  0.17655618  1
  O  O56  1  0.55012836  0.49522928  0.67655618  1
  O  O57  1  0.44987164  0.50477072  0.32344382  1
  O  O58  1  0.33961949  0.29228109  0.66059752  1
  O  O59  1  0.66038051  0.70771891  0.33940248  1
  O  O60  1  0.70771891  0.66038051  0.83940248  1
  O  O61  1  0.29228109  0.33961949  0.16059752  1
  O  O62  1  0.59454792  0.06919189  0.81374084  1
  O  O63  1  0.40545208  0.93080811  0.18625916  1
  O  O64  1  0.93080811  0.40545208  0.68625916  1
  O  O65  1  0.06919189  0.59454792  0.31374084  1
  O  O66  1  0.70946281  0.79593872  0.75632110  1
  O  O67  1  0.29053719  0.20406128  0.24367890  1
  O  O68  1  0.20406128  0.29053719  0.74367890  1
  O  O69  1  0.79593872  0.70946281  0.25632110  1
  O  O70  1  0.47679356  0.60660429  0.90374508  1
  O  O71  1  0.52320644  0.39339571  0.09625492  1
  O  O72  1  0.39339571  0.52320644  0.59625492  1
  O  O73  1  0.60660429  0.47679356  0.40374508  1
  O  O74  1  0.24506655  0.00194669  0.68678979  1
  O  O75  1  0.75493345  0.99805331  0.31321021  1
  O  O76  1  0.99805331  0.75493345  0.81321021  1
  O  O77  1  0.00194669  0.24506655  0.18678979  1
  O  O78  1  0.21543728  0.94396903  0.60099214  1
  O  O79  1  0.78456272  0.05603097  0.39900786  1
  O  O80  1  0.05603097  0.78456272  0.89900786  1
  O  O81  1  0.94396903  0.21543728  0.10099214  1
  O  O82  1  0.25983529  0.12448360  0.99441121  1
  O  O83  1  0.74016471  0.87551640  0.00558879  1
  O  O84  1  0.87551640  0.74016471  0.50558879  1
  O  O85  1  0.12448360  0.25983529  0.49441121  1
  O  O86  1  0.28293107  0.86024727  0.83319971  1
  O  O87  1  0.71706893  0.13975273  0.16680029  1
  O  O88  1  0.13975273  0.71706893  0.66680029  1
  O  O89  1  0.86024727  0.28293107  0.33319971  1
