# generated using pymatgen
data_KTmI3
_symmetry_space_group_name_H-M   'P 1'
_cell_length_a   4.28478292
_cell_length_b   8.11373514
_cell_length_c   11.53898694
_cell_angle_alpha   90.00000000
_cell_angle_beta   90.00000000
_cell_angle_gamma   105.31021622
_symmetry_Int_Tables_number   1
_chemical_formula_structural   KTmI3
_chemical_formula_sum   'K2 Tm2 I6'
_cell_volume   386.92271470
_cell_formula_units_Z   2
loop_
 _symmetry_equiv_pos_site_id
 _symmetry_equiv_pos_as_xyz
  1  'x, y, z'
loop_
 _atom_site_type_symbol
 _atom_site_label
 _atom_site_symmetry_multiplicity
 _atom_site_fract_x
 _atom_site_fract_y
 _atom_site_fract_z
 _atom_site_occupancy
  K  K0  1  0.24893863  0.49787726  0.75000000  1
  K  K1  1  0.75106137  0.50212274  0.25000000  1
  Tm  Tm2  1  0.00000000  0.00000000  0.00000000  1
  Tm  Tm3  1  0.00000000  0.00000000  0.50000000  1
  I  I4  1  0.36625508  0.73251016  0.44604370  1
  I  I5  1  0.36625508  0.73251016  0.05395630  1
  I  I6  1  0.63374492  0.26748984  0.55395630  1
  I  I7  1  0.63374492  0.26748984  0.94604370  1
  I  I8  1  0.93351222  0.86702445  0.75000000  1
  I  I9  1  0.06648778  0.13297555  0.25000000  1
