# generated using pymatgen
data_Re3S4Br3
_symmetry_space_group_name_H-M   'P 1'
_cell_length_a   9.25046549
_cell_length_b   9.23397860
_cell_length_c   12.99224142
_cell_angle_alpha   83.23072009
_cell_angle_beta   83.29417884
_cell_angle_gamma   82.66387959
_symmetry_Int_Tables_number   1
_chemical_formula_structural   Re3S4Br3
_chemical_formula_sum   'Re12 S16 Br12'
_cell_volume   1087.17633022
_cell_formula_units_Z   4
loop_
 _symmetry_equiv_pos_site_id
 _symmetry_equiv_pos_as_xyz
  1  'x, y, z'
loop_
 _atom_site_type_symbol
 _atom_site_label
 _atom_site_symmetry_multiplicity
 _atom_site_fract_x
 _atom_site_fract_y
 _atom_site_fract_z
 _atom_site_occupancy
  Re  Re0  1  0.52746079  0.30576271  0.05611302  1
  Re  Re1  1  0.47253921  0.69423729  0.94388698  1
  Re  Re2  1  0.31148041  0.52075787  0.06799298  1
  Re  Re3  1  0.68851959  0.47924213  0.93200702  1
  Re  Re4  1  0.57712914  0.55921944  0.11890211  1
  Re  Re5  1  0.42287086  0.44078056  0.88109789  1
  Re  Re6  1  0.80913834  0.11309534  0.50021486  1
  Re  Re7  1  0.19086166  0.88690466  0.49978514  1
  Re  Re8  1  0.08543988  0.16993664  0.49172630  1
  Re  Re9  1  0.91456012  0.83006336  0.50827370  1
  Re  Re10  1  0.01364747  0.01179060  0.35385322  1
  Re  Re11  1  0.98635253  0.98820940  0.64614678  1
  S  S12  1  0.42063898  0.39874760  0.22017298  1
  S  S13  1  0.57936102  0.60125240  0.77982702  1
  S  S14  1  0.23818703  0.04328794  0.62372168  1
  S  S15  1  0.76181297  0.95671206  0.37627832  1
  S  S16  1  0.76697305  0.36206456  0.09618694  1
  S  S17  1  0.23302695  0.63793544  0.90381306  1
  S  S18  1  0.07706032  0.73027491  0.63877574  1
  S  S19  1  0.92293968  0.26972509  0.36122426  1
  S  S20  1  0.10686132  0.75320551  0.37473959  1
  S  S21  1  0.89313868  0.24679449  0.62526041  1
  S  S22  1  0.37364748  0.75150089  0.11621658  1
  S  S23  1  0.62635252  0.24849911  0.88378342  1
  S  S24  1  0.26319146  0.06516319  0.35998289  1
  S  S25  1  0.73680854  0.93483681  0.64001711  1
  S  S26  1  0.28717606  0.28424887  0.01120823  1
  S  S27  1  0.71282394  0.71575113  0.98879177  1
  Br  Br28  1  0.31965192  0.35589966  0.73274335  1
  Br  Br29  1  0.68034808  0.64410034  0.26725665  1
  Br  Br30  1  0.03153521  0.02369157  0.15887918  1
  Br  Br31  1  0.96846479  0.97630843  0.84112082  1
  Br  Br32  1  0.20437865  0.40349892  0.48286874  1
  Br  Br33  1  0.79562135  0.59650108  0.51713126  1
  Br  Br34  1  0.57521266  0.04425834  0.13650632  1
  Br  Br35  1  0.42478734  0.95574166  0.86349368  1
  Br  Br36  1  0.05393366  0.55252387  0.15638331  1
  Br  Br37  1  0.94606634  0.44747613  0.84361669  1
  Br  Br38  1  0.56487995  0.26499860  0.49713379  1
  Br  Br39  1  0.43512005  0.73500140  0.50286621  1
