# generated using pymatgen
data_Nd3Co6Sn5
_symmetry_space_group_name_H-M   'P 1'
_cell_length_a   4.35826534
_cell_length_b   8.25966030
_cell_length_c   8.25966030
_cell_angle_alpha   73.10734710
_cell_angle_beta   74.70265073
_cell_angle_gamma   74.70265073
_symmetry_Int_Tables_number   1
_chemical_formula_structural   Nd3Co6Sn5
_chemical_formula_sum   'Nd3 Co6 Sn5'
_cell_volume   268.71821247
_cell_formula_units_Z   1
loop_
 _symmetry_equiv_pos_site_id
 _symmetry_equiv_pos_as_xyz
  1  'x, y, z'
loop_
 _atom_site_type_symbol
 _atom_site_label
 _atom_site_symmetry_multiplicity
 _atom_site_fract_x
 _atom_site_fract_y
 _atom_site_fract_z
 _atom_site_occupancy
  Nd  Nd0  1  0.00000000  -0.00000000  -0.00000000  1
  Nd  Nd1  1  0.68332659  0.31667341  0.31667341  1
  Nd  Nd2  1  0.31667341  0.68332659  0.68332659  1
  Co  Co3  1  0.50000000  0.29983569  0.70016431  1
  Co  Co4  1  0.50000000  0.70016431  0.29983569  1
  Co  Co5  1  0.89334557  0.83210725  0.38120162  1
  Co  Co6  1  0.10665443  0.16789275  0.61879838  1
  Co  Co7  1  0.89334557  0.38120162  0.83210725  1
  Co  Co8  1  0.10665443  0.61879838  0.16789275  1
  Sn  Sn9  1  0.67570683  0.98615391  0.66243243  1
  Sn  Sn10  1  0.32429317  0.01384609  0.33756757  1
  Sn  Sn11  1  0.67570683  0.66243243  0.98615391  1
  Sn  Sn12  1  0.32429317  0.33756757  0.01384609  1
  Sn  Sn13  1  0.00000000  0.50000000  0.50000000  1
