# generated using pymatgen
data_Tb2Al5Ge2
_symmetry_space_group_name_H-M   'P 1'
_cell_length_a   5.76348009
_cell_length_b   8.03839839
_cell_length_c   8.25473973
_cell_angle_alpha   90.00000000
_cell_angle_beta   110.43235028
_cell_angle_gamma   90.00000000
_symmetry_Int_Tables_number   1
_chemical_formula_structural   Tb2Al5Ge2
_chemical_formula_sum   'Tb4 Al10 Ge4'
_cell_volume   358.37417662
_cell_formula_units_Z   2
loop_
 _symmetry_equiv_pos_site_id
 _symmetry_equiv_pos_as_xyz
  1  'x, y, z'
loop_
 _atom_site_type_symbol
 _atom_site_label
 _atom_site_symmetry_multiplicity
 _atom_site_fract_x
 _atom_site_fract_y
 _atom_site_fract_z
 _atom_site_occupancy
  Tb  Tb0  1  0.88245376  0.41897190  0.76490751  1
  Tb  Tb1  1  0.11754624  0.58102810  0.23509249  1
  Tb  Tb2  1  0.61754624  0.91897190  0.23509249  1
  Tb  Tb3  1  0.38245376  0.08102810  0.76490751  1
  Al  Al4  1  0.79725932  0.25000000  0.09451864  1
  Al  Al5  1  0.20274068  0.75000000  0.90548136  1
  Al  Al6  1  0.70274068  0.75000000  0.90548136  1
  Al  Al7  1  0.29725932  0.25000000  0.09451864  1
  Al  Al8  1  -0.00000000  0.00000000  -0.00000000  1
  Al  Al9  1  0.50000000  0.50000000  -0.00000000  1
  Al  Al10  1  0.96632915  0.25000000  0.43265831  1
  Al  Al11  1  0.03367085  0.75000000  0.56734169  1
  Al  Al12  1  0.53367085  0.75000000  0.56734169  1
  Al  Al13  1  0.46632915  0.25000000  0.43265831  1
  Ge  Ge14  1  0.81844910  0.04830120  0.63689820  1
  Ge  Ge15  1  0.18155090  0.95169880  0.36310180  1
  Ge  Ge16  1  0.68155090  0.54830120  0.36310180  1
  Ge  Ge17  1  0.31844910  0.45169880  0.63689820  1
