# generated using pymatgen
data_Nb3Pb2(O2F)4
_symmetry_space_group_name_H-M   'P 1'
_cell_length_a   3.93347716
_cell_length_b   3.93347716
_cell_length_c   16.81909478
_cell_angle_alpha   96.71523601
_cell_angle_beta   96.71523601
_cell_angle_gamma   90.00000000
_symmetry_Int_Tables_number   1
_chemical_formula_structural   Nb3Pb2(O2F)4
_chemical_formula_sum   'Nb3 Pb2 O8 F4'
_cell_volume   256.64613877
_cell_formula_units_Z   1
loop_
 _symmetry_equiv_pos_site_id
 _symmetry_equiv_pos_as_xyz
  1  'x, y, z'
loop_
 _atom_site_type_symbol
 _atom_site_label
 _atom_site_symmetry_multiplicity
 _atom_site_fract_x
 _atom_site_fract_y
 _atom_site_fract_z
 _atom_site_occupancy
  Nb  Nb0  1  0.11737755  0.11737755  0.23475511  1
  Nb  Nb1  1  0.88262245  0.88262245  0.76524489  1
  Nb  Nb2  1  0.00000000  0.00000000  0.00000000  1
  Pb  Pb3  1  0.29746343  0.29746343  0.59492687  1
  Pb  Pb4  1  0.70253657  0.70253657  0.40507313  1
  O  O5  1  0.12852303  0.62852303  0.25704606  1
  O  O6  1  0.87147697  0.37147697  0.74295394  1
  O  O7  1  0.62852303  0.12852303  0.25704606  1
  O  O8  1  0.37147697  0.87147697  0.74295394  1
  O  O9  1  0.00000000  0.50000000  0.00000000  1
  O  O10  1  0.50000000  0.00000000  0.00000000  1
  O  O11  1  0.06142814  0.06142814  0.12285629  1
  O  O12  1  0.93857186  0.93857186  0.87714371  1
  F  F13  1  0.18558955  0.18558955  0.37117909  1
  F  F14  1  0.81441045  0.81441045  0.62882091  1
  F  F15  1  0.25000000  0.75000000  0.50000000  1
  F  F16  1  0.75000000  0.25000000  0.50000000  1
