# generated using pymatgen
data_Pr3(Co2Sn)4
_symmetry_space_group_name_H-M   'P 1'
_cell_length_a   7.65575652
_cell_length_b   9.03845261
_cell_length_c   9.03845261
_cell_angle_alpha   119.99999363
_cell_angle_beta   90.00000000
_cell_angle_gamma   90.00000000
_symmetry_Int_Tables_number   1
_chemical_formula_structural   Pr3(Co2Sn)4
_chemical_formula_sum   'Pr6 Co16 Sn8'
_cell_volume   541.63527776
_cell_formula_units_Z   2
loop_
 _symmetry_equiv_pos_site_id
 _symmetry_equiv_pos_as_xyz
  1  'x, y, z'
loop_
 _atom_site_type_symbol
 _atom_site_label
 _atom_site_symmetry_multiplicity
 _atom_site_fract_x
 _atom_site_fract_y
 _atom_site_fract_z
 _atom_site_occupancy
  Pr  Pr0  1  0.78284842  0.47487566  0.94975133  1
  Pr  Pr1  1  0.78284842  0.47487566  0.52512434  1
  Pr  Pr2  1  0.28284842  0.52512434  0.05024867  1
  Pr  Pr3  1  0.78284842  0.05024867  0.52512434  1
  Pr  Pr4  1  0.28284842  0.52512434  0.47487566  1
  Pr  Pr5  1  0.28284842  0.94975133  0.47487566  1
  Co  Co6  1  0.61353986  0.66666700  0.33333300  1
  Co  Co7  1  0.11353986  0.33333300  0.66666700  1
  Co  Co8  1  0.75678656  0.09402260  0.18804519  1
  Co  Co9  1  0.75678656  0.09402260  0.90597740  1
  Co  Co10  1  0.25678656  0.90597740  0.81195481  1
  Co  Co11  1  0.75678656  0.81195481  0.90597740  1
  Co  Co12  1  0.25678656  0.90597740  0.09402260  1
  Co  Co13  1  0.25678656  0.18804519  0.09402260  1
  Co  Co14  1  0.94794286  0.84561944  0.69123887  1
  Co  Co15  1  0.94794286  0.84561944  0.15438056  1
  Co  Co16  1  0.44794286  0.15438056  0.30876113  1
  Co  Co17  1  0.94794286  0.30876113  0.15438056  1
  Co  Co18  1  0.44794286  0.15438056  0.84561944  1
  Co  Co19  1  0.44794286  0.69123887  0.84561944  1
  Co  Co20  1  0.00354133  -0.00000000  -0.00000000  1
  Co  Co21  1  0.50354133  -0.00000000  -0.00000000  1
  Sn  Sn22  1  0.96300928  0.66666700  0.33333300  1
  Sn  Sn23  1  0.46300928  0.33333300  0.66666700  1
  Sn  Sn24  1  0.57409200  0.83031508  0.66063016  1
  Sn  Sn25  1  0.57409200  0.83031508  0.16968492  1
  Sn  Sn26  1  0.07409200  0.16968492  0.33936984  1
  Sn  Sn27  1  0.57409200  0.33936984  0.16968492  1
  Sn  Sn28  1  0.07409200  0.16968492  0.83031508  1
  Sn  Sn29  1  0.07409200  0.66063016  0.83031508  1
