# generated using pymatgen
data_Mn8(Al9Zn)3
_symmetry_space_group_name_H-M   'P 1'
_cell_length_a   7.76513571
_cell_length_b   12.60187051
_cell_length_c   12.32002830
_cell_angle_alpha   90.00000000
_cell_angle_beta   90.00000000
_cell_angle_gamma   107.94443781
_symmetry_Int_Tables_number   1
_chemical_formula_structural   Mn8(Al9Zn)3
_chemical_formula_sum   'Mn16 Al54 Zn6'
_cell_volume   1146.93474566
_cell_formula_units_Z   2
loop_
 _symmetry_equiv_pos_site_id
 _symmetry_equiv_pos_as_xyz
  1  'x, y, z'
loop_
 _atom_site_type_symbol
 _atom_site_label
 _atom_site_symmetry_multiplicity
 _atom_site_fract_x
 _atom_site_fract_y
 _atom_site_fract_z
 _atom_site_occupancy
  Mn  Mn0  1  0.64071840  0.28143680  0.05058207  1
  Mn  Mn1  1  0.35928160  0.71856320  0.94941793  1
  Mn  Mn2  1  0.35928160  0.71856320  0.55058207  1
  Mn  Mn3  1  0.64071840  0.28143680  0.44941793  1
  Mn  Mn4  1  0.45860585  0.91721170  0.25000000  1
  Mn  Mn5  1  0.54139415  0.08278830  0.75000000  1
  Mn  Mn6  1  0.08596582  0.17193164  0.58694385  1
  Mn  Mn7  1  0.91403418  0.82806836  0.41305615  1
  Mn  Mn8  1  0.91403418  0.82806836  0.08694385  1
  Mn  Mn9  1  0.08596582  0.17193164  0.91305615  1
  Mn  Mn10  1  0.44541236  0.56552610  0.25000000  1
  Mn  Mn11  1  0.55458764  0.43447390  0.75000000  1
  Mn  Mn12  1  0.12011373  0.56552610  0.25000000  1
  Mn  Mn13  1  0.87988627  0.43447390  0.75000000  1
  Mn  Mn14  1  0.08236323  0.16472647  0.25000000  1
  Mn  Mn15  1  0.91763677  0.83527353  0.75000000  1
  Al  Al16  1  0.36157922  0.72315845  0.14915170  1
  Al  Al17  1  0.63842078  0.27684155  0.85084830  1
  Al  Al18  1  0.63842078  0.27684155  0.64915170  1
  Al  Al19  1  0.36157922  0.72315845  0.35084830  1
  Al  Al20  1  0.31708661  0.22048007  0.11579761  1
  Al  Al21  1  0.68291339  0.77951993  0.88420239  1
  Al  Al22  1  0.68291339  0.77951993  0.61579761  1
  Al  Al23  1  0.90339346  0.22048007  0.38420239  1
  Al  Al24  1  0.31708661  0.22048007  0.38420239  1
  Al  Al25  1  0.09660654  0.77951993  0.61579761  1
  Al  Al26  1  0.09660654  0.77951993  0.88420239  1
  Al  Al27  1  0.90339346  0.22048007  0.11579761  1
  Al  Al28  1  0.54062834  0.43664241  0.13161745  1
  Al  Al29  1  0.45937166  0.56335759  0.86838255  1
  Al  Al30  1  0.45937166  0.56335759  0.63161745  1
  Al  Al31  1  0.89601406  0.43664241  0.36838255  1
  Al  Al32  1  0.54062834  0.43664241  0.36838255  1
  Al  Al33  1  0.10398594  0.56335759  0.63161745  1
  Al  Al34  1  0.10398594  0.56335759  0.86838255  1
  Al  Al35  1  0.89601406  0.43664241  0.13161745  1
  Al  Al36  1  0.53987539  0.07975077  0.12448866  1
  Al  Al37  1  0.46012461  0.92024923  0.87551134  1
  Al  Al38  1  0.46012461  0.92024923  0.62448866  1
  Al  Al39  1  0.53987539  0.07975077  0.37551134  1
  Al  Al40  1  0.63578218  0.65403923  0.06764015  1
  Al  Al41  1  0.36421782  0.34596077  0.93235985  1
  Al  Al42  1  0.36421782  0.34596077  0.56764015  1
  Al  Al43  1  0.01825706  0.65403923  0.43235985  1
  Al  Al44  1  0.63578218  0.65403923  0.43235985  1
  Al  Al45  1  0.98174294  0.34596077  0.56764015  1
  Al  Al46  1  0.98174294  0.34596077  0.93235985  1
  Al  Al47  1  0.01825706  0.65403923  0.06764015  1
  Al  Al48  1  0.26107508  0.52215016  0.06288058  1
  Al  Al49  1  0.73892492  0.47784984  0.93711942  1
  Al  Al50  1  0.73892492  0.47784984  0.56288058  1
  Al  Al51  1  0.26107508  0.52215016  0.43711942  1
  Al  Al52  1  0.69117424  0.77804311  0.25000000  1
  Al  Al53  1  0.30882576  0.22195689  0.75000000  1
  Al  Al54  1  0.08686887  0.77804311  0.25000000  1
  Al  Al55  1  0.91313113  0.22195689  0.75000000  1
  Al  Al56  1  0.18729993  0.37459986  0.25000000  1
  Al  Al57  1  0.81270007  0.62540014  0.75000000  1
  Al  Al58  1  0.63017044  0.89180837  0.06499656  1
  Al  Al59  1  0.36982956  0.10819163  0.93500344  1
  Al  Al60  1  0.36982956  0.10819163  0.56499656  1
  Al  Al61  1  0.26163792  0.89180837  0.43500344  1
  Al  Al62  1  0.63017044  0.89180837  0.43500344  1
  Al  Al63  1  0.73836208  0.10819163  0.56499656  1
  Al  Al64  1  0.73836208  0.10819163  0.93500344  1
  Al  Al65  1  0.26163792  0.89180837  0.06499656  1
  Al  Al66  1  0.21668604  0.00956050  0.25000000  1
  Al  Al67  1  0.78331396  0.99043950  0.75000000  1
  Al  Al68  1  0.79287446  0.00956050  0.25000000  1
  Al  Al69  1  0.20712554  0.99043950  0.75000000  1
  Zn  Zn70  1  0.02247585  0.04495170  0.08474103  1
  Zn  Zn71  1  0.97752415  0.95504830  0.91525897  1
  Zn  Zn72  1  0.97752415  0.95504830  0.58474103  1
  Zn  Zn73  1  0.02247585  0.04495170  0.41525897  1
  Zn  Zn74  1  0.63736619  0.27473238  0.25000000  1
  Zn  Zn75  1  0.36263381  0.72526762  0.75000000  1
