# generated using pymatgen
data_Cu2(ReSe2)3
_symmetry_space_group_name_H-M   'P 1'
_cell_length_a   9.97100280
_cell_length_b   9.75120040
_cell_length_c   12.21419079
_cell_angle_alpha   94.72384221
_cell_angle_beta   89.99999982
_cell_angle_gamma   120.74849781
_symmetry_Int_Tables_number   1
_chemical_formula_structural   Cu2(ReSe2)3
_chemical_formula_sum   'Cu8 Re12 Se24'
_cell_volume   1015.93018822
_cell_formula_units_Z   4
loop_
 _symmetry_equiv_pos_site_id
 _symmetry_equiv_pos_as_xyz
  1  'x, y, z'
loop_
 _atom_site_type_symbol
 _atom_site_label
 _atom_site_symmetry_multiplicity
 _atom_site_fract_x
 _atom_site_fract_y
 _atom_site_fract_z
 _atom_site_occupancy
  Cu  Cu0  1  0.58383048  -0.00000000  0.75000000  1
  Cu  Cu1  1  0.41616952  0.00000000  0.25000000  1
  Cu  Cu2  1  0.67256398  0.79377568  0.59436208  1
  Cu  Cu3  1  0.32743602  0.20622432  0.40563792  1
  Cu  Cu4  1  0.87878830  0.20622432  0.90563792  1
  Cu  Cu5  1  0.12121170  0.79377568  0.09436208  1
  Cu  Cu6  1  0.84496254  0.00000000  0.75000000  1
  Cu  Cu7  1  0.15503746  1.00000000  0.25000000  1
  Re  Re8  1  0.48157406  0.59415707  0.87752123  1
  Re  Re9  1  0.51842594  0.40584293  0.12247877  1
  Re  Re10  1  0.88741699  0.40584293  0.62247877  1
  Re  Re11  1  0.11258301  0.59415707  0.37752123  1
  Re  Re12  1  0.59205372  0.40383697  0.91382844  1
  Re  Re13  1  0.40794628  0.59616303  0.08617156  1
  Re  Re14  1  0.18821675  0.59616303  0.58617156  1
  Re  Re15  1  0.81178325  0.40383697  0.41382844  1
  Re  Re16  1  0.30179523  0.32142951  0.96252428  1
  Re  Re17  1  0.69820477  0.67857049  0.03747572  1
  Re  Re18  1  0.98036572  0.67857049  0.53747572  1
  Re  Re19  1  0.01963428  0.32142951  0.46252428  1
  Se  Se20  1  0.38427413  0.32426781  0.76444651  1
  Se  Se21  1  0.61572587  0.67573219  0.23555349  1
  Se  Se22  1  0.06000632  0.67573219  0.73555349  1
  Se  Se23  1  0.93999368  0.32426781  0.26444651  1
  Se  Se24  1  0.45757568  0.72719104  0.70204774  1
  Se  Se25  1  0.54242432  0.27280896  0.29795226  1
  Se  Se26  1  0.73038465  0.27280896  0.79795226  1
  Se  Se27  1  0.26961535  0.72719104  0.20204774  1
  Se  Se28  1  0.75798489  0.67299483  0.83624967  1
  Se  Se29  1  0.24201511  0.32700517  0.16375033  1
  Se  Se30  1  0.08499006  0.32700517  0.66375033  1
  Se  Se31  1  0.91500994  0.67299483  0.33624967  1
  Se  Se32  1  0.58822066  0.85687339  0.00137690  1
  Se  Se33  1  0.41177934  0.14312661  0.99862310  1
  Se  Se34  1  0.73134727  0.14312661  0.49862310  1
  Se  Se35  1  0.26865273  0.85687339  0.50137690  1
  Se  Se36  1  0.69161246  0.48676288  0.56997783  1
  Se  Se37  1  0.30838754  0.51323712  0.43002217  1
  Se  Se38  1  0.20484959  0.51323712  0.93002217  1
  Se  Se39  1  0.79515041  0.48676288  0.06997783  1
  Se  Se40  1  0.02323085  0.08106670  0.91593580  1
  Se  Se41  1  0.97676915  0.91893330  0.08406420  1
  Se  Se42  1  0.94216414  0.91893330  0.58406420  1
  Se  Se43  1  0.05783586  0.08106670  0.41593580  1
