# generated using pymatgen
data_CrCu(WO4)2
_symmetry_space_group_name_H-M   'P 1'
_cell_length_a   5.05268358
_cell_length_b   7.41722289
_cell_length_c   7.41722289
_cell_angle_alpha   101.49249815
_cell_angle_beta   90.29580051
_cell_angle_gamma   90.29580051
_symmetry_Int_Tables_number   1
_chemical_formula_structural   CrCu(WO4)2
_chemical_formula_sum   'Cr2 Cu2 W4 O16'
_cell_volume   272.39214372
_cell_formula_units_Z   2
loop_
 _symmetry_equiv_pos_site_id
 _symmetry_equiv_pos_as_xyz
  1  'x, y, z'
loop_
 _atom_site_type_symbol
 _atom_site_label
 _atom_site_symmetry_multiplicity
 _atom_site_fract_x
 _atom_site_fract_y
 _atom_site_fract_z
 _atom_site_occupancy
  Cr  Cr0  1  0.75000000  0.82438367  0.17561633  1
  Cr  Cr1  1  0.25000000  0.17561633  0.82438367  1
  Cu  Cu2  1  0.75000000  0.33238479  0.66761521  1
  Cu  Cu3  1  0.25000000  0.66761521  0.33238479  1
  W  W4  1  0.74981294  0.33437146  0.16317268  1
  W  W5  1  0.25018706  0.66562854  0.83682732  1
  W  W6  1  0.75018706  0.83682732  0.66562854  1
  W  W7  1  0.24981294  0.16317268  0.33437146  1
  O  O8  1  0.41650577  0.70037506  0.06465016  1
  O  O9  1  0.58349423  0.29962494  0.93534984  1
  O  O10  1  0.08349423  0.93534984  0.29962494  1
  O  O11  1  0.91650577  0.06465016  0.70037506  1
  O  O12  1  0.92466633  0.80490796  0.92354022  1
  O  O13  1  0.07533367  0.19509204  0.07645978  1
  O  O14  1  0.57533367  0.07645978  0.19509204  1
  O  O15  1  0.42466633  0.92354022  0.80490796  1
  O  O16  1  0.88648007  0.56970666  0.18273471  1
  O  O17  1  0.11351993  0.43029334  0.81726529  1
  O  O18  1  0.61351993  0.81726529  0.43029334  1
  O  O19  1  0.38648007  0.18273471  0.56970666  1
  O  O20  1  0.56757726  0.59391470  0.69552730  1
  O  O21  1  0.43242274  0.40608530  0.30447270  1
  O  O22  1  0.93242274  0.30447270  0.40608530  1
  O  O23  1  0.06757726  0.69552730  0.59391470  1
