# generated using pymatgen
data_CaAl2F8
_symmetry_space_group_name_H-M   'P 1'
_cell_length_a   6.50078184
_cell_length_b   6.50078184
_cell_length_c   7.54932535
_cell_angle_alpha   91.08931550
_cell_angle_beta   91.08931550
_cell_angle_gamma   117.64199163
_symmetry_Int_Tables_number   1
_chemical_formula_structural   CaAl2F8
_chemical_formula_sum   'Ca2 Al4 F16'
_cell_volume   282.43159029
_cell_formula_units_Z   2
loop_
 _symmetry_equiv_pos_site_id
 _symmetry_equiv_pos_as_xyz
  1  'x, y, z'
loop_
 _atom_site_type_symbol
 _atom_site_label
 _atom_site_symmetry_multiplicity
 _atom_site_fract_x
 _atom_site_fract_y
 _atom_site_fract_z
 _atom_site_occupancy
  Ca  Ca0  1  0.53478829  0.46521171  0.75000000  1
  Ca  Ca1  1  0.46521171  0.53478829  0.25000000  1
  Al  Al2  1  0.86919262  0.13080738  0.75000000  1
  Al  Al3  1  0.13080738  0.86919262  0.25000000  1
  Al  Al4  1  0.50000000  -0.00000000  0.00000000  1
  Al  Al5  1  -0.00000000  0.50000000  0.50000000  1
  F  F6  1  0.77847986  0.83602638  0.71113884  1
  F  F7  1  0.22152014  0.16397362  0.28886116  1
  F  F8  1  0.16397362  0.22152014  0.78886116  1
  F  F9  1  0.83602638  0.77847986  0.21113884  1
  F  F10  1  0.54515482  0.06630780  0.75861153  1
  F  F11  1  0.45484518  0.93369220  0.24138847  1
  F  F12  1  0.93369220  0.45484518  0.74138847  1
  F  F13  1  0.06630780  0.54515482  0.25861153  1
  F  F14  1  0.18543499  0.88325418  0.01017768  1
  F  F15  1  0.81456501  0.11674582  0.98982232  1
  F  F16  1  0.11674582  0.81456501  0.48982232  1
  F  F17  1  0.88325418  0.18543499  0.51017768  1
  F  F18  1  0.45959188  0.70272446  0.96949971  1
  F  F19  1  0.54040812  0.29727554  0.03050029  1
  F  F20  1  0.29727554  0.54040812  0.53050029  1
  F  F21  1  0.70272446  0.45959188  0.46949971  1
