# generated using pymatgen
data_EuMoO5
_symmetry_space_group_name_H-M   'P 1'
_cell_length_a   5.38016653
_cell_length_b   6.96111562
_cell_length_c   12.72772214
_cell_angle_alpha   90.00000000
_cell_angle_beta   90.00000000
_cell_angle_gamma   114.22023773
_symmetry_Int_Tables_number   1
_chemical_formula_structural   EuMoO5
_chemical_formula_sum   'Eu4 Mo4 O20'
_cell_volume   434.71868993
_cell_formula_units_Z   4
loop_
 _symmetry_equiv_pos_site_id
 _symmetry_equiv_pos_as_xyz
  1  'x, y, z'
loop_
 _atom_site_type_symbol
 _atom_site_label
 _atom_site_symmetry_multiplicity
 _atom_site_fract_x
 _atom_site_fract_y
 _atom_site_fract_z
 _atom_site_occupancy
  Eu  Eu0  1  0.63671570  0.79142339  0.55640250  1
  Eu  Eu1  1  0.36328430  0.20857661  0.44359750  1
  Eu  Eu2  1  0.36328430  0.70857661  0.05640250  1
  Eu  Eu3  1  0.63671570  0.29142339  0.94359750  1
  Mo  Mo4  1  0.91276924  0.85890616  0.85932888  1
  Mo  Mo5  1  0.08723076  0.14109384  0.14067112  1
  Mo  Mo6  1  0.08723076  0.64109384  0.35932888  1
  Mo  Mo7  1  0.91276924  0.35890616  0.64067112  1
  O  O8  1  0.50326251  0.56220429  0.91043579  1
  O  O9  1  0.49673749  0.43779571  0.08956421  1
  O  O10  1  0.49673749  0.93779571  0.41043579  1
  O  O11  1  0.50326251  0.06220429  0.58956421  1
  O  O12  1  0.99798100  0.84074091  0.42684511  1
  O  O13  1  0.00201900  0.15925909  0.57315489  1
  O  O14  1  0.00201900  0.65925909  0.92684511  1
  O  O15  1  0.99798100  0.34074091  0.07315489  1
  O  O16  1  0.71378063  0.96995609  0.93718740  1
  O  O17  1  0.28621937  0.03004391  0.06281260  1
  O  O18  1  0.28621937  0.53004391  0.43718740  1
  O  O19  1  0.71378063  0.46995609  0.56281260  1
  O  O20  1  0.79624905  0.78946367  0.72859116  1
  O  O21  1  0.20375095  0.21053633  0.27140884  1
  O  O22  1  0.20375095  0.71053633  0.22859116  1
  O  O23  1  0.79624905  0.28946367  0.77140884  1
  O  O24  1  0.76865343  0.92453536  0.15614301  1
  O  O25  1  0.23134657  0.07546464  0.84385699  1
  O  O26  1  0.23134657  0.57546464  0.65614301  1
  O  O27  1  0.76865343  0.42453536  0.34385699  1
