# generated using pymatgen
data_YCo3H2
_symmetry_space_group_name_H-M   'P 1'
_cell_length_a   9.56467652
_cell_length_b   9.56467645
_cell_length_c   9.56467656
_cell_angle_alpha   29.93726909
_cell_angle_beta   29.93726963
_cell_angle_gamma   29.93727030
_symmetry_Int_Tables_number   1
_chemical_formula_structural   YCo3H2
_chemical_formula_sum   'Y3 Co9 H6'
_cell_volume   193.01369824
_cell_formula_units_Z   3
loop_
 _symmetry_equiv_pos_site_id
 _symmetry_equiv_pos_as_xyz
  1  'x, y, z'
loop_
 _atom_site_type_symbol
 _atom_site_label
 _atom_site_symmetry_multiplicity
 _atom_site_fract_x
 _atom_site_fract_y
 _atom_site_fract_z
 _atom_site_occupancy
  Y  Y0  1  0.12806557  0.12806557  0.12806556  1
  Y  Y1  1  0.00000000  0.00000000  0.00000000  1
  Y  Y2  1  0.87193443  0.87193443  0.87193444  1
  Co  Co3  1  0.07322213  0.57089650  0.57089650  1
  Co  Co4  1  0.42910350  0.42910350  0.92677787  1
  Co  Co5  1  0.42910350  0.92677787  0.42910350  1
  Co  Co6  1  0.57089650  0.57089650  0.07322213  1
  Co  Co7  1  0.66794500  0.66794500  0.66794500  1
  Co  Co8  1  0.92677787  0.42910350  0.42910350  1
  Co  Co9  1  0.57089650  0.07322213  0.57089650  1
  Co  Co10  1  0.50000000  0.50000000  0.50000000  1
  Co  Co11  1  0.33205500  0.33205500  0.33205500  1
  H  H12  1  0.14059716  0.63141042  0.63141042  1
  H  H13  1  0.63141042  0.63141042  0.14059716  1
  H  H14  1  0.63141042  0.14059716  0.63141042  1
  H  H15  1  0.85940284  0.36858958  0.36858958  1
  H  H16  1  0.36858958  0.85940284  0.36858958  1
  H  H17  1  0.36858958  0.36858958  0.85940284  1
