# generated using pymatgen
data_GaCu(WO4)2
_symmetry_space_group_name_H-M   'P 1'
_cell_length_a   5.03730169
_cell_length_b   7.40400589
_cell_length_c   7.40400589
_cell_angle_alpha   101.77245805
_cell_angle_beta   90.58733875
_cell_angle_gamma   90.58733875
_symmetry_Int_Tables_number   1
_chemical_formula_structural   GaCu(WO4)2
_chemical_formula_sum   'Ga2 Cu2 W4 O16'
_cell_volume   270.29720470
_cell_formula_units_Z   2
loop_
 _symmetry_equiv_pos_site_id
 _symmetry_equiv_pos_as_xyz
  1  'x, y, z'
loop_
 _atom_site_type_symbol
 _atom_site_label
 _atom_site_symmetry_multiplicity
 _atom_site_fract_x
 _atom_site_fract_y
 _atom_site_fract_z
 _atom_site_occupancy
  Ga  Ga0  1  0.75000000  0.83101435  0.16898565  1
  Ga  Ga1  1  0.25000000  0.16898565  0.83101435  1
  Cu  Cu2  1  0.75000000  0.33292782  0.66707218  1
  Cu  Cu3  1  0.25000000  0.66707218  0.33292782  1
  W  W4  1  0.74986308  0.33620722  0.16292057  1
  W  W5  1  0.25013692  0.66379278  0.83707943  1
  W  W6  1  0.75013692  0.83707943  0.66379278  1
  W  W7  1  0.24986308  0.16292057  0.33620722  1
  O  O8  1  0.42061713  0.70183934  0.06623677  1
  O  O9  1  0.57938287  0.29816066  0.93376323  1
  O  O10  1  0.07938287  0.93376323  0.29816066  1
  O  O11  1  0.92061713  0.06623677  0.70183934  1
  O  O12  1  0.92659693  0.80610800  0.92554016  1
  O  O13  1  0.07340307  0.19389200  0.07445984  1
  O  O14  1  0.57340307  0.07445984  0.19389200  1
  O  O15  1  0.42659693  0.92554016  0.80610800  1
  O  O16  1  0.88666909  0.57159439  0.18327021  1
  O  O17  1  0.11333091  0.42840561  0.81672979  1
  O  O18  1  0.61333091  0.81672979  0.42840561  1
  O  O19  1  0.38666909  0.18327021  0.57159439  1
  O  O20  1  0.56739396  0.59453706  0.69529599  1
  O  O21  1  0.43260604  0.40546294  0.30470401  1
  O  O22  1  0.93260604  0.30470401  0.40546294  1
  O  O23  1  0.06739396  0.69529599  0.59453706  1
