# generated using pymatgen
data_Zr3CoSe6
_symmetry_space_group_name_H-M   'P 1'
_cell_length_a   6.47975709
_cell_length_b   7.15588227
_cell_length_c   6.47953365
_cell_angle_alpha   63.06796756
_cell_angle_beta   59.99967161
_cell_angle_gamma   90.01069217
_symmetry_Int_Tables_number   1
_chemical_formula_structural   Zr3CoSe6
_chemical_formula_sum   'Zr3 Co1 Se6'
_cell_volume   221.75277120
_cell_formula_units_Z   1
loop_
 _symmetry_equiv_pos_site_id
 _symmetry_equiv_pos_as_xyz
  1  'x, y, z'
loop_
 _atom_site_type_symbol
 _atom_site_label
 _atom_site_symmetry_multiplicity
 _atom_site_fract_x
 _atom_site_fract_y
 _atom_site_fract_z
 _atom_site_occupancy
  Zr  Zr0  1  0.66666700  -0.00000000  0.66666700  1
  Zr  Zr1  1  0.33446656  0.00371830  0.33086604  1
  Zr  Zr2  1  0.99886644  0.99628170  0.00246696  1
  Co  Co3  1  0.16666700  0.50000000  0.66666700  1
  Se  Se4  1  0.75997694  0.27188806  0.15073051  1
  Se  Se5  1  0.08923668  0.27190504  0.48818219  1
  Se  Se6  1  0.42267909  0.27201952  0.81742311  1
  Se  Se7  1  0.91065391  0.72798048  0.51590989  1
  Se  Se8  1  0.24409632  0.72809496  0.84515081  1
  Se  Se9  1  0.57335706  0.72811194  0.18260349  1
