# generated using pymatgen
data_Zr2SiMo3
_symmetry_space_group_name_H-M   'P 1'
_cell_length_a   5.28795363
_cell_length_b   5.28795363
_cell_length_c   8.74138929
_cell_angle_alpha   90.00000000
_cell_angle_beta   90.00000000
_cell_angle_gamma   120.00020080
_symmetry_Int_Tables_number   1
_chemical_formula_structural   Zr2SiMo3
_chemical_formula_sum   'Zr4 Si2 Mo6'
_cell_volume   211.68276067
_cell_formula_units_Z   2
loop_
 _symmetry_equiv_pos_site_id
 _symmetry_equiv_pos_as_xyz
  1  'x, y, z'
loop_
 _atom_site_type_symbol
 _atom_site_label
 _atom_site_symmetry_multiplicity
 _atom_site_fract_x
 _atom_site_fract_y
 _atom_site_fract_z
 _atom_site_occupancy
  Zr  Zr0  1  0.66668620  0.33331380  0.56374849  1
  Zr  Zr1  1  0.33331380  0.66668620  0.43625151  1
  Zr  Zr2  1  0.33331380  0.66668620  0.06374849  1
  Zr  Zr3  1  0.66668620  0.33331380  0.93625151  1
  Si  Si4  1  0.00000000  -0.00000000  0.50000000  1
  Si  Si5  1  0.00000000  -0.00000000  0.00000000  1
  Mo  Mo6  1  0.16973692  0.33939134  0.75000000  1
  Mo  Mo7  1  0.16967961  0.83032039  0.75000000  1
  Mo  Mo8  1  0.66060866  0.83026308  0.75000000  1
  Mo  Mo9  1  0.83026308  0.66060866  0.25000000  1
  Mo  Mo10  1  0.83032039  0.16967961  0.25000000  1
  Mo  Mo11  1  0.33939134  0.16973692  0.25000000  1
