# generated using pymatgen
data_RbNd2I5
_symmetry_space_group_name_H-M   'P 1'
_cell_length_a   8.78844519
_cell_length_b   9.88391416
_cell_length_c   14.35507357
_cell_angle_alpha   90.50136867
_cell_angle_beta   90.00000000
_cell_angle_gamma   90.00000000
_symmetry_Int_Tables_number   1
_chemical_formula_structural   RbNd2I5
_chemical_formula_sum   'Rb4 Nd8 I20'
_cell_volume   1246.89478553
_cell_formula_units_Z   4
loop_
 _symmetry_equiv_pos_site_id
 _symmetry_equiv_pos_as_xyz
  1  'x, y, z'
loop_
 _atom_site_type_symbol
 _atom_site_label
 _atom_site_symmetry_multiplicity
 _atom_site_fract_x
 _atom_site_fract_y
 _atom_site_fract_z
 _atom_site_occupancy
  Rb  Rb0  1  0.06104792  0.50391307  0.83139079  1
  Rb  Rb1  1  0.56104792  0.49608693  0.66860921  1
  Rb  Rb2  1  0.93895208  0.49608693  0.16860921  1
  Rb  Rb3  1  0.43895208  0.50391307  0.33139079  1
  Nd  Nd4  1  0.06255762  0.00571347  0.82550772  1
  Nd  Nd5  1  0.93744238  0.99428653  0.17449228  1
  Nd  Nd6  1  0.41403487  0.23020452  0.99703596  1
  Nd  Nd7  1  0.56255762  0.99428653  0.67449228  1
  Nd  Nd8  1  0.58596513  0.76979548  0.00296404  1
  Nd  Nd9  1  0.43744238  0.00571347  0.32550772  1
  Nd  Nd10  1  0.08596513  0.23020452  0.49703596  1
  Nd  Nd11  1  0.91403487  0.76979548  0.50296404  1
  I  I12  1  0.35328200  0.78884536  0.81933887  1
  I  I13  1  0.66767220  0.04503330  0.89485371  1
  I  I14  1  0.82372231  0.77210593  0.72095548  1
  I  I15  1  0.03991813  0.21163710  0.00407816  1
  I  I16  1  0.96008187  0.78836290  0.99592184  1
  I  I17  1  0.17012236  0.53371542  0.57858928  1
  I  I18  1  0.82987764  0.46628458  0.42141072  1
  I  I19  1  0.14671800  0.78884536  0.31933887  1
  I  I20  1  0.17627769  0.22789407  0.27904452  1
  I  I21  1  0.67012236  0.46628458  0.92141072  1
  I  I22  1  0.64671800  0.21115464  0.18066113  1
  I  I23  1  0.32987764  0.53371542  0.07858928  1
  I  I24  1  0.33232780  0.95496670  0.10514629  1
  I  I25  1  0.32372231  0.22789407  0.77904452  1
  I  I26  1  0.85328200  0.21115464  0.68066113  1
  I  I27  1  0.67627769  0.77210593  0.22095548  1
  I  I28  1  0.46008187  0.21163710  0.50407816  1
  I  I29  1  0.53991813  0.78836290  0.49592184  1
  I  I30  1  0.16767220  0.95496670  0.60514629  1
  I  I31  1  0.83232780  0.04503330  0.39485371  1
