# generated using pymatgen
data_Zr2NiSe4
_symmetry_space_group_name_H-M   'P 1'
_cell_length_a   3.74587834
_cell_length_b   7.10017312
_cell_length_c   6.44884481
_cell_angle_alpha   63.38310330
_cell_angle_beta   90.01924874
_cell_angle_gamma   105.31293694
_symmetry_Int_Tables_number   1
_chemical_formula_structural   Zr2NiSe4
_chemical_formula_sum   'Zr2 Ni1 Se4'
_cell_volume   146.50425102
_cell_formula_units_Z   1
loop_
 _symmetry_equiv_pos_site_id
 _symmetry_equiv_pos_as_xyz
  1  'x, y, z'
loop_
 _atom_site_type_symbol
 _atom_site_label
 _atom_site_symmetry_multiplicity
 _atom_site_fract_x
 _atom_site_fract_y
 _atom_site_fract_z
 _atom_site_occupancy
  Zr  Zr0  1  0.50232494  0.00485064  0.49992843  1
  Zr  Zr1  1  0.99767506  0.99514936  0.00007157  1
  Ni  Ni2  1  0.25000000  0.50000000  0.75000000  1
  Se  Se3  1  0.13749643  0.27417266  0.53411806  1
  Se  Se4  1  0.63653961  0.27240705  0.03062901  1
  Se  Se5  1  0.86346039  0.72759295  0.46937099  1
  Se  Se6  1  0.36250357  0.72582734  0.96588194  1
