# generated using pymatgen
data_Ce3Ti6Fe23
_symmetry_space_group_name_H-M   'P 1'
_cell_length_a   6.54740707
_cell_length_b   6.54740707
_cell_length_c   10.57711899
_cell_angle_alpha   85.73447848
_cell_angle_beta   85.73447848
_cell_angle_gamma   82.54144934
_symmetry_Int_Tables_number   1
_chemical_formula_structural   Ce3Ti6Fe23
_chemical_formula_sum   'Ce3 Ti6 Fe23'
_cell_volume   447.38236070
_cell_formula_units_Z   1
loop_
 _symmetry_equiv_pos_site_id
 _symmetry_equiv_pos_as_xyz
  1  'x, y, z'
loop_
 _atom_site_type_symbol
 _atom_site_label
 _atom_site_symmetry_multiplicity
 _atom_site_fract_x
 _atom_site_fract_y
 _atom_site_fract_z
 _atom_site_occupancy
  Ce  Ce0  1  0.17197921  0.17197921  0.40674660  1
  Ce  Ce1  1  0.82802079  0.82802079  0.59325340  1
  Ce  Ce2  1  -0.00000000  0.00000000  -0.00000000  1
  Ti  Ti3  1  0.28191538  0.28191538  0.86136394  1
  Ti  Ti4  1  0.71808462  0.71808462  0.13863606  1
  Ti  Ti5  1  0.34566393  0.65433607  -0.00000000  1
  Ti  Ti6  1  0.65433607  0.34566393  -0.00000000  1
  Ti  Ti7  1  0.53067301  0.53067301  0.73726281  1
  Ti  Ti8  1  0.46932699  0.46932699  0.26273719  1
  Fe  Fe9  1  0.72907220  0.72907220  0.88711485  1
  Fe  Fe10  1  0.27092780  0.27092780  0.11288515  1
  Fe  Fe11  1  0.69228574  0.12656046  0.79891318  1
  Fe  Fe12  1  0.30771426  0.87343954  0.20108682  1
  Fe  Fe13  1  0.87343954  0.30771426  0.20108682  1
  Fe  Fe14  1  0.12656046  0.69228574  0.79891318  1
  Fe  Fe15  1  0.31293898  0.81497414  0.59280705  1
  Fe  Fe16  1  0.68706102  0.18502586  0.40719295  1
  Fe  Fe17  1  0.18502586  0.68706102  0.40719295  1
  Fe  Fe18  1  0.81497414  0.31293898  0.59280705  1
  Fe  Fe19  1  0.09298881  0.09298881  0.70412956  1
  Fe  Fe20  1  0.90701119  0.90701119  0.29587044  1
  Fe  Fe21  1  0.50000000  0.00000000  -0.00000000  1
  Fe  Fe22  1  -0.00000000  0.50000000  -0.00000000  1
  Fe  Fe23  1  0.46020843  0.16931038  0.61920905  1
  Fe  Fe24  1  0.53979157  0.83068962  0.38079095  1
  Fe  Fe25  1  0.83068962  0.53979157  0.38079095  1
  Fe  Fe26  1  0.16931038  0.46020843  0.61920905  1
  Fe  Fe27  1  0.40935831  0.90666176  0.79643254  1
  Fe  Fe28  1  0.59064169  0.09333824  0.20356746  1
  Fe  Fe29  1  0.09333824  0.59064169  0.20356746  1
  Fe  Fe30  1  0.90666176  0.40935831  0.79643254  1
  Fe  Fe31  1  0.50000000  0.50000000  0.50000000  1
