# generated using pymatgen
data_ZnTcNiO4
_symmetry_space_group_name_H-M   'P 1'
_cell_length_a   6.16640768
_cell_length_b   5.68415904
_cell_length_c   6.12612869
_cell_angle_alpha   90.00000000
_cell_angle_beta   59.37937358
_cell_angle_gamma   117.44501194
_symmetry_Int_Tables_number   1
_chemical_formula_structural   ZnTcNiO4
_chemical_formula_sum   'Zn2 Tc2 Ni2 O8'
_cell_volume   156.04760503
_cell_formula_units_Z   2
loop_
 _symmetry_equiv_pos_site_id
 _symmetry_equiv_pos_as_xyz
  1  'x, y, z'
loop_
 _atom_site_type_symbol
 _atom_site_label
 _atom_site_symmetry_multiplicity
 _atom_site_fract_x
 _atom_site_fract_y
 _atom_site_fract_z
 _atom_site_occupancy
  Zn  Zn0  1  0.72654264  0.36327132  0.38573238  1
  Zn  Zn1  1  0.00442821  0.00221411  -0.00146000  1
  Tc  Tc2  1  0.25234590  0.41206156  0.37233997  1
  Tc  Tc3  1  0.25234590  0.84028434  0.37233997  1
  Ni  Ni4  1  0.73817079  0.36908540  0.88952058  1
  Ni  Ni5  1  0.54197526  0.77098763  0.72079040  1
  O  O6  1  0.24977378  0.12488689  0.59457236  1
  O  O7  1  0.69742482  0.10342008  0.15240677  1
  O  O8  1  0.69742482  0.59400474  0.15240677  1
  O  O9  1  0.26111976  0.13055988  0.14595571  1
  O  O10  1  0.24744935  0.62372467  0.11276970  1
  O  O11  1  0.80563982  0.63236921  0.60056928  1
  O  O12  1  0.80563982  0.17327061  0.60056928  1
  O  O13  1  0.21971915  0.60985957  0.65148682  1
