# generated using pymatgen
data_Ba2H2C4O9
_symmetry_space_group_name_H-M   'P 1'
_cell_length_a   6.29687847
_cell_length_b   8.88456848
_cell_length_c   9.67226724
_cell_angle_alpha   63.76492682
_cell_angle_beta   84.78261562
_cell_angle_gamma   83.07748345
_symmetry_Int_Tables_number   1
_chemical_formula_structural   Ba2H2C4O9
_chemical_formula_sum   'Ba4 H4 C8 O18'
_cell_volume   481.40466715
_cell_formula_units_Z   2
loop_
 _symmetry_equiv_pos_site_id
 _symmetry_equiv_pos_as_xyz
  1  'x, y, z'
loop_
 _atom_site_type_symbol
 _atom_site_label
 _atom_site_symmetry_multiplicity
 _atom_site_fract_x
 _atom_site_fract_y
 _atom_site_fract_z
 _atom_site_occupancy
  Ba  Ba0  1  0.71805454  0.46389281  0.20624944  1
  Ba  Ba1  1  0.28194546  0.53610719  0.79375056  1
  Ba  Ba2  1  0.21381810  0.14016447  0.57433892  1
  Ba  Ba3  1  0.78618190  0.85983553  0.42566108  1
  H  H4  1  0.15041695  0.06952445  0.95019674  1
  H  H5  1  0.84958305  0.93047555  0.04980326  1
  H  H6  1  0.74291618  0.10773631  0.03467332  1
  H  H7  1  0.25708382  0.89226369  0.96532668  1
  C  C8  1  0.38841731  0.21579452  0.18849665  1
  C  C9  1  0.61158269  0.78420548  0.81150335  1
  C  C10  1  0.18106804  0.58078353  0.32494936  1
  C  C11  1  0.81893196  0.41921647  0.67505064  1
  C  C12  1  0.32133323  0.67623289  0.37838699  1
  C  C13  1  0.67866677  0.32376711  0.62161301  1
  C  C14  1  0.13883625  0.22640572  0.18301629  1
  C  C15  1  0.86116375  0.77359428  0.81698371  1
  O  O16  1  0.05755525  0.31403430  0.05296818  1
  O  O17  1  0.94244475  0.68596570  0.94703182  1
  O  O18  1  0.47199422  0.13052952  0.31886904  1
  O  O19  1  0.52800578  0.86947048  0.68113096  1
  O  O20  1  0.80253959  0.99634500  0.10669162  1
  O  O21  1  0.19746041  0.00365500  0.89330838  1
  O  O22  1  0.01480296  0.36634817  0.69695973  1
  O  O23  1  0.98519704  0.63365183  0.30304027  1
  O  O24  1  0.48439810  0.31531036  0.66900575  1
  O  O25  1  0.51560190  0.68468964  0.33099425  1
  O  O26  1  0.49027691  0.30096249  0.06368049  1
  O  O27  1  0.50972309  0.69903751  0.93631951  1
  O  O28  1  0.03227159  0.15456312  0.30975650  1
  O  O29  1  0.96772841  0.84543688  0.69024350  1
  O  O30  1  0.23059087  0.73538701  0.46924757  1
  O  O31  1  0.76940913  0.26461299  0.53075243  1
  O  O32  1  0.27345898  0.45248865  0.31104181  1
  O  O33  1  0.72654102  0.54751135  0.68895819  1
