# generated using pymatgen
data_ZrMn6(GaSn2)2
_symmetry_space_group_name_H-M   'P 1'
_cell_length_a   5.31115054
_cell_length_b   5.31187525
_cell_length_c   8.98679170
_cell_angle_alpha   90.00000000
_cell_angle_beta   90.00000000
_cell_angle_gamma   119.99548650
_symmetry_Int_Tables_number   1
_chemical_formula_structural   ZrMn6(GaSn2)2
_chemical_formula_sum   'Zr1 Mn6 Ga2 Sn4'
_cell_volume   219.57937051
_cell_formula_units_Z   1
loop_
 _symmetry_equiv_pos_site_id
 _symmetry_equiv_pos_as_xyz
  1  'x, y, z'
loop_
 _atom_site_type_symbol
 _atom_site_label
 _atom_site_symmetry_multiplicity
 _atom_site_fract_x
 _atom_site_fract_y
 _atom_site_fract_z
 _atom_site_occupancy
  Zr  Zr0  1  0.00004743  0.00000000  0.50000000  1
  Mn  Mn1  1  0.49995862  0.00000000  0.25116299  1
  Mn  Mn2  1  0.50003050  0.50003568  0.25116282  1
  Mn  Mn3  1  -0.00000518  0.49996432  0.25116282  1
  Mn  Mn4  1  0.49995862  0.00000000  0.74883701  1
  Mn  Mn5  1  0.50003050  0.50003568  0.74883718  1
  Mn  Mn6  1  -0.00000518  0.49996432  0.74883718  1
  Ga  Ga7  1  0.99993148  0.00000000  0.18894282  1
  Ga  Ga8  1  0.99993148  0.00000000  0.81105718  1
  Sn  Sn9  1  0.33331578  0.66669199  -0.00000000  1
  Sn  Sn10  1  0.66662380  0.33330801  -0.00000000  1
  Sn  Sn11  1  0.33330350  0.66662485  0.50000000  1
  Sn  Sn12  1  0.66667865  0.33337515  0.50000000  1
