# generated using pymatgen
data_ZnPd4
_symmetry_space_group_name_H-M   'P 1'
_cell_length_a   2.82745946
_cell_length_b   2.82745946
_cell_length_c   11.07966156
_cell_angle_alpha   90.00000000
_cell_angle_beta   97.33074450
_cell_angle_gamma   120.00000000
_symmetry_Int_Tables_number   1
_chemical_formula_structural   ZnPd4
_chemical_formula_sum   'Zn1 Pd4'
_cell_volume   75.87246009
_cell_formula_units_Z   1
loop_
 _symmetry_equiv_pos_site_id
 _symmetry_equiv_pos_as_xyz
  1  'x, y, z'
loop_
 _atom_site_type_symbol
 _atom_site_label
 _atom_site_symmetry_multiplicity
 _atom_site_fract_x
 _atom_site_fract_y
 _atom_site_fract_z
 _atom_site_occupancy
  Zn  Zn0  1  -0.00000000  -0.00000000  0.00000000  1
  Pd  Pd1  1  0.79115108  0.39557554  0.18672662  1
  Pd  Pd2  1  0.59763293  0.79881647  0.39644940  1
  Pd  Pd3  1  0.40236707  0.20118353  0.60355060  1
  Pd  Pd4  1  0.20884892  0.60442446  0.81327338  1
