# generated using pymatgen
data_YbZnCuAs2
_symmetry_space_group_name_H-M   'P 1'
_cell_length_a   4.08932799
_cell_length_b   4.08981758
_cell_length_c   6.96096332
_cell_angle_alpha   89.99999997
_cell_angle_beta   89.97485509
_cell_angle_gamma   120.00395545
_symmetry_Int_Tables_number   1
_chemical_formula_structural   YbZnCuAs2
_chemical_formula_sum   'Yb1 Zn1 Cu1 As2'
_cell_volume   100.81809612
_cell_formula_units_Z   1
loop_
 _symmetry_equiv_pos_site_id
 _symmetry_equiv_pos_as_xyz
  1  'x, y, z'
loop_
 _atom_site_type_symbol
 _atom_site_label
 _atom_site_symmetry_multiplicity
 _atom_site_fract_x
 _atom_site_fract_y
 _atom_site_fract_z
 _atom_site_occupancy
  Yb  Yb0  1  0.99998258  0.99999129  0.99583970  1
  Zn  Zn1  1  0.66657337  0.33328669  0.37474988  1
  Cu  Cu2  1  0.33333207  0.66666604  0.63400152  1
  As  As3  1  0.33337323  0.66668662  0.25735587  1
  As  As4  1  0.66673874  0.33336937  0.73805303  1
