# generated using pymatgen
data_Y2ZrWO8
_symmetry_space_group_name_H-M   'P 1'
_cell_length_a   5.29507800
_cell_length_b   5.29507800
_cell_length_c   6.67296260
_cell_angle_alpha   66.62445378
_cell_angle_beta   66.62445378
_cell_angle_gamma   90.00000000
_symmetry_Int_Tables_number   1
_chemical_formula_structural   Y2ZrWO8
_chemical_formula_sum   'Y2 Zr1 W1 O8'
_cell_volume   154.86821745
_cell_formula_units_Z   1
loop_
 _symmetry_equiv_pos_site_id
 _symmetry_equiv_pos_as_xyz
  1  'x, y, z'
loop_
 _atom_site_type_symbol
 _atom_site_label
 _atom_site_symmetry_multiplicity
 _atom_site_fract_x
 _atom_site_fract_y
 _atom_site_fract_z
 _atom_site_occupancy
  Y  Y0  1  0.87500000  0.12500000  0.25000000  1
  Y  Y1  1  0.12500000  0.87500000  0.75000000  1
  Zr  Zr2  1  0.37500000  0.62500000  0.25000000  1
  W  W3  1  0.62500000  0.37500000  0.75000000  1
  O  O4  1  0.89978674  0.69315325  0.56919488  1
  O  O5  1  0.53101838  0.23765187  0.56919488  1
  O  O6  1  0.73805482  0.52998113  0.05765679  1
  O  O7  1  0.20428839  0.91236209  0.05765679  1
  O  O8  1  0.08763791  0.26194518  0.44234321  1
  O  O9  1  0.47001887  0.79571161  0.44234321  1
  O  O10  1  0.30684675  0.46898162  0.93080512  1
  O  O11  1  0.76234813  0.10021326  0.93080512  1
