# generated using pymatgen
data_USiAu
_symmetry_space_group_name_H-M   'P 1'
_cell_length_a   4.30693598
_cell_length_b   5.61967489
_cell_length_c   5.79717345
_cell_angle_alpha   105.38950910
_cell_angle_beta   111.80621911
_cell_angle_gamma   67.46786593
_symmetry_Int_Tables_number   1
_chemical_formula_structural   USiAu
_chemical_formula_sum   'U2 Si2 Au2'
_cell_volume   119.08324117
_cell_formula_units_Z   2
loop_
 _symmetry_equiv_pos_site_id
 _symmetry_equiv_pos_as_xyz
  1  'x, y, z'
loop_
 _atom_site_type_symbol
 _atom_site_label
 _atom_site_symmetry_multiplicity
 _atom_site_fract_x
 _atom_site_fract_y
 _atom_site_fract_z
 _atom_site_occupancy
  U  U0  1  0.55652059  0.69175837  0.80479956  1
  U  U1  1  0.44347941  0.30824163  0.19520044  1
  Si  Si2  1  0.85098922  0.11709169  0.81907014  1
  Si  Si3  1  0.14901078  0.88290831  0.18092986  1
  Au  Au4  1  0.17154348  0.25570011  0.59878706  1
  Au  Au5  1  0.82845652  0.74429989  0.40121294  1
