# generated using pymatgen
data_VSiGe
_symmetry_space_group_name_H-M   'P 1'
_cell_length_a   4.69387549
_cell_length_b   4.69387456
_cell_length_c   6.50906657
_cell_angle_alpha   90.00000000
_cell_angle_beta   90.00000000
_cell_angle_gamma   59.99999868
_symmetry_Int_Tables_number   1
_chemical_formula_structural   VSiGe
_chemical_formula_sum   'V3 Si3 Ge3'
_cell_volume   124.19736545
_cell_formula_units_Z   3
loop_
 _symmetry_equiv_pos_site_id
 _symmetry_equiv_pos_as_xyz
  1  'x, y, z'
loop_
 _atom_site_type_symbol
 _atom_site_label
 _atom_site_symmetry_multiplicity
 _atom_site_fract_x
 _atom_site_fract_y
 _atom_site_fract_z
 _atom_site_occupancy
  V  V0  1  0.50149036  0.99701927  0.16666700  1
  V  V1  1  0.99701927  0.50149036  0.50000000  1
  V  V2  1  0.50149036  0.50149036  0.83333300  1
  Si  Si3  1  0.83509196  0.32981609  0.16666700  1
  Si  Si4  1  0.32981609  0.83509196  0.50000000  1
  Si  Si5  1  0.83509196  0.83509196  0.83333300  1
  Ge  Ge6  1  0.16425307  0.67149385  0.16666700  1
  Ge  Ge7  1  0.67149385  0.16425307  0.50000000  1
  Ge  Ge8  1  0.16425307  0.16425307  0.83333300  1
