# generated using pymatgen
data_V6Ga7
_symmetry_space_group_name_H-M   'P 1'
_cell_length_a   7.93060110
_cell_length_b   7.89259312
_cell_length_c   7.89259312
_cell_angle_alpha   70.75888841
_cell_angle_beta   70.51127801
_cell_angle_gamma   109.48872199
_symmetry_Int_Tables_number   1
_chemical_formula_structural   V6Ga7
_chemical_formula_sum   'V12 Ga14'
_cell_volume   381.20883161
_cell_formula_units_Z   2
loop_
 _symmetry_equiv_pos_site_id
 _symmetry_equiv_pos_as_xyz
  1  'x, y, z'
loop_
 _atom_site_type_symbol
 _atom_site_label
 _atom_site_symmetry_multiplicity
 _atom_site_fract_x
 _atom_site_fract_y
 _atom_site_fract_z
 _atom_site_occupancy
  V  V0  1  0.34878726  0.34753943  0.65246057  1
  V  V1  1  0.65121274  0.99875218  0.00124782  1
  V  V2  1  0.00000000  0.66294226  0.00563745  1
  V  V3  1  -0.00000000  0.99436255  0.33705774  1
  V  V4  1  0.00000000  0.65003553  0.34996447  1
  V  V5  1  0.63933867  0.64270680  0.00461332  1
  V  V6  1  0.63933867  0.99538668  0.35729320  1
  V  V7  1  0.36066133  0.35604800  0.99663187  1
  V  V8  1  0.36066133  0.00336813  0.64395200  1
  V  V9  1  -0.00000000  0.35743726  0.64256274  1
  V  V10  1  0.78595722  0.78757072  0.21242928  1
  V  V11  1  0.21404278  0.00161350  0.99838650  1
  Ga  Ga12  1  0.37971998  0.65439496  0.34560504  1
  Ga  Ga13  1  0.65687459  0.65722937  0.62202599  1
  Ga  Ga14  1  0.65687459  0.37797401  0.34277063  1
  Ga  Ga15  1  0.62028002  0.27467498  0.72532502  1
  Ga  Ga16  1  0.34312541  0.72109942  0.99964523  1
  Ga  Ga17  1  0.34312541  0.00035477  0.27890058  1
  Ga  Ga18  1  -0.00000000  0.34350953  0.28412213  1
  Ga  Ga19  1  0.72083915  0.34784716  0.99916625  1
  Ga  Ga20  1  0.27916085  0.62700801  0.72000540  1
  Ga  Ga21  1  -0.00000000  0.71587787  0.65649047  1
  Ga  Ga22  1  0.27916085  0.27999460  0.37299199  1
  Ga  Ga23  1  0.72083915  0.00083375  0.65215284  1
  Ga  Ga24  1  0.00000000  0.20320643  0.00176789  1
  Ga  Ga25  1  -0.00000000  0.99823211  0.79679357  1
