# generated using pymatgen
data_Y4Ti2Nb2O15
_symmetry_space_group_name_H-M   'P 1'
_cell_length_a   7.29192296
_cell_length_b   7.23506184
_cell_length_c   7.34521315
_cell_angle_alpha   90.00000000
_cell_angle_beta   59.75795369
_cell_angle_gamma   119.74238362
_symmetry_Int_Tables_number   1
_chemical_formula_structural   Y4Ti2Nb2O15
_chemical_formula_sum   'Y4 Ti2 Nb2 O15'
_cell_volume   274.07387676
_cell_formula_units_Z   1
loop_
 _symmetry_equiv_pos_site_id
 _symmetry_equiv_pos_as_xyz
  1  'x, y, z'
loop_
 _atom_site_type_symbol
 _atom_site_label
 _atom_site_symmetry_multiplicity
 _atom_site_fract_x
 _atom_site_fract_y
 _atom_site_fract_z
 _atom_site_occupancy
  Y  Y0  1  0.49143035  0.99308307  0.50428483  1
  Y  Y1  1  0.49143035  0.49834728  0.50428483  1
  Y  Y2  1  0.00156143  0.50078072  0.99292051  1
  Y  Y3  1  0.00156143  0.50078072  0.50551806  1
  Ti  Ti4  1  0.48337086  0.48009610  0.00831457  1
  Ti  Ti5  1  0.48337086  0.00327476  0.00831457  1
  Nb  Nb6  1  0.01056498  0.00528249  0.48109613  1
  Nb  Nb7  1  0.01056498  0.00528249  0.00833889  1
  O  O8  1  0.75163939  0.37581970  0.37418030  1
  O  O9  1  0.24595954  0.62297977  0.62702023  1
  O  O10  1  0.77926074  0.88963037  0.36036963  1
  O  O11  1  0.70257304  0.35128652  0.89871348  1
  O  O12  1  0.25730943  0.89768853  0.89070288  1
  O  O13  1  0.25730943  0.35962090  0.35198769  1
  O  O14  1  0.25730943  0.35962090  0.89070288  1
  O  O15  1  0.25730943  0.89768853  0.35198769  1
  O  O16  1  0.15369791  0.07684895  0.67315105  1
  O  O17  1  0.35748938  0.67874469  0.07125531  1
  O  O18  1  0.75396386  0.07669729  0.07130787  1
  O  O19  1  0.75396386  0.67726657  0.67472827  1
  O  O20  1  0.75396386  0.67726657  0.07130787  1
  O  O21  1  0.75396386  0.07669729  0.67472827  1
  O  O22  1  0.24043160  0.12021580  0.12978420  1
