# generated using pymatgen
data_Y2Ti2Fe22N
_symmetry_space_group_name_H-M   'P 1'
_cell_length_a   4.76916920
_cell_length_b   6.50731823
_cell_length_c   12.08532158
_cell_angle_alpha   90.24293209
_cell_angle_beta   90.00000000
_cell_angle_gamma   111.49663570
_symmetry_Int_Tables_number   1
_chemical_formula_structural   Y2Ti2Fe22N
_chemical_formula_sum   'Y2 Ti2 Fe22 N1'
_cell_volume   348.96865909
_cell_formula_units_Z   1
loop_
 _symmetry_equiv_pos_site_id
 _symmetry_equiv_pos_as_xyz
  1  'x, y, z'
loop_
 _atom_site_type_symbol
 _atom_site_label
 _atom_site_symmetry_multiplicity
 _atom_site_fract_x
 _atom_site_fract_y
 _atom_site_fract_z
 _atom_site_occupancy
  Y  Y0  1  0.00345178  0.00690356  0.00341918  1
  Y  Y1  1  0.50314491  0.00628983  0.50337624  1
  Ti  Ti2  1  0.31611261  0.63222522  0.31726245  1
  Ti  Ti3  1  0.81676041  0.63352083  0.81527398  1
  Fe  Fe4  1  0.38811413  0.77622825  0.11054661  1
  Fe  Fe5  1  0.88722976  0.77445953  0.60966090  1
  Fe  Fe6  1  0.11161187  0.22322375  0.38955241  1
  Fe  Fe7  1  0.60913194  0.21826388  0.88609077  1
  Fe  Fe8  1  0.88599645  0.77199290  0.38800890  1
  Fe  Fe9  1  0.38927220  0.77854440  0.88756892  1
  Fe  Fe10  1  0.61210390  0.22420780  0.11413331  1
  Fe  Fe11  1  0.11674749  0.23349498  0.61446206  1
  Fe  Fe12  1  0.25126295  0.00230062  0.25352237  1
  Fe  Fe13  1  0.75051611  0.00232388  0.74569433  1
  Fe  Fe14  1  0.75103767  0.00230062  0.25352237  1
  Fe  Fe15  1  0.25180777  0.00232388  0.74569433  1
  Fe  Fe16  1  0.99974858  0.49871121  0.00102903  1
  Fe  Fe17  1  0.50035370  0.49960509  0.50137268  1
  Fe  Fe18  1  0.49896263  0.49871121  0.00102903  1
  Fe  Fe19  1  0.99925138  0.49960509  0.50137268  1
  Fe  Fe20  1  0.67917173  0.35834346  0.32174240  1
  Fe  Fe21  1  0.17936331  0.35872662  0.81997070  1
  Fe  Fe22  1  0.82070004  0.64140007  0.17998517  1
  Fe  Fe23  1  0.32111600  0.64223200  0.67862552  1
  Fe  Fe24  1  0.17784357  0.35568714  0.17901106  1
  Fe  Fe25  1  0.67836426  0.35672853  0.67755730  1
  N  N26  1  0.50082282  0.00164565  0.00051529  1
