# generated using pymatgen
data_UPt2Au3
_symmetry_space_group_name_H-M   'P 1'
_cell_length_a   5.45316178
_cell_length_b   5.45316178
_cell_length_c   5.45316178
_cell_angle_alpha   89.58235355
_cell_angle_beta   60.52279478
_cell_angle_gamma   120.04192111
_symmetry_Int_Tables_number   1
_chemical_formula_structural   UPt2Au3
_chemical_formula_sum   'U1 Pt2 Au3'
_cell_volume   115.07474987
_cell_formula_units_Z   1
loop_
 _symmetry_equiv_pos_site_id
 _symmetry_equiv_pos_as_xyz
  1  'x, y, z'
loop_
 _atom_site_type_symbol
 _atom_site_label
 _atom_site_symmetry_multiplicity
 _atom_site_fract_x
 _atom_site_fract_y
 _atom_site_fract_z
 _atom_site_occupancy
  U  U0  1  0.00000000  0.00508350  0.99491650  1
  Pt  Pt1  1  0.75082077  0.37407180  0.87510743  1
  Pt  Pt2  1  0.24917923  0.37407180  0.37674897  1
  Au  Au3  1  0.24911023  0.87271155  0.37639868  1
  Au  Au4  1  0.75088977  0.37449109  0.37639868  1
  Au  Au5  1  0.50000000  0.74957025  0.75042975  1
