# generated using pymatgen
data_VPd4
_symmetry_space_group_name_H-M   'P 1'
_cell_length_a   2.77326407
_cell_length_b   2.77326407
_cell_length_c   11.37605832
_cell_angle_alpha   82.99878579
_cell_angle_beta   90.00000000
_cell_angle_gamma   120.00000000
_symmetry_Int_Tables_number   1
_chemical_formula_structural   VPd4
_chemical_formula_sum   'V1 Pd4'
_cell_volume   75.01706960
_cell_formula_units_Z   1
loop_
 _symmetry_equiv_pos_site_id
 _symmetry_equiv_pos_as_xyz
  1  'x, y, z'
loop_
 _atom_site_type_symbol
 _atom_site_label
 _atom_site_symmetry_multiplicity
 _atom_site_fract_x
 _atom_site_fract_y
 _atom_site_fract_z
 _atom_site_occupancy
  V  V0  1  -0.00000000  0.00000000  -0.00000000  1
  Pd  Pd1  1  0.60418328  0.20836655  0.18745017  1
  Pd  Pd2  1  0.20107163  0.40214326  0.39678510  1
  Pd  Pd3  1  0.79892837  0.59785674  0.60321490  1
  Pd  Pd4  1  0.39581672  0.79163345  0.81254983  1
