# generated using pymatgen
data_U2CuSi3
_symmetry_space_group_name_H-M   'P 1'
_cell_length_a   3.95505871
_cell_length_b   3.99639829
_cell_length_c   7.47205569
_cell_angle_alpha   74.48902554
_cell_angle_beta   74.65344705
_cell_angle_gamma   90.00000000
_symmetry_Int_Tables_number   1
_chemical_formula_structural   U2CuSi3
_chemical_formula_sum   'U2 Cu1 Si3'
_cell_volume   109.42517037
_cell_formula_units_Z   1
loop_
 _symmetry_equiv_pos_site_id
 _symmetry_equiv_pos_as_xyz
  1  'x, y, z'
loop_
 _atom_site_type_symbol
 _atom_site_label
 _atom_site_symmetry_multiplicity
 _atom_site_fract_x
 _atom_site_fract_y
 _atom_site_fract_z
 _atom_site_occupancy
  U  U0  1  0.87000151  0.62000151  0.25999698  1
  U  U1  1  0.13252163  0.38252163  0.73495673  1
  Cu  Cu2  1  0.53971692  0.78971692  0.92056616  1
  Si  Si3  1  0.29236837  0.04236837  0.41526326  1
  Si  Si4  1  0.46154794  0.21154794  0.07690412  1
  Si  Si5  1  0.70384363  0.95384363  0.59231274  1
