# generated using pymatgen
data_C3N4
_symmetry_space_group_name_H-M   'P 1'
_cell_length_a   4.58536155
_cell_length_b   4.58536099
_cell_length_c   4.58536130
_cell_angle_alpha   62.91223283
_cell_angle_beta   62.91223712
_cell_angle_gamma   62.91222890
_symmetry_Int_Tables_number   1
_chemical_formula_structural   C3N4
_chemical_formula_sum   'C3 N4'
_cell_volume   72.58246010
_cell_formula_units_Z   1
loop_
 _symmetry_equiv_pos_site_id
 _symmetry_equiv_pos_as_xyz
  1  'x, y, z'
loop_
 _atom_site_type_symbol
 _atom_site_label
 _atom_site_symmetry_multiplicity
 _atom_site_fract_x
 _atom_site_fract_y
 _atom_site_fract_z
 _atom_site_occupancy
  C  C0  1  0.51000975  0.51000975  0.98056233  1
  C  C1  1  0.51000975  0.98056233  0.51000975  1
  C  C2  1  0.98056233  0.51000975  0.51000975  1
  N  N3  1  0.34045757  0.82987155  0.82987155  1
  N  N4  1  0.82987155  0.82987155  0.34045757  1
  N  N5  1  0.33421850  0.33421850  0.33421850  1
  N  N6  1  0.82987155  0.34045757  0.82987155  1
