# generated using pymatgen
data_ThUAl6
_symmetry_space_group_name_H-M   'P 1'
_cell_length_a   4.60167810
_cell_length_b   6.37062033
_cell_length_c   6.37062033
_cell_angle_alpha   120.06569380
_cell_angle_beta   90.00000000
_cell_angle_gamma   90.00000000
_symmetry_Int_Tables_number   1
_chemical_formula_structural   ThUAl6
_chemical_formula_sum   'Th1 U1 Al6'
_cell_volume   161.63017398
_cell_formula_units_Z   1
loop_
 _symmetry_equiv_pos_site_id
 _symmetry_equiv_pos_as_xyz
  1  'x, y, z'
loop_
 _atom_site_type_symbol
 _atom_site_label
 _atom_site_symmetry_multiplicity
 _atom_site_fract_x
 _atom_site_fract_y
 _atom_site_fract_z
 _atom_site_occupancy
  Th  Th0  1  0.75000000  0.66660116  0.33339884  1
  U  U1  1  0.25000000  0.33340009  0.66659991  1
  Al  Al2  1  0.75000000  0.14896500  0.29797360  1
  Al  Al3  1  0.75000000  0.14898152  0.85101848  1
  Al  Al4  1  0.75000000  0.70202640  0.85103500  1
  Al  Al5  1  0.25000000  0.85588683  0.71164707  1
  Al  Al6  1  0.25000000  0.85578607  0.14421393  1
  Al  Al7  1  0.25000000  0.28835293  0.14411317  1
