# generated using pymatgen
data_ThMn2Ni3
_symmetry_space_group_name_H-M   'P 1'
_cell_length_a   3.98477390
_cell_length_b   5.06733358
_cell_length_c   5.06733325
_cell_angle_alpha   59.93048481
_cell_angle_beta   90.00000000
_cell_angle_gamma   90.00000000
_symmetry_Int_Tables_number   1
_chemical_formula_structural   ThMn2Ni3
_chemical_formula_sum   'Th1 Mn2 Ni3'
_cell_volume   88.55001422
_cell_formula_units_Z   1
loop_
 _symmetry_equiv_pos_site_id
 _symmetry_equiv_pos_as_xyz
  1  'x, y, z'
loop_
 _atom_site_type_symbol
 _atom_site_label
 _atom_site_symmetry_multiplicity
 _atom_site_fract_x
 _atom_site_fract_y
 _atom_site_fract_z
 _atom_site_occupancy
  Th  Th0  1  -0.00000000  0.99998127  0.00001873  1
  Mn  Mn1  1  0.00000000  0.33325746  0.33327985  1
  Mn  Mn2  1  -0.00000000  0.66672015  0.66674254  1
  Ni  Ni3  1  0.50000000  0.49997881  0.50002119  1
  Ni  Ni4  1  0.50000000  0.49997905  0.00001674  1
  Ni  Ni5  1  0.50000000  0.99998326  0.50002095  1
