# generated using pymatgen
data_TiCr2P3
_symmetry_space_group_name_H-M   'P 1'
_cell_length_a   3.12280205
_cell_length_b   5.52276846
_cell_length_c   18.35842936
_cell_angle_alpha   89.78354571
_cell_angle_beta   90.00000000
_cell_angle_gamma   90.00000000
_symmetry_Int_Tables_number   1
_chemical_formula_structural   TiCr2P3
_chemical_formula_sum   'Ti4 Cr8 P12'
_cell_volume   316.61662517
_cell_formula_units_Z   4
loop_
 _symmetry_equiv_pos_site_id
 _symmetry_equiv_pos_as_xyz
  1  'x, y, z'
loop_
 _atom_site_type_symbol
 _atom_site_label
 _atom_site_symmetry_multiplicity
 _atom_site_fract_x
 _atom_site_fract_y
 _atom_site_fract_z
 _atom_site_occupancy
  Ti  Ti0  1  0.75000000  0.49507849  0.23032364  1
  Ti  Ti1  1  0.75000000  0.49136205  0.56649431  1
  Ti  Ti2  1  0.75000000  0.49097851  0.89735099  1
  Ti  Ti3  1  0.75000000  0.99521561  0.26961793  1
  Cr  Cr4  1  0.75000000  0.00172124  0.60387240  1
  Cr  Cr5  1  0.75000000  0.00253541  0.93374912  1
  Cr  Cr6  1  0.25000000  0.51089852  0.09697916  1
  Cr  Cr7  1  0.25000000  0.50546784  0.44108878  1
  Cr  Cr8  1  0.25000000  0.50736066  0.76963552  1
  Cr  Cr9  1  0.25000000  0.00897652  0.06145957  1
  Cr  Cr10  1  0.25000000  0.00719775  0.40029598  1
  Cr  Cr11  1  0.25000000  0.00922821  0.73094461  1
  P  P12  1  0.75000000  0.29483023  0.02444033  1
  P  P13  1  0.75000000  0.30697882  0.36267339  1
  P  P14  1  0.75000000  0.29835497  0.69385057  1
  P  P15  1  0.75000000  0.80167282  0.13731004  1
  P  P16  1  0.75000000  0.81388078  0.47770815  1
  P  P17  1  0.75000000  0.81057477  0.80804863  1
  P  P18  1  0.25000000  0.68633488  0.32085562  1
  P  P19  1  0.25000000  0.71021741  0.64722260  1
  P  P20  1  0.25000000  0.71260679  0.97713069  1
  P  P21  1  0.25000000  0.19153772  0.17959736  1
  P  P22  1  0.25000000  0.17202403  0.51939765  1
  P  P23  1  0.25000000  0.17496599  0.84995294  1
