# generated using pymatgen
data_TiCuS2
_symmetry_space_group_name_H-M   'P 1'
_cell_length_a   3.48954019
_cell_length_b   3.48954019
_cell_length_c   6.67412083
_cell_angle_alpha   74.84547182
_cell_angle_beta   74.84547182
_cell_angle_gamma   59.99999342
_symmetry_Int_Tables_number   1
_chemical_formula_structural   TiCuS2
_chemical_formula_sum   'Ti1 Cu1 S2'
_cell_volume   67.09863435
_cell_formula_units_Z   1
loop_
 _symmetry_equiv_pos_site_id
 _symmetry_equiv_pos_as_xyz
  1  'x, y, z'
loop_
 _atom_site_type_symbol
 _atom_site_label
 _atom_site_symmetry_multiplicity
 _atom_site_fract_x
 _atom_site_fract_y
 _atom_site_fract_z
 _atom_site_occupancy
  Ti  Ti0  1  0.99845725  0.99845725  0.00462825  1
  Cu  Cu1  1  0.14274341  0.14274341  0.57176978  1
  S  S2  1  0.25834097  0.25834097  0.22497708  1
  S  S3  1  0.74445837  0.74445837  0.76662490  1
