# generated using pymatgen
data_ThU2S5
_symmetry_space_group_name_H-M   'P 1'
_cell_length_a   7.41675186
_cell_length_b   7.95535299
_cell_length_c   11.82276267
_cell_angle_alpha   90.00000000
_cell_angle_beta   90.00000000
_cell_angle_gamma   90.00000000
_symmetry_Int_Tables_number   1
_chemical_formula_structural   ThU2S5
_chemical_formula_sum   'Th4 U8 S20'
_cell_volume   697.57703628
_cell_formula_units_Z   4
loop_
 _symmetry_equiv_pos_site_id
 _symmetry_equiv_pos_as_xyz
  1  'x, y, z'
loop_
 _atom_site_type_symbol
 _atom_site_label
 _atom_site_symmetry_multiplicity
 _atom_site_fract_x
 _atom_site_fract_y
 _atom_site_fract_z
 _atom_site_occupancy
  Th  Th0  1  0.97712503  0.99884209  0.17804966  1
  Th  Th1  1  0.02287497  0.49884209  0.82195034  1
  Th  Th2  1  0.47712503  0.49884209  0.32195034  1
  Th  Th3  1  0.52287497  0.99884209  0.67804966  1
  U  U4  1  0.42551869  0.75139476  0.00757551  1
  U  U5  1  0.07448131  0.75139476  0.50757551  1
  U  U6  1  0.57448131  0.25139476  0.99242449  1
  U  U7  1  0.92551869  0.25139476  0.49242449  1
  U  U8  1  0.52209121  0.50034927  0.68007053  1
  U  U9  1  0.47790879  0.00034927  0.31992947  1
  U  U10  1  0.02209121  0.00034927  0.81992947  1
  U  U11  1  0.97790879  0.50034927  0.18007053  1
  S  S12  1  0.66365175  0.54407445  0.90068622  1
  S  S13  1  0.83191709  0.95545751  0.40257927  1
  S  S14  1  0.33634825  0.04407445  0.09931378  1
  S  S15  1  0.16808291  0.45545751  0.59742073  1
  S  S16  1  0.33191709  0.45545751  0.09742073  1
  S  S17  1  0.16365175  0.04407445  0.59931378  1
  S  S18  1  0.66808291  0.95545751  0.90257927  1
  S  S19  1  0.83634825  0.54407445  0.40068622  1
  S  S20  1  0.29991237  0.74971837  0.78359375  1
  S  S21  1  0.20008763  0.74971837  0.28359375  1
  S  S22  1  0.70008763  0.24971837  0.21640625  1
  S  S23  1  0.79991237  0.24971837  0.71640625  1
  S  S24  1  0.67090053  0.74996929  0.18756976  1
  S  S25  1  0.82909947  0.74996929  0.68756976  1
  S  S26  1  0.32909947  0.24996929  0.81243024  1
  S  S27  1  0.17090053  0.24996929  0.31243024  1
  S  S28  1  0.03782677  0.75019427  0.00095851  1
  S  S29  1  0.46217323  0.75019427  0.50095851  1
  S  S30  1  0.96217323  0.25019427  0.99904149  1
  S  S31  1  0.53782677  0.25019427  0.49904149  1
