# generated using pymatgen
data_TaCrNi
_symmetry_space_group_name_H-M   'P 1'
_cell_length_a   4.91150620
_cell_length_b   4.79592805
_cell_length_c   7.87753572
_cell_angle_alpha   90.00000000
_cell_angle_beta   90.00000000
_cell_angle_gamma   119.22167806
_symmetry_Int_Tables_number   1
_chemical_formula_structural   TaCrNi
_chemical_formula_sum   'Ta4 Cr4 Ni4'
_cell_volume   161.94268691
_cell_formula_units_Z   4
loop_
 _symmetry_equiv_pos_site_id
 _symmetry_equiv_pos_as_xyz
  1  'x, y, z'
loop_
 _atom_site_type_symbol
 _atom_site_label
 _atom_site_symmetry_multiplicity
 _atom_site_fract_x
 _atom_site_fract_y
 _atom_site_fract_z
 _atom_site_occupancy
  Ta  Ta0  1  0.67251718  0.33625506  0.56166613  1
  Ta  Ta1  1  0.32781027  0.66391700  0.43808873  1
  Ta  Ta2  1  0.32781027  0.66391700  0.06191127  1
  Ta  Ta3  1  0.67251718  0.33625506  0.93833387  1
  Cr  Cr4  1  0.00378022  0.00186129  0.50081051  1
  Cr  Cr5  1  0.00378022  0.00186129  0.99918949  1
  Cr  Cr6  1  0.16654908  0.33442047  0.75000000  1
  Cr  Cr7  1  0.16654339  0.83211496  0.75000000  1
  Ni  Ni8  1  0.65426272  0.82714584  0.75000000  1
  Ni  Ni9  1  0.83340010  0.66387064  0.25000000  1
  Ni  Ni10  1  0.83342263  0.16955907  0.25000000  1
  Ni  Ni11  1  0.33760673  0.16882231  0.25000000  1
