# generated using pymatgen
data_Sr4Y2(Fe2O5)3
_symmetry_space_group_name_H-M   'P 1'
_cell_length_a   5.52112113
_cell_length_b   5.52112113
_cell_length_c   12.30982367
_cell_angle_alpha   77.33775167
_cell_angle_beta   77.33775167
_cell_angle_gamma   91.29119300
_symmetry_Int_Tables_number   1
_chemical_formula_structural   Sr4Y2(Fe2O5)3
_chemical_formula_sum   'Sr4 Y2 Fe6 O15'
_cell_volume   356.22414959
_cell_formula_units_Z   1
loop_
 _symmetry_equiv_pos_site_id
 _symmetry_equiv_pos_as_xyz
  1  'x, y, z'
loop_
 _atom_site_type_symbol
 _atom_site_label
 _atom_site_symmetry_multiplicity
 _atom_site_fract_x
 _atom_site_fract_y
 _atom_site_fract_z
 _atom_site_occupancy
  Sr  Sr0  1  0.09503858  0.56649033  0.83847110  1
  Sr  Sr1  1  0.56649033  0.09503858  0.83847110  1
  Sr  Sr2  1  0.40496142  0.93350967  0.16152890  1
  Sr  Sr3  1  0.93350967  0.40496142  0.16152890  1
  Y  Y4  1  0.25000000  0.75000000  0.50000000  1
  Y  Y5  1  0.75000000  0.25000000  0.50000000  1
  Fe  Fe6  1  0.50278823  0.50278823  0.00000000  1
  Fe  Fe7  1  0.99721177  0.99721177  0.00000000  1
  Fe  Fe8  1  0.16391143  0.16391143  0.66117883  1
  Fe  Fe9  1  0.67490974  0.67490974  0.66117883  1
  Fe  Fe10  1  0.33608857  0.33608857  0.33882117  1
  Fe  Fe11  1  0.82509026  0.82509026  0.33882117  1
  O  O12  1  0.43815289  0.93815289  0.62369421  1
  O  O13  1  0.93815289  0.43815289  0.62369421  1
  O  O14  1  0.94664850  0.94664850  0.60670299  1
  O  O15  1  0.43305280  0.43305280  0.63389441  1
  O  O16  1  0.56184711  0.06184711  0.37630579  1
  O  O17  1  0.06184711  0.56184711  0.37630579  1
  O  O18  1  0.06694720  0.06694720  0.36610559  1
  O  O19  1  0.55335150  0.55335150  0.39329701  1
  O  O20  1  0.05991797  0.05991797  0.82470931  1
  O  O21  1  0.61537271  0.61537271  0.82470931  1
  O  O22  1  0.44008203  0.44008203  0.17529069  1
  O  O23  1  0.88462729  0.88462729  0.17529069  1
  O  O24  1  0.25000000  0.25000000  0.00000000  1
  O  O25  1  0.25000000  0.75000000  0.00000000  1
  O  O26  1  0.75000000  0.25000000  0.00000000  1
