# generated using pymatgen
data_Sr4CaPr2Cu4HgO14
_symmetry_space_group_name_H-M   'P 1'
_cell_length_a   5.38350468
_cell_length_b   5.38350468
_cell_length_c   13.02976925
_cell_angle_alpha   78.05441245
_cell_angle_beta   78.05441245
_cell_angle_gamma   89.88965205
_symmetry_Int_Tables_number   1
_chemical_formula_structural   Sr4CaPr2Cu4HgO14
_chemical_formula_sum   'Sr4 Ca1 Pr2 Cu4 Hg1 O14'
_cell_volume   361.12159848
_cell_formula_units_Z   1
loop_
 _symmetry_equiv_pos_site_id
 _symmetry_equiv_pos_as_xyz
  1  'x, y, z'
loop_
 _atom_site_type_symbol
 _atom_site_label
 _atom_site_symmetry_multiplicity
 _atom_site_fract_x
 _atom_site_fract_y
 _atom_site_fract_z
 _atom_site_occupancy
  Sr  Sr0  1  0.10491191  0.60491191  0.79017618  1
  Sr  Sr1  1  0.60649396  0.10649396  0.78701207  1
  Sr  Sr2  1  0.39508809  0.89508809  0.20982382  1
  Sr  Sr3  1  0.89350604  0.39350604  0.21298793  1
  Ca  Ca4  1  0.75000000  0.25000000  0.50000000  1
  Pr  Pr5  1  0.25000000  0.75000000  0.50000000  1
  Pr  Pr6  1  0.00000000  0.00000000  -0.00000000  1
  Cu  Cu7  1  0.17671689  0.17671689  0.64656622  1
  Cu  Cu8  1  0.67864983  0.67864983  0.64270034  1
  Cu  Cu9  1  0.32135017  0.32135017  0.35729966  1
  Cu  Cu10  1  0.82328311  0.82328311  0.35343378  1
  Hg  Hg11  1  0.50000000  0.50000000  -0.00000000  1
  O  O12  1  0.43753626  0.43747796  0.62716150  1
  O  O13  1  0.93530223  0.93536054  0.62716150  1
  O  O14  1  0.56252204  0.56246374  0.37283850  1
  O  O15  1  0.06463946  0.06469777  0.37283850  1
  O  O16  1  0.43778027  0.93555188  0.62716155  1
  O  O17  1  0.93505818  0.43728657  0.62716155  1
  O  O18  1  0.56271343  0.06494182  0.37283845  1
  O  O19  1  0.06444812  0.56221973  0.37283845  1
  O  O20  1  0.50002812  0.00002812  0.99994377  1
  O  O21  1  0.99997188  0.49997188  0.00005623  1
  O  O22  1  0.09060373  0.09060373  0.81879254  1
  O  O23  1  0.58620006  0.58620006  0.82759988  1
  O  O24  1  0.41379994  0.41379994  0.17240012  1
  O  O25  1  0.90939627  0.90939627  0.18120746  1
