# generated using pymatgen
data_Sr2YCu2BiPbO8
_symmetry_space_group_name_H-M   'P 1'
_cell_length_a   3.77559397
_cell_length_b   3.77559397
_cell_length_c   15.79990424
_cell_angle_alpha   83.13650760
_cell_angle_beta   83.13650760
_cell_angle_gamma   89.98911192
_symmetry_Int_Tables_number   1
_chemical_formula_structural   Sr2YCu2BiPbO8
_chemical_formula_sum   'Sr2 Y1 Cu2 Bi1 Pb1 O8'
_cell_volume   221.99012388
_cell_formula_units_Z   1
loop_
 _symmetry_equiv_pos_site_id
 _symmetry_equiv_pos_as_xyz
  1  'x, y, z'
loop_
 _atom_site_type_symbol
 _atom_site_label
 _atom_site_symmetry_multiplicity
 _atom_site_fract_x
 _atom_site_fract_y
 _atom_site_fract_z
 _atom_site_occupancy
  Sr  Sr0  1  0.38347911  0.38347911  0.23304177  1
  Sr  Sr1  1  0.61130300  0.61130300  0.77739401  1
  Y  Y2  1  0.49873700  0.49873700  0.00252599  1
  Cu  Cu3  1  0.94519887  0.94519887  0.10960227  1
  Cu  Cu4  1  0.05112711  0.05112711  0.89774577  1
  Bi  Bi5  1  0.20127753  0.20127753  0.59744494  1
  Pb  Pb6  1  0.80021299  0.80021299  0.39957403  1
  O  O7  1  0.87215943  0.87215943  0.25568114  1
  O  O8  1  0.13345231  0.13345231  0.73309537  1
  O  O9  1  0.45382309  0.95382309  0.09235382  1
  O  O10  1  0.04877406  0.54877406  0.90245187  1
  O  O11  1  0.54877406  0.04877406  0.90245187  1
  O  O12  1  0.95382309  0.45382309  0.09235382  1
  O  O13  1  0.30243873  0.30243873  0.39512255  1
  O  O14  1  0.69541962  0.69541962  0.60916077  1
