# generated using pymatgen
data_Sr10Cu5Mo4WO30
_symmetry_space_group_name_H-M   'P 1'
_cell_length_a   5.75680674
_cell_length_b   5.75680674
_cell_length_c   19.82899558
_cell_angle_alpha   82.38734271
_cell_angle_beta   97.61265729
_cell_angle_gamma   84.93678138
_symmetry_Int_Tables_number   1
_chemical_formula_structural   Sr10Cu5Mo4WO30
_chemical_formula_sum   'Sr10 Cu5 Mo4 W1 O30'
_cell_volume   641.86157489
_cell_formula_units_Z   1
loop_
 _symmetry_equiv_pos_site_id
 _symmetry_equiv_pos_as_xyz
  1  'x, y, z'
loop_
 _atom_site_type_symbol
 _atom_site_label
 _atom_site_symmetry_multiplicity
 _atom_site_fract_x
 _atom_site_fract_y
 _atom_site_fract_z
 _atom_site_occupancy
  Sr  Sr0  1  0.84993946  0.65002506  0.69989576  1
  Sr  Sr1  1  0.24997865  0.24997865  0.50000000  1
  Sr  Sr2  1  0.65002506  0.84993946  0.30010424  1
  Sr  Sr3  1  0.44963175  0.05032730  0.89937602  1
  Sr  Sr4  1  0.05032730  0.44963175  0.10062398  1
  Sr  Sr5  1  0.34997494  0.15006054  0.69989576  1
  Sr  Sr6  1  0.75002135  0.75002135  0.50000000  1
  Sr  Sr7  1  0.15006054  0.34997494  0.30010424  1
  Sr  Sr8  1  0.94967270  0.55036825  0.89937602  1
  Sr  Sr9  1  0.55036825  0.94967270  0.10062398  1
  Cu  Cu10  1  0.89991144  0.10008856  0.79959586  1
  Cu  Cu11  1  0.30003247  0.69996753  0.60002101  1
  Cu  Cu12  1  0.69996753  0.30003247  0.39997899  1
  Cu  Cu13  1  0.50000000  0.50000000  -0.00000000  1
  Cu  Cu14  1  0.10008856  0.89991144  0.20040414  1
  Mo  Mo15  1  0.59998691  0.40001309  0.20006500  1
  Mo  Mo16  1  0.20006900  0.79993100  0.40008119  1
  Mo  Mo17  1  0.79993100  0.20006900  0.59991881  1
  Mo  Mo18  1  0.40001309  0.59998691  0.79993500  1
  W  W19  1  0.00000000  -0.00000000  -0.00000000  1
  O  O20  1  0.62961213  0.82954259  0.79999955  1
  O  O21  1  0.02961285  0.42955669  0.59999852  1
  O  O22  1  0.42955669  0.02961285  0.40000148  1
  O  O23  1  0.22965218  0.22965218  -0.00000000  1
  O  O24  1  0.82954259  0.62961213  0.20000045  1
  O  O25  1  0.57044331  0.97038715  0.59999852  1
  O  O26  1  0.97038715  0.57044331  0.40000148  1
  O  O27  1  0.37038787  0.17045741  0.20000045  1
  O  O28  1  0.17045741  0.37038787  0.79999955  1
  O  O29  1  0.77034782  0.77034782  0.00000000  1
  O  O30  1  0.50521108  0.49478892  0.10158316  1
  O  O31  1  0.10502972  0.89497028  0.30155570  1
  O  O32  1  0.70503912  0.29496088  0.50155757  1
  O  O33  1  0.30506647  0.69493353  0.70152067  1
  O  O34  1  0.90474840  0.09525160  0.90142435  1
  O  O35  1  0.89497028  0.10502972  0.69844430  1
  O  O36  1  0.49478892  0.50521108  0.89841684  1
  O  O37  1  0.09525160  0.90474840  0.09857565  1
  O  O38  1  0.69493353  0.30506647  0.29847933  1
  O  O39  1  0.29496088  0.70503912  0.49844243  1
  O  O40  1  0.16283130  0.83716870  0.81820272  1
  O  O41  1  0.76278978  0.23721022  0.01848880  1
  O  O42  1  0.36284592  0.63715408  0.21833073  1
  O  O43  1  0.96283479  0.03716521  0.41827967  1
  O  O44  1  0.56286109  0.43713891  0.61829013  1
  O  O45  1  0.23721022  0.76278978  0.98151120  1
  O  O46  1  0.83716870  0.16283130  0.18179728  1
  O  O47  1  0.43713891  0.56286109  0.38170987  1
  O  O48  1  0.03716521  0.96283479  0.58172033  1
  O  O49  1  0.63715408  0.36284592  0.78166927  1
