# generated using pymatgen
data_Sm2Fe20Si2C
_symmetry_space_group_name_H-M   'P 1'
_cell_length_a   6.36849699
_cell_length_b   7.82014113
_cell_length_c   7.84061441
_cell_angle_alpha   100.70314507
_cell_angle_beta   114.57763425
_cell_angle_gamma   65.67329070
_symmetry_Int_Tables_number   1
_chemical_formula_structural   Sm2Fe20Si2C
_chemical_formula_sum   'Sm2 Fe20 Si2 C1'
_cell_volume   323.52627867
_cell_formula_units_Z   1
loop_
 _symmetry_equiv_pos_site_id
 _symmetry_equiv_pos_as_xyz
  1  'x, y, z'
loop_
 _atom_site_type_symbol
 _atom_site_label
 _atom_site_symmetry_multiplicity
 _atom_site_fract_x
 _atom_site_fract_y
 _atom_site_fract_z
 _atom_site_occupancy
  Sm  Sm0  1  0.37596837  0.74854490  0.25409391  1
  Sm  Sm1  1  0.62403163  0.25145510  0.74590609  1
  Fe  Fe2  1  0.17729210  0.58330278  0.82520626  1
  Fe  Fe3  1  0.43354266  0.32401407  0.07885172  1
  Fe  Fe4  1  0.27513662  0.41993362  0.33347783  1
  Fe  Fe5  1  0.86130344  0.83813007  0.91874688  1
  Fe  Fe6  1  0.19976380  0.16478325  0.42263868  1
  Fe  Fe7  1  0.44129320  0.92044416  0.67223568  1
  Fe  Fe8  1  0.25520184  0.67897203  0.57789767  1
  Fe  Fe9  1  0.85853146  0.07694659  0.17752443  1
  Fe  Fe10  1  0.82270790  0.41669722  0.17479374  1
  Fe  Fe11  1  0.56645734  0.67598593  0.92114828  1
  Fe  Fe12  1  0.72486338  0.58006638  0.66652217  1
  Fe  Fe13  1  0.13869656  0.16186993  0.08125312  1
  Fe  Fe14  1  0.80023620  0.83521675  0.57736132  1
  Fe  Fe15  1  0.55870680  0.07955584  0.32776432  1
  Fe  Fe16  1  0.74479816  0.32102797  0.42210233  1
  Fe  Fe17  1  0.14146854  0.92305341  0.82247557  1
  Fe  Fe18  1  0.12198944  0.24722625  0.74920065  1
  Fe  Fe19  1  0.87801056  0.75277375  0.25079935  1
  Fe  Fe20  1  0.00000000  0.50000000  -0.00000000  1
  Fe  Fe21  1  0.00000000  0.50000000  0.50000000  1
  Si  Si22  1  0.50000000  -0.00000000  -0.00000000  1
  Si  Si23  1  0.00000000  -0.00000000  0.50000000  1
  C  C24  1  0.50000000  0.50000000  -0.00000000  1
