# generated using pymatgen
data_PrSmFe4
_symmetry_space_group_name_H-M   'P 1'
_cell_length_a   5.27689126
_cell_length_b   5.27689126
_cell_length_c   5.27689126
_cell_angle_alpha   90.00000000
_cell_angle_beta   60.00000000
_cell_angle_gamma   120.00000000
_symmetry_Int_Tables_number   1
_chemical_formula_structural   PrSmFe4
_chemical_formula_sum   'Pr1 Sm1 Fe4'
_cell_volume   103.90093014
_cell_formula_units_Z   1
loop_
 _symmetry_equiv_pos_site_id
 _symmetry_equiv_pos_as_xyz
  1  'x, y, z'
loop_
 _atom_site_type_symbol
 _atom_site_label
 _atom_site_symmetry_multiplicity
 _atom_site_fract_x
 _atom_site_fract_y
 _atom_site_fract_z
 _atom_site_occupancy
  Pr  Pr0  1  0.50000000  0.75000000  0.75000000  1
  Sm  Sm1  1  0.00000000  0.00000000  0.00000000  1
  Fe  Fe2  1  0.75012512  0.37506256  0.87481232  1
  Fe  Fe3  1  0.24987488  0.37506256  0.37506256  1
  Fe  Fe4  1  0.24987488  0.87481232  0.37506256  1
  Fe  Fe5  1  0.75012512  0.37506256  0.37506256  1
