# generated using pymatgen
data_NbVRe
_symmetry_space_group_name_H-M   'P 1'
_cell_length_a   2.75612432
_cell_length_b   2.75612432
_cell_length_c   6.76042474
_cell_angle_alpha   97.56828603
_cell_angle_beta   97.56828603
_cell_angle_gamma   110.72452431
_symmetry_Int_Tables_number   1
_chemical_formula_structural   NbVRe
_chemical_formula_sum   'Nb1 V1 Re1'
_cell_volume   46.72341880
_cell_formula_units_Z   1
loop_
 _symmetry_equiv_pos_site_id
 _symmetry_equiv_pos_as_xyz
  1  'x, y, z'
loop_
 _atom_site_type_symbol
 _atom_site_label
 _atom_site_symmetry_multiplicity
 _atom_site_fract_x
 _atom_site_fract_y
 _atom_site_fract_z
 _atom_site_occupancy
  Nb  Nb0  1  0.99895098  0.99895098  0.99790196  1
  V  V1  1  0.32729738  0.32729738  0.65459576  1
  Re  Re2  1  0.67375164  0.67375164  0.34750228  1
