# generated using pymatgen
data_Rb(MoS)9
_symmetry_space_group_name_H-M   'P 1'
_cell_length_a   9.05799528
_cell_length_b   9.05806289
_cell_length_c   13.13861100
_cell_angle_alpha   90.00000000
_cell_angle_beta   90.00000000
_cell_angle_gamma   59.99204182
_symmetry_Int_Tables_number   1
_chemical_formula_structural   Rb(MoS)9
_chemical_formula_sum   'Rb2 Mo18 S18'
_cell_volume   933.49646007
_cell_formula_units_Z   2
loop_
 _symmetry_equiv_pos_site_id
 _symmetry_equiv_pos_as_xyz
  1  'x, y, z'
loop_
 _atom_site_type_symbol
 _atom_site_label
 _atom_site_symmetry_multiplicity
 _atom_site_fract_x
 _atom_site_fract_y
 _atom_site_fract_z
 _atom_site_occupancy
  Rb  Rb0  1  0.66669329  0.66669472  0.25000000  1
  Rb  Rb1  1  0.33330671  0.33330528  0.75000000  1
  Mo  Mo2  1  0.18602697  0.84080762  0.25000000  1
  Mo  Mo3  1  0.18780392  0.83983111  0.58323975  1
  Mo  Mo4  1  0.18780392  0.83983111  0.91676025  1
  Mo  Mo5  1  0.97318534  0.18602052  0.25000000  1
  Mo  Mo6  1  0.97237556  0.18779745  0.58323683  1
  Mo  Mo7  1  0.97237556  0.18779745  0.91676317  1
  Mo  Mo8  1  0.84079954  0.97317841  0.25000000  1
  Mo  Mo9  1  0.83983400  0.97236119  0.58323875  1
  Mo  Mo10  1  0.83983400  0.97236119  0.91676125  1
  Mo  Mo11  1  0.81219608  0.16016889  0.08323975  1
  Mo  Mo12  1  0.81219608  0.16016889  0.41676025  1
  Mo  Mo13  1  0.81397303  0.15919238  0.75000000  1
  Mo  Mo14  1  0.02762444  0.81220255  0.08323683  1
  Mo  Mo15  1  0.02762444  0.81220255  0.41676317  1
  Mo  Mo16  1  0.02681466  0.81397948  0.75000000  1
  Mo  Mo17  1  0.16016600  0.02763881  0.08323875  1
  Mo  Mo18  1  0.16016600  0.02763881  0.41676125  1
  Mo  Mo19  1  0.15920046  0.02682159  0.75000000  1
  S  S20  1  0.05070349  0.65898866  0.25000000  1
  S  S21  1  0.05046485  0.65918907  0.58352752  1
  S  S22  1  0.05046485  0.65918907  0.91647248  1
  S  S23  1  0.29030153  0.05071274  0.25000000  1
  S  S24  1  0.29035036  0.05046570  0.58352673  1
  S  S25  1  0.29035036  0.05046570  0.91647327  1
  S  S26  1  0.65897144  0.29031958  0.25000000  1
  S  S27  1  0.65917303  0.29035713  0.58352605  1
  S  S28  1  0.65917303  0.29035713  0.91647395  1
  S  S29  1  0.94953515  0.34081093  0.08352752  1
  S  S30  1  0.94953515  0.34081093  0.41647248  1
  S  S31  1  0.94929651  0.34101134  0.75000000  1
  S  S32  1  0.70964964  0.94953430  0.08352673  1
  S  S33  1  0.70964964  0.94953430  0.41647327  1
  S  S34  1  0.70969847  0.94928726  0.75000000  1
  S  S35  1  0.34082697  0.70964287  0.08352605  1
  S  S36  1  0.34082697  0.70964287  0.41647395  1
  S  S37  1  0.34102856  0.70968042  0.75000000  1
