# generated using pymatgen
data_NbCrGa
_symmetry_space_group_name_H-M   'P 1'
_cell_length_a   5.12482618
_cell_length_b   5.00428591
_cell_length_c   8.00184391
_cell_angle_alpha   90.00000000
_cell_angle_beta   90.00000000
_cell_angle_gamma   119.22811178
_symmetry_Int_Tables_number   1
_chemical_formula_structural   NbCrGa
_chemical_formula_sum   'Nb4 Cr4 Ga4'
_cell_volume   179.08847999
_cell_formula_units_Z   4
loop_
 _symmetry_equiv_pos_site_id
 _symmetry_equiv_pos_as_xyz
  1  'x, y, z'
loop_
 _atom_site_type_symbol
 _atom_site_label
 _atom_site_symmetry_multiplicity
 _atom_site_fract_x
 _atom_site_fract_y
 _atom_site_fract_z
 _atom_site_occupancy
  Nb  Nb0  1  0.66118860  0.33058384  0.56536141  1
  Nb  Nb1  1  0.32978648  0.66489096  0.45000396  1
  Nb  Nb2  1  0.32978648  0.66489096  0.04999604  1
  Nb  Nb3  1  0.66118860  0.33058384  0.93463859  1
  Cr  Cr4  1  0.02338183  0.01173857  0.51466356  1
  Cr  Cr5  1  0.02338183  0.01173857  0.98533644  1
  Cr  Cr6  1  0.15802093  0.33008798  0.75000000  1
  Cr  Cr7  1  0.15797805  0.82783858  0.75000000  1
  Ga  Ga8  1  0.64687979  0.82341574  0.75000000  1
  Ga  Ga9  1  0.83343939  0.66481772  0.25000000  1
  Ga  Ga10  1  0.83343179  0.16863253  0.25000000  1
  Ga  Ga11  1  0.34153621  0.17078072  0.25000000  1
