# generated using pymatgen
data_Pr2In3Ni
_symmetry_space_group_name_H-M   'P 1'
_cell_length_a   3.86951214
_cell_length_b   4.80540835
_cell_length_c   8.31248065
_cell_angle_alpha   89.98362870
_cell_angle_beta   90.00000000
_cell_angle_gamma   90.00000000
_symmetry_Int_Tables_number   1
_chemical_formula_structural   Pr2In3Ni
_chemical_formula_sum   'Pr2 In3 Ni1'
_cell_volume   154.56712956
_cell_formula_units_Z   1
loop_
 _symmetry_equiv_pos_site_id
 _symmetry_equiv_pos_as_xyz
  1  'x, y, z'
loop_
 _atom_site_type_symbol
 _atom_site_label
 _atom_site_symmetry_multiplicity
 _atom_site_fract_x
 _atom_site_fract_y
 _atom_site_fract_z
 _atom_site_occupancy
  Pr  Pr0  1  0.00000000  0.99994725  0.02845307  1
  Pr  Pr1  1  0.00000000  0.49989073  0.48612308  1
  In  In2  1  0.50000000  0.50007540  0.83473395  1
  In  In3  1  0.50000000  0.49994548  0.18209593  1
  In  In4  1  0.50000000  -0.00006198  0.64488071  1
  Ni  Ni5  1  0.50000000  0.00000312  0.32371326  1
