# generated using pymatgen
data_Ni(Mo3Se4)2
_symmetry_space_group_name_H-M   'P 1'
_cell_length_a   6.82821463
_cell_length_b   6.77369365
_cell_length_c   6.78962279
_cell_angle_alpha   93.15343312
_cell_angle_beta   91.53354699
_cell_angle_gamma   90.38830213
_symmetry_Int_Tables_number   1
_chemical_formula_structural   Ni(Mo3Se4)2
_chemical_formula_sum   'Ni1 Mo6 Se8'
_cell_volume   313.43669762
_cell_formula_units_Z   1
loop_
 _symmetry_equiv_pos_site_id
 _symmetry_equiv_pos_as_xyz
  1  'x, y, z'
loop_
 _atom_site_type_symbol
 _atom_site_label
 _atom_site_symmetry_multiplicity
 _atom_site_fract_x
 _atom_site_fract_y
 _atom_site_fract_z
 _atom_site_occupancy
  Ni  Ni0  1  0.93881322  0.84074671  0.50474507  1
  Mo  Mo1  1  0.54441911  0.41663480  0.23067868  1
  Mo  Mo2  1  0.44461095  0.58575550  0.76272501  1
  Mo  Mo3  1  0.42136300  0.23511914  0.54768028  1
  Mo  Mo4  1  0.57123111  0.77101548  0.45201936  1
  Mo  Mo5  1  0.22768813  0.54411464  0.41693600  1
  Mo  Mo6  1  0.77429617  0.45627076  0.58200560  1
  Se  Se7  1  0.12932045  0.38248207  0.74186290  1
  Se  Se8  1  0.87461129  0.60606161  0.25011206  1
  Se  Se9  1  0.74626323  0.11884024  0.37949617  1
  Se  Se10  1  0.26031433  0.88638923  0.62983971  1
  Se  Se11  1  0.22733235  0.21754021  0.21603572  1
  Se  Se12  1  0.77606332  0.78066266  0.79540984  1
  Se  Se13  1  0.37135649  0.73614671  0.13092220  1
  Se  Se14  1  0.62911685  0.26392026  0.86673140  1
