# generated using pymatgen
data_Mn4H2C8O17
_symmetry_space_group_name_H-M   'P 1'
_cell_length_a   7.18983849
_cell_length_b   9.13243466
_cell_length_c   11.94568303
_cell_angle_alpha   90.00000000
_cell_angle_beta   90.00000000
_cell_angle_gamma   90.00000000
_symmetry_Int_Tables_number   1
_chemical_formula_structural   Mn4H2C8O17
_chemical_formula_sum   'Mn8 H4 C16 O34'
_cell_volume   784.36227080
_cell_formula_units_Z   2
loop_
 _symmetry_equiv_pos_site_id
 _symmetry_equiv_pos_as_xyz
  1  'x, y, z'
loop_
 _atom_site_type_symbol
 _atom_site_label
 _atom_site_symmetry_multiplicity
 _atom_site_fract_x
 _atom_site_fract_y
 _atom_site_fract_z
 _atom_site_occupancy
  Mn  Mn0  1  0.99601781  0.18097408  0.04603764  1
  Mn  Mn1  1  0.50299722  0.31812098  0.54837208  1
  Mn  Mn2  1  0.50299722  0.68187902  0.95162792  1
  Mn  Mn3  1  0.99601781  0.81902592  0.45396236  1
  Mn  Mn4  1  0.00299722  0.81812098  0.95162792  1
  Mn  Mn5  1  0.49601781  0.68097408  0.45396236  1
  Mn  Mn6  1  0.49601781  0.31902592  0.04603764  1
  Mn  Mn7  1  0.00299722  0.18187902  0.54837208  1
  H  H8  1  0.99205244  0.41304524  0.24241816  1
  H  H9  1  0.99205244  0.58695476  0.25758184  1
  H  H10  1  0.49205244  0.91304524  0.25758184  1
  H  H11  1  0.49205244  0.08695476  0.24241816  1
  C  C12  1  0.89355902  0.50260647  0.00666623  1
  C  C13  1  0.60761815  0.99699592  0.50636085  1
  C  C14  1  0.60761815  0.00300408  0.99363915  1
  C  C15  1  0.89355902  0.49739353  0.49333377  1
  C  C16  1  0.10761815  0.49699592  0.99363915  1
  C  C17  1  0.39355902  0.00260647  0.49333377  1
  C  C18  1  0.39355902  0.99739353  0.00666623  1
  C  C19  1  0.10761815  0.50300408  0.50636085  1
  C  C20  1  0.01108431  0.07331448  0.78355413  1
  C  C21  1  0.48677175  0.42695509  0.28364228  1
  C  C22  1  0.48677175  0.57304491  0.21635772  1
  C  C23  1  0.01108431  0.92668552  0.71644587  1
  C  C24  1  0.98677175  0.92695509  0.21635772  1
  C  C25  1  0.51108431  0.57331448  0.71644587  1
  C  C26  1  0.51108431  0.42668552  0.78355413  1
  C  C27  1  0.98677175  0.07304491  0.28364228  1
  O  O28  1  0.81604496  0.62303599  0.98226000  1
  O  O29  1  0.68450342  0.87549136  0.48468214  1
  O  O30  1  0.68450342  0.12450864  0.01531786  1
  O  O31  1  0.81604496  0.37696401  0.51774000  1
  O  O32  1  0.18450342  0.37549136  0.01531786  1
  O  O33  1  0.31604496  0.12303599  0.51774000  1
  O  O34  1  0.31604496  0.87696401  0.98226000  1
  O  O35  1  0.18450342  0.62450864  0.48468214  1
  O  O36  1  0.01392258  0.05790587  0.88958193  1
  O  O37  1  0.48751710  0.44112304  0.38944133  1
  O  O38  1  0.48751710  0.55887696  0.11055867  1
  O  O39  1  0.01392258  0.94209413  0.61041807  1
  O  O40  1  0.98751710  0.94112304  0.11055867  1
  O  O41  1  0.51392258  0.55790587  0.61041807  1
  O  O42  1  0.51392258  0.44209413  0.88958193  1
  O  O43  1  0.98751710  0.05887696  0.38944133  1
  O  O44  1  0.81487784  0.38640798  0.03952302  1
  O  O45  1  0.68534402  0.11352699  0.53905039  1
  O  O46  1  0.68534402  0.88647301  0.96094961  1
  O  O47  1  0.81487784  0.61359202  0.46047698  1
  O  O48  1  0.18534402  0.61352699  0.96094961  1
  O  O49  1  0.31487784  0.88640798  0.46047698  1
  O  O50  1  0.31487784  0.11359202  0.03952302  1
  O  O51  1  0.18534402  0.38647301  0.53905039  1
  O  O52  1  0.00856171  0.19206361  0.73082392  1
  O  O53  1  0.48939054  0.30854446  0.22962027  1
  O  O54  1  0.48939054  0.69145554  0.27037973  1
  O  O55  1  0.00856171  0.80793639  0.76917608  1
  O  O56  1  0.98939054  0.80854446  0.27037973  1
  O  O57  1  0.50856171  0.69206361  0.76917608  1
  O  O58  1  0.50856171  0.30793639  0.73082392  1
  O  O59  1  0.98939054  0.19145554  0.22962027  1
  O  O60  1  0.07017425  0.50000000  0.25000000  1
  O  O61  1  0.57017425  0.00000000  0.25000000  1
