# generated using pymatgen
data_Nb3ZnAu
_symmetry_space_group_name_H-M   'P 1'
_cell_length_a   7.02436322
_cell_length_b   7.02436322
_cell_length_c   7.02436322
_cell_angle_alpha   90.00000000
_cell_angle_beta   90.00000000
_cell_angle_gamma   90.00000000
_symmetry_Int_Tables_number   1
_chemical_formula_structural   Nb3ZnAu
_chemical_formula_sum   'Nb12 Zn4 Au4'
_cell_volume   346.59387270
_cell_formula_units_Z   4
loop_
 _symmetry_equiv_pos_site_id
 _symmetry_equiv_pos_as_xyz
  1  'x, y, z'
loop_
 _atom_site_type_symbol
 _atom_site_label
 _atom_site_symmetry_multiplicity
 _atom_site_fract_x
 _atom_site_fract_y
 _atom_site_fract_z
 _atom_site_occupancy
  Nb  Nb0  1  0.95135971  0.37713872  0.79302001  1
  Nb  Nb1  1  0.04864029  0.87713872  0.70697999  1
  Nb  Nb2  1  0.45135971  0.12286128  0.20697999  1
  Nb  Nb3  1  0.54864029  0.62286128  0.29302001  1
  Nb  Nb4  1  0.37713872  0.79302001  0.95135971  1
  Nb  Nb5  1  0.87713872  0.70697999  0.04864029  1
  Nb  Nb6  1  0.12286128  0.20697999  0.45135971  1
  Nb  Nb7  1  0.62286128  0.29302001  0.54864029  1
  Nb  Nb8  1  0.79302001  0.95135971  0.37713872  1
  Nb  Nb9  1  0.70697999  0.04864029  0.87713872  1
  Nb  Nb10  1  0.20697999  0.45135971  0.12286128  1
  Nb  Nb11  1  0.29302001  0.54864029  0.62286128  1
  Zn  Zn12  1  0.43790752  0.93790752  0.56209248  1
  Zn  Zn13  1  0.93790752  0.56209248  0.43790752  1
  Zn  Zn14  1  0.56209248  0.43790752  0.93790752  1
  Zn  Zn15  1  0.06209248  0.06209248  0.06209248  1
  Au  Au16  1  0.81451218  0.31451218  0.18548782  1
  Au  Au17  1  0.18548782  0.81451218  0.31451218  1
  Au  Au18  1  0.31451218  0.18548782  0.81451218  1
  Au  Au19  1  0.68548782  0.68548782  0.68548782  1
