# generated using pymatgen
data_MnFeSi4
_symmetry_space_group_name_H-M   'P 1'
_cell_length_a   2.72946996
_cell_length_b   2.72946996
_cell_length_c   10.28549312
_cell_angle_alpha   90.00000000
_cell_angle_beta   90.00000000
_cell_angle_gamma   90.00000000
_symmetry_Int_Tables_number   1
_chemical_formula_structural   MnFeSi4
_chemical_formula_sum   'Mn1 Fe1 Si4'
_cell_volume   76.62698816
_cell_formula_units_Z   1
loop_
 _symmetry_equiv_pos_site_id
 _symmetry_equiv_pos_as_xyz
  1  'x, y, z'
loop_
 _atom_site_type_symbol
 _atom_site_label
 _atom_site_symmetry_multiplicity
 _atom_site_fract_x
 _atom_site_fract_y
 _atom_site_fract_z
 _atom_site_occupancy
  Mn  Mn0  1  -0.00000000  -0.00000000  0.50000000  1
  Fe  Fe1  1  -0.00000000  0.00000000  0.00000000  1
  Si  Si2  1  0.50000000  0.50000000  0.36452565  1
  Si  Si3  1  0.50000000  0.50000000  0.86433904  1
  Si  Si4  1  0.50000000  0.50000000  0.13566096  1
  Si  Si5  1  0.50000000  0.50000000  0.63547435  1
