# generated using pymatgen
data_Mn2Ni(BiO3)3
_symmetry_space_group_name_H-M   'P 1'
_cell_length_a   5.53495378
_cell_length_b   13.47238357
_cell_length_c   5.53495378
_cell_angle_alpha   89.95265236
_cell_angle_beta   118.72210274
_cell_angle_gamma   90.04734764
_symmetry_Int_Tables_number   1
_chemical_formula_structural   Mn2Ni(BiO3)3
_chemical_formula_sum   'Mn4 Ni2 Bi6 O18'
_cell_volume   361.95321496
_cell_formula_units_Z   2
loop_
 _symmetry_equiv_pos_site_id
 _symmetry_equiv_pos_as_xyz
  1  'x, y, z'
loop_
 _atom_site_type_symbol
 _atom_site_label
 _atom_site_symmetry_multiplicity
 _atom_site_fract_x
 _atom_site_fract_y
 _atom_site_fract_z
 _atom_site_occupancy
  Mn  Mn0  1  0.49920728  0.99937396  0.49525855  1
  Mn  Mn1  1  0.83412572  0.33395904  0.17140845  1
  Mn  Mn2  1  0.50474145  0.49937396  0.50079272  1
  Mn  Mn3  1  0.82859155  0.83395904  0.16587428  1
  Ni  Ni4  1  0.16666700  0.66666700  0.83333300  1
  Ni  Ni5  1  0.16666700  0.16666700  0.83333300  1
  Bi  Bi6  1  0.86331501  0.58795721  0.18881359  1
  Bi  Bi7  1  0.19301738  0.91666700  0.85968338  1
  Bi  Bi8  1  0.52214659  0.24537579  0.52998201  1
  Bi  Bi9  1  0.14031662  0.41666700  0.80698262  1
  Bi  Bi10  1  0.47001799  0.74537579  0.47785341  1
  Bi  Bi11  1  0.81118641  0.08795721  0.13668499  1
  O  O12  1  0.90023995  0.75253716  0.92045640  1
  O  O13  1  0.25378940  0.08079584  0.56690695  1
  O  O14  1  0.57373306  0.41666700  0.24039906  1
  O  O15  1  0.07954360  0.25253716  0.09976005  1
  O  O16  1  0.43309305  0.58079584  0.74621060  1
  O  O17  1  0.75960094  0.91666700  0.42626694  1
  O  O18  1  0.87221235  0.56239206  0.62397357  1
  O  O19  1  0.20240995  0.89798502  0.29589785  1
  O  O20  1  0.53985171  0.23236273  0.96368273  1
  O  O21  1  0.29701573  0.60097027  0.20651871  1
  O  O22  1  0.62923085  0.93534798  0.86907695  1
  O  O23  1  0.95730757  0.27094194  0.53887835  1
  O  O24  1  0.70410215  0.39798502  0.79759005  1
  O  O25  1  0.03631727  0.73236273  0.46014829  1
  O  O26  1  0.37602643  0.06239206  0.12778765  1
  O  O27  1  0.13092305  0.43534798  0.37076915  1
  O  O28  1  0.46112165  0.77094194  0.04269243  1
  O  O29  1  0.79348129  0.10097027  0.70298427  1
