# generated using pymatgen
data_LiEu(WO4)2
_symmetry_space_group_name_H-M   'P 1'
_cell_length_a   5.32080818
_cell_length_b   5.32080818
_cell_length_c   6.79161355
_cell_angle_alpha   66.93849267
_cell_angle_beta   66.93849267
_cell_angle_gamma   90.00000000
_symmetry_Int_Tables_number   1
_chemical_formula_structural   LiEu(WO4)2
_chemical_formula_sum   'Li1 Eu1 W2 O8'
_cell_volume   160.07738704
_cell_formula_units_Z   1
loop_
 _symmetry_equiv_pos_site_id
 _symmetry_equiv_pos_as_xyz
  1  'x, y, z'
loop_
 _atom_site_type_symbol
 _atom_site_label
 _atom_site_symmetry_multiplicity
 _atom_site_fract_x
 _atom_site_fract_y
 _atom_site_fract_z
 _atom_site_occupancy
  Li  Li0  1  0.87500000  0.12500000  0.25000000  1
  Eu  Eu1  1  0.12500000  0.87500000  0.75000000  1
  W  W2  1  0.37500000  0.62500000  0.25000000  1
  W  W3  1  0.62500000  0.37500000  0.75000000  1
  O  O4  1  0.44225257  0.77602353  0.42856256  1
  O  O5  1  0.12918486  0.29541391  0.42856256  1
  O  O6  1  0.77980574  0.12833331  0.92477878  1
  O  O7  1  0.29541548  0.44688791  0.92477878  1
  O  O8  1  0.55311209  0.22019426  0.57522122  1
  O  O9  1  0.87166669  0.70458452  0.57522122  1
  O  O10  1  0.22397647  0.87081514  0.07143744  1
  O  O11  1  0.70458609  0.55774743  0.07143744  1
