# generated using pymatgen
data_MgTiBO4
_symmetry_space_group_name_H-M   'P 1'
_cell_length_a   3.12797515
_cell_length_b   9.45306105
_cell_length_c   9.51101155
_cell_angle_alpha   90.00000000
_cell_angle_beta   90.00000000
_cell_angle_gamma   90.00000000
_symmetry_Int_Tables_number   1
_chemical_formula_structural   MgTiBO4
_chemical_formula_sum   'Mg4 Ti4 B4 O16'
_cell_volume   281.23053039
_cell_formula_units_Z   4
loop_
 _symmetry_equiv_pos_site_id
 _symmetry_equiv_pos_as_xyz
  1  'x, y, z'
loop_
 _atom_site_type_symbol
 _atom_site_label
 _atom_site_symmetry_multiplicity
 _atom_site_fract_x
 _atom_site_fract_y
 _atom_site_fract_z
 _atom_site_occupancy
  Mg  Mg0  1  0.25000000  0.60231413  0.30855363  1
  Mg  Mg1  1  0.25000000  0.10231413  0.19144637  1
  Mg  Mg2  1  0.25000000  0.62303451  0.93385381  1
  Mg  Mg3  1  0.25000000  0.12303451  0.56614619  1
  Ti  Ti4  1  0.75000000  0.39978000  0.69329648  1
  Ti  Ti5  1  0.75000000  0.89978000  0.80670352  1
  Ti  Ti6  1  0.75000000  0.38797060  0.06960023  1
  Ti  Ti7  1  0.75000000  0.88797060  0.43039977  1
  B  B8  1  0.25000000  0.67060474  0.62252640  1
  B  B9  1  0.25000000  0.17060474  0.87747360  1
  B  B10  1  0.75000000  0.33407867  0.37555315  1
  B  B11  1  0.75000000  0.83407867  0.12444685  1
  O  O12  1  0.25000000  0.52456228  0.63099439  1
  O  O13  1  0.25000000  0.02456228  0.86900561  1
  O  O14  1  0.75000000  0.47746315  0.36856058  1
  O  O15  1  0.75000000  0.97746315  0.13143942  1
  O  O16  1  0.25000000  0.50640784  0.11652164  1
  O  O17  1  0.25000000  0.00640784  0.38347836  1
  O  O18  1  0.75000000  0.47486565  0.88107902  1
  O  O19  1  0.75000000  0.97486565  0.61892098  1
  O  O20  1  0.25000000  0.74546240  0.74902805  1
  O  O21  1  0.25000000  0.24546240  0.75097195  1
  O  O22  1  0.75000000  0.25357762  0.25105034  1
  O  O23  1  0.75000000  0.75357762  0.24894966  1
  O  O24  1  0.25000000  0.73557896  0.49291514  1
  O  O25  1  0.25000000  0.23557896  0.00708486  1
  O  O26  1  0.75000000  0.26429945  0.50737578  1
  O  O27  1  0.75000000  0.76429945  0.99262422  1
