# generated using pymatgen
data_LiZnFeO3
_symmetry_space_group_name_H-M   'P 1'
_cell_length_a   3.01343675
_cell_length_b   4.19719402
_cell_length_c   5.23144988
_cell_angle_alpha   66.34990758
_cell_angle_beta   73.26103630
_cell_angle_gamma   90.00000000
_symmetry_Int_Tables_number   1
_chemical_formula_structural   LiZnFeO3
_chemical_formula_sum   'Li1 Zn1 Fe1 O3'
_cell_volume   57.53615162
_cell_formula_units_Z   1
loop_
 _symmetry_equiv_pos_site_id
 _symmetry_equiv_pos_as_xyz
  1  'x, y, z'
loop_
 _atom_site_type_symbol
 _atom_site_label
 _atom_site_symmetry_multiplicity
 _atom_site_fract_x
 _atom_site_fract_y
 _atom_site_fract_z
 _atom_site_occupancy
  Li  Li0  1  0.00055857  0.00055857  0.99888285  1
  Zn  Zn1  1  0.33639219  0.33639219  0.32721461  1
  Fe  Fe2  1  0.66356230  0.66356230  0.67287640  1
  O  O3  1  0.00974385  0.50974385  0.98051230  1
  O  O4  1  0.32041714  0.82041714  0.35916472  1
  O  O5  1  0.66932594  0.16932594  0.66134912  1
