# generated using pymatgen
data_LiIn(MoSe)6
_symmetry_space_group_name_H-M   'P 1'
_cell_length_a   4.51528810
_cell_length_b   9.45573407
_cell_length_c   9.45699052
_cell_angle_alpha   60.00014808
_cell_angle_beta   90.00000000
_cell_angle_gamma   90.00000000
_symmetry_Int_Tables_number   1
_chemical_formula_structural   LiIn(MoSe)6
_chemical_formula_sum   'Li1 In1 Mo6 Se6'
_cell_volume   349.67529410
_cell_formula_units_Z   1
loop_
 _symmetry_equiv_pos_site_id
 _symmetry_equiv_pos_as_xyz
  1  'x, y, z'
loop_
 _atom_site_type_symbol
 _atom_site_label
 _atom_site_symmetry_multiplicity
 _atom_site_fract_x
 _atom_site_fract_y
 _atom_site_fract_z
 _atom_site_occupancy
  Li  Li0  1  0.75000000  0.66662156  0.66666601  1
  In  In1  1  0.25000000  0.33339786  0.33337951  1
  Mo  Mo2  1  0.75000000  0.02666753  0.82498613  1
  Mo  Mo3  1  0.75000000  0.14841181  0.02663787  1
  Mo  Mo4  1  0.75000000  0.82479788  0.14843176  1
  Mo  Mo5  1  0.25000000  0.97626964  0.17397252  1
  Mo  Mo6  1  0.25000000  0.84967756  0.97634236  1
  Mo  Mo7  1  0.25000000  0.17402738  0.84971727  1
  Se  Se8  1  0.75000000  0.70955427  0.93933283  1
  Se  Se9  1  0.75000000  0.35115513  0.70949183  1
  Se  Se10  1  0.75000000  0.93940914  0.35107176  1
  Se  Se11  1  0.25000000  0.29744779  0.04211694  1
  Se  Se12  1  0.25000000  0.66047216  0.29740695  1
  Se  Se13  1  0.25000000  0.04209029  0.66044627  1
