# generated using pymatgen
data_K(MoS)9
_symmetry_space_group_name_H-M   'P 1'
_cell_length_a   8.89667013
_cell_length_b   8.89777379
_cell_length_c   13.17826485
_cell_angle_alpha   90.00000000
_cell_angle_beta   90.00000000
_cell_angle_gamma   59.99529672
_symmetry_Int_Tables_number   1
_chemical_formula_structural   K(MoS)9
_chemical_formula_sum   'K2 Mo18 S18'
_cell_volume   903.39384494
_cell_formula_units_Z   2
loop_
 _symmetry_equiv_pos_site_id
 _symmetry_equiv_pos_as_xyz
  1  'x, y, z'
loop_
 _atom_site_type_symbol
 _atom_site_label
 _atom_site_symmetry_multiplicity
 _atom_site_fract_x
 _atom_site_fract_y
 _atom_site_fract_z
 _atom_site_occupancy
  K  K0  1  0.66666009  0.66666503  0.25000000  1
  K  K1  1  0.33333991  0.33333497  0.75000000  1
  Mo  Mo2  1  0.19022618  0.84132066  0.25000000  1
  Mo  Mo3  1  0.19281444  0.83990954  0.58325456  1
  Mo  Mo4  1  0.19281444  0.83990954  0.91674544  1
  Mo  Mo5  1  0.96846064  0.19026512  0.25000000  1
  Mo  Mo6  1  0.96729340  0.19282079  0.58325847  1
  Mo  Mo7  1  0.96729340  0.19282079  0.91674153  1
  Mo  Mo8  1  0.84127987  0.96841534  0.25000000  1
  Mo  Mo9  1  0.83991615  0.96726830  0.58325574  1
  Mo  Mo10  1  0.83991615  0.96726830  0.91674426  1
  Mo  Mo11  1  0.80718556  0.16009046  0.08325456  1
  Mo  Mo12  1  0.80718556  0.16009046  0.41674544  1
  Mo  Mo13  1  0.80977382  0.15867934  0.75000000  1
  Mo  Mo14  1  0.03270660  0.80717921  0.08325847  1
  Mo  Mo15  1  0.03270660  0.80717921  0.41674153  1
  Mo  Mo16  1  0.03153936  0.80973488  0.75000000  1
  Mo  Mo17  1  0.16008385  0.03273170  0.08325574  1
  Mo  Mo18  1  0.16008385  0.03273170  0.41674426  1
  Mo  Mo19  1  0.15872013  0.03158466  0.75000000  1
  S  S20  1  0.05859335  0.65106483  0.25000000  1
  S  S21  1  0.05994222  0.65087681  0.58387588  1
  S  S22  1  0.05994222  0.65087681  0.91612412  1
  S  S23  1  0.29032661  0.05859306  0.25000000  1
  S  S24  1  0.28916311  0.05994770  0.58387503  1
  S  S25  1  0.28916311  0.05994770  0.91612497  1
  S  S26  1  0.65106658  0.29034324  0.25000000  1
  S  S27  1  0.65087922  0.28917880  0.58387560  1
  S  S28  1  0.65087922  0.28917880  0.91612440  1
  S  S29  1  0.94005778  0.34912319  0.08387588  1
  S  S30  1  0.94005778  0.34912319  0.41612412  1
  S  S31  1  0.94140665  0.34893517  0.75000000  1
  S  S32  1  0.71083689  0.94005230  0.08387503  1
  S  S33  1  0.71083689  0.94005230  0.41612497  1
  S  S34  1  0.70967339  0.94140694  0.75000000  1
  S  S35  1  0.34912078  0.71082120  0.08387560  1
  S  S36  1  0.34912078  0.71082120  0.41612440  1
  S  S37  1  0.34893342  0.70965676  0.75000000  1
