# generated using pymatgen
data_Li2MgBr4
_symmetry_space_group_name_H-M   'P 1'
_cell_length_a   7.74018285
_cell_length_b   7.96541992
_cell_length_c   7.94531242
_cell_angle_alpha   90.00000000
_cell_angle_beta   59.11938231
_cell_angle_gamma   120.96737139
_symmetry_Int_Tables_number   1
_chemical_formula_structural   Li2MgBr4
_chemical_formula_sum   'Li4 Mg2 Br8'
_cell_volume   336.47695372
_cell_formula_units_Z   2
loop_
 _symmetry_equiv_pos_site_id
 _symmetry_equiv_pos_as_xyz
  1  'x, y, z'
loop_
 _atom_site_type_symbol
 _atom_site_label
 _atom_site_symmetry_multiplicity
 _atom_site_fract_x
 _atom_site_fract_y
 _atom_site_fract_z
 _atom_site_occupancy
  Li  Li0  1  0.50000000  0.50000000  -0.00000000  1
  Li  Li1  1  0.50000000  0.00000000  -0.00000000  1
  Li  Li2  1  0.00000000  0.50000000  -0.00000000  1
  Li  Li3  1  0.00000000  0.50000000  0.50000000  1
  Mg  Mg4  1  0.50000000  0.00000000  0.50000000  1
  Mg  Mg5  1  0.50000000  0.50000000  0.50000000  1
  Br  Br6  1  0.99237077  0.73192844  0.25381461  1
  Br  Br7  1  0.99237077  0.26044234  0.25381461  1
  Br  Br8  1  0.49228808  0.24614404  0.74585582  1
  Br  Br9  1  0.49228808  0.24614404  0.26185610  1
  Br  Br10  1  0.00762923  0.26807156  0.74618539  1
  Br  Br11  1  0.00762923  0.73955766  0.74618539  1
  Br  Br12  1  0.50771192  0.75385596  0.25414418  1
  Br  Br13  1  0.50771192  0.75385596  0.73814390  1
