# generated using pymatgen
data_GaFe3As
_symmetry_space_group_name_H-M   'P 1'
_cell_length_a   4.05570749
_cell_length_b   4.05853907
_cell_length_c   4.86766587
_cell_angle_alpha   90.00000000
_cell_angle_beta   90.00000000
_cell_angle_gamma   59.97689467
_symmetry_Int_Tables_number   1
_chemical_formula_structural   GaFe3As
_chemical_formula_sum   'Ga1 Fe3 As1'
_cell_volume   69.37237857
_cell_formula_units_Z   1
loop_
 _symmetry_equiv_pos_site_id
 _symmetry_equiv_pos_as_xyz
  1  'x, y, z'
loop_
 _atom_site_type_symbol
 _atom_site_label
 _atom_site_symmetry_multiplicity
 _atom_site_fract_x
 _atom_site_fract_y
 _atom_site_fract_z
 _atom_site_occupancy
  Ga  Ga0  1  0.33319966  0.33340017  0.75000000  1
  Fe  Fe1  1  0.00000482  -0.00000241  0.50108075  1
  Fe  Fe2  1  0.00000482  -0.00000241  0.99891925  1
  Fe  Fe3  1  0.66687126  0.66656437  0.75000000  1
  As  As4  1  0.66651943  0.66674029  0.25000000  1
