# generated using pymatgen
data_HfTa2VC4
_symmetry_space_group_name_H-M   'P 1'
_cell_length_a   3.15253718
_cell_length_b   3.15253718
_cell_length_c   10.39004568
_cell_angle_alpha   98.72600732
_cell_angle_beta   90.00000000
_cell_angle_gamma   120.00000000
_symmetry_Int_Tables_number   1
_chemical_formula_structural   HfTa2VC4
_chemical_formula_sum   'Hf1 Ta2 V1 C4'
_cell_volume   88.04412603
_cell_formula_units_Z   1
loop_
 _symmetry_equiv_pos_site_id
 _symmetry_equiv_pos_as_xyz
  1  'x, y, z'
loop_
 _atom_site_type_symbol
 _atom_site_label
 _atom_site_symmetry_multiplicity
 _atom_site_fract_x
 _atom_site_fract_y
 _atom_site_fract_z
 _atom_site_occupancy
  Hf  Hf0  1  0.00309779  0.00619557  0.00929336  1
  Ta  Ta1  1  0.49682809  0.99365619  0.49048428  1
  Ta  Ta2  1  0.24872665  0.49745330  0.74617995  1
  V  V3  1  0.75161287  0.50322575  0.25483862  1
  C  C4  1  0.62391699  0.24783398  0.87175097  1
  C  C5  1  0.87312944  0.74625887  0.61938831  1
  C  C6  1  0.38031152  0.76062305  0.14093457  1
  C  C7  1  0.12237665  0.24475329  0.36712994  1
