# generated using pymatgen
data_FePH5NO4F
_symmetry_space_group_name_H-M   'P 1'
_cell_length_a   5.10653147
_cell_length_b   5.64799848
_cell_length_c   8.75065427
_cell_angle_alpha   90.00000000
_cell_angle_beta   90.00000000
_cell_angle_gamma   91.72119107
_symmetry_Int_Tables_number   1
_chemical_formula_structural   FePH5NO4F
_chemical_formula_sum   'Fe2 P2 H10 N2 O8 F2'
_cell_volume   252.26971693
_cell_formula_units_Z   2
loop_
 _symmetry_equiv_pos_site_id
 _symmetry_equiv_pos_as_xyz
  1  'x, y, z'
loop_
 _atom_site_type_symbol
 _atom_site_label
 _atom_site_symmetry_multiplicity
 _atom_site_fract_x
 _atom_site_fract_y
 _atom_site_fract_z
 _atom_site_occupancy
  Fe  Fe0  1  0.51723251  0.50586395  0.48687005  1
  Fe  Fe1  1  0.01723251  0.00586395  0.51312995  1
  P  P2  1  0.44552675  0.01402934  0.30060307  1
  P  P3  1  0.94552675  0.51402934  0.69939693  1
  H  H4  1  0.20645726  0.49870399  0.94557634  1
  H  H5  1  0.70645726  0.99870399  0.05442366  1
  H  H6  1  0.25667199  0.49739977  0.13598266  1
  H  H7  1  0.75667199  0.99739977  0.86401734  1
  H  H8  1  0.46254090  0.35041116  0.02665072  1
  H  H9  1  0.46704939  0.65129900  0.02821646  1
  H  H10  1  0.96704939  0.15129900  0.97178354  1
  H  H11  1  0.96254090  0.85041116  0.97334928  1
  H  H12  1  0.79210480  0.27790849  0.29778682  1
  H  H13  1  0.29210480  0.77790849  0.70221318  1
  N  N14  1  0.35245684  0.49914384  0.03234022  1
  N  N15  1  0.85245684  0.99914384  0.96765978  1
  O  O16  1  0.90252960  0.50000110  0.87307769  1
  O  O17  1  0.40252960  0.00000110  0.12692231  1
  O  O18  1  0.25129974  0.55735572  0.67402278  1
  O  O19  1  0.75129974  0.05735572  0.32597722  1
  O  O20  1  0.83405586  0.29084800  0.61399249  1
  O  O21  1  0.80184698  0.72401716  0.62172506  1
  O  O22  1  0.30184698  0.22401716  0.37827494  1
  O  O23  1  0.33405586  0.79084800  0.38600751  1
  F  F24  1  0.79032740  0.47301848  0.28218757  1
  F  F25  1  0.29032740  0.97301848  0.71781243  1
