# generated using pymatgen
data_Na4V10Co(H11O13)4
_symmetry_space_group_name_H-M   'P 1'
_cell_length_a   9.00196052
_cell_length_b   11.47006650
_cell_length_c   11.85003838
_cell_angle_alpha   104.63511889
_cell_angle_beta   96.78045567
_cell_angle_gamma   100.22285839
_symmetry_Int_Tables_number   1
_chemical_formula_structural   Na4V10Co(H11O13)4
_chemical_formula_sum   'Na4 V10 Co1 H44 O52'
_cell_volume   1147.88286467
_cell_formula_units_Z   1
loop_
 _symmetry_equiv_pos_site_id
 _symmetry_equiv_pos_as_xyz
  1  'x, y, z'
loop_
 _atom_site_type_symbol
 _atom_site_label
 _atom_site_symmetry_multiplicity
 _atom_site_fract_x
 _atom_site_fract_y
 _atom_site_fract_z
 _atom_site_occupancy
  Na  Na0  1  0.78471983  0.90252118  0.20316429  1
  Na  Na1  1  0.21528017  0.09747882  0.79683571  1
  Na  Na2  1  0.00000000  0.00000000  0.50000000  1
  Na  Na3  1  0.00000000  0.00000000  -0.00000000  1
  V  V4  1  0.53565821  0.47335923  0.72543986  1
  V  V5  1  0.46434179  0.52664077  0.27456014  1
  V  V6  1  0.67115483  0.75309900  0.74132715  1
  V  V7  1  0.32884517  0.24690100  0.25867285  1
  V  V8  1  0.45792341  0.73382716  0.50163322  1
  V  V9  1  0.54207659  0.26617284  0.49836678  1
  V  V10  1  0.31407431  0.44947319  0.48357104  1
  V  V11  1  0.68592569  0.55052681  0.51642896  1
  V  V12  1  0.31654714  0.65852054  0.71188299  1
  V  V13  1  0.68345286  0.34147946  0.28811701  1
  Co  Co14  1  0.00000000  0.50000000  -0.00000000  1
  H  H15  1  0.01004498  0.18099316  0.36395270  1
  H  H16  1  0.98995502  0.81900684  0.63604730  1
  H  H17  1  0.26035820  0.03554939  0.37687639  1
  H  H18  1  0.73964180  0.96445061  0.62312361  1
  H  H19  1  0.25484084  0.90348917  0.39085636  1
  H  H20  1  0.74515916  0.09651083  0.60914364  1
  H  H21  1  0.13691089  0.37740938  0.12607308  1
  H  H22  1  0.86308911  0.62259062  0.87392692  1
  H  H23  1  0.75247334  0.59584315  0.06016277  1
  H  H24  1  0.24752666  0.40415685  0.93983723  1
  H  H25  1  0.95766386  0.34625340  0.13117293  1
  H  H26  1  0.04233614  0.65374660  0.86882707  1
  H  H27  1  0.53974230  0.03783779  0.28169523  1
  H  H28  1  0.46025770  0.96216221  0.71830477  1
  H  H29  1  0.84241070  0.16507799  0.38700142  1
  H  H30  1  0.15758930  0.83492201  0.61299858  1
  H  H31  1  0.23580469  0.63183031  0.15242995  1
  H  H32  1  0.76419531  0.36816969  0.84757005  1
  H  H33  1  0.09099915  0.89913152  0.20795312  1
  H  H34  1  0.90900085  0.10086848  0.79204688  1
  H  H35  1  0.75169154  0.49329460  0.12658532  1
  H  H36  1  0.24830846  0.50670540  0.87341468  1
  H  H37  1  0.08593327  0.62870789  0.21435967  1
  H  H38  1  0.91406673  0.37129211  0.78564033  1
  H  H39  1  0.28937632  0.94712492  0.96638655  1
  H  H40  1  0.71062368  0.05287508  0.03361345  1
  H  H41  1  0.55315807  0.68011400  0.08925399  1
  H  H42  1  0.44684193  0.31988600  0.91074601  1
  H  H43  1  0.91974029  0.76034546  0.35321105  1
  H  H44  1  0.08025971  0.23965454  0.64678895  1
  H  H45  1  0.75538798  0.75845060  0.38172904  1
  H  H46  1  0.24461202  0.24154940  0.61827096  1
  H  H47  1  0.61304339  0.69696157  0.97369771  1
  H  H48  1  0.38695661  0.30303843  0.02630229  1
  H  H49  1  0.02810473  0.78896153  0.09365070  1
  H  H50  1  0.97189527  0.21103847  0.90634930  1
  H  H51  1  0.95818955  0.57659065  0.36920421  1
  H  H52  1  0.04181045  0.42340935  0.63079579  1
  H  H53  1  0.50952671  0.91382540  0.31684611  1
  H  H54  1  0.49047329  0.08617460  0.68315389  1
  H  H55  1  0.18303769  0.86853398  0.84923765  1
  H  H56  1  0.81696231  0.13146602  0.15076235  1
  H  H57  1  0.13642139  0.62402153  0.38723233  1
  H  H58  1  0.86357861  0.37597847  0.61276767  1
  O  O59  1  0.56115257  0.95518794  0.26410710  1
  O  O60  1  0.43884743  0.04481206  0.73589290  1
  O  O61  1  0.20567799  0.95080523  0.90630699  1
  O  O62  1  0.79432201  0.04919477  0.09369301  1
  O  O63  1  0.61330457  0.82805834  0.62108598  1
  O  O64  1  0.38669543  0.17194166  0.37891402  1
  O  O65  1  0.39394922  0.35248461  0.58239666  1
  O  O66  1  0.60605078  0.64751539  0.41760334  1
  O  O67  1  0.03236596  0.36650442  0.07974269  1
  O  O68  1  0.96763404  0.63349558  0.92025731  1
  O  O69  1  0.42552083  0.82704675  0.41994743  1
  O  O70  1  0.57447917  0.17295325  0.58005257  1
  O  O71  1  0.12583659  0.63510989  0.13990156  1
  O  O72  1  0.87416341  0.36489011  0.86009844  1
  O  O73  1  0.18797799  0.95700249  0.37084810  1
  O  O74  1  0.81202201  0.04299751  0.62915190  1
  O  O75  1  0.01665739  0.87197401  0.13307184  1
  O  O76  1  0.98334261  0.12802599  0.86692816  1
  O  O77  1  0.03836238  0.63537859  0.34917442  1
  O  O78  1  0.96163762  0.36462141  0.65082558  1
  O  O79  1  0.64666774  0.70425042  0.05725970  1
  O  O80  1  0.35333226  0.29574958  0.94274030  1
  O  O81  1  0.17747504  0.69540656  0.78439296  1
  O  O82  1  0.82252496  0.30459344  0.21560704  1
  O  O83  1  0.68142979  0.61533147  0.80200796  1
  O  O84  1  0.31857021  0.38466853  0.19799204  1
  O  O85  1  0.37463128  0.53442717  0.77718465  1
  O  O86  1  0.62536872  0.46557283  0.22281535  1
  O  O87  1  0.84113201  0.81024031  0.35982423  1
  O  O88  1  0.15886799  0.18975969  0.64017577  1
  O  O89  1  0.56767323  0.38006508  0.80738056  1
  O  O90  1  0.43232677  0.61993492  0.19261944  1
  O  O91  1  0.19656480  0.50948386  0.57931367  1
  O  O92  1  0.80343520  0.49051614  0.42068633  1
  O  O93  1  0.49070624  0.76885947  0.79799721  1
  O  O94  1  0.50929376  0.23114053  0.20200279  1
  O  O95  1  0.80294444  0.86094018  0.83591523  1
  O  O96  1  0.19705556  0.13905982  0.16408477  1
  O  O97  1  0.30889040  0.74393360  0.59599231  1
  O  O98  1  0.69110960  0.25606640  0.40400769  1
  O  O99  1  0.49797954  0.58658163  0.59659697  1
  O  O100  1  0.50202046  0.41341837  0.40340303  1
  O  O101  1  0.32468223  0.57094004  0.39658205  1
  O  O102  1  0.67531777  0.42905996  0.60341795  1
  O  O103  1  0.79872802  0.67582453  0.62482131  1
  O  O104  1  0.20127198  0.32417547  0.37517869  1
  O  O105  1  0.92303589  0.11850896  0.36849151  1
  O  O106  1  0.07696411  0.88149104  0.63150849  1
  O  O107  1  0.80385262  0.52754622  0.06933317  1
  O  O108  1  0.19614738  0.47245378  0.93066683  1
  O  O109  1  0.39339935  0.86096923  0.05207222  1
  O  O110  1  0.60660065  0.13903077  0.94792778  1
