# generated using pymatgen
data_La6Si3Ni2
_symmetry_space_group_name_H-M   'P 1'
_cell_length_a   4.56544847
_cell_length_b   11.90667208
_cell_length_c   11.85743027
_cell_angle_alpha   60.20118772
_cell_angle_beta   90.00000000
_cell_angle_gamma   90.00000000
_symmetry_Int_Tables_number   1
_chemical_formula_structural   La6Si3Ni2
_chemical_formula_sum   'La12 Si6 Ni4'
_cell_volume   559.33491504
_cell_formula_units_Z   2
loop_
 _symmetry_equiv_pos_site_id
 _symmetry_equiv_pos_as_xyz
  1  'x, y, z'
loop_
 _atom_site_type_symbol
 _atom_site_label
 _atom_site_symmetry_multiplicity
 _atom_site_fract_x
 _atom_site_fract_y
 _atom_site_fract_z
 _atom_site_occupancy
  La  La0  1  0.75000000  0.77713207  0.23110517  1
  La  La1  1  0.75000000  0.00444117  0.76480528  1
  La  La2  1  0.75000000  0.23021921  0.00086191  1
  La  La3  1  0.25000000  0.22716611  0.76693463  1
  La  La4  1  0.25000000  0.00565324  0.23283268  1
  La  La5  1  0.25000000  0.76819167  0.00675082  1
  La  La6  1  0.75000000  0.62676828  0.85747732  1
  La  La7  1  0.75000000  0.51380082  0.62105948  1
  La  La8  1  0.75000000  0.86272882  0.51365891  1
  La  La9  1  0.25000000  0.37662943  0.13708899  1
  La  La10  1  0.25000000  0.47936845  0.38426510  1
  La  La11  1  0.25000000  0.13776180  0.47866909  1
  Si  Si12  1  0.25000000  0.66640545  0.66589255  1
  Si  Si13  1  0.75000000  0.32746709  0.33728711  1
  Si  Si14  1  0.75000000  0.55732789  0.15547676  1
  Si  Si15  1  0.25000000  0.71165167  0.44104380  1
  Si  Si16  1  0.25000000  0.84555555  0.71210246  1
  Si  Si17  1  0.25000000  0.44343867  0.84515053  1
  Ni  Ni18  1  0.49955328  0.00168752  0.99958552  1
  Ni  Ni19  1  0.00044672  0.00168752  0.99958552  1
  Ni  Ni20  1  0.75000000  0.28302531  0.56115894  1
  Ni  Ni21  1  0.75000000  0.15189223  0.28720740  1
