# generated using pymatgen
data_CrFe3Sb4
_symmetry_space_group_name_H-M   'P 1'
_cell_length_a   3.99079625
_cell_length_b   3.99079625
_cell_length_c   10.40404241
_cell_angle_alpha   90.00565716
_cell_angle_beta   89.99434284
_cell_angle_gamma   120.02246111
_symmetry_Int_Tables_number   1
_chemical_formula_structural   CrFe3Sb4
_chemical_formula_sum   'Cr1 Fe3 Sb4'
_cell_volume   143.46749447
_cell_formula_units_Z   1
loop_
 _symmetry_equiv_pos_site_id
 _symmetry_equiv_pos_as_xyz
  1  'x, y, z'
loop_
 _atom_site_type_symbol
 _atom_site_label
 _atom_site_symmetry_multiplicity
 _atom_site_fract_x
 _atom_site_fract_y
 _atom_site_fract_z
 _atom_site_occupancy
  Cr  Cr0  1  -0.00000000  0.00000000  0.25000000  1
  Fe  Fe1  1  -0.00000000  0.00000000  0.75000000  1
  Fe  Fe2  1  0.99998585  0.00001415  0.98959110  1
  Fe  Fe3  1  0.00001415  0.99998585  0.51040890  1
  Sb  Sb4  1  0.66667817  0.33332183  0.39017709  1
  Sb  Sb5  1  0.66665960  0.33334040  0.87408671  1
  Sb  Sb6  1  0.33332183  0.66667817  0.10982291  1
  Sb  Sb7  1  0.33334040  0.66665960  0.62591329  1
