# generated using pymatgen
data_FeMo2H7O11
_symmetry_space_group_name_H-M   'P 1'
_cell_length_a   5.71822107
_cell_length_b   6.47016099
_cell_length_c   8.35941889
_cell_angle_alpha   113.76789487
_cell_angle_beta   91.46976554
_cell_angle_gamma   62.65171127
_symmetry_Int_Tables_number   1
_chemical_formula_structural   FeMo2H7O11
_chemical_formula_sum   'Fe1 Mo2 H7 O11'
_cell_volume   246.52526083
_cell_formula_units_Z   1
loop_
 _symmetry_equiv_pos_site_id
 _symmetry_equiv_pos_as_xyz
  1  'x, y, z'
loop_
 _atom_site_type_symbol
 _atom_site_label
 _atom_site_symmetry_multiplicity
 _atom_site_fract_x
 _atom_site_fract_y
 _atom_site_fract_z
 _atom_site_occupancy
  Fe  Fe0  1  0.49880374  0.00504923  0.49352245  1
  Mo  Mo1  1  0.89116424  0.22675418  0.78933616  1
  Mo  Mo2  1  0.10298412  0.78389568  0.21310529  1
  H  H3  1  0.61050737  0.50434368  0.34329306  1
  H  H4  1  0.88785382  0.50309892  0.34299927  1
  H  H5  1  0.38654802  0.50064188  0.65934544  1
  H  H6  1  0.11116024  0.50549836  0.66164861  1
  H  H7  1  0.31246833  0.08614409  0.99505284  1
  H  H8  1  0.50945160  -0.00010141  0.12227840  1
  H  H9  1  0.60704324  0.76230647  0.89036458  1
  O  O10  1  0.70413595  0.59590010  0.41247866  1
  O  O11  1  0.28993501  0.41575054  0.58679785  1
  O  O12  1  0.89848526  0.27357737  0.01041866  1
  O  O13  1  0.15681387  0.68083804  0.98173422  1
  O  O14  1  0.50212084  0.98259164  0.99882374  1
  O  O15  1  0.72292254  0.04494088  0.67847327  1
  O  O16  1  0.23577202  0.04471225  0.67229903  1
  O  O17  1  0.26869468  0.97739189  0.31646289  1
  O  O18  1  0.73946547  0.97549515  0.31079744  1
  O  O19  1  0.72437337  0.53486175  0.77589947  1
  O  O20  1  0.24229628  0.51230932  0.25686865  1
