# generated using pymatgen
data_Dy6Ga19Pt3
_symmetry_space_group_name_H-M   'P 1'
_cell_length_a   4.41056693
_cell_length_b   8.10227969
_cell_length_c   15.94002057
_cell_angle_alpha   107.00937435
_cell_angle_beta   82.04768562
_cell_angle_gamma   105.79407096
_symmetry_Int_Tables_number   1
_chemical_formula_structural   Dy6Ga19Pt3
_chemical_formula_sum   'Dy6 Ga19 Pt3'
_cell_volume   523.07616311
_cell_formula_units_Z   1
loop_
 _symmetry_equiv_pos_site_id
 _symmetry_equiv_pos_as_xyz
  1  'x, y, z'
loop_
 _atom_site_type_symbol
 _atom_site_label
 _atom_site_symmetry_multiplicity
 _atom_site_fract_x
 _atom_site_fract_y
 _atom_site_fract_z
 _atom_site_occupancy
  Dy  Dy0  1  0.25078514  0.74991283  0.24834256  1
  Dy  Dy1  1  0.74851246  0.24956155  0.75253664  1
  Dy  Dy2  1  0.39873664  0.20363619  0.40616291  1
  Dy  Dy3  1  0.90681486  0.72176916  0.90813943  1
  Dy  Dy4  1  0.09249567  0.27762133  0.09262999  1
  Dy  Dy5  1  0.60045924  0.79363720  0.59271872  1
  Ga  Ga6  1  0.17990456  0.81966156  0.45985244  1
  Ga  Ga7  1  0.68202025  0.31872661  0.95468612  1
  Ga  Ga8  1  0.31626929  0.67654225  0.04400366  1
  Ga  Ga9  1  0.82022124  0.18228065  0.54183816  1
  Ga  Ga10  1  0.45433888  0.09341754  0.18473979  1
  Ga  Ga11  1  0.96151470  0.60151024  0.67848084  1
  Ga  Ga12  1  0.03918801  0.40138193  0.32300592  1
  Ga  Ga13  1  0.54499526  0.90892364  0.81893311  1
  Ga  Ga14  1  0.73073592  0.56669045  0.10521861  1
  Ga  Ga15  1  0.23838190  0.08373186  0.60696806  1
  Ga  Ga16  1  0.76140242  0.91844595  0.39564111  1
  Ga  Ga17  1  0.26741036  0.42538817  0.89056744  1
  Ga  Ga18  1  0.60252166  0.44066895  0.23562563  1
  Ga  Ga19  1  0.10833861  0.94898201  0.73230478  1
  Ga  Ga20  1  0.89105751  0.05062496  0.26850994  1
  Ga  Ga21  1  0.39704074  0.55901736  0.76493588  1
  Ga  Ga22  1  0.50423080  0.00573352  0.99727193  1
  Ga  Ga23  1  0.99993030  0.50003849  0.50017789  1
  Ga  Ga24  1  0.89731436  0.89666613  0.10203741  1
  Pt  Pt25  1  0.40444043  0.40858703  0.59970616  1
  Pt  Pt26  1  0.59723048  0.59326005  0.39879910  1
  Pt  Pt27  1  0.10370831  0.10358239  0.89616578  1
