# generated using pymatgen
data_Ga(MoS2)3
_symmetry_space_group_name_H-M   'P 1'
_cell_length_a   7.01947726
_cell_length_b   9.92338826
_cell_length_c   12.14805295
_cell_angle_alpha   65.89341809
_cell_angle_beta   73.20706782
_cell_angle_gamma   90.00000000
_symmetry_Int_Tables_number   1
_chemical_formula_structural   Ga(MoS2)3
_chemical_formula_sum   'Ga4 Mo12 S24'
_cell_volume   732.68605730
_cell_formula_units_Z   4
loop_
 _symmetry_equiv_pos_site_id
 _symmetry_equiv_pos_as_xyz
  1  'x, y, z'
loop_
 _atom_site_type_symbol
 _atom_site_label
 _atom_site_symmetry_multiplicity
 _atom_site_fract_x
 _atom_site_fract_y
 _atom_site_fract_z
 _atom_site_occupancy
  Ga  Ga0  1  0.50000000  0.75163081  1.00000000  1
  Ga  Ga1  1  1.00000000  0.00146575  0.00000000  1
  Ga  Ga2  1  0.33286986  0.33242328  0.33425929  1
  Ga  Ga3  1  0.66713014  0.66668357  0.66574071  1
  Mo  Mo4  1  0.20080879  0.39283944  0.00000000  1
  Mo  Mo5  1  0.53783168  0.73091179  0.33805160  1
  Mo  Mo6  1  0.87588428  0.06896439  0.66194840  1
  Mo  Mo7  1  0.07094333  0.67059098  0.85811434  1
  Mo  Mo8  1  0.39998440  0.00650667  0.20003119  1
  Mo  Mo9  1  0.73395610  0.33464881  0.53208680  1
  Mo  Mo10  1  0.92905667  0.52870432  0.14188566  1
  Mo  Mo11  1  0.26604390  0.86673661  0.46791320  1
  Mo  Mo12  1  0.60001560  0.20653786  0.79996881  1
  Mo  Mo13  1  0.79919121  0.39283944  0.00000000  1
  Mo  Mo14  1  0.12411572  0.73091179  0.33805160  1
  Mo  Mo15  1  0.46216832  0.06896439  0.66194840  1
  S  S16  1  0.72820331  0.13627943  1.00000000  1
  S  S17  1  0.06087195  0.46830029  0.33477464  1
  S  S18  1  0.39564759  0.80307593  0.66522536  1
  S  S19  1  0.57610395  0.44058923  0.84779311  1
  S  S20  1  0.90898086  0.77331293  0.18203828  1
  S  S21  1  0.24347551  0.10721461  0.51304798  1
  S  S22  1  0.42389605  0.28838134  0.15220689  1
  S  S23  1  0.75652449  0.62026359  0.48695202  1
  S  S24  1  0.09101914  0.95535121  0.81796172  1
  S  S25  1  0.27179669  0.13627943  0.00000000  1
  S  S26  1  0.60435241  0.46830029  0.33477464  1
  S  S27  1  0.93912805  0.80307593  0.66522536  1
  S  S28  1  0.75209081  0.62194947  0.00000000  1
  S  S29  1  0.06651552  0.96658319  0.33442480  1
  S  S30  1  0.40094132  0.30100899  0.66557520  1
  S  S31  1  0.91084803  0.27540744  0.17830495  1
  S  S32  1  0.24397724  0.61158101  0.51204553  1
  S  S33  1  0.58522385  0.96262696  0.82955131  1
  S  S34  1  0.08915197  0.45371138  0.82169505  1
  S  S35  1  0.41477615  0.79217927  0.17044869  1
  S  S36  1  0.75602276  0.12362654  0.48795447  1
  S  S37  1  0.24790919  0.62194947  1.00000000  1
  S  S38  1  0.59905868  0.96658319  0.33442480  1
  S  S39  1  0.93348448  0.30100899  0.66557520  1
