# generated using pymatgen
data_FeP2H6NO8
_symmetry_space_group_name_H-M   'P 1'
_cell_length_a   7.21571904
_cell_length_b   8.83139263
_cell_length_c   9.63690221
_cell_angle_alpha   64.23789810
_cell_angle_beta   70.21629974
_cell_angle_gamma   70.02446315
_symmetry_Int_Tables_number   1
_chemical_formula_structural   FeP2H6NO8
_chemical_formula_sum   'Fe3 P6 H18 N3 O24'
_cell_volume   506.53414987
_cell_formula_units_Z   3
loop_
 _symmetry_equiv_pos_site_id
 _symmetry_equiv_pos_as_xyz
  1  'x, y, z'
loop_
 _atom_site_type_symbol
 _atom_site_label
 _atom_site_symmetry_multiplicity
 _atom_site_fract_x
 _atom_site_fract_y
 _atom_site_fract_z
 _atom_site_occupancy
  Fe  Fe0  1  0.50000000  0.50000000  0.50000000  1
  Fe  Fe1  1  0.29673672  0.27952896  0.05059083  1
  Fe  Fe2  1  0.70326328  0.72047104  0.94940917  1
  P  P3  1  0.95639840  0.56085078  0.21924464  1
  P  P4  1  0.04360160  0.43914922  0.78075536  1
  P  P5  1  0.40960984  0.87410517  0.23566853  1
  P  P6  1  0.59039016  0.12589483  0.76433147  1
  P  P7  1  0.58985120  0.34351990  0.22111774  1
  P  P8  1  0.41014880  0.65648010  0.77888226  1
  H  H9  1  0.80178129  0.78482045  0.43137669  1
  H  H10  1  0.19821871  0.21517955  0.56862331  1
  H  H11  1  0.15359987  0.20300587  0.41333349  1
  H  H12  1  0.84640013  0.79699413  0.58666651  1
  H  H13  1  0.96470727  0.20592303  0.57331244  1
  H  H14  1  0.03529273  0.79407697  0.42668756  1
  H  H15  1  0.10590229  0.73947037  0.74234843  1
  H  H16  1  0.89409771  0.26052963  0.25765157  1
  H  H17  1  0.16150181  0.02926656  0.58785219  1
  H  H18  1  0.83849819  0.97073344  0.41214781  1
  H  H19  1  0.42487960  0.96052462  0.77075769  1
  H  H20  1  0.57512040  0.03947538  0.22924231  1
  H  H21  1  0.76494012  0.46073501  0.70821570  1
  H  H22  1  0.23505988  0.53926499  0.29178430  1
  H  H23  1  0.04177733  0.12654516  0.97460013  1
  H  H24  1  0.95822267  0.87345484  0.02539987  1
  H  H25  1  0.88685185  0.07092737  0.93976013  1
  H  H26  1  0.11314815  0.92907263  0.06023987  1
  N  N27  1  0.12009320  0.16318327  0.53537335  1
  N  N28  1  0.87990680  0.83681673  0.46462665  1
  N  N29  1  -0.00000000  0.00000000  -0.00000000  1
  O  O30  1  0.51588079  0.75903283  0.81063341  1
  O  O31  1  0.48411921  0.24096717  0.18936659  1
  O  O32  1  0.23729236  0.44706860  0.65088371  1
  O  O33  1  0.76270764  0.55293140  0.34911629  1
  O  O34  1  0.32998194  0.73495621  0.39105506  1
  O  O35  1  0.67001806  0.26504379  0.60894494  1
  O  O36  1  0.67041635  0.48379626  0.07319520  1
  O  O37  1  0.32958365  0.51620374  0.92680480  1
  O  O38  1  0.91438635  0.70605889  0.05931341  1
  O  O39  1  0.08561365  0.29394111  0.94068659  1
  O  O40  1  0.05746535  0.37916431  0.20860217  1
  O  O41  1  0.94253465  0.62083569  0.79139783  1
  O  O42  1  0.22059267  0.79671021  0.71251409  1
  O  O43  1  0.77940733  0.20328979  0.28748591  1
  O  O44  1  0.24466768  0.04421767  0.20336001  1
  O  O45  1  0.75533232  0.95578233  0.79663999  1
  O  O46  1  0.44355160  0.41266545  0.35228874  1
  O  O47  1  0.55644840  0.58733455  0.64771126  1
  O  O48  1  0.89262240  0.37685528  0.74139910  1
  O  O49  1  0.10737760  0.62314472  0.25860090  1
  O  O50  1  0.47583704  0.81330418  0.09553615  1
  O  O51  1  0.52416296  0.18669582  0.90446385  1
  O  O52  1  0.40625320  0.08912813  0.73736318  1
  O  O53  1  0.59374680  0.91087187  0.26263682  1
