# generated using pymatgen
data_Ca6Al3(Si4N9)2
_symmetry_space_group_name_H-M   'P 1'
_cell_length_a   7.58924515
_cell_length_b   7.64594589
_cell_length_c   7.58633180
_cell_angle_alpha   79.60528351
_cell_angle_beta   99.86134004
_cell_angle_gamma   98.89220746
_symmetry_Int_Tables_number   1
_chemical_formula_structural   Ca6Al3(Si4N9)2
_chemical_formula_sum   'Ca6 Al3 Si8 N18'
_cell_volume   423.10131137
_cell_formula_units_Z   1
loop_
 _symmetry_equiv_pos_site_id
 _symmetry_equiv_pos_as_xyz
  1  'x, y, z'
loop_
 _atom_site_type_symbol
 _atom_site_label
 _atom_site_symmetry_multiplicity
 _atom_site_fract_x
 _atom_site_fract_y
 _atom_site_fract_z
 _atom_site_occupancy
  Ca  Ca0  1  0.55956542  0.13911188  0.43253663  1
  Ca  Ca1  1  0.22307038  0.47720266  0.74501588  1
  Ca  Ca2  1  0.93293787  0.76368813  0.17598055  1
  Ca  Ca3  1  0.26744634  0.04487106  0.72065769  1
  Ca  Ca4  1  0.93897617  0.37680979  0.06271877  1
  Ca  Ca5  1  0.55267420  0.72270568  0.40494637  1
  Al  Al6  1  0.61375528  0.04665109  0.04411073  1
  Al  Al7  1  0.54557379  0.42957453  0.09283629  1
  Al  Al8  1  0.89147755  0.09124072  0.77555850  1
  Si  Si9  1  0.27348982  0.39125196  0.35890893  1
  Si  Si10  1  0.94044593  0.72003464  0.69422028  1
  Si  Si11  1  0.96117150  0.05841668  0.39033310  1
  Si  Si12  1  0.62615863  0.38961324  0.71474568  1
  Si  Si13  1  0.28537691  0.71918549  0.04301587  1
  Si  Si14  1  0.88936481  0.42954230  0.45655441  1
  Si  Si15  1  0.58696947  0.76691224  0.80457622  1
  Si  Si16  1  0.22710453  0.10202598  0.11094783  1
  N  N17  1  0.74643264  0.01650716  0.27430795  1
  N  N18  1  0.41863563  0.36859373  0.56860194  1
  N  N19  1  0.07649137  0.68140685  0.90629534  1
  N  N20  1  0.74380443  0.48485678  0.26107660  1
  N  N21  1  0.46665214  0.88309669  0.62128282  1
  N  N22  1  0.09846095  0.18832369  0.91141624  1
  N  N23  1  0.00024623  0.61553632  0.53712727  1
  N  N24  1  0.73027027  0.92948805  0.90829694  1
  N  N25  1  0.35660039  0.28481499  0.20452105  1
  N  N26  1  0.45107618  0.63328376  0.95365545  1
  N  N27  1  0.11631944  0.99584188  0.28608243  1
  N  N28  1  0.78232787  0.28934478  0.63223936  1
  N  N29  1  0.36563041  0.95091471  0.05496618  1
  N  N30  1  0.04768788  0.29470741  0.40591485  1
  N  N31  1  0.71138061  0.62271174  0.72477148  1
  N  N32  1  0.95527376  0.95319269  0.61701796  1
  N  N33  1  0.61137740  0.29015793  0.93602392  1
  N  N34  1  0.26344078  0.60701579  0.25567147  1
