# generated using pymatgen
data_Cr2CoSe3S
_symmetry_space_group_name_H-M   'P 1'
_cell_length_a   3.63464149
_cell_length_b   6.25847833
_cell_length_c   6.54021349
_cell_angle_alpha   118.35949498
_cell_angle_beta   73.86695575
_cell_angle_gamma   90.00000000
_symmetry_Int_Tables_number   1
_chemical_formula_structural   Cr2CoSe3S
_chemical_formula_sum   'Cr2 Co1 Se3 S1'
_cell_volume   124.21929725
_cell_formula_units_Z   1
loop_
 _symmetry_equiv_pos_site_id
 _symmetry_equiv_pos_as_xyz
  1  'x, y, z'
loop_
 _atom_site_type_symbol
 _atom_site_label
 _atom_site_symmetry_multiplicity
 _atom_site_fract_x
 _atom_site_fract_y
 _atom_site_fract_z
 _atom_site_occupancy
  Cr  Cr0  1  0.25776440  0.71671320  0.48447119  1
  Cr  Cr1  1  0.73387705  0.29508125  0.53224590  1
  Co  Co2  1  0.00243966  0.98716694  0.99512069  1
  Se  Se3  1  0.88736172  0.43975262  0.22527655  1
  Se  Se4  1  0.37026310  0.97030805  0.25947381  1
  Se  Se5  1  0.62625425  0.03114761  0.74749151  1
  S  S6  1  0.12203982  0.55983034  0.75592036  1
