# generated using pymatgen
data_Fe74W13
_symmetry_space_group_name_H-M   'P 1'
_cell_length_a   7.68446973
_cell_length_b   7.68446973
_cell_length_c   19.33822705
_cell_angle_alpha   82.38990808
_cell_angle_beta   82.38990808
_cell_angle_gamma   109.47928081
_symmetry_Int_Tables_number   1
_chemical_formula_structural   Fe74W13
_chemical_formula_sum   'Fe74 W13'
_cell_volume   1047.87071547
_cell_formula_units_Z   1
loop_
 _symmetry_equiv_pos_site_id
 _symmetry_equiv_pos_as_xyz
  1  'x, y, z'
loop_
 _atom_site_type_symbol
 _atom_site_label
 _atom_site_symmetry_multiplicity
 _atom_site_fract_x
 _atom_site_fract_y
 _atom_site_fract_z
 _atom_site_occupancy
  Fe  Fe0  1  0.70925434  0.52341089  0.33320025  1
  Fe  Fe1  1  0.04200612  0.85688538  0.66666700  1
  Fe  Fe2  1  0.37578859  0.18994514  0.00013275  1
  Fe  Fe3  1  0.64541561  0.26987274  0.27002807  1
  Fe  Fe4  1  0.97944791  0.60349039  0.60327756  1
  Fe  Fe5  1  0.31195780  0.93678763  0.93698249  1
  Fe  Fe6  1  0.24877768  0.87323481  0.06330493  1
  Fe  Fe7  1  0.58227329  0.20710313  0.39635051  1
  Fe  Fe8  1  0.91605847  0.54010095  0.73005644  1
  Fe  Fe9  1  0.52341089  0.70925434  0.33320025  1
  Fe  Fe10  1  0.85688538  0.04200612  0.66666700  1
  Fe  Fe11  1  0.18994514  0.37578859  0.00013275  1
  Fe  Fe12  1  0.87323481  0.24877768  0.06330493  1
  Fe  Fe13  1  0.20710313  0.58227329  0.39635051  1
  Fe  Fe14  1  0.54010095  0.91605847  0.73005644  1
  Fe  Fe15  1  0.26987274  0.64541561  0.27002807  1
  Fe  Fe16  1  0.60349039  0.97944791  0.60327756  1
  Fe  Fe17  1  0.93678763  0.31195780  0.93698249  1
  Fe  Fe18  1  0.68654361  0.68654361  0.06179921  1
  Fe  Fe19  1  0.01963113  0.01963113  0.39492548  1
  Fe  Fe20  1  0.35301052  0.35301052  0.72868289  1
  Fe  Fe21  1  0.74957262  0.93943471  0.12517197  1
  Fe  Fe22  1  0.08317498  0.27306942  0.45845622  1
  Fe  Fe23  1  0.41570584  0.60587012  0.79187865  1
  Fe  Fe24  1  0.93943471  0.74957262  0.12517197  1
  Fe  Fe25  1  0.27306942  0.08317498  0.45845622  1
  Fe  Fe26  1  0.60587012  0.41570584  0.79187865  1
  Fe  Fe27  1  0.08167682  0.08167682  0.27153379  1
  Fe  Fe28  1  0.41502642  0.41502642  0.60465011  1
  Fe  Fe29  1  0.74788961  0.74788961  0.93840852  1
  Fe  Fe30  1  0.39794068  0.20807859  0.20816103  1
  Fe  Fe31  1  0.73108178  0.54091749  0.54145435  1
  Fe  Fe32  1  0.06485864  0.87496420  0.87487778  1
  Fe  Fe33  1  0.20807859  0.39794068  0.20816103  1
  Fe  Fe34  1  0.54091749  0.73108178  0.54145435  1
  Fe  Fe35  1  0.87496420  0.06485864  0.87487778  1
  Fe  Fe36  1  0.99998373  0.99998373  0.00009394  1
  Fe  Fe37  1  0.33341068  0.33341068  0.33323906  1
  Fe  Fe38  1  0.73536665  0.01129422  0.33328357  1
  Fe  Fe39  1  0.06713028  0.34364832  0.66666700  1
  Fe  Fe40  1  0.40198422  0.67791179  0.00004943  1
  Fe  Fe41  1  0.50924363  0.10738155  0.10719398  1
  Fe  Fe42  1  0.84297110  0.44085805  0.44080127  1
  Fe  Fe43  1  0.17556134  0.77463341  0.77404246  1
  Fe  Fe44  1  0.94977062  0.54790853  0.22614002  1
  Fe  Fe45  1  0.28293780  0.88200987  0.55929054  1
  Fe  Fe46  1  0.61710537  0.21499232  0.89253173  1
  Fe  Fe47  1  0.01129422  0.73536665  0.33328357  1
  Fe  Fe48  1  0.34364832  0.06713028  0.66666700  1
  Fe  Fe49  1  0.67791179  0.40198422  0.00004943  1
  Fe  Fe50  1  0.54790853  0.94977062  0.22614002  1
  Fe  Fe51  1  0.88200987  0.28293780  0.55929054  1
  Fe  Fe52  1  0.21499232  0.61710537  0.89253173  1
  Fe  Fe53  1  0.10738155  0.50924363  0.10719398  1
  Fe  Fe54  1  0.44085805  0.84297110  0.44080127  1
  Fe  Fe55  1  0.77463341  0.17556134  0.77404246  1
  Fe  Fe56  1  0.83926083  0.83926083  0.24131805  1
  Fe  Fe57  1  0.17307971  0.17307971  0.57567680  1
  Fe  Fe58  1  0.50595964  0.50595964  0.90746988  1
  Fe  Fe59  1  0.73197507  0.41020251  0.13400197  1
  Fe  Fe60  1  0.06567960  0.74237827  0.46734608  1
  Fe  Fe61  1  0.39879722  0.07738653  0.80047242  1
  Fe  Fe62  1  0.41020251  0.73197507  0.13400197  1
  Fe  Fe63  1  0.74237827  0.06567960  0.46734608  1
  Fe  Fe64  1  0.07738653  0.39879722  0.80047242  1
  Fe  Fe65  1  0.41391288  0.41391288  0.09201495  1
  Fe  Fe66  1  0.74676251  0.74676251  0.42586312  1
  Fe  Fe67  1  0.08208951  0.08208951  0.75765720  1
  Fe  Fe68  1  0.87753748  0.19931004  0.19933203  1
  Fe  Fe69  1  0.21119295  0.53260364  0.53286058  1
  Fe  Fe70  1  0.54305735  0.86635868  0.86598692  1
  Fe  Fe71  1  0.19931004  0.87753748  0.19933203  1
  Fe  Fe72  1  0.53260364  0.21119295  0.53286058  1
  Fe  Fe73  1  0.86635868  0.54305735  0.86598692  1
  W  W74  1  0.96622713  0.33349667  0.33313400  1
  W  W75  1  0.29490234  0.66662622  0.66666700  1
  W  W76  1  0.63269513  -0.00003533  0.00019900  1
  W  W77  1  -0.00003533  0.63269513  0.00019900  1
  W  W78  1  0.33349667  0.96622713  0.33313400  1
  W  W79  1  0.66662622  0.29490234  0.66666700  1
  W  W80  1  0.57795567  0.57795567  0.21115541  1
  W  W81  1  0.91459581  0.91459581  0.54250956  1
  W  W82  1  0.24420103  0.24420103  0.87796306  1
  W  W83  1  0.12244508  0.12244508  0.12217759  1
  W  W84  1  0.45549709  0.45549709  0.45536994  1
  W  W85  1  0.79043837  0.79043837  0.79082444  1
  W  W86  1  0.66704884  0.66704884  0.66666700  1
