# generated using pymatgen
data_Cs2KTiO2F3
_symmetry_space_group_name_H-M   'P 1'
_cell_length_a   6.75986318
_cell_length_b   6.42485301
_cell_length_c   6.42485301
_cell_angle_alpha   94.71619595
_cell_angle_beta   59.04976421
_cell_angle_gamma   120.95023579
_symmetry_Int_Tables_number   1
_chemical_formula_structural   Cs2KTiO2F3
_chemical_formula_sum   'Cs2 K1 Ti1 O2 F3'
_cell_volume   198.83112901
_cell_formula_units_Z   1
loop_
 _symmetry_equiv_pos_site_id
 _symmetry_equiv_pos_as_xyz
  1  'x, y, z'
loop_
 _atom_site_type_symbol
 _atom_site_label
 _atom_site_symmetry_multiplicity
 _atom_site_fract_x
 _atom_site_fract_y
 _atom_site_fract_z
 _atom_site_occupancy
  Cs  Cs0  1  0.46861975  0.23430988  0.26569012  1
  Cs  Cs1  1  0.46861975  0.73430988  0.76569012  1
  K  K2  1  0.00235898  0.50117949  0.49882051  1
  Ti  Ti3  1  0.96028952  0.98014476  0.01985524  1
  O  O4  1  0.15305721  0.90519554  0.75213833  1
  O  O5  1  0.15305721  0.24786167  0.09480446  1
  F  F6  1  0.90884265  0.17188108  0.82811892  1
  F  F7  1  0.54631229  0.77315615  0.22684385  1
  F  F8  1  0.90884265  0.73696157  0.26303843  1
