# generated using pymatgen
data_CrFeGe2
_symmetry_space_group_name_H-M   'P 1'
_cell_length_a   4.73886973
_cell_length_b   4.72646613
_cell_length_c   4.71023006
_cell_angle_alpha   90.00000000
_cell_angle_beta   90.00000000
_cell_angle_gamma   90.08675332
_symmetry_Int_Tables_number   1
_chemical_formula_structural   CrFeGe2
_chemical_formula_sum   'Cr2 Fe2 Ge4'
_cell_volume   105.50011731
_cell_formula_units_Z   2
loop_
 _symmetry_equiv_pos_site_id
 _symmetry_equiv_pos_as_xyz
  1  'x, y, z'
loop_
 _atom_site_type_symbol
 _atom_site_label
 _atom_site_symmetry_multiplicity
 _atom_site_fract_x
 _atom_site_fract_y
 _atom_site_fract_z
 _atom_site_occupancy
  Cr  Cr0  1  0.85919369  0.63089601  0.36325408  1
  Cr  Cr1  1  0.64080631  0.36910399  0.86325408  1
  Fe  Fe2  1  0.36563191  0.86185047  0.63513617  1
  Fe  Fe3  1  0.13436809  0.13814953  0.13513617  1
  Ge  Ge4  1  0.16004397  0.33980347  0.65740106  1
  Ge  Ge5  1  0.33995603  0.66019653  0.15740106  1
  Ge  Ge6  1  0.65372595  0.15417915  0.34420868  1
  Ge  Ge7  1  0.84627405  0.84582085  0.84420868  1
