# generated using pymatgen
data_Ce2FeSn4
_symmetry_space_group_name_H-M   'P 1'
_cell_length_a   4.56500679
_cell_length_b   4.58531417
_cell_length_c   8.64492319
_cell_angle_alpha   74.58873330
_cell_angle_beta   90.02052762
_cell_angle_gamma   89.98215032
_symmetry_Int_Tables_number   1
_chemical_formula_structural   Ce2FeSn4
_chemical_formula_sum   'Ce2 Fe1 Sn4'
_cell_volume   174.44883699
_cell_formula_units_Z   1
loop_
 _symmetry_equiv_pos_site_id
 _symmetry_equiv_pos_as_xyz
  1  'x, y, z'
loop_
 _atom_site_type_symbol
 _atom_site_label
 _atom_site_symmetry_multiplicity
 _atom_site_fract_x
 _atom_site_fract_y
 _atom_site_fract_z
 _atom_site_occupancy
  Ce  Ce0  1  0.25001870  0.89612830  0.20749333  1
  Ce  Ce1  1  0.75006922  0.10354329  0.79283637  1
  Fe  Fe2  1  0.24990874  0.69518464  0.60965808  1
  Sn  Sn3  1  0.25002746  0.54562624  0.90873426  1
  Sn  Sn4  1  0.75000825  0.42595263  0.14753980  1
  Sn  Sn5  1  0.25001580  0.25905474  0.48208963  1
  Sn  Sn6  1  0.74995183  0.75951016  0.48164853  1
