# generated using pymatgen
data_Ca6Sc(CoO4)3
_symmetry_space_group_name_H-M   'P 1'
_cell_length_a   6.45080977
_cell_length_b   6.45081030
_cell_length_c   6.45080977
_cell_angle_alpha   92.74831494
_cell_angle_beta   92.74831650
_cell_angle_gamma   92.74831494
_symmetry_Int_Tables_number   1
_chemical_formula_structural   Ca6Sc(CoO4)3
_chemical_formula_sum   'Ca6 Sc1 Co3 O12'
_cell_volume   267.48018789
_cell_formula_units_Z   1
loop_
 _symmetry_equiv_pos_site_id
 _symmetry_equiv_pos_as_xyz
  1  'x, y, z'
loop_
 _atom_site_type_symbol
 _atom_site_label
 _atom_site_symmetry_multiplicity
 _atom_site_fract_x
 _atom_site_fract_y
 _atom_site_fract_z
 _atom_site_occupancy
  Ca  Ca0  1  0.88462063  0.25000000  0.61537937  1
  Ca  Ca1  1  0.25000000  0.61537937  0.88462063  1
  Ca  Ca2  1  0.61537937  0.88462063  0.25000000  1
  Ca  Ca3  1  0.75000000  0.38198504  0.11801496  1
  Ca  Ca4  1  0.38198504  0.11801496  0.75000000  1
  Ca  Ca5  1  0.11801496  0.75000000  0.38198504  1
  Sc  Sc6  1  0.75000000  0.75000000  0.75000000  1
  Co  Co7  1  0.49906182  0.49906182  0.49906182  1
  Co  Co8  1  0.00093818  0.00093818  0.00093818  1
  Co  Co9  1  0.25000000  0.25000000  0.25000000  1
  O  O10  1  0.20356940  0.40554704  0.53766610  1
  O  O11  1  0.40554704  0.53766610  0.20356940  1
  O  O12  1  0.53766610  0.20356940  0.40554704  1
  O  O13  1  0.90995754  0.70331062  0.04275982  1
  O  O14  1  0.70331062  0.04275982  0.90995754  1
  O  O15  1  0.04275982  0.90995754  0.70331062  1
  O  O16  1  0.79668938  0.59004246  0.45724018  1
  O  O17  1  0.59004246  0.45724018  0.79668938  1
  O  O18  1  0.45724018  0.79668938  0.59004246  1
  O  O19  1  0.09445296  0.29643060  0.96233390  1
  O  O20  1  0.29643060  0.96233390  0.09445296  1
  O  O21  1  0.96233390  0.09445296  0.29643060  1
