# generated using pymatgen
data_SiO2
_symmetry_space_group_name_H-M   'P 1'
_cell_length_a   17.94610713
_cell_length_b   17.94610713
_cell_length_c   17.94610713
_cell_angle_alpha   90.00000000
_cell_angle_beta   90.00000000
_cell_angle_gamma   90.00000000
_symmetry_Int_Tables_number   1
_chemical_formula_structural   SiO2
_chemical_formula_sum   'Si48 O96'
_cell_volume   5779.77281367
_cell_formula_units_Z   48
loop_
 _symmetry_equiv_pos_site_id
 _symmetry_equiv_pos_as_xyz
  1  'x, y, z'
loop_
 _atom_site_type_symbol
 _atom_site_label
 _atom_site_symmetry_multiplicity
 _atom_site_fract_x
 _atom_site_fract_y
 _atom_site_fract_z
 _atom_site_occupancy
  Si  Si0  1  0.07396535  0.19543188  0.47474703  1
  Si  Si1  1  0.92603465  0.47474703  0.80456812  1
  Si  Si2  1  0.92603465  0.52525297  0.19543188  1
  Si  Si3  1  0.52525297  0.80456812  0.07396535  1
  Si  Si4  1  0.47474703  0.80456812  0.92603465  1
  Si  Si5  1  0.19543188  0.92603465  0.52525297  1
  Si  Si6  1  0.80456812  0.07396535  0.52525297  1
  Si  Si7  1  0.47474703  0.07396535  0.19543188  1
  Si  Si8  1  0.19543188  0.47474703  0.07396535  1
  Si  Si9  1  0.80456812  0.52525297  0.07396535  1
  Si  Si10  1  0.47474703  0.92603465  0.80456812  1
  Si  Si11  1  0.80456812  0.47474703  0.92603465  1
  Si  Si12  1  0.52525297  0.92603465  0.19543188  1
  Si  Si13  1  0.52525297  0.07396535  0.80456812  1
  Si  Si14  1  0.19543188  0.52525297  0.92603465  1
  Si  Si15  1  0.07396535  0.80456812  0.52525297  1
  Si  Si16  1  0.92603465  0.19543188  0.52525297  1
  Si  Si17  1  0.92603465  0.80456812  0.47474703  1
  Si  Si18  1  0.80456812  0.92603465  0.47474703  1
  Si  Si19  1  0.19543188  0.07396535  0.47474703  1
  Si  Si20  1  0.52525297  0.19543188  0.92603465  1
  Si  Si21  1  0.47474703  0.19543188  0.07396535  1
  Si  Si22  1  0.07396535  0.52525297  0.80456812  1
  Si  Si23  1  0.07396535  0.47474703  0.19543188  1
  Si  Si24  1  0.57396535  0.69543188  0.97474703  1
  Si  Si25  1  0.42603465  0.97474703  0.30456812  1
  Si  Si26  1  0.42603465  0.02525297  0.69543188  1
  Si  Si27  1  0.02525297  0.30456812  0.57396535  1
  Si  Si28  1  0.97474703  0.30456812  0.42603465  1
  Si  Si29  1  0.69543188  0.42603465  0.02525297  1
  Si  Si30  1  0.30456812  0.57396535  0.02525297  1
  Si  Si31  1  0.97474703  0.57396535  0.69543188  1
  Si  Si32  1  0.69543188  0.97474703  0.57396535  1
  Si  Si33  1  0.30456812  0.02525297  0.57396535  1
  Si  Si34  1  0.97474703  0.42603465  0.30456812  1
  Si  Si35  1  0.30456812  0.97474703  0.42603465  1
  Si  Si36  1  0.02525297  0.42603465  0.69543188  1
  Si  Si37  1  0.02525297  0.57396535  0.30456812  1
  Si  Si38  1  0.69543188  0.02525297  0.42603465  1
  Si  Si39  1  0.57396535  0.30456812  0.02525297  1
  Si  Si40  1  0.42603465  0.69543188  0.02525297  1
  Si  Si41  1  0.42603465  0.30456812  0.97474703  1
  Si  Si42  1  0.30456812  0.42603465  0.97474703  1
  Si  Si43  1  0.69543188  0.57396535  0.97474703  1
  Si  Si44  1  0.02525297  0.69543188  0.42603465  1
  Si  Si45  1  0.97474703  0.69543188  0.57396535  1
  Si  Si46  1  0.57396535  0.02525297  0.30456812  1
  Si  Si47  1  0.57396535  0.97474703  0.69543188  1
  O  O48  1  0.14317626  0.14317626  0.45077601  1
  O  O49  1  0.85682374  0.45077601  0.85682374  1
  O  O50  1  0.85682374  0.54922399  0.14317626  1
  O  O51  1  0.54922399  0.85682374  0.14317626  1
  O  O52  1  0.45077601  0.85682374  0.85682374  1
  O  O53  1  0.14317626  0.85682374  0.54922399  1
  O  O54  1  0.85682374  0.14317626  0.54922399  1
  O  O55  1  0.45077601  0.14317626  0.14317626  1
  O  O56  1  0.14317626  0.45077601  0.14317626  1
  O  O57  1  0.54922399  0.14317626  0.85682374  1
  O  O58  1  0.14317626  0.54922399  0.85682374  1
  O  O59  1  0.85682374  0.85682374  0.45077601  1
  O  O60  1  0.64317626  0.64317626  0.95077601  1
  O  O61  1  0.35682374  0.95077601  0.35682374  1
  O  O62  1  0.35682374  0.04922399  0.64317626  1
  O  O63  1  0.04922399  0.35682374  0.64317626  1
  O  O64  1  0.95077601  0.35682374  0.35682374  1
  O  O65  1  0.64317626  0.35682374  0.04922399  1
  O  O66  1  0.35682374  0.64317626  0.04922399  1
  O  O67  1  0.95077601  0.64317626  0.64317626  1
  O  O68  1  0.64317626  0.95077601  0.64317626  1
  O  O69  1  0.04922399  0.64317626  0.35682374  1
  O  O70  1  0.64317626  0.04922399  0.35682374  1
  O  O71  1  0.35682374  0.35682374  0.95077601  1
  O  O72  1  0.04647499  0.24981202  0.40546413  1
  O  O73  1  0.95352501  0.40546413  0.75018798  1
  O  O74  1  0.95352501  0.59453587  0.24981202  1
  O  O75  1  0.59453587  0.75018798  0.04647499  1
  O  O76  1  0.40546413  0.75018798  0.95352501  1
  O  O77  1  0.24981202  0.95352501  0.59453587  1
  O  O78  1  0.75018798  0.04647499  0.59453587  1
  O  O79  1  0.40546413  0.04647499  0.24981202  1
  O  O80  1  0.24981202  0.40546413  0.04647499  1
  O  O81  1  0.75018798  0.59453587  0.04647499  1
  O  O82  1  0.40546413  0.95352501  0.75018798  1
  O  O83  1  0.75018798  0.40546413  0.95352501  1
  O  O84  1  0.59453587  0.95352501  0.24981202  1
  O  O85  1  0.59453587  0.04647499  0.75018798  1
  O  O86  1  0.24981202  0.59453587  0.95352501  1
  O  O87  1  0.04647499  0.75018798  0.59453587  1
  O  O88  1  0.95352501  0.24981202  0.59453587  1
  O  O89  1  0.95352501  0.75018798  0.40546413  1
  O  O90  1  0.75018798  0.95352501  0.40546413  1
  O  O91  1  0.24981202  0.04647499  0.40546413  1
  O  O92  1  0.59453587  0.24981202  0.95352501  1
  O  O93  1  0.40546413  0.24981202  0.04647499  1
  O  O94  1  0.04647499  0.59453587  0.75018798  1
  O  O95  1  0.04647499  0.40546413  0.24981202  1
  O  O96  1  0.54647499  0.74981202  0.90546413  1
  O  O97  1  0.45352501  0.90546413  0.25018798  1
  O  O98  1  0.45352501  0.09453587  0.74981202  1
  O  O99  1  0.09453587  0.25018798  0.54647499  1
  O  O100  1  0.90546413  0.25018798  0.45352501  1
  O  O101  1  0.74981202  0.45352501  0.09453587  1
  O  O102  1  0.25018798  0.54647499  0.09453587  1
  O  O103  1  0.90546413  0.54647499  0.74981202  1
  O  O104  1  0.74981202  0.90546413  0.54647499  1
  O  O105  1  0.25018798  0.09453587  0.54647499  1
  O  O106  1  0.90546413  0.45352501  0.25018798  1
  O  O107  1  0.25018798  0.90546413  0.45352501  1
  O  O108  1  0.09453587  0.45352501  0.74981202  1
  O  O109  1  0.09453587  0.54647499  0.25018798  1
  O  O110  1  0.74981202  0.09453587  0.45352501  1
  O  O111  1  0.54647499  0.25018798  0.09453587  1
  O  O112  1  0.45352501  0.74981202  0.09453587  1
  O  O113  1  0.45352501  0.25018798  0.90546413  1
  O  O114  1  0.25018798  0.45352501  0.90546413  1
  O  O115  1  0.74981202  0.54647499  0.90546413  1
  O  O116  1  0.09453587  0.74981202  0.45352501  1
  O  O117  1  0.90546413  0.74981202  0.54647499  1
  O  O118  1  0.54647499  0.09453587  0.25018798  1
  O  O119  1  0.54647499  0.90546413  0.74981202  1
  O  O120  1  0.00000000  0.14635656  0.50000000  1
  O  O121  1  0.00000000  0.50000000  0.85364344  1
  O  O122  1  0.00000000  0.50000000  0.14635656  1
  O  O123  1  0.50000000  0.85364344  0.00000000  1
  O  O124  1  0.14635656  0.00000000  0.50000000  1
  O  O125  1  0.85364344  0.00000000  0.50000000  1
  O  O126  1  0.50000000  0.00000000  0.14635656  1
  O  O127  1  0.14635656  0.50000000  0.00000000  1
  O  O128  1  0.85364344  0.50000000  0.00000000  1
  O  O129  1  0.50000000  0.00000000  0.85364344  1
  O  O130  1  0.00000000  0.85364344  0.50000000  1
  O  O131  1  0.50000000  0.14635656  0.00000000  1
  O  O132  1  0.50000000  0.64635656  0.00000000  1
  O  O133  1  0.50000000  0.00000000  0.35364344  1
  O  O134  1  0.50000000  0.00000000  0.64635656  1
  O  O135  1  0.00000000  0.35364344  0.50000000  1
  O  O136  1  0.64635656  0.50000000  0.00000000  1
  O  O137  1  0.35364344  0.50000000  0.00000000  1
  O  O138  1  0.00000000  0.50000000  0.64635656  1
  O  O139  1  0.64635656  0.00000000  0.50000000  1
  O  O140  1  0.35364344  0.00000000  0.50000000  1
  O  O141  1  0.00000000  0.50000000  0.35364344  1
  O  O142  1  0.50000000  0.35364344  0.00000000  1
  O  O143  1  0.00000000  0.64635656  0.50000000  1
