# generated using pymatgen
data_Li6Mn3CoO10
_symmetry_space_group_name_H-M   'P 1'
_cell_length_a   2.86854178
_cell_length_b   5.83690747
_cell_length_c   10.91190022
_cell_angle_alpha   98.04423710
_cell_angle_beta   82.44712709
_cell_angle_gamma   90.00000393
_symmetry_Int_Tables_number   1
_chemical_formula_structural   Li6Mn3CoO10
_chemical_formula_sum   'Li6 Mn3 Co1 O10'
_cell_volume   179.30369745
_cell_formula_units_Z   1
loop_
 _symmetry_equiv_pos_site_id
 _symmetry_equiv_pos_as_xyz
  1  'x, y, z'
loop_
 _atom_site_type_symbol
 _atom_site_label
 _atom_site_symmetry_multiplicity
 _atom_site_fract_x
 _atom_site_fract_y
 _atom_site_fract_z
 _atom_site_occupancy
  Li  Li0  1  0.39980491  0.29993754  0.20039018  1
  Li  Li1  1  0.20378240  0.89859931  0.59243520  1
  Li  Li2  1  0.80750591  0.09153598  0.38498819  1
  Li  Li3  1  0.59705579  0.69979053  0.80588841  1
  Li  Li4  1  0.99037917  0.51071411  0.01924167  1
  Li  Li5  1  0.39922616  0.79922087  0.20154768  1
  Mn  Mn6  1  0.99205934  0.99945030  0.01588132  1
  Mn  Mn7  1  0.80644587  0.59922844  0.38710827  1
  Mn  Mn8  1  0.59901006  0.20420534  0.80197987  1
  Co  Co9  1  0.20358323  0.39783910  0.59283353  1
  O  O10  1  0.49690897  0.22642917  0.00618207  1
  O  O11  1  0.29865238  0.82556419  0.40269525  1
  O  O12  1  0.90786911  0.04238193  0.18426177  1
  O  O13  1  0.70654124  0.62223637  0.58691753  1
  O  O14  1  0.10019305  0.43342507  0.79961390  1
  O  O15  1  0.30158687  0.37262213  0.39682626  1
  O  O16  1  0.09544283  0.97307270  0.80911433  1
  O  O17  1  0.70289360  0.17458843  0.59421279  1
  O  O18  1  0.50029011  0.77308913  0.99941978  1
  O  O19  1  0.89076900  0.55606936  0.21846200  1
