# generated using pymatgen
data_BaNdMnCoO6
_symmetry_space_group_name_H-M   'P 1'
_cell_length_a   5.58279092
_cell_length_b   5.58279092
_cell_length_c   7.80567423
_cell_angle_alpha   90.00000000
_cell_angle_beta   90.00000000
_cell_angle_gamma   89.64125743
_symmetry_Int_Tables_number   1
_chemical_formula_structural   BaNdMnCoO6
_chemical_formula_sum   'Ba2 Nd2 Mn2 Co2 O12'
_cell_volume   243.27900821
_cell_formula_units_Z   2
loop_
 _symmetry_equiv_pos_site_id
 _symmetry_equiv_pos_as_xyz
  1  'x, y, z'
loop_
 _atom_site_type_symbol
 _atom_site_label
 _atom_site_symmetry_multiplicity
 _atom_site_fract_x
 _atom_site_fract_y
 _atom_site_fract_z
 _atom_site_occupancy
  Ba  Ba0  1  0.75126128  0.75126128  0.99701381  1
  Ba  Ba1  1  0.24873872  0.24873872  0.99701381  1
  Nd  Nd2  1  0.75841414  0.75841414  0.50374686  1
  Nd  Nd3  1  0.24158586  0.24158586  0.50374686  1
  Mn  Mn4  1  0.74995176  0.25004824  0.25521338  1
  Mn  Mn5  1  0.25004824  0.74995176  0.25521338  1
  Co  Co6  1  0.25208758  0.74791242  0.74828609  1
  Co  Co7  1  0.74791242  0.25208758  0.74828609  1
  O  O8  1  0.25544144  0.74455856  0.99840569  1
  O  O9  1  0.74455856  0.25544144  0.99840569  1
  O  O10  1  0.50000000  0.50000000  0.71176343  1
  O  O11  1  0.50000000  0.50000000  0.28703482  1
  O  O12  1  0.00000000  0.00000000  0.73981676  1
  O  O13  1  0.00000000  0.00000000  0.26131477  1
  O  O14  1  0.00000000  0.50000000  0.72395842  1
  O  O15  1  0.50000000  0.00000000  0.27461888  1
  O  O16  1  0.00000000  0.50000000  0.27461888  1
  O  O17  1  0.50000000  0.00000000  0.72395842  1
  O  O18  1  0.22789037  0.77210963  0.49879198  1
  O  O19  1  0.77210963  0.22789037  0.49879198  1
