# generated using pymatgen
data_ZrH36C16(NO4)4
_symmetry_space_group_name_H-M   'P 1'
_cell_length_a   10.17987455
_cell_length_b   12.00689663
_cell_length_c   12.49314068
_cell_angle_alpha   111.11927155
_cell_angle_beta   90.00000000
_cell_angle_gamma   90.00000000
_symmetry_Int_Tables_number   1
_chemical_formula_structural   ZrH36C16(NO4)4
_chemical_formula_sum   'Zr2 H72 C32 N8 O32'
_cell_volume   1424.45406370
_cell_formula_units_Z   2
loop_
 _symmetry_equiv_pos_site_id
 _symmetry_equiv_pos_as_xyz
  1  'x, y, z'
loop_
 _atom_site_type_symbol
 _atom_site_label
 _atom_site_symmetry_multiplicity
 _atom_site_fract_x
 _atom_site_fract_y
 _atom_site_fract_z
 _atom_site_occupancy
  Zr  Zr0  1  0.20001697  0.05925221  0.26686480  1
  Zr  Zr1  1  0.70001697  0.94074779  0.73313520  1
  H  H2  1  0.07442847  0.41868688  0.43700225  1
  H  H3  1  0.27520209  0.35673512  0.07980373  1
  H  H4  1  0.24801300  0.41655051  0.42489192  1
  H  H5  1  0.59586373  0.56384582  0.06808232  1
  H  H6  1  0.51461120  0.34388665  0.13694935  1
  H  H7  1  0.83577626  0.37768703  0.62664600  1
  H  H8  1  0.65109624  0.72747211  0.99648277  1
  H  H9  1  0.74801300  0.58344949  0.57510808  1
  H  H10  1  0.42581117  0.45268444  0.20838638  1
  H  H11  1  0.74111572  0.28860283  0.06864829  1
  H  H12  1  0.99305135  0.43077260  0.10704869  1
  H  H13  1  0.40509935  0.51221554  0.38962961  1
  H  H14  1  0.15109624  0.27252789  0.00351723  1
  H  H15  1  0.75774777  0.62487820  0.10599503  1
  H  H16  1  0.57607244  0.10180390  0.02039152  1
  H  H17  1  0.15839246  0.72387637  0.48230817  1
  H  H18  1  0.73447281  0.28225300  0.19239495  1
  H  H19  1  0.28925449  0.49552268  0.69633029  1
  H  H20  1  0.96036324  0.02616205  0.50299678  1
  H  H21  1  0.07834247  0.36490538  0.19437545  1
  H  H22  1  0.46036324  0.97383795  0.49700322  1
  H  H23  1  0.08877480  0.38721007  0.61020346  1
  H  H24  1  0.09586373  0.43615418  0.93191768  1
  H  H25  1  0.81402273  0.10812486  0.55441778  1
  H  H26  1  0.51057928  0.21132833  0.93588463  1
  H  H27  1  0.01461120  0.65611335  0.86305065  1
  H  H28  1  0.58877480  0.61278993  0.38979654  1
  H  H29  1  0.23447281  0.71774700  0.80760505  1
  H  H30  1  0.07607244  0.89819610  0.97960848  1
  H  H31  1  0.62699291  0.49136317  0.80534349  1
  H  H32  1  0.65839246  0.27612363  0.51769183  1
  H  H33  1  0.57442847  0.58131312  0.56299775  1
  H  H34  1  0.36647982  0.16461917  0.85318356  1
  H  H35  1  0.23616834  0.51417093  0.00934187  1
  H  H36  1  0.17842045  0.28044249  0.51533027  1
  H  H37  1  0.14015720  0.71490394  0.35324773  1
  H  H38  1  0.93029160  0.98064259  0.98360852  1
  H  H39  1  0.79931103  0.65836788  0.31459963  1
  H  H40  1  0.81221100  0.06294538  0.14126288  1
  H  H41  1  0.57834247  0.63509462  0.80562455  1
  H  H42  1  0.25774777  0.37512180  0.89400497  1
  H  H43  1  0.05290049  0.99482189  0.75986840  1
  H  H44  1  0.35872282  0.78220065  0.28393567  1
  H  H45  1  0.12699291  0.50863683  0.19465651  1
  H  H46  1  0.43029160  0.01935741  0.01639148  1
  H  H47  1  0.85872282  0.21779935  0.71606433  1
  H  H48  1  0.86647982  0.83538083  0.14681644  1
  H  H49  1  0.16896130  0.53773121  0.53702768  1
  H  H50  1  0.01267346  0.18572306  0.76370699  1
  H  H51  1  0.38138072  0.38824785  0.58345131  1
  H  H52  1  0.33577626  0.62231297  0.37335400  1
  H  H53  1  0.77520209  0.64326488  0.92019627  1
  H  H54  1  0.90509935  0.48778446  0.61037039  1
  H  H55  1  0.88138072  0.61175215  0.41654869  1
  H  H56  1  0.24111572  0.71139717  0.93135171  1
  H  H57  1  0.01057928  0.78867167  0.06411537  1
  H  H58  1  0.83673896  0.02251549  0.26311240  1
  H  H59  1  0.29931103  0.34163212  0.68540037  1
  H  H60  1  0.58668140  0.03726616  0.38732502  1
  H  H61  1  0.33673896  0.97748451  0.73688760  1
  H  H62  1  0.66896130  0.46226879  0.46297232  1
  H  H63  1  0.73616834  0.48582907  0.99065813  1
  H  H64  1  0.31402273  0.89187514  0.44558222  1
  H  H65  1  0.55290049  0.00517811  0.24013160  1
  H  H66  1  0.64015720  0.28509606  0.64675227  1
  H  H67  1  0.92581117  0.54731556  0.79161362  1
  H  H68  1  0.31221100  0.93705462  0.85873712  1
  H  H69  1  0.67842045  0.71955751  0.48466973  1
  H  H70  1  0.78925449  0.50447732  0.30366971  1
  H  H71  1  0.08668140  0.96273384  0.61267498  1
  H  H72  1  0.49305135  0.56922740  0.89295131  1
  H  H73  1  0.51267346  0.81427694  0.23629301  1
  C  C74  1  0.84533607  0.17758497  0.86733139  1
  C  C75  1  0.58873845  0.57930075  0.85767298  1
  C  C76  1  0.78300511  0.92231536  0.48162306  1
  C  C77  1  0.02150739  0.97925933  0.03034930  1
  C  C78  1  0.51023639  0.04160445  0.32693671  1
  C  C79  1  0.08873845  0.42069925  0.14232702  1
  C  C80  1  0.97244514  0.82933601  0.65308230  1
  C  C81  1  0.36884348  0.97224701  0.44949280  1
  C  C82  1  0.47244514  0.17066399  0.34691770  1
  C  C83  1  0.52150739  0.02074067  0.96965070  1
  C  C84  1  0.86884348  0.02775299  0.55050720  1
  C  C85  1  0.01023639  0.95839555  0.67306329  1
  C  C86  1  0.90918202  0.15772285  0.75114199  1
  C  C87  1  0.29403898  0.40237927  0.63801756  1
  C  C88  1  0.43092041  0.81623769  0.72140893  1
  C  C89  1  0.93092041  0.18376231  0.27859107  1
  C  C90  1  0.16613386  0.44218169  0.48565930  1
  C  C91  1  0.88589638  0.05843131  0.20387191  1
  C  C92  1  0.04034942  0.83058755  0.24258895  1
  C  C93  1  0.79403898  0.59762073  0.36198244  1
  C  C94  1  0.40918202  0.84227715  0.24885801  1
  C  C95  1  0.38589638  0.94156869  0.79612809  1
  C  C96  1  0.47193605  0.14605033  0.85592421  1
  C  C97  1  0.97193605  0.85394967  0.14407579  1
  C  C98  1  0.28300511  0.07768464  0.51837694  1
  C  C99  1  0.69306305  0.57406452  0.03520288  1
  C  C100  1  0.54034942  0.16941245  0.75741105  1
  C  C101  1  0.19306305  0.42593548  0.96479712  1
  C  C102  1  0.60844279  0.91586346  0.96445458  1
  C  C103  1  0.34533607  0.82241503  0.13266861  1
  C  C104  1  0.66613386  0.55781831  0.51434070  1
  C  C105  1  0.10844279  0.08413654  0.03554542  1
  N  N106  1  0.89471741  0.03309119  0.66925472  1
  N  N107  1  0.18091954  0.36170081  0.04619377  1
  N  N108  1  0.68091954  0.63829919  0.95380623  1
  N  N109  1  0.49555533  0.02331179  0.85371314  1
  N  N110  1  0.67574921  0.62720975  0.43716758  1
  N  N111  1  0.99555533  0.97668821  0.14628686  1
  N  N112  1  0.17574921  0.37279025  0.56283242  1
  N  N113  1  0.39471741  0.96690881  0.33074528  1
  O  O114  1  0.17981207  0.70532364  0.86789562  1
  O  O115  1  0.52994067  0.26863803  0.74784452  1
  O  O116  1  0.91622791  0.43141594  0.64959817  1
  O  O117  1  0.04410236  0.74375902  0.59799474  1
  O  O118  1  0.36130605  0.72712462  0.70775263  1
  O  O119  1  0.10947699  0.12006423  0.95264872  1
  O  O120  1  0.60947699  0.87993577  0.04735128  1
  O  O121  1  0.04274153  0.18723542  0.33071907  1
  O  O122  1  0.92943785  0.61628805  0.86440262  1
  O  O123  1  0.77375460  0.89229559  0.37604608  1
  O  O124  1  0.68075517  0.87036576  0.87393046  1
  O  O125  1  0.77982878  0.08716408  0.87501667  1
  O  O126  1  0.86130605  0.27287538  0.29224737  1
  O  O127  1  0.20608212  0.70539022  0.40866218  1
  O  O128  1  0.67981207  0.29467636  0.13210438  1
  O  O129  1  0.11175690  0.91761263  0.31053757  1
  O  O130  1  0.35245963  0.72334095  0.05401099  1
  O  O131  1  0.21793957  0.12896610  0.45784227  1
  O  O132  1  0.02994067  0.73136197  0.25215548  1
  O  O133  1  0.86305278  0.81815294  0.70245854  1
  O  O134  1  0.27375460  0.10770441  0.62395392  1
  O  O135  1  0.41622791  0.56858406  0.35040183  1
  O  O136  1  0.54410236  0.25624098  0.40200526  1
  O  O137  1  0.36305278  0.18184706  0.29754146  1
  O  O138  1  0.85245963  0.27665905  0.94598901  1
  O  O139  1  0.27982878  0.91283592  0.12498333  1
  O  O140  1  0.54274153  0.81276458  0.66928093  1
  O  O141  1  0.42943785  0.38371195  0.13559738  1
  O  O142  1  0.70608212  0.29460978  0.59133782  1
  O  O143  1  0.61175690  0.08238737  0.68946243  1
  O  O144  1  0.71793957  0.87103390  0.54215773  1
  O  O145  1  0.18075517  0.12963424  0.12606954  1
