# generated using pymatgen
data_Ce10(NiSn)3
_symmetry_space_group_name_H-M   'P 1'
_cell_length_a   7.97909470
_cell_length_b   7.97909470
_cell_length_c   8.70721012
_cell_angle_alpha   59.97015019
_cell_angle_beta   59.97015019
_cell_angle_gamma   84.70766824
_symmetry_Int_Tables_number   1
_chemical_formula_structural   Ce10(NiSn)3
_chemical_formula_sum   'Ce10 Ni3 Sn3'
_cell_volume   406.15247596
_cell_formula_units_Z   1
loop_
 _symmetry_equiv_pos_site_id
 _symmetry_equiv_pos_as_xyz
  1  'x, y, z'
loop_
 _atom_site_type_symbol
 _atom_site_label
 _atom_site_symmetry_multiplicity
 _atom_site_fract_x
 _atom_site_fract_y
 _atom_site_fract_z
 _atom_site_occupancy
  Ce  Ce0  1  0.66373606  0.52971302  0.29402824  1
  Ce  Ce1  1  0.02971302  0.16373606  0.29402824  1
  Ce  Ce2  1  0.51977495  0.01977495  0.27086847  1
  Ce  Ce3  1  0.20958068  0.70958068  0.29019843  1
  Ce  Ce4  1  0.32374126  0.45776430  0.70597176  1
  Ce  Ce5  1  0.95776430  0.82374126  0.70597176  1
  Ce  Ce6  1  0.49977911  -0.00022089  0.70980157  1
  Ce  Ce7  1  0.79064342  0.29064342  0.72913153  1
  Ce  Ce8  1  0.54921927  0.44242743  0.00000000  1
  Ce  Ce9  1  0.94242743  0.04921927  0.00000000  1
  Ni  Ni10  1  0.61561049  0.86478117  1.00000000  1
  Ni  Ni11  1  0.36478117  0.11561049  1.00000000  1
  Ni  Ni12  1  0.90666215  0.40666215  0.00000000  1
  Sn  Sn13  1  0.13891202  0.63891202  0.00000000  1
  Sn  Sn14  1  0.24382733  0.24382733  0.50000000  1
  Sn  Sn15  1  0.74382733  0.74382733  0.50000000  1
