# generated using pymatgen
data_Ba6Cu3Hg3O13
_symmetry_space_group_name_H-M   'P 1'
_cell_length_a   5.50835242
_cell_length_b   8.76340190
_cell_length_c   10.53666429
_cell_angle_alpha   109.35673367
_cell_angle_beta   74.84745799
_cell_angle_gamma   108.31744658
_symmetry_Int_Tables_number   1
_chemical_formula_structural   Ba6Cu3Hg3O13
_chemical_formula_sum   'Ba6 Cu3 Hg3 O13'
_cell_volume   448.48521902
_cell_formula_units_Z   1
loop_
 _symmetry_equiv_pos_site_id
 _symmetry_equiv_pos_as_xyz
  1  'x, y, z'
loop_
 _atom_site_type_symbol
 _atom_site_label
 _atom_site_symmetry_multiplicity
 _atom_site_fract_x
 _atom_site_fract_y
 _atom_site_fract_z
 _atom_site_occupancy
  Ba  Ba0  1  0.92661746  0.57338735  0.72015342  1
  Ba  Ba1  1  0.26434798  0.23489526  0.70619930  1
  Ba  Ba2  1  0.59907134  0.90166229  0.70351862  1
  Ba  Ba3  1  0.06759466  0.43167171  0.29648138  1
  Ba  Ba4  1  0.40231902  0.09843774  0.29380070  1
  Ba  Ba5  1  0.74004954  0.75994565  0.27984658  1
  Cu  Cu6  1  0.16627280  0.83134962  0.49880502  1
  Cu  Cu7  1  0.50039420  0.50198338  0.50119498  1
  Cu  Cu8  1  0.83333300  0.16666700  0.50000000  1
  Hg  Hg9  1  0.33333300  0.66666700  0.00000000  1
  Hg  Hg10  1  0.66999492  0.34004265  0.00005382  1
  Hg  Hg11  1  0.99667208  0.99329035  0.99994618  1
  O  O12  1  0.07317557  0.93787057  0.79152043  1
  O  O13  1  0.40291015  0.59715260  0.79133229  1
  O  O14  1  0.73244099  0.25653714  0.79165416  1
  O  O15  1  0.26375685  0.73618040  0.20866771  1
  O  O16  1  0.59349143  0.39546243  0.20847957  1
  O  O17  1  0.93422501  0.07679686  0.20834584  1
  O  O18  1  0.83333300  0.66666700  0.50000000  1
  O  O19  1  0.16836682  0.33043398  0.49901582  1
  O  O20  1  0.49830018  0.00289902  0.50098418  1
  O  O21  1  0.33333300  0.66666700  0.50000000  1
  O  O22  1  0.66305235  0.33043398  0.49901582  1
  O  O23  1  0.00361465  0.00289902  0.50098418  1
  O  O24  1  0.83333300  0.66666700  0.00000000  1
