# generated using pymatgen
data_Ba4CoNi3S8
_symmetry_space_group_name_H-M   'P 1'
_cell_length_a   4.43918942
_cell_length_b   10.03821815
_cell_length_c   8.84642203
_cell_angle_alpha   63.85546068
_cell_angle_beta   90.00000000
_cell_angle_gamma   90.00000000
_symmetry_Int_Tables_number   1
_chemical_formula_structural   Ba4CoNi3S8
_chemical_formula_sum   'Ba4 Co1 Ni3 S8'
_cell_volume   353.87679131
_cell_formula_units_Z   1
loop_
 _symmetry_equiv_pos_site_id
 _symmetry_equiv_pos_as_xyz
  1  'x, y, z'
loop_
 _atom_site_type_symbol
 _atom_site_label
 _atom_site_symmetry_multiplicity
 _atom_site_fract_x
 _atom_site_fract_y
 _atom_site_fract_z
 _atom_site_occupancy
  Ba  Ba0  1  0.75000000  0.19999980  0.02500010  1
  Ba  Ba1  1  0.75000000  0.19694569  0.52652715  1
  Ba  Ba2  1  0.25000000  0.80138496  0.97206190  1
  Ba  Ba3  1  0.25000000  0.80138496  0.47655313  1
  Co  Co4  1  0.75000000  0.58624929  0.33187536  1
  Ni  Ni5  1  0.75000000  0.58658686  0.83170657  1
  Ni  Ni6  1  0.25000000  0.41476545  0.66670582  1
  Ni  Ni7  1  0.25000000  0.41476545  0.16852872  1
  S  S8  1  0.75000000  0.49885581  0.13198161  1
  S  S9  1  0.75000000  0.49885581  0.61916258  1
  S  S10  1  0.25000000  0.50175465  0.87412268  1
  S  S11  1  0.25000000  0.50328673  0.37335663  1
  S  S12  1  0.75000000  0.84322229  0.70338886  1
  S  S13  1  0.75000000  0.83861552  0.20569224  1
  S  S14  1  0.25000000  0.15666335  0.29630032  1
  S  S15  1  0.25000000  0.15666335  0.79703632  1
