# generated using pymatgen
data_Ba2NbH13C8O23
_symmetry_space_group_name_H-M   'P 1'
_cell_length_a   10.69641397
_cell_length_b   11.97019967
_cell_length_c   16.86669505
_cell_angle_alpha   90.00000000
_cell_angle_beta   90.00000000
_cell_angle_gamma   90.00000000
_symmetry_Int_Tables_number   1
_chemical_formula_structural   Ba2NbH13C8O23
_chemical_formula_sum   'Ba8 Nb4 H52 C32 O92'
_cell_volume   2159.58145924
_cell_formula_units_Z   4
loop_
 _symmetry_equiv_pos_site_id
 _symmetry_equiv_pos_as_xyz
  1  'x, y, z'
loop_
 _atom_site_type_symbol
 _atom_site_label
 _atom_site_symmetry_multiplicity
 _atom_site_fract_x
 _atom_site_fract_y
 _atom_site_fract_z
 _atom_site_occupancy
  Ba  Ba0  1  0.04145375  0.75749543  0.23137385  1
  Ba  Ba1  1  0.45854625  0.75749543  0.73137385  1
  Ba  Ba2  1  0.95854625  0.25749543  0.76862615  1
  Ba  Ba3  1  0.54145375  0.25749543  0.26862615  1
  Ba  Ba4  1  0.30479005  0.74792545  0.46091638  1
  Ba  Ba5  1  0.19520995  0.74792545  0.96091638  1
  Ba  Ba6  1  0.69520995  0.24792545  0.53908362  1
  Ba  Ba7  1  0.80479005  0.24792545  0.03908362  1
  Nb  Nb8  1  0.63963681  0.74894853  0.12476384  1
  Nb  Nb9  1  0.86036319  0.74894853  0.62476384  1
  Nb  Nb10  1  0.36036319  0.24894853  0.87523616  1
  Nb  Nb11  1  0.13963681  0.24894853  0.37523616  1
  H  H12  1  0.60561450  0.80662919  0.47026129  1
  H  H13  1  0.88821383  0.69106319  0.93297184  1
  H  H14  1  0.39438550  0.30662919  0.52973871  1
  H  H15  1  0.11178617  0.19106319  0.06702816  1
  H  H16  1  0.38821383  0.19106319  0.56702816  1
  H  H17  1  0.10561450  0.30662919  0.02973871  1
  H  H18  1  0.61178617  0.69106319  0.43297184  1
  H  H19  1  0.89438550  0.80662919  0.97026129  1
  H  H20  1  0.91480493  0.99333298  0.17976124  1
  H  H21  1  0.51834838  0.48640838  0.75762694  1
  H  H22  1  0.08519507  0.49333298  0.82023876  1
  H  H23  1  0.48165162  0.98640838  0.24237306  1
  H  H24  1  0.01834838  0.98640838  0.74237306  1
  H  H25  1  0.41480493  0.49333298  0.32023876  1
  H  H26  1  0.98165162  0.48640838  0.25762694  1
  H  H27  1  0.58519507  0.99333298  0.67976124  1
  H  H28  1  0.73374284  0.99085709  0.38123209  1
  H  H29  1  0.76060136  0.50862455  0.87860127  1
  H  H30  1  0.26625716  0.49085709  0.61876791  1
  H  H31  1  0.23939864  0.00862455  0.12139873  1
  H  H32  1  0.26060136  0.00862455  0.62139873  1
  H  H33  1  0.23374284  0.49085709  0.11876791  1
  H  H34  1  0.73939864  0.50862455  0.37860127  1
  H  H35  1  0.76625716  0.99085709  0.88123209  1
  H  H36  1  0.65737778  0.91108203  0.32380844  1
  H  H37  1  0.85825576  0.54608666  0.80916612  1
  H  H38  1  0.34262222  0.41108203  0.67619156  1
  H  H39  1  0.14174424  0.04608666  0.19083388  1
  H  H40  1  0.35825576  0.04608666  0.69083388  1
  H  H41  1  0.15737778  0.41108203  0.17619156  1
  H  H42  1  0.64174424  0.54608666  0.30916612  1
  H  H43  1  0.84262222  0.91108203  0.82380844  1
  H  H44  1  0.81627583  0.81252593  0.35693511  1
  H  H45  1  0.69250013  0.68352916  0.84692248  1
  H  H46  1  0.18372417  0.31252593  0.64306489  1
  H  H47  1  0.30749987  0.18352916  0.15307752  1
  H  H48  1  0.19250013  0.18352916  0.65307752  1
  H  H49  1  0.31627583  0.31252593  0.14306489  1
  H  H50  1  0.80749987  0.68352916  0.34692248  1
  H  H51  1  0.68372417  0.81252593  0.85693511  1
  H  H52  1  0.85147340  0.96936704  0.26382241  1
  H  H53  1  0.65744900  0.53394125  0.75912107  1
  H  H54  1  0.14852660  0.46936704  0.73617759  1
  H  H55  1  0.34255100  0.03394125  0.24087893  1
  H  H56  1  0.15744900  0.03394125  0.74087893  1
  H  H57  1  0.35147340  0.46936704  0.23617759  1
  H  H58  1  0.84255100  0.53394125  0.25912107  1
  H  H59  1  0.64852660  0.96936704  0.76382241  1
  H  H60  1  0.58804556  0.49554238  0.64492647  1
  H  H61  1  0.41195444  0.99554238  0.35507353  1
  H  H62  1  0.08804556  0.99554238  0.85507353  1
  H  H63  1  0.91195444  0.49554238  0.14492647  1
  C  C64  1  0.63018377  0.00597320  0.11247204  1
  C  C65  1  0.86729868  0.49533539  0.61017298  1
  C  C66  1  0.36981623  0.50597320  0.88752796  1
  C  C67  1  0.13270132  0.99533539  0.38982702  1
  C  C68  1  0.36729868  0.99533539  0.88982702  1
  C  C69  1  0.13018377  0.50597320  0.38752796  1
  C  C70  1  0.63270132  0.49533539  0.11017298  1
  C  C71  1  0.86981623  0.00597320  0.61247204  1
  C  C72  1  0.35577662  0.74734526  0.13943056  1
  C  C73  1  0.14422338  0.74734526  0.63943056  1
  C  C74  1  0.64422338  0.24734526  0.86056944  1
  C  C75  1  0.85577662  0.24734526  0.36056944  1
  C  C76  1  0.67814495  0.96334249  0.03164142  1
  C  C77  1  0.82733727  0.53767540  0.52733864  1
  C  C78  1  0.32185505  0.46334249  0.96835858  1
  C  C79  1  0.17266273  0.03767540  0.47266136  1
  C  C80  1  0.32733727  0.03767540  0.97266136  1
  C  C81  1  0.17814495  0.46334249  0.46835858  1
  C  C82  1  0.67266273  0.53767540  0.02733864  1
  C  C83  1  0.82185505  0.96334249  0.53164142  1
  C  C84  1  0.51588826  0.53008482  0.54099034  1
  C  C85  1  0.98969305  0.98199672  0.04354759  1
  C  C86  1  0.48411174  0.03008482  0.45900966  1
  C  C87  1  0.01030695  0.48199672  0.95645241  1
  C  C88  1  0.48969305  0.48199672  0.45645241  1
  C  C89  1  0.01588826  0.03008482  0.95900966  1
  C  C90  1  0.51030695  0.98199672  0.54354759  1
  C  C91  1  0.98411174  0.53008482  0.04099034  1
  C  C92  1  0.40624589  0.75051769  0.22594721  1
  C  C93  1  0.09375411  0.75051769  0.72594721  1
  C  C94  1  0.59375411  0.25051769  0.77405279  1
  C  C95  1  0.90624589  0.25051769  0.27405279  1
  O  O96  1  0.52742580  0.75039821  0.23104838  1
  O  O97  1  0.97257420  0.75039821  0.73104838  1
  O  O98  1  0.47257420  0.25039821  0.76895162  1
  O  O99  1  0.02742580  0.25039821  0.26895162  1
  O  O100  1  0.62864529  0.10703755  0.12889907  1
  O  O101  1  0.86934841  0.39387169  0.62631827  1
  O  O102  1  0.37135471  0.60703755  0.87110093  1
  O  O103  1  0.13065159  0.89387169  0.37368173  1
  O  O104  1  0.36934841  0.89387169  0.87368173  1
  O  O105  1  0.12864529  0.60703755  0.37110093  1
  O  O106  1  0.63065159  0.39387169  0.12631827  1
  O  O107  1  0.87135471  0.10703755  0.62889907  1
  O  O108  1  0.86703531  0.74612890  0.34803510  1
  O  O109  1  0.63296469  0.74612890  0.84803510  1
  O  O110  1  0.13296469  0.24612890  0.65196490  1
  O  O111  1  0.36703531  0.24612890  0.15196490  1
  O  O112  1  0.70611851  0.02960496  0.97761859  1
  O  O113  1  0.80301021  0.47148022  0.47261827  1
  O  O114  1  0.29388149  0.52960496  0.02238141  1
  O  O115  1  0.19698979  0.97148022  0.52738173  1
  O  O116  1  0.30301021  0.97148022  0.02738173  1
  O  O117  1  0.20611851  0.52960496  0.52238141  1
  O  O118  1  0.69698979  0.47148022  0.97261827  1
  O  O119  1  0.79388149  0.02960496  0.47761859  1
  O  O120  1  0.57720285  0.76518362  0.42377984  1
  O  O121  1  0.92279715  0.76518362  0.92377984  1
  O  O122  1  0.42279715  0.26518362  0.57622016  1
  O  O123  1  0.07720285  0.26518362  0.07622016  1
  O  O124  1  0.33183738  0.75539940  0.28220982  1
  O  O125  1  0.16816262  0.75539940  0.78220982  1
  O  O126  1  0.66816262  0.25539940  0.71779018  1
  O  O127  1  0.83183738  0.25539940  0.21779018  1
  O  O128  1  0.47390749  0.62101679  0.56215802  1
  O  O129  1  0.03020914  0.88614070  0.06017740  1
  O  O130  1  0.52609251  0.12101679  0.43784198  1
  O  O131  1  0.96979086  0.38614070  0.93982260  1
  O  O132  1  0.53020914  0.38614070  0.43982260  1
  O  O133  1  0.97390749  0.12101679  0.93784198  1
  O  O134  1  0.46979086  0.88614070  0.56017740  1
  O  O135  1  0.02609251  0.62101679  0.06215802  1
  O  O136  1  0.92904242  0.95911724  0.23272957  1
  O  O137  1  0.57760860  0.53325906  0.72754813  1
  O  O138  1  0.07095758  0.45911724  0.76727043  1
  O  O139  1  0.42239140  0.03325906  0.27245187  1
  O  O140  1  0.07760860  0.03325906  0.77245187  1
  O  O141  1  0.42904242  0.45911724  0.26727043  1
  O  O142  1  0.92239140  0.53325906  0.22754813  1
  O  O143  1  0.57095758  0.95911724  0.73272957  1
  O  O144  1  0.59430180  0.92529395  0.15853375  1
  O  O145  1  0.89028338  0.57631887  0.65846386  1
  O  O146  1  0.40569820  0.42529395  0.84146625  1
  O  O147  1  0.10971662  0.07631887  0.34153614  1
  O  O148  1  0.39028338  0.07631887  0.84153614  1
  O  O149  1  0.09430180  0.42529395  0.34146625  1
  O  O150  1  0.60971662  0.57631887  0.15846386  1
  O  O151  1  0.90569820  0.92529395  0.65853375  1
  O  O152  1  0.43894919  0.74496101  0.08487102  1
  O  O153  1  0.06105081  0.74496101  0.58487102  1
  O  O154  1  0.56105081  0.24496101  0.91512898  1
  O  O155  1  0.93894919  0.24496101  0.41512898  1
  O  O156  1  0.58517298  0.46452453  0.58640768  1
  O  O157  1  0.92757608  0.04743357  0.08775650  1
  O  O158  1  0.41482702  0.96452453  0.41359232  1
  O  O159  1  0.07242392  0.54743357  0.91224350  1
  O  O160  1  0.42757608  0.54743357  0.41224350  1
  O  O161  1  0.08517298  0.96452453  0.91359232  1
  O  O162  1  0.57242392  0.04743357  0.58775650  1
  O  O163  1  0.91482702  0.46452453  0.08640768  1
  O  O164  1  0.71497221  0.97427508  0.32485856  1
  O  O165  1  0.77089896  0.54549559  0.82605393  1
  O  O166  1  0.28502779  0.47427508  0.67514144  1
  O  O167  1  0.22910104  0.04549559  0.17394607  1
  O  O168  1  0.27089896  0.04549559  0.67394607  1
  O  O169  1  0.21497221  0.47427508  0.17514144  1
  O  O170  1  0.72910104  0.54549559  0.32605393  1
  O  O171  1  0.78502779  0.97427508  0.82485856  1
  O  O172  1  0.24035976  0.74885260  0.12768952  1
  O  O173  1  0.25964024  0.74885260  0.62768952  1
  O  O174  1  0.75964024  0.24885260  0.87231048  1
  O  O175  1  0.74035976  0.24885260  0.37231048  1
  O  O176  1  0.68692605  0.85568818  0.02724421  1
  O  O177  1  0.81684434  0.64540462  0.52399960  1
  O  O178  1  0.31307395  0.35568818  0.97275579  1
  O  O179  1  0.18315566  0.14540462  0.47600040  1
  O  O180  1  0.31684434  0.14540462  0.97600040  1
  O  O181  1  0.18692605  0.35568818  0.47275579  1
  O  O182  1  0.68315566  0.64540462  0.02399960  1
  O  O183  1  0.81307395  0.85568818  0.52724421  1
  O  O184  1  0.78775802  0.74978344  0.17024930  1
  O  O185  1  0.71224198  0.74978344  0.67024930  1
  O  O186  1  0.21224198  0.24978344  0.82975070  1
  O  O187  1  0.28775802  0.24978344  0.32975070  1
