# generated using pymatgen
data_BaNa2Sr6Al6(OF16)2
_symmetry_space_group_name_H-M   'P 1'
_cell_length_a   7.34797139
_cell_length_b   9.92973332
_cell_length_c   9.92973332
_cell_angle_alpha   68.37849929
_cell_angle_beta   80.51147607
_cell_angle_gamma   80.51147607
_symmetry_Int_Tables_number   1
_chemical_formula_structural   BaNa2Sr6Al6(OF16)2
_chemical_formula_sum   'Ba1 Na2 Sr6 Al6 O2 F32'
_cell_volume   660.01885229
_cell_formula_units_Z   1
loop_
 _symmetry_equiv_pos_site_id
 _symmetry_equiv_pos_as_xyz
  1  'x, y, z'
loop_
 _atom_site_type_symbol
 _atom_site_label
 _atom_site_symmetry_multiplicity
 _atom_site_fract_x
 _atom_site_fract_y
 _atom_site_fract_z
 _atom_site_occupancy
  Ba  Ba0  1  0.13238298  0.73780072  0.73780072  1
  Na  Na1  1  0.50073327  0.50004734  0.50004734  1
  Na  Na2  1  0.99830414  0.49962325  0.49962325  1
  Sr  Sr3  1  0.30402566  0.55225332  0.15152142  1
  Sr  Sr4  1  0.30402566  0.15152142  0.55225332  1
  Sr  Sr5  1  0.69514588  0.44642145  0.85078929  1
  Sr  Sr6  1  0.69514588  0.85078929  0.44642145  1
  Sr  Sr7  1  0.99849262  0.00046036  0.00046036  1
  Sr  Sr8  1  0.88554686  0.25977495  0.25977495  1
  Al  Al9  1  0.45789549  0.16515651  0.16515651  1
  Al  Al10  1  0.54410228  0.83584022  0.83584022  1
  Al  Al11  1  0.20270986  0.34886576  0.86713965  1
  Al  Al12  1  0.20270986  0.86713965  0.34886576  1
  Al  Al13  1  0.79616709  0.64647847  0.13688179  1
  Al  Al14  1  0.79616709  0.13688179  0.64647847  1
  O  O15  1  0.28201012  0.41477988  0.41477988  1
  O  O16  1  0.71584418  0.58616794  0.58616794  1
  F  F17  1  0.00746732  0.25880367  0.99799065  1
  F  F18  1  0.00746732  0.99799065  0.25880367  1
  F  F19  1  0.99150762  0.73866520  0.01138366  1
  F  F20  1  0.99150762  0.01138366  0.73866520  1
  F  F21  1  0.68312451  0.09652154  0.09652154  1
  F  F22  1  0.31670905  0.90281804  0.90281804  1
  F  F23  1  0.37336789  0.22005345  0.98656616  1
  F  F24  1  0.37336789  0.98656616  0.22005345  1
  F  F25  1  0.62883995  0.77861489  0.01447261  1
  F  F26  1  0.62883995  0.01447261  0.77861489  1
  F  F27  1  0.38957509  0.44676635  0.74448576  1
  F  F28  1  0.38957509  0.74448576  0.44676635  1
  F  F29  1  0.60651662  0.55231884  0.25714145  1
  F  F30  1  0.60651662  0.25714145  0.55231884  1
  F  F31  1  0.23759371  0.24028894  0.24028894  1
  F  F32  1  0.75825116  0.75901227  0.75901227  1
  F  F33  1  0.03170479  0.47756469  0.75018865  1
  F  F34  1  0.03170479  0.75018865  0.47756469  1
  F  F35  1  0.96518741  0.51165646  0.25309590  1
  F  F36  1  0.96518741  0.25309590  0.51165646  1
  F  F37  1  0.19084875  0.47234259  0.96576098  1
  F  F38  1  0.19084875  0.96576098  0.47234259  1
  F  F39  1  0.81109345  0.52155253  0.03933892  1
  F  F40  1  0.81109345  0.03933892  0.52155253  1
  F  F41  1  0.78815449  0.23025132  0.77262420  1
  F  F42  1  0.78815449  0.77262420  0.23025132  1
  F  F43  1  0.20969498  0.77553162  0.22173946  1
  F  F44  1  0.20969498  0.22173946  0.77553162  1
  F  F45  1  0.54640656  0.34188601  0.11303985  1
  F  F46  1  0.54640656  0.11303985  0.34188601  1
  F  F47  1  0.45609140  0.65725580  0.89026521  1
  F  F48  1  0.45609140  0.89026521  0.65725580  1
