# generated using pymatgen
data_Ba3NdV3O12
_symmetry_space_group_name_H-M   'P 1'
_cell_length_a   5.73500508
_cell_length_b   9.64979585
_cell_length_c   11.46656421
_cell_angle_alpha   94.52033915
_cell_angle_beta   75.51803991
_cell_angle_gamma   90.00000129
_symmetry_Int_Tables_number   1
_chemical_formula_structural   Ba3NdV3O12
_chemical_formula_sum   'Ba6 Nd2 V6 O24'
_cell_volume   612.37661659
_cell_formula_units_Z   2
loop_
 _symmetry_equiv_pos_site_id
 _symmetry_equiv_pos_as_xyz
  1  'x, y, z'
loop_
 _atom_site_type_symbol
 _atom_site_label
 _atom_site_symmetry_multiplicity
 _atom_site_fract_x
 _atom_site_fract_y
 _atom_site_fract_z
 _atom_site_occupancy
  Ba  Ba0  1  0.00387685  0.01512779  0.99224629  1
  Ba  Ba1  1  0.33281932  0.65883951  0.33436037  1
  Ba  Ba2  1  0.66122201  0.32499345  0.67755698  1
  Ba  Ba3  1  0.80095914  0.99265477  0.39808172  1
  Ba  Ba4  1  0.13698139  0.66138015  0.72603622  1
  Ba  Ba5  1  0.19540702  0.01076024  0.60918595  1
  Nd  Nd6  1  0.51252784  0.63182573  0.97494333  1
  Nd  Nd7  1  0.87702932  0.32852528  0.24594236  1
  V  V8  1  0.93795948  0.66065017  0.12408204  1
  V  V9  1  0.27468763  0.32085060  0.45062474  1
  V  V10  1  0.60294708  0.98040570  0.79410485  1
  V  V11  1  0.05374719  0.36454050  0.89250462  1
  V  V12  1  0.39727210  0.01705882  0.20545680  1
  V  V13  1  0.73514303  0.66273833  0.52971394  1
  O  O14  1  0.54994596  0.11766609  0.90010708  1
  O  O15  1  0.88145815  0.78939551  0.23708470  1
  O  O16  1  0.22170638  0.46128724  0.55658725  1
  O  O17  1  0.45229121  0.87340026  0.09541858  1
  O  O18  1  0.79538028  0.52823086  0.40923943  1
  O  O19  1  0.10840986  0.22727556  0.78317929  1
  O  O20  1  0.82307810  0.47003544  0.86699146  1
  O  O21  1  0.14231075  0.11738598  0.20197939  1
  O  O22  1  0.49824673  0.77051539  0.52015636  1
  O  O23  1  0.30993045  0.47003544  0.86699146  1
  O  O24  1  0.65570886  0.11738598  0.20197939  1
  O  O25  1  0.98159791  0.77051539  0.52015636  1
  O  O26  1  0.98216001  0.30293169  0.03567998  1
  O  O27  1  0.32699324  0.95066407  0.34601251  1
  O  O28  1  0.66317779  0.60444312  0.67364542  1
  O  O29  1  0.18757568  0.55960560  0.13266156  1
  O  O30  1  0.51136008  0.22085872  0.47340064  1
  O  O31  1  0.84687135  0.88201714  0.80954236  1
  O  O32  1  0.67976276  0.55960560  0.13266156  1
  O  O33  1  0.01523828  0.22085872  0.47340064  1
  O  O34  1  0.34358729  0.88201714  0.80954236  1
  O  O35  1  0.00813354  0.72499102  0.98373292  1
  O  O36  1  0.34702195  0.37854105  0.30595509  1
  O  O37  1  0.67536698  0.04525295  0.64926703  1
