# generated using pymatgen
data_Sc2Cu2O5
_symmetry_space_group_name_H-M   'P 1'
_cell_length_a   3.24879691
_cell_length_b   10.55464062
_cell_length_c   12.12575374
_cell_angle_alpha   90.00000000
_cell_angle_beta   90.00000000
_cell_angle_gamma   90.00000000
_symmetry_Int_Tables_number   1
_chemical_formula_structural   Sc2Cu2O5
_chemical_formula_sum   'Sc8 Cu8 O20'
_cell_volume   415.79068713
_cell_formula_units_Z   4
loop_
 _symmetry_equiv_pos_site_id
 _symmetry_equiv_pos_as_xyz
  1  'x, y, z'
loop_
 _atom_site_type_symbol
 _atom_site_label
 _atom_site_symmetry_multiplicity
 _atom_site_fract_x
 _atom_site_fract_y
 _atom_site_fract_z
 _atom_site_occupancy
  O  O0  1  0.27129743  0.91904308  0.03345958  1
  O  O1  1  0.72870257  0.08095692  0.53345958  1
  O  O2  1  0.22870257  0.41904308  0.03345958  1
  O  O3  1  0.77129743  0.58095692  0.53345958  1
  O  O4  1  0.72008834  0.93277097  0.23490115  1
  O  O5  1  0.27991166  0.06722903  0.73490115  1
  O  O6  1  0.77991166  0.43277097  0.23490115  1
  O  O7  1  0.22008834  0.56722903  0.73490115  1
  O  O8  1  0.20405824  0.62462102  0.33469133  1
  O  O9  1  0.79594176  0.37537898  0.83469133  1
  O  O10  1  0.29594176  0.12462102  0.33469133  1
  O  O11  1  0.70405824  0.87537898  0.83469133  1
  O  O12  1  0.78550603  0.81773967  0.43475916  1
  O  O13  1  0.21449397  0.18226033  0.93475916  1
  O  O14  1  0.71449397  0.31773967  0.43475916  1
  O  O15  1  0.28550603  0.68226033  0.93475916  1
  O  O16  1  0.28210492  0.83076718  0.63595723  1
  O  O17  1  0.71789508  0.16923282  0.13595723  1
  O  O18  1  0.21789508  0.33076718  0.63595723  1
  O  O19  1  0.78210492  0.66923282  0.13595723  1
  Sc  Sc20  1  0.78012889  0.78942981  0.99936717  1
  Sc  Sc21  1  0.21987111  0.21057019  0.49936717  1
  Sc  Sc22  1  0.71987111  0.28942981  0.99936717  1
  Sc  Sc23  1  0.28012889  0.71057019  0.49936717  1
  Sc  Sc24  1  0.77918505  0.96042548  0.66960222  1
  Sc  Sc25  1  0.22081495  0.03957452  0.16960222  1
  Sc  Sc26  1  0.72081495  0.46042548  0.66960222  1
  Sc  Sc27  1  0.27918505  0.53957452  0.16960222  1
  Cu  Cu28  1  0.34168266  0.00964433  0.89054063  1
  Cu  Cu29  1  0.65831734  0.99035567  0.39054063  1
  Cu  Cu30  1  0.15831734  0.50964433  0.89054063  1
  Cu  Cu31  1  0.84168266  0.49035567  0.39054063  1
  Cu  Cu32  1  0.34995481  0.73966729  0.77872153  1
  Cu  Cu33  1  0.65004519  0.26033271  0.27872153  1
  Cu  Cu34  1  0.15004519  0.23966729  0.77872153  1
  Cu  Cu35  1  0.84995481  0.76033271  0.27872153  1
