# generated using pymatgen
data_UF5
_symmetry_space_group_name_H-M   'P 1'
_cell_length_a   5.37664476
_cell_length_b   8.60051925
_cell_length_c   8.60051925
_cell_angle_alpha   84.39301513
_cell_angle_beta   71.78541362
_cell_angle_gamma   71.78541366
_symmetry_Int_Tables_number   1
_chemical_formula_structural   UF5
_chemical_formula_sum   'U4 F20'
_cell_volume   358.84724023
_cell_formula_units_Z   4
loop_
 _symmetry_equiv_pos_site_id
 _symmetry_equiv_pos_as_xyz
  1  'x, y, z'
loop_
 _atom_site_type_symbol
 _atom_site_label
 _atom_site_symmetry_multiplicity
 _atom_site_fract_x
 _atom_site_fract_y
 _atom_site_fract_z
 _atom_site_occupancy
  F  F0  1  0.17209892  0.43091852  0.72142144  1
  F  F1  1  0.32443888  0.56908148  0.27857856  1
  F  F2  1  0.39698256  0.27857856  0.43091852  1
  F  F3  1  0.10647964  0.72142144  0.56908148  1
  F  F4  1  0.48017487  0.13007428  0.79059179  1
  F  F5  1  0.72923334  0.79059179  0.86992572  1
  F  F6  1  0.38975085  0.20940821  0.13007428  1
  F  F7  1  0.40084094  0.86992572  0.20940821  1
  F  F8  1  0.76982513  0.70940821  0.36992572  1
  F  F9  1  0.84915906  0.29059179  0.63007428  1
  F  F10  1  0.86024915  0.36992572  0.29059179  1
  F  F11  1  0.52076666  0.63007428  0.70940821  1
  F  F12  1  0.85092762  0.52407238  0.02407238  1
  F  F13  1  0.12500000  0.02407238  0.47592762  1
  F  F14  1  0.62500000  0.97592762  0.52407238  1
  F  F15  1  0.39907238  0.47592762  0.97592762  1
  F  F16  1  0.14352036  0.93091852  0.77857856  1
  F  F17  1  0.07790108  0.77857856  0.06908148  1
  F  F18  1  0.92556112  0.22142144  0.93091852  1
  F  F19  1  0.85301744  0.06908148  0.22142144  1
  U  U20  1  0.03531987  0.83968013  0.33968013  1
  U  U21  1  0.62500000  0.33968013  0.16031987  1
  U  U22  1  0.12500000  0.66031987  0.83968013  1
  U  U23  1  0.21468013  0.16031987  0.66031987  1
