# generated using pymatgen
data_MnH9C4NO6
_symmetry_space_group_name_H-M   'P 1'
_cell_length_a   8.33339828
_cell_length_b   8.58373078
_cell_length_c   11.97872142
_cell_angle_alpha   90.05295700
_cell_angle_beta   90.04778586
_cell_angle_gamma   90.07676357
_symmetry_Int_Tables_number   1
_chemical_formula_structural   MnH9C4NO6
_chemical_formula_sum   'Mn4 H36 C16 N4 O24'
_cell_volume   856.85624211
_cell_formula_units_Z   4
loop_
 _symmetry_equiv_pos_site_id
 _symmetry_equiv_pos_as_xyz
  1  'x, y, z'
loop_
 _atom_site_type_symbol
 _atom_site_label
 _atom_site_symmetry_multiplicity
 _atom_site_fract_x
 _atom_site_fract_y
 _atom_site_fract_z
 _atom_site_occupancy
  Mn  Mn0  1  0.50005418  0.49997608  0.00004445  1
  Mn  Mn1  1  0.49996901  0.49992302  0.50000253  1
  Mn  Mn2  1  0.00002424  -0.00000699  -0.00000296  1
  Mn  Mn3  1  0.99979180  0.99989645  0.49994280  1
  H  H4  1  0.65537974  0.08535762  0.24991353  1
  H  H5  1  0.48723243  0.14537777  0.67965405  1
  H  H6  1  0.01288658  0.64468948  0.67956006  1
  H  H7  1  0.52270221  0.86131526  0.82486389  1
  H  H8  1  0.97712061  0.36120350  0.82480751  1
  H  H9  1  0.48648741  0.14557923  0.82075563  1
  H  H10  1  0.02287952  0.63880706  0.17519518  1
  H  H11  1  0.28219237  0.77920282  0.03771858  1
  H  H12  1  0.07240644  0.00071359  0.74936039  1
  H  H13  1  0.77893031  0.71506456  0.96272501  1
  H  H14  1  0.22107086  0.28498776  0.03729839  1
  H  H15  1  0.98711599  0.35531435  0.32044028  1
  H  H16  1  0.42277956  0.49972798  0.75120090  1
  H  H17  1  0.02281030  0.63885534  0.32474632  1
  H  H18  1  0.84486947  0.58508559  0.24983321  1
  H  H19  1  0.52292303  0.86179545  0.67542582  1
  H  H20  1  0.77779193  0.72007320  0.53524035  1
  H  H21  1  0.71780643  0.22088856  0.96232894  1
  H  H22  1  0.22217351  0.27993977  0.46474339  1
  H  H23  1  0.27812913  0.77994956  0.46458029  1
  H  H24  1  0.51352422  0.85442121  0.17924372  1
  H  H25  1  0.47707381  0.13821040  0.32457675  1
  H  H26  1  0.34628048  0.91190194  0.24944852  1
  H  H27  1  0.15513279  0.41492172  0.75016993  1
  H  H28  1  0.92761169  0.99929268  0.25060977  1
  H  H29  1  0.97719412  0.36115411  0.67525704  1
  H  H30  1  0.65371808  0.08810602  0.75055781  1
  H  H31  1  0.57725865  0.50028482  0.24886207  1
  H  H32  1  0.51276082  0.85463025  0.32034449  1
  H  H33  1  0.01359859  0.64467855  0.82102653  1
  H  H34  1  0.72188507  0.22006058  0.53542345  1
  H  H35  1  0.47729551  0.13868941  0.17513761  1
  H  H36  1  0.84548473  0.58704486  0.74855597  1
  H  H37  1  0.34461993  0.91465097  0.75008568  1
  H  H38  1  0.15451657  0.41296203  0.25144941  1
  H  H39  1  0.98640880  0.35532612  0.17897811  1
  C  C40  1  0.97609942  0.58094245  0.24991985  1
  C  C41  1  0.02390214  0.41907005  0.75008459  1
  C  C42  1  0.77828350  0.28777879  0.02985879  1
  C  C43  1  0.47581058  0.91931046  0.75021656  1
  C  C44  1  0.21579647  0.71541227  0.53213273  1
  C  C45  1  0.28474652  0.21588027  0.53245981  1
  C  C46  1  0.52418973  0.08069521  0.24978648  1
  C  C47  1  0.05932468  0.97968228  0.24972165  1
  C  C48  1  0.78421223  0.28457717  0.46785662  1
  C  C49  1  0.71395816  0.77699920  0.03065657  1
  C  C50  1  0.94068191  0.02031933  0.75021794  1
  C  C51  1  0.55480948  0.51879036  0.75459086  1
  C  C52  1  0.28608162  0.22305371  0.96937523  1
  C  C53  1  0.44523227  0.48123063  0.24542809  1
  C  C54  1  0.22178481  0.71223511  0.97016703  1
  C  C55  1  0.71515255  0.78405489  0.46751442  1
  N  N56  1  0.97029753  0.58463919  0.75013863  1
  N  N57  1  0.52905165  0.08520629  0.75048111  1
  N  N58  1  0.02970668  0.41537183  0.24986408  1
  N  N59  1  0.47094766  0.91480235  0.24952005  1
  O  O60  1  0.87009196  0.03171395  0.84364708  1
  O  O61  1  0.91231793  0.23581008  0.06582357  1
  O  O62  1  0.28142132  0.59539009  0.57217837  1
  O  O63  1  0.12991274  0.96832482  0.15630673  1
  O  O64  1  0.08072815  0.76841567  0.56470657  1
  O  O65  1  0.37717124  0.47247964  0.15109295  1
  O  O66  1  0.58010147  0.72044028  0.06283396  1
  O  O67  1  0.42011184  0.26911150  0.56455820  1
  O  O68  1  0.78075469  0.90385797  0.42681941  1
  O  O69  1  0.13213187  0.96809781  0.34240334  1
  O  O70  1  0.22483472  0.10132188  0.92825179  1
  O  O71  1  0.36920618  0.46757690  0.33686848  1
  O  O72  1  0.08772935  0.76415893  0.93417077  1
  O  O73  1  0.77524906  0.89875161  0.07172415  1
  O  O74  1  0.62284941  0.52756176  0.84892845  1
  O  O75  1  0.63080050  0.53240731  0.66313356  1
  O  O76  1  0.21908347  0.09608027  0.57309268  1
  O  O77  1  0.91924894  0.23153530  0.43525604  1
  O  O78  1  0.71860187  0.40461784  0.42782841  1
  O  O79  1  0.41996226  0.27958511  0.93722111  1
  O  O80  1  0.57980727  0.73076444  0.43546840  1
  O  O81  1  0.71188592  0.40898982  0.06717138  1
  O  O82  1  0.28816421  0.59103790  0.93285682  1
  O  O83  1  0.86787308  0.03186461  0.65756132  1
