# generated using pymatgen
data_CaCu3(SnO3)4
_symmetry_space_group_name_H-M   'P 1'
_cell_length_a   6.72614026
_cell_length_b   6.72614026
_cell_length_c   6.72614026
_cell_angle_alpha   109.47122059
_cell_angle_beta   109.47122061
_cell_angle_gamma   109.47122067
_symmetry_Int_Tables_number   1
_chemical_formula_structural   CaCu3(SnO3)4
_chemical_formula_sum   'Ca1 Cu3 Sn4 O12'
_cell_volume   234.24798712
_cell_formula_units_Z   1
loop_
 _symmetry_equiv_pos_site_id
 _symmetry_equiv_pos_as_xyz
  1  'x, y, z'
loop_
 _atom_site_type_symbol
 _atom_site_label
 _atom_site_symmetry_multiplicity
 _atom_site_fract_x
 _atom_site_fract_y
 _atom_site_fract_z
 _atom_site_occupancy
  O  O0  1  0.83041736  0.30714249  0.13755985  1
  O  O1  1  0.16958264  0.69285751  0.86244015  1
  O  O2  1  0.83041736  0.69285751  0.52327487  1
  O  O3  1  0.30714249  0.47672513  0.16958264  1
  O  O4  1  0.47672513  0.16958264  0.30714249  1
  O  O5  1  0.13755985  0.83041736  0.30714249  1
  O  O6  1  0.69285751  0.86244015  0.16958264  1
  O  O7  1  0.52327487  0.83041736  0.69285751  1
  O  O8  1  0.16958264  0.30714249  0.47672513  1
  O  O9  1  0.69285751  0.52327487  0.83041736  1
  O  O10  1  0.86244015  0.16958264  0.69285751  1
  O  O11  1  0.30714249  0.13755985  0.83041736  1
  Ca  Ca12  1  0.00000000  0.00000000  0.00000000  1
  Cu  Cu13  1  0.50000000  0.50000000  0.00000000  1
  Cu  Cu14  1  0.00000000  0.50000000  0.50000000  1
  Cu  Cu15  1  0.50000000  0.00000000  0.50000000  1
  Sn  Sn16  1  0.50000000  0.50000000  0.50000000  1
  Sn  Sn17  1  0.00000000  0.50000000  0.00000000  1
  Sn  Sn18  1  0.00000000  0.00000000  0.50000000  1
  Sn  Sn19  1  0.50000000  0.00000000  0.00000000  1
