# generated using pymatgen
data_Pu(TeO3)2
_symmetry_space_group_name_H-M   'P 1'
_cell_length_a   7.03038344
_cell_length_b   7.42166467
_cell_length_c   11.30738343
_cell_angle_alpha   90.00000000
_cell_angle_beta   90.00000000
_cell_angle_gamma   107.83980216
_symmetry_Int_Tables_number   1
_chemical_formula_structural   Pu(TeO3)2
_chemical_formula_sum   'Pu4 Te8 O24'
_cell_volume   561.61856133
_cell_formula_units_Z   4
loop_
 _symmetry_equiv_pos_site_id
 _symmetry_equiv_pos_as_xyz
  1  'x, y, z'
loop_
 _atom_site_type_symbol
 _atom_site_label
 _atom_site_symmetry_multiplicity
 _atom_site_fract_x
 _atom_site_fract_y
 _atom_site_fract_z
 _atom_site_occupancy
  O  O0  1  0.31615037  0.87695342  0.27460227  1
  O  O1  1  0.18384963  0.62304658  0.77460227  1
  O  O2  1  0.68384963  0.12304658  0.72539773  1
  O  O3  1  0.81615037  0.37695342  0.22539773  1
  O  O4  1  0.94957076  0.81583034  0.40052572  1
  O  O5  1  0.55042924  0.68416966  0.90052572  1
  O  O6  1  0.05042924  0.18416966  0.59947428  1
  O  O7  1  0.44957076  0.31583034  0.09947428  1
  O  O8  1  0.32195717  0.79608691  0.52032776  1
  O  O9  1  0.17804283  0.70391309  0.02032776  1
  O  O10  1  0.67804283  0.20391309  0.47967224  1
  O  O11  1  0.82195717  0.29608691  0.97967224  1
  O  O12  1  0.86191825  0.83876206  0.74134852  1
  O  O13  1  0.63808175  0.66123794  0.24134852  1
  O  O14  1  0.13808175  0.16123794  0.25865148  1
  O  O15  1  0.36191825  0.33876206  0.75865148  1
  O  O16  1  0.58443711  0.58366462  0.59694329  1
  O  O17  1  0.91556289  0.91633538  0.09694329  1
  O  O18  1  0.41556289  0.41633538  0.40305671  1
  O  O19  1  0.08443711  0.08366462  0.90305671  1
  O  O20  1  0.93037355  0.54072902  0.59503328  1
  O  O21  1  0.56962645  0.95927098  0.09503328  1
  O  O22  1  0.06962645  0.45927098  0.40496672  1
  O  O23  1  0.43037355  0.04072902  0.90496672  1
  Te  Te24  1  0.22649030  0.96101618  0.41766424  1
  Te  Te25  1  0.27350970  0.53898382  0.91766424  1
  Te  Te26  1  0.77350970  0.03898382  0.58233576  1
  Te  Te27  1  0.72649030  0.46101618  0.08233576  1
  Te  Te28  1  0.26199207  0.07123751  0.77558795  1
  Te  Te29  1  0.23800793  0.42876249  0.27558795  1
  Te  Te30  1  0.73800793  0.92876249  0.22441205  1
  Te  Te31  1  0.76199207  0.57123751  0.72441205  1
  Pu  Pu32  1  0.24114075  0.50812016  0.59013622  1
  Pu  Pu33  1  0.25885925  0.99187984  0.09013622  1
  Pu  Pu34  1  0.75885925  0.49187984  0.40986378  1
  Pu  Pu35  1  0.74114075  0.00812016  0.90986378  1
