# generated using pymatgen
data_Mo3(PO4)4
_symmetry_space_group_name_H-M   'P 1'
_cell_length_a   13.56649873
_cell_length_b   8.02763607
_cell_length_c   9.07920586
_cell_angle_alpha   89.45780382
_cell_angle_beta   85.60432460
_cell_angle_gamma   90.98471616
_symmetry_Int_Tables_number   1
_chemical_formula_structural   Mo3(PO4)4
_chemical_formula_sum   'Mo9 P12 O48'
_cell_volume   985.67658175
_cell_formula_units_Z   3
loop_
 _symmetry_equiv_pos_site_id
 _symmetry_equiv_pos_as_xyz
  1  'x, y, z'
loop_
 _atom_site_type_symbol
 _atom_site_label
 _atom_site_symmetry_multiplicity
 _atom_site_fract_x
 _atom_site_fract_y
 _atom_site_fract_z
 _atom_site_occupancy
  O  O0  1  0.91154984  0.87334647  0.31580702  1
  O  O1  1  0.93911964  0.32383479  0.64725658  1
  O  O2  1  0.93957696  0.20882448  0.17054438  1
  O  O3  1  0.91153987  0.63275681  0.82650407  1
  O  O4  1  0.90679925  0.63812220  0.50720659  1
  O  O5  1  0.92177845  0.93428329  0.71553086  1
  O  O6  1  0.91588858  0.57482768  0.23690131  1
  O  O7  1  0.90407547  0.87478949  0.99410094  1
  O  O8  1  0.76028483  0.36485221  0.83567794  1
  O  O9  1  0.06334686  0.70571459  0.35142540  1
  O  O10  1  0.06170648  0.82027644  0.86061647  1
  O  O11  1  0.09740740  0.39188324  0.16573362  1
  O  O12  1  0.08548158  0.36805218  0.47042480  1
  O  O13  1  0.09518564  0.08941031  0.25819340  1
  O  O14  1  0.08288283  0.14654282  0.98832686  1
  O  O15  1  0.09757363  0.44841116  0.75115128  1
  O  O16  1  0.10205182  0.14771708  0.64315801  1
  O  O17  1  0.23777918  0.92932121  0.41388276  1
  O  O18  1  0.23836640  0.63370405  0.49970963  1
  O  O19  1  0.26123505  0.64830322  0.18067028  1
  O  O20  1  0.24170480  0.55854178  0.91239495  1
  O  O21  1  0.26423862  0.31017070  0.34558698  1
  O  O22  1  0.24141328  0.87353426  0.99504003  1
  O  O23  1  0.24147988  0.86668669  0.68605557  1
  O  O24  1  0.27395483  0.18119017  0.81660561  1
  O  O25  1  0.40730985  0.36581319  0.16380601  1
  O  O26  1  0.39145587  0.81834961  0.52242490  1
  O  O27  1  0.41770225  0.12788540  0.34325582  1
  O  O28  1  0.39918849  0.69887061  0.98781163  1
  O  O29  1  0.76786809  0.35940962  0.47836187  1
  O  O30  1  0.42826582  0.13519729  0.65388425  1
  O  O31  1  0.42621768  0.36669473  0.84292859  1
  O  O32  1  0.42752208  0.07037602  0.92553009  1
  O  O33  1  0.57246811  0.91139410  0.06682768  1
  O  O34  1  0.56829436  0.61136441  0.16012327  1
  O  O35  1  0.56850414  0.85432754  0.33956802  1
  O  O36  1  0.56528034  0.85106943  0.68397101  1
  O  O37  1  0.58241529  0.55040367  0.57191198  1
  O  O38  1  0.60566421  0.29724174  0.99976474  1
  O  O39  1  0.57698581  0.62830013  0.85410381  1
  O  O40  1  0.60446729  0.18027735  0.46376024  1
  O  O41  1  0.72207929  0.79172064  0.17863250  1
  O  O42  1  0.75550547  0.11878056  0.01555944  1
  O  O43  1  0.73044653  0.68520206  0.69039621  1
  O  O44  1  0.75904722  0.41529038  0.10831549  1
  O  O45  1  0.76492568  0.12727542  0.32149613  1
  O  O46  1  0.74582302  0.06792976  0.60979229  1
  O  O47  1  0.42298279  0.43747012  0.43566550  1
  P  P48  1  0.27737939  0.80852069  0.53024544  1
  P  P49  1  0.39085896  0.31386386  0.33108630  1
  P  P50  1  0.38746624  0.18980465  0.80925910  1
  P  P51  1  0.27372361  0.69078043  0.00865450  1
  P  P52  1  0.60852353  0.78778510  0.18904733  1
  P  P53  1  0.61713460  0.66320359  0.68311659  1
  P  P54  1  0.71603311  0.16831142  0.48612293  1
  P  P55  1  0.71879018  0.29488097  0.98538150  1
  P  P56  1  0.94825920  0.69923809  0.35452628  1
  P  P57  1  0.05906874  0.21678931  0.14117133  1
  P  P58  1  0.05347822  0.33848891  0.64656502  1
  P  P59  1  0.94717978  0.81905320  0.83373214  1
  Mo  Mo60  1  0.83657394  0.50744301  0.67709581  1
  Mo  Mo61  1  0.83627609  0.36367475  0.27180142  1
  Mo  Mo62  1  0.83202470  0.97538765  0.15628622  1
  Mo  Mo63  1  0.50067536  0.85838958  0.89557450  1
  Mo  Mo64  1  0.49682321  -0.00086280  0.49309321  1
  Mo  Mo65  1  0.49506888  0.47339693  0.00814182  1
  Mo  Mo66  1  0.16406826  0.99806458  0.83926519  1
  Mo  Mo67  1  0.16590238  0.14176855  0.43310954  1
  Mo  Mo68  1  0.16982052  0.53440502  0.32580573  1
