# generated using pymatgen
data_V2CdO4
_symmetry_space_group_name_H-M   'P 1'
_cell_length_a   6.24083927
_cell_length_b   6.24083926
_cell_length_c   6.24083927
_cell_angle_alpha   60.00000002
_cell_angle_beta   60.00000005
_cell_angle_gamma   59.99999997
_symmetry_Int_Tables_number   1
_chemical_formula_structural   V2CdO4
_chemical_formula_sum   'V4 Cd2 O8'
_cell_volume   171.87550798
_cell_formula_units_Z   2
loop_
 _symmetry_equiv_pos_site_id
 _symmetry_equiv_pos_as_xyz
  1  'x, y, z'
loop_
 _atom_site_type_symbol
 _atom_site_label
 _atom_site_symmetry_multiplicity
 _atom_site_fract_x
 _atom_site_fract_y
 _atom_site_fract_z
 _atom_site_occupancy
  O  O0  1  0.73284303  0.73284303  0.73284303  1
  O  O1  1  0.26715697  0.26715697  0.69852910  1
  O  O2  1  0.26715697  0.69852910  0.26715697  1
  O  O3  1  0.69852910  0.26715697  0.26715697  1
  O  O4  1  0.73284303  0.30147090  0.73284303  1
  O  O5  1  0.30147090  0.73284303  0.73284303  1
  O  O6  1  0.26715697  0.26715697  0.26715697  1
  O  O7  1  0.73284303  0.73284303  0.30147090  1
  V  V8  1  0.50000000  0.00000000  0.50000000  1
  V  V9  1  0.00000000  0.50000000  0.50000000  1
  V  V10  1  0.50000000  0.50000000  0.00000000  1
  V  V11  1  0.50000000  0.50000000  0.50000000  1
  Cd  Cd12  1  0.12500000  0.12500000  0.12500000  1
  Cd  Cd13  1  0.87500000  0.87500000  0.87500000  1
