# generated using pymatgen
data_Nd2Cu2O5
_symmetry_space_group_name_H-M   'P 1'
_cell_length_a   3.79030601
_cell_length_b   5.72467623
_cell_length_c   10.15231263
_cell_angle_alpha   90.00000000
_cell_angle_beta   90.00000000
_cell_angle_gamma   90.00000000
_symmetry_Int_Tables_number   1
_chemical_formula_structural   Nd2Cu2O5
_chemical_formula_sum   'Nd4 Cu4 O10'
_cell_volume   220.28766849
_cell_formula_units_Z   2
loop_
 _symmetry_equiv_pos_site_id
 _symmetry_equiv_pos_as_xyz
  1  'x, y, z'
loop_
 _atom_site_type_symbol
 _atom_site_label
 _atom_site_symmetry_multiplicity
 _atom_site_fract_x
 _atom_site_fract_y
 _atom_site_fract_z
 _atom_site_occupancy
  O  O0  1  0.00000000  0.50000000  0.50000000  1
  O  O1  1  0.00000000  0.00000000  0.00000000  1
  O  O2  1  0.00000000  0.91012709  0.70721242  1
  O  O3  1  0.00000000  0.08987291  0.29278758  1
  O  O4  1  0.00000000  0.41012709  0.79278758  1
  O  O5  1  0.00000000  0.58987291  0.20721242  1
  O  O6  1  0.50000000  0.22612557  0.60140329  1
  O  O7  1  0.50000000  0.77387443  0.39859671  1
  O  O8  1  0.50000000  0.27387443  0.10140329  1
  O  O9  1  0.50000000  0.72612557  0.89859671  1
  Cu  Cu10  1  0.00000000  0.18854308  0.59484638  1
  Cu  Cu11  1  0.00000000  0.81145692  0.40515362  1
  Cu  Cu12  1  0.00000000  0.68854308  0.90515362  1
  Cu  Cu13  1  0.00000000  0.31145692  0.09484638  1
  Nd  Nd14  1  0.50000000  0.15010116  0.85110764  1
  Nd  Nd15  1  0.50000000  0.84989884  0.14889236  1
  Nd  Nd16  1  0.50000000  0.65010116  0.64889236  1
  Nd  Nd17  1  0.50000000  0.34989884  0.35110764  1
