# generated using pymatgen
data_K3AlH6
_symmetry_space_group_name_H-M   'P 1'
_cell_length_a   3.24159343
_cell_length_b   13.16979552
_cell_length_c   15.49455472
_cell_angle_alpha   90.00000000
_cell_angle_beta   90.00000000
_cell_angle_gamma   90.00000000
_symmetry_Int_Tables_number   1
_chemical_formula_structural   K3AlH6
_chemical_formula_sum   'K12 Al4 H24'
_cell_volume   661.47993568
_cell_formula_units_Z   4
loop_
 _symmetry_equiv_pos_site_id
 _symmetry_equiv_pos_as_xyz
  1  'x, y, z'
loop_
 _atom_site_type_symbol
 _atom_site_label
 _atom_site_symmetry_multiplicity
 _atom_site_fract_x
 _atom_site_fract_y
 _atom_site_fract_z
 _atom_site_occupancy
  K  K0  1  0.50000000  0.47136610  0.71733900  1
  K  K1  1  0.50000000  0.74607105  0.12202595  1
  K  K2  1  0.50000000  0.25392895  0.87797405  1
  K  K3  1  0.50000000  0.69831773  0.85115979  1
  K  K4  1  0.50000000  0.30168227  0.14884021  1
  K  K5  1  -0.00000000  0.02863390  0.21733900  1
  K  K6  1  -0.00000000  0.80168227  0.35115979  1
  K  K7  1  -0.00000000  0.19831773  0.64884021  1
  K  K8  1  0.50000000  0.52863390  0.28266100  1
  K  K9  1  0.00000000  0.24607105  0.37797405  1
  K  K10  1  0.00000000  0.75392895  0.62202595  1
  K  K11  1  0.00000000  0.97136610  0.78266100  1
  Al  Al12  1  0.50000000  0.00000000  0.50000000  1
  Al  Al13  1  0.00000000  0.50000000  0.50000000  1
  Al  Al14  1  0.50000000  -0.00000000  0.00000000  1
  Al  Al15  1  0.00000000  0.50000000  0.00000000  1
  H  H16  1  0.50000000  0.09297751  0.07200355  1
  H  H17  1  0.00000000  0.33366035  0.77231028  1
  H  H18  1  0.00000000  0.05855827  0.94743085  1
  H  H19  1  -0.00000000  0.66633965  0.22768972  1
  H  H20  1  0.00000000  0.38166791  0.25366428  1
  H  H21  1  0.00000000  0.62732574  0.99145661  1
  H  H22  1  0.00000000  0.00591728  0.42879297  1
  H  H23  1  0.50000000  0.50591728  0.07120703  1
  H  H24  1  0.50000000  0.16633965  0.27231028  1
  H  H25  1  0.00000000  0.59297751  0.42799645  1
  H  H26  1  0.50000000  0.83366035  0.72768972  1
  H  H27  1  0.50000000  0.49408272  0.92879297  1
  H  H28  1  0.50000000  0.12732574  0.50854339  1
  H  H29  1  0.50000000  0.55855827  0.55256915  1
  H  H30  1  0.00000000  0.99408272  0.57120703  1
  H  H31  1  0.50000000  0.11833209  0.75366428  1
  H  H32  1  0.50000000  0.87267426  0.49145661  1
  H  H33  1  0.00000000  0.37267426  0.00854339  1
  H  H34  1  0.00000000  0.94144173  0.05256915  1
  H  H35  1  0.50000000  0.44144173  0.44743085  1
  H  H36  1  0.00000000  0.40702249  0.57200355  1
  H  H37  1  0.50000000  0.88166791  0.24633572  1
  H  H38  1  0.00000000  0.61833209  0.74633572  1
  H  H39  1  0.50000000  0.90702249  0.92799645  1
