# generated using pymatgen
data_Na3Co(NO2)6
_symmetry_space_group_name_H-M   'P 1'
_cell_length_a   6.80089909
_cell_length_b   6.80089909
_cell_length_c   6.80089909
_cell_angle_alpha   71.42801488
_cell_angle_beta   71.42801489
_cell_angle_gamma   71.42801488
_symmetry_Int_Tables_number   1
_chemical_formula_structural   Na3Co(NO2)6
_chemical_formula_sum   'Na3 Co1 N6 O12'
_cell_volume   274.27784823
_cell_formula_units_Z   1
loop_
 _symmetry_equiv_pos_site_id
 _symmetry_equiv_pos_as_xyz
  1  'x, y, z'
loop_
 _atom_site_type_symbol
 _atom_site_label
 _atom_site_symmetry_multiplicity
 _atom_site_fract_x
 _atom_site_fract_y
 _atom_site_fract_z
 _atom_site_occupancy
  N  N0  1  0.80099642  0.81121459  0.17218854  1
  N  N1  1  0.17218852  0.80099698  0.81121442  1
  N  N2  1  0.81121435  0.17218868  0.80099636  1
  N  N3  1  0.82781181  0.19900422  0.18878472  1
  N  N4  1  0.18878598  0.82781252  0.19900278  1
  N  N5  1  0.19900430  0.18878501  0.82781246  1
  O  O6  1  0.37186921  0.76486234  0.76582113  1
  O  O7  1  0.76582126  0.37186813  0.76486220  1
  O  O8  1  0.62813151  0.23513726  0.23417986  1
  O  O9  1  0.76486177  0.76582135  0.37186835  1
  O  O10  1  0.26209313  0.91112211  0.28929873  1
  O  O11  1  0.23513701  0.23417985  0.62813128  1
  O  O12  1  0.91112208  0.28929833  0.26209227  1
  O  O13  1  0.73790760  0.08887749  0.71070079  1
  O  O14  1  0.71070106  0.73790647  0.08887848  1
  O  O15  1  0.08887865  0.71070127  0.73790726  1
  O  O16  1  0.23417946  0.62813147  0.23513733  1
  O  O17  1  0.28929811  0.26209313  0.91112154  1
  Na  Na18  1  0.49999939  0.50000060  0.50000055  1
  Na  Na19  1  0.73658421  0.73658406  0.73658343  1
  Na  Na20  1  0.26341651  0.26341554  0.26341609  1
  Co  Co21  1  0.00000000  0.00000000  0.00000000  1
