# generated using pymatgen
data_SrAlBO4
_symmetry_space_group_name_H-M   'P 1'
_cell_length_a   5.80698127
_cell_length_b   8.92487416
_cell_length_c   14.65144514
_cell_angle_alpha   90.00000000
_cell_angle_beta   90.00000000
_cell_angle_gamma   90.00000000
_symmetry_Int_Tables_number   1
_chemical_formula_structural   SrAlBO4
_chemical_formula_sum   'Sr8 Al8 B8 O32'
_cell_volume   759.33425094
_cell_formula_units_Z   8
loop_
 _symmetry_equiv_pos_site_id
 _symmetry_equiv_pos_as_xyz
  1  'x, y, z'
loop_
 _atom_site_type_symbol
 _atom_site_label
 _atom_site_symmetry_multiplicity
 _atom_site_fract_x
 _atom_site_fract_y
 _atom_site_fract_z
 _atom_site_occupancy
  Sr  Sr0  1  0.18776356  0.07970706  0.65241424  1
  Sr  Sr1  1  0.18776356  0.42029294  0.84758576  1
  Sr  Sr2  1  0.31223644  0.57970706  0.34758576  1
  Sr  Sr3  1  0.31223644  0.92029294  0.15241424  1
  Sr  Sr4  1  0.81223644  0.92029294  0.34758576  1
  Sr  Sr5  1  0.81223644  0.57970706  0.15241424  1
  Sr  Sr6  1  0.68776356  0.42029294  0.65241424  1
  Sr  Sr7  1  0.68776356  0.07970706  0.84758576  1
  Al  Al8  1  0.37028628  0.70761255  0.57215126  1
  Al  Al9  1  0.37028628  0.79238745  0.92784874  1
  Al  Al10  1  0.12971372  0.20761255  0.42784874  1
  Al  Al11  1  0.12971372  0.29238745  0.07215126  1
  Al  Al12  1  0.62971372  0.29238745  0.42784874  1
  Al  Al13  1  0.62971372  0.20761255  0.07215126  1
  Al  Al14  1  0.87028628  0.79238745  0.57215126  1
  Al  Al15  1  0.87028628  0.70761255  0.92784874  1
  B  B16  1  0.68208150  0.40177855  0.91134192  1
  B  B17  1  0.18208150  0.40177855  0.58865808  1
  B  B18  1  0.18208150  0.09822145  0.91134192  1
  B  B19  1  0.31791850  0.90177855  0.41134192  1
  B  B20  1  0.31791850  0.59822145  0.08865808  1
  B  B21  1  0.81791850  0.59822145  0.41134192  1
  B  B22  1  0.81791850  0.90177855  0.08865808  1
  B  B23  1  0.68208150  0.09822145  0.58865808  1
  O  O24  1  0.92400196  0.71320861  0.46059996  1
  O  O25  1  0.42400196  0.71320861  0.03940004  1
  O  O26  1  0.42400196  0.78679139  0.46059996  1
  O  O27  1  0.07599804  0.21320861  0.96059996  1
  O  O28  1  0.07599804  0.28679139  0.53940004  1
  O  O29  1  0.57599804  0.28679139  0.96059996  1
  O  O30  1  0.57599804  0.21320861  0.53940004  1
  O  O31  1  0.92400196  0.78679139  0.03940004  1
  O  O32  1  0.14320175  0.80478402  0.62519844  1
  O  O33  1  0.14320175  0.69521598  0.87480156  1
  O  O34  1  0.35679825  0.30478402  0.37480156  1
  O  O35  1  0.35679825  0.19521598  0.12519844  1
  O  O36  1  0.85679825  0.19521598  0.37480156  1
  O  O37  1  0.85679825  0.30478402  0.12519844  1
  O  O38  1  0.64320175  0.69521598  0.62519844  1
  O  O39  1  0.64320175  0.80478402  0.87480156  1
  O  O40  1  0.67383374  0.38879369  0.81771431  1
  O  O41  1  0.67383374  0.11120631  0.68228569  1
  O  O42  1  0.82616626  0.88879369  0.18228569  1
  O  O43  1  0.82616626  0.61120631  0.31771431  1
  O  O44  1  0.32616626  0.61120631  0.18228569  1
  O  O45  1  0.32616626  0.88879369  0.31771431  1
  O  O46  1  0.17383374  0.11120631  0.81771431  1
  O  O47  1  0.17383374  0.38879369  0.68228569  1
  O  O48  1  0.78744585  0.51961436  0.95465228  1
  O  O49  1  0.78744585  0.98038564  0.54534772  1
  O  O50  1  0.71255415  0.01961436  0.04534772  1
  O  O51  1  0.71255415  0.48038664  0.45465228  1
  O  O52  1  0.21255415  0.48038664  0.04534772  1
  O  O53  1  0.21255415  0.01961436  0.45465228  1
  O  O54  1  0.28744585  0.98038564  0.95465228  1
  O  O55  1  0.28744585  0.51961436  0.54534772  1
