# generated using pymatgen
data_ErMnGe
_symmetry_space_group_name_H-M   'P 1'
_cell_length_a   4.06901678
_cell_length_b   7.00165234
_cell_length_c   7.91513128
_cell_angle_alpha   90.00000000
_cell_angle_beta   90.00000000
_cell_angle_gamma   90.00000000
_symmetry_Int_Tables_number   1
_chemical_formula_structural   ErMnGe
_chemical_formula_sum   'Er4 Mn4 Ge4'
_cell_volume   225.50083055
_cell_formula_units_Z   4
loop_
 _symmetry_equiv_pos_site_id
 _symmetry_equiv_pos_as_xyz
  1  'x, y, z'
loop_
 _atom_site_type_symbol
 _atom_site_label
 _atom_site_symmetry_multiplicity
 _atom_site_fract_x
 _atom_site_fract_y
 _atom_site_fract_z
 _atom_site_occupancy
  Mn  Mn0  1  0.75000000  0.36755797  0.55360082  1
  Mn  Mn1  1  0.25000000  0.13244203  0.05360082  1
  Mn  Mn2  1  0.75000000  0.86755797  0.94639918  1
  Mn  Mn3  1  0.25000000  0.63244203  0.44639918  1
  Ge  Ge4  1  0.25000000  0.27420283  0.37851476  1
  Ge  Ge5  1  0.75000000  0.22579717  0.87851476  1
  Ge  Ge6  1  0.25000000  0.77420283  0.12148524  1
  Ge  Ge7  1  0.75000000  0.72579717  0.62148524  1
  Er  Er8  1  0.25000000  0.52574764  0.81986685  1
  Er  Er9  1  0.75000000  0.47425236  0.18013315  1
  Er  Er10  1  0.25000000  0.02574764  0.68013315  1
  Er  Er11  1  0.75000000  0.97425236  0.31986685  1
