# generated using pymatgen
data_LiCuPCO7
_symmetry_space_group_name_H-M   'P 1'
_cell_length_a   5.00183004
_cell_length_b   6.41210859
_cell_length_c   8.45866178
_cell_angle_alpha   90.00000000
_cell_angle_beta   86.53288989
_cell_angle_gamma   90.00000000
_symmetry_Int_Tables_number   1
_chemical_formula_structural   LiCuPCO7
_chemical_formula_sum   'Li2 Cu2 P2 C2 O14'
_cell_volume   270.79200152
_cell_formula_units_Z   2
loop_
 _symmetry_equiv_pos_site_id
 _symmetry_equiv_pos_as_xyz
  1  'x, y, z'
loop_
 _atom_site_type_symbol
 _atom_site_label
 _atom_site_symmetry_multiplicity
 _atom_site_fract_x
 _atom_site_fract_y
 _atom_site_fract_z
 _atom_site_occupancy
  Li  Li0  1  0.21946219  0.01329501  0.24826201  1
  Li  Li1  1  0.78053781  0.51329501  0.75173799  1
  C  C2  1  0.72507595  0.74687257  0.06049923  1
  C  C3  1  0.27492405  0.24687257  0.93950077  1
  O  O4  1  0.17575337  0.56666412  0.67715022  1
  O  O5  1  0.95829726  0.75175245  0.12263216  1
  O  O6  1  0.46853621  0.26392928  0.82853594  1
  O  O7  1  0.53146379  0.76392928  0.17146406  1
  O  O8  1  0.78870784  0.43652774  0.31268781  1
  O  O9  1  0.15498127  0.76986358  0.41320829  1
  O  O10  1  0.21129216  0.93652774  0.68731219  1
  O  O11  1  0.84501873  0.26986358  0.58679171  1
  O  O12  1  0.82424663  0.06666412  0.32284978  1
  O  O13  1  0.40877249  0.23194554  0.46062772  1
  O  O14  1  0.69215266  0.72346586  0.91774890  1
  O  O15  1  0.30784734  0.22346586  0.08225110  1
  O  O16  1  0.59122751  0.73194554  0.53937228  1
  O  O17  1  0.04170274  0.25175245  0.87736784  1
  P  P18  1  0.71894809  0.25301021  0.42478145  1
  P  P19  1  0.28105191  0.75301021  0.57521855  1
  Cu  Cu20  1  0.79229544  0.74587365  0.33892571  1
  Cu  Cu21  1  0.20770456  0.24587365  0.66107429  1
