# generated using pymatgen
data_K2VH4C4O9
_symmetry_space_group_name_H-M   'P 1'
_cell_length_a   6.98034057
_cell_length_b   15.06526254
_cell_length_c   20.71351046
_cell_angle_alpha   90.00000000
_cell_angle_beta   90.00000000
_cell_angle_gamma   90.00000000
_symmetry_Int_Tables_number   1
_chemical_formula_structural   K2VH4C4O9
_chemical_formula_sum   'K16 V8 H32 C32 O72'
_cell_volume   2178.24649936
_cell_formula_units_Z   8
loop_
 _symmetry_equiv_pos_site_id
 _symmetry_equiv_pos_as_xyz
  1  'x, y, z'
loop_
 _atom_site_type_symbol
 _atom_site_label
 _atom_site_symmetry_multiplicity
 _atom_site_fract_x
 _atom_site_fract_y
 _atom_site_fract_z
 _atom_site_occupancy
  K  K0  1  0.26045104  0.47043342  0.94299004  1
  K  K1  1  0.39397708  0.60366108  0.19335667  1
  K  K2  1  0.76045104  0.02956658  0.05700996  1
  K  K3  1  0.73954896  0.52956658  0.05700996  1
  K  K4  1  0.76045104  0.47043342  0.55700996  1
  K  K5  1  0.39397708  0.89633892  0.69335667  1
  K  K6  1  0.26045104  0.02956658  0.44299004  1
  K  K7  1  0.10602292  0.39633892  0.69335667  1
  K  K8  1  0.23954896  0.97043342  0.94299004  1
  K  K9  1  0.60602292  0.39633892  0.80664333  1
  K  K10  1  0.60602292  0.10366108  0.30664333  1
  K  K11  1  0.23954896  0.52956658  0.44299004  1
  K  K12  1  0.10602292  0.10366108  0.19335667  1
  K  K13  1  0.89397708  0.60366108  0.30664333  1
  K  K14  1  0.89397708  0.89633892  0.80664333  1
  K  K15  1  0.73954896  0.97043342  0.55700996  1
  V  V16  1  0.55878361  0.69843308  0.61175307  1
  V  V17  1  0.05878361  0.80156692  0.38824693  1
  V  V18  1  0.94121639  0.19843308  0.61175307  1
  V  V19  1  0.55878361  0.80156692  0.11175307  1
  V  V20  1  0.44121639  0.19843308  0.88824693  1
  V  V21  1  0.05878361  0.69843308  0.88824693  1
  V  V22  1  0.94121639  0.30156692  0.11175307  1
  V  V23  1  0.44121639  0.30156692  0.38824693  1
  H  H24  1  0.71611902  0.59158614  0.85304561  1
  H  H25  1  0.21611902  0.59158614  0.64695439  1
  H  H26  1  0.02999242  0.22455114  0.84100537  1
  H  H27  1  0.30549076  0.23592905  0.53207684  1
  H  H28  1  0.78388098  0.09158614  0.85304561  1
  H  H29  1  0.37668697  0.10783038  0.75853180  1
  H  H30  1  0.47000758  0.72455114  0.84100537  1
  H  H31  1  0.62331303  0.89216962  0.24146820  1
  H  H32  1  0.80549076  0.26407095  0.46792316  1
  H  H33  1  0.19450924  0.76407095  0.03207684  1
  H  H34  1  0.80549076  0.23592905  0.96792316  1
  H  H35  1  0.62331303  0.60783038  0.74146820  1
  H  H36  1  0.30549076  0.26407095  0.03207684  1
  H  H37  1  0.69450924  0.76407095  0.46792316  1
  H  H38  1  0.37668697  0.39216962  0.25853180  1
  H  H39  1  0.97000758  0.72455114  0.65899463  1
  H  H40  1  0.71611902  0.90841386  0.35304561  1
  H  H41  1  0.28388098  0.40841386  0.14695439  1
  H  H42  1  0.52999242  0.22455114  0.65899463  1
  H  H43  1  0.12331303  0.89216962  0.25853180  1
  H  H44  1  0.12331303  0.60783038  0.75853180  1
  H  H45  1  0.28388098  0.09158614  0.64695439  1
  H  H46  1  0.78388098  0.40841386  0.35304561  1
  H  H47  1  0.69450924  0.73592905  0.96792316  1
  H  H48  1  0.52999242  0.27544886  0.15899463  1
  H  H49  1  0.21611902  0.90841386  0.14695439  1
  H  H50  1  0.87668697  0.10783038  0.74146820  1
  H  H51  1  0.02999242  0.27544886  0.34100537  1
  H  H52  1  0.47000758  0.77544886  0.34100537  1
  H  H53  1  0.87668697  0.39216962  0.24146820  1
  H  H54  1  0.19450924  0.73592905  0.53207684  1
  H  H55  1  0.97000758  0.77544886  0.15899463  1
  C  C56  1  0.08363043  0.29353332  0.84617136  1
  C  C57  1  0.70276191  0.21168174  0.48229186  1
  C  C58  1  0.41636957  0.70646668  0.34617136  1
  C  C59  1  0.24901463  0.43656269  0.09881385  1
  C  C60  1  0.91636957  0.70646668  0.15382864  1
  C  C61  1  0.70276191  0.28831826  0.98229186  1
  C  C62  1  0.29723809  0.78831826  0.51770814  1
  C  C63  1  0.72334563  0.92680663  0.20860499  1
  C  C64  1  0.75098537  0.93656269  0.40118615  1
  C  C65  1  0.79723809  0.71168174  0.48229186  1
  C  C66  1  0.20276191  0.28831826  0.51770814  1
  C  C67  1  0.77665437  0.42680663  0.20860499  1
  C  C68  1  0.58363043  0.20646668  0.15382864  1
  C  C69  1  0.22334563  0.57319337  0.79139501  1
  C  C70  1  0.74901463  0.06343731  0.90118615  1
  C  C71  1  0.24901463  0.06343731  0.59881385  1
  C  C72  1  0.72334563  0.57319337  0.70860499  1
  C  C73  1  0.58363043  0.29353332  0.65382864  1
  C  C74  1  0.22334563  0.92680663  0.29139501  1
  C  C75  1  0.27665437  0.42680663  0.29139501  1
  C  C76  1  0.77665437  0.07319337  0.70860499  1
  C  C77  1  0.25098537  0.93656269  0.09881385  1
  C  C78  1  0.27665437  0.07319337  0.79139501  1
  C  C79  1  0.08363043  0.20646668  0.34617136  1
  C  C80  1  0.25098537  0.56343731  0.59881385  1
  C  C81  1  0.29723809  0.71168174  0.01770814  1
  C  C82  1  0.74901463  0.43656269  0.40118615  1
  C  C83  1  0.75098537  0.56343731  0.90118615  1
  C  C84  1  0.91636957  0.79353332  0.65382864  1
  C  C85  1  0.41636957  0.79353332  0.84617136  1
  C  C86  1  0.79723809  0.78831826  0.98229186  1
  C  C87  1  0.20276191  0.21168174  0.01770814  1
  O  O88  1  0.41837109  0.71450546  0.67467090  1
  O  O89  1  0.24427842  0.69936846  0.36961040  1
  O  O90  1  0.34719182  0.49814286  0.07591727  1
  O  O91  1  0.01677747  0.85828318  0.66943776  1
  O  O92  1  0.32118440  0.50921511  0.77166358  1
  O  O93  1  0.10323873  0.09907939  0.56955587  1
  O  O94  1  0.34719182  0.00185714  0.57591727  1
  O  O95  1  0.75564774  0.83709279  0.02948119  1
  O  O96  1  0.89676127  0.59907939  0.93044413  1
  O  O97  1  0.51677747  0.85828318  0.83056224  1
  O  O98  1  0.72986522  0.89692948  0.14996293  1
  O  O99  1  0.04677718  0.20524464  0.04984944  1
  O  O100  1  0.22986522  0.60307052  0.85003707  1
  O  O101  1  0.15280818  0.50185714  0.57591727  1
  O  O102  1  0.95322282  0.79475536  0.95015056  1
  O  O103  1  0.77013478  0.39692948  0.14996293  1
  O  O104  1  0.95322282  0.70524464  0.45015056  1
  O  O105  1  0.08162891  0.28549454  0.17467090  1
  O  O106  1  0.75572158  0.19936846  0.13038960  1
  O  O107  1  0.84719182  0.49814286  0.42408273  1
  O  O108  1  0.48322253  0.14171682  0.16943776  1
  O  O109  1  0.74435226  0.33709279  0.02948119  1
  O  O110  1  0.58162891  0.21450546  0.82532910  1
  O  O111  1  0.75564774  0.66290721  0.52948119  1
  O  O112  1  0.60323873  0.09907939  0.93044413  1
  O  O113  1  0.72986522  0.60307052  0.64996293  1
  O  O114  1  0.74427842  0.80063154  0.63038960  1
  O  O115  1  0.15280818  0.99814286  0.07591727  1
  O  O116  1  0.01677747  0.64171682  0.16943776  1
  O  O117  1  0.54677718  0.20524464  0.45015056  1
  O  O118  1  0.41837109  0.78549454  0.17467090  1
  O  O119  1  0.67881560  0.00921511  0.72833642  1
  O  O120  1  0.25572158  0.19936846  0.36961040  1
  O  O121  1  0.39676127  0.90092061  0.06955587  1
  O  O122  1  0.17881560  0.49078489  0.27166358  1
  O  O123  1  0.82118440  0.50921511  0.72833642  1
  O  O124  1  0.24427842  0.80063154  0.86961040  1
  O  O125  1  0.10323873  0.40092061  0.06955587  1
  O  O126  1  0.74427842  0.69936846  0.13038960  1
  O  O127  1  0.75572158  0.30063154  0.63038960  1
  O  O128  1  0.17881560  0.00921511  0.77166358  1
  O  O129  1  0.74435226  0.16290721  0.52948119  1
  O  O130  1  0.84719182  0.00185714  0.92408273  1
  O  O131  1  0.27013478  0.10307052  0.85003707  1
  O  O132  1  0.04677718  0.29475536  0.54984944  1
  O  O133  1  0.65280818  0.99814286  0.42408273  1
  O  O134  1  0.98322253  0.35828318  0.83056224  1
  O  O135  1  0.27013478  0.39692948  0.35003707  1
  O  O136  1  0.25564774  0.83709279  0.47051881  1
  O  O137  1  0.51677747  0.64171682  0.33056224  1
  O  O138  1  0.54677718  0.29475536  0.95015056  1
  O  O139  1  0.45322282  0.79475536  0.54984944  1
  O  O140  1  0.58162891  0.28549454  0.32532910  1
  O  O141  1  0.77013478  0.10307052  0.64996293  1
  O  O142  1  0.67881560  0.49078489  0.22833642  1
  O  O143  1  0.60323873  0.40092061  0.43044413  1
  O  O144  1  0.65280818  0.50185714  0.92408273  1
  O  O145  1  0.24435226  0.33709279  0.47051881  1
  O  O146  1  0.45322282  0.70524464  0.04984944  1
  O  O147  1  0.22986522  0.89692948  0.35003707  1
  O  O148  1  0.25572158  0.30063154  0.86961040  1
  O  O149  1  0.32118440  0.99078489  0.27166358  1
  O  O150  1  0.91837109  0.78549454  0.32532910  1
  O  O151  1  0.48322253  0.35828318  0.66943776  1
  O  O152  1  0.08162891  0.21450546  0.67467090  1
  O  O153  1  0.98322253  0.14171682  0.33056224  1
  O  O154  1  0.24435226  0.16290721  0.97051881  1
  O  O155  1  0.91837109  0.71450546  0.82532910  1
  O  O156  1  0.82118440  0.99078489  0.22833642  1
  O  O157  1  0.25564774  0.66290721  0.97051881  1
  O  O158  1  0.89676127  0.90092061  0.43044413  1
  O  O159  1  0.39676127  0.59907939  0.56955587  1
