# generated using pymatgen
data_Mn2NiO6
_symmetry_space_group_name_H-M   'P 1'
_cell_length_a   5.01128061
_cell_length_b   5.01128060
_cell_length_c   10.01321266
_cell_angle_alpha   90.00000000
_cell_angle_beta   90.00000000
_cell_angle_gamma   120.04774953
_symmetry_Int_Tables_number   1
_chemical_formula_structural   Mn2NiO6
_chemical_formula_sum   'Mn4 Ni2 O12'
_cell_volume   217.66687885
_cell_formula_units_Z   2
loop_
 _symmetry_equiv_pos_site_id
 _symmetry_equiv_pos_as_xyz
  1  'x, y, z'
loop_
 _atom_site_type_symbol
 _atom_site_label
 _atom_site_symmetry_multiplicity
 _atom_site_fract_x
 _atom_site_fract_y
 _atom_site_fract_z
 _atom_site_occupancy
  O  O0  1  0.67255786  0.00018090  0.09554582  1
  O  O1  1  0.32744177  0.99982032  0.90445378  1
  O  O2  1  0.82744259  0.49981907  0.59554562  1
  O  O3  1  0.50017926  0.17255724  0.40445398  1
  O  O4  1  0.82756008  0.82756048  0.40454161  1
  O  O5  1  0.67244080  0.67244020  0.90454141  1
  O  O6  1  0.00018045  0.67255849  0.09554582  1
  O  O7  1  0.99981918  0.32744273  0.90445378  1
  O  O8  1  0.49981921  0.82744166  0.59554562  1
  O  O9  1  0.17243955  0.17244075  0.59545799  1
  O  O10  1  0.32756085  0.32756103  0.09545819  1
  O  O11  1  0.17255789  0.50017983  0.40445398  1
  Mn  Mn12  1  0.16661562  0.83338666  0.49999980  1
  Mn  Mn13  1  0.33338606  0.66661349  0.00000000  1
  Mn  Mn14  1  0.83338603  0.16661457  0.49999980  1
  Mn  Mn15  1  0.66661442  0.33338540  0.00000000  1
  Ni  Ni16  1  0.49999923  0.49999945  0.49999980  1
  Ni  Ni17  1  0.00000000  0.00000000  0.00000000  1
