# generated using pymatgen
data_K2NiPb(NO2)6
_symmetry_space_group_name_H-M   'P 1'
_cell_length_a   7.63032591
_cell_length_b   7.63032592
_cell_length_c   7.63032592
_cell_angle_alpha   59.99999998
_cell_angle_beta   59.99999998
_cell_angle_gamma   59.99999999
_symmetry_Int_Tables_number   1
_chemical_formula_structural   K2NiPb(NO2)6
_chemical_formula_sum   'K2 Ni1 Pb1 N6 O12'
_cell_volume   314.13351042
_cell_formula_units_Z   1
loop_
 _symmetry_equiv_pos_site_id
 _symmetry_equiv_pos_as_xyz
  1  'x, y, z'
loop_
 _atom_site_type_symbol
 _atom_site_label
 _atom_site_symmetry_multiplicity
 _atom_site_fract_x
 _atom_site_fract_y
 _atom_site_fract_z
 _atom_site_occupancy
  N  N0  1  0.80291075  0.80291094  0.19708860  1
  N  N1  1  0.19708856  0.80291094  0.80291102  1
  N  N2  1  0.80291081  0.19708857  0.80291108  1
  N  N3  1  0.19708856  0.80291094  0.19708969  1
  N  N4  1  0.80291081  0.19708857  0.19708975  1
  N  N5  1  0.19709015  0.19708857  0.80291009  1
  O  O6  1  0.15761805  0.84238227  0.35743007  1
  O  O7  1  0.64256983  0.35743038  0.84238236  1
  O  O8  1  0.84238125  0.35743038  0.15761751  1
  O  O9  1  0.64256989  0.15761723  0.35742977  1
  O  O10  1  0.84238285  0.15761723  0.64256995  1
  O  O11  1  0.35743037  0.15761723  0.84238255  1
  O  O12  1  0.35742901  0.64257074  0.15761788  1
  O  O13  1  0.84238148  0.64257074  0.35743023  1
  O  O14  1  0.64257053  0.84238227  0.15761747  1
  O  O15  1  0.15761735  0.35743038  0.64257000  1
  O  O16  1  0.15761758  0.64257074  0.84238140  1
  O  O17  1  0.35742948  0.84238227  0.64256968  1
  K  K18  1  0.74999926  0.75000044  0.74999998  1
  K  K19  1  0.24999957  0.25000069  0.25000025  1
  Ni  Ni20  1  0.00000000  0.00000000  0.00000000  1
  Pb  Pb21  1  0.49999969  0.49999975  0.49999973  1
