# generated using pymatgen
data_NiH12C2(SN3)2
_symmetry_space_group_name_H-M   'P 1'
_cell_length_a   5.72157696
_cell_length_b   7.10526636
_cell_length_c   7.10526636
_cell_angle_alpha   71.15735504
_cell_angle_beta   77.32670587
_cell_angle_gamma   77.32670580
_symmetry_Int_Tables_number   1
_chemical_formula_structural   NiH12C2(SN3)2
_chemical_formula_sum   'Ni1 H12 C2 S2 N6'
_cell_volume   263.23911629
_cell_formula_units_Z   1
loop_
 _symmetry_equiv_pos_site_id
 _symmetry_equiv_pos_as_xyz
  1  'x, y, z'
loop_
 _atom_site_type_symbol
 _atom_site_label
 _atom_site_symmetry_multiplicity
 _atom_site_fract_x
 _atom_site_fract_y
 _atom_site_fract_z
 _atom_site_occupancy
  H  H0  1  0.74946754  0.00339427  0.71464241  1
  H  H1  1  0.25053246  0.28535759  0.99660573  1
  H  H2  1  0.25053246  0.99660573  0.28535759  1
  H  H3  1  0.74946754  0.71464241  0.00339427  1
  H  H4  1  0.72447729  0.23788898  0.72105356  1
  H  H5  1  0.27552271  0.27894644  0.76211102  1
  H  H6  1  0.27552271  0.76211102  0.27894644  1
  H  H7  1  0.72447729  0.72105356  0.23788898  1
  H  H8  1  0.97668778  0.13087419  0.60844270  1
  H  H9  1  0.02331222  0.39155730  0.86912581  1
  H  H10  1  0.02331222  0.86912581  0.39155730  1
  H  H11  1  0.97668778  0.60844270  0.13087419  1
  C  C12  1  0.54702667  0.23610043  0.23610043  1
  C  C13  1  0.45297333  0.76389957  0.76389957  1
  N  N14  1  0.15871752  0.89555027  0.26945238  1
  N  N15  1  0.84128248  0.73054762  0.10444973  1
  N  N16  1  0.70852159  0.14681813  0.14681813  1
  N  N17  1  0.29147841  0.85318187  0.85318187  1
  N  N18  1  0.84128248  0.10444973  0.73054762  1
  N  N19  1  0.15871752  0.26945238  0.89555027  1
  S  S20  1  0.31718706  0.35621997  0.35621997  1
  S  S21  1  0.68281294  0.64378003  0.64378003  1
  Ni  Ni22  1  0.00000000  0.00000000  0.00000000  1
