# generated using pymatgen
data_Li3VPCO7
_symmetry_space_group_name_H-M   'P 1'
_cell_length_a   5.00399055
_cell_length_b   6.60990252
_cell_length_c   8.53227896
_cell_angle_alpha   90.00000000
_cell_angle_beta   83.43836718
_cell_angle_gamma   90.00000000
_symmetry_Int_Tables_number   1
_chemical_formula_structural   Li3VPCO7
_chemical_formula_sum   'Li6 V2 P2 C2 O14'
_cell_volume   280.36408637
_cell_formula_units_Z   2
loop_
 _symmetry_equiv_pos_site_id
 _symmetry_equiv_pos_as_xyz
  1  'x, y, z'
loop_
 _atom_site_type_symbol
 _atom_site_label
 _atom_site_symmetry_multiplicity
 _atom_site_fract_x
 _atom_site_fract_y
 _atom_site_fract_z
 _atom_site_occupancy
  Li  Li0  1  0.73279862  0.97807606  0.72061262  1
  Li  Li1  1  0.26720138  0.02192394  0.27938738  1
  Li  Li2  1  0.79587887  0.25000000  0.10512967  1
  Li  Li3  1  0.20412113  0.75000000  0.89487033  1
  Li  Li4  1  0.26720138  0.47807606  0.27938738  1
  Li  Li5  1  0.73279862  0.52192394  0.72061262  1
  C  C6  1  0.67130138  0.75000000  0.03623554  1
  C  C7  1  0.32869862  0.25000000  0.96376446  1
  O  O8  1  0.51323805  0.25000000  0.84201355  1
  O  O9  1  0.91998817  0.75000000  0.06612573  1
  O  O10  1  0.16792348  0.75000000  0.42601891  1
  O  O11  1  0.48676195  0.75000000  0.15798645  1
  O  O12  1  0.16198863  0.56721974  0.69418399  1
  O  O13  1  0.83207652  0.25000000  0.57398109  1
  O  O14  1  0.16198863  0.93278026  0.69418399  1
  O  O15  1  0.83801137  0.43278026  0.30581601  1
  O  O16  1  0.83801137  0.06721974  0.30581601  1
  O  O17  1  0.41681700  0.25000000  0.43250051  1
  O  O18  1  0.60670714  0.75000000  0.89368268  1
  O  O19  1  0.39329286  0.25000000  0.10631732  1
  O  O20  1  0.58318300  0.75000000  0.56749949  1
  O  O21  1  0.08001183  0.25000000  0.93387427  1
  P  P22  1  0.73131927  0.25000000  0.40996915  1
  P  P23  1  0.26868073  0.75000000  0.59003085  1
  V  V24  1  0.79148983  0.75000000  0.32569837  1
  V  V25  1  0.20851017  0.25000000  0.67430163  1
