# generated using pymatgen
data_Bi2(PO4)3
_symmetry_space_group_name_H-M   'P 1'
_cell_length_a   8.74806031
_cell_length_b   9.49063707
_cell_length_c   8.74823593
_cell_angle_alpha   90.00204368
_cell_angle_beta   59.99969254
_cell_angle_gamma   117.44773837
_symmetry_Int_Tables_number   1
_chemical_formula_structural   Bi2(PO4)3
_chemical_formula_sum   'Bi4 P6 O24'
_cell_volume   532.51975861
_cell_formula_units_Z   2
loop_
 _symmetry_equiv_pos_site_id
 _symmetry_equiv_pos_as_xyz
  1  'x, y, z'
loop_
 _atom_site_type_symbol
 _atom_site_label
 _atom_site_symmetry_multiplicity
 _atom_site_fract_x
 _atom_site_fract_y
 _atom_site_fract_z
 _atom_site_occupancy
  O  O0  1  0.29741838  0.80392146  0.16756004  1
  O  O1  1  0.11378867  0.25196850  0.13777146  1
  O  O2  1  0.25922662  0.11124056  0.20849197  1
  O  O3  1  0.02853871  0.19595966  0.46506929  1
  O  O4  1  0.88609064  0.74800442  0.86247466  1
  O  O5  1  0.74085494  0.88883817  0.79154833  1
  O  O6  1  0.97148146  0.80399270  0.53509513  1
  O  O7  1  0.35645582  0.88887767  0.85211023  1
  O  O8  1  0.82494918  0.41606319  0.96788565  1
  O  O9  1  0.68042246  0.88899403  0.46743817  1
  O  O10  1  1.00043031  0.25203989  0.86170249  1
  O  O11  1  0.61609513  0.58401285  0.79285682  1
  O  O12  1  0.33894630  0.80391445  0.49342326  1
  O  O13  1  0.61034355  0.74791630  0.25149425  1
  O  O14  1  0.17499766  0.58399124  0.03202773  1
  O  O15  1  0.37686959  0.58411259  0.59117971  1
  O  O16  1  0.62331212  0.41596140  0.40874668  1
  O  O17  1  0.70236667  0.19603792  0.83248551  1
  O  O18  1  0.38985359  0.25204562  0.74839263  1
  O  O19  1  0.66117558  0.19604601  0.50640013  1
  O  O20  1  0.38387830  0.41606072  0.20726005  1
  O  O21  1  -0.00057518  0.74794216  0.13820603  1
  O  O22  1  0.31970484  0.11107981  0.53243713  1
  O  O23  1  0.64350084  0.11117363  0.14787371  1
  P  P24  1  0.79256124  0.24459093  0.95329500  1
  P  P25  1  0.50141501  0.75542479  0.45195043  1
  P  P26  1  0.49870005  0.24455334  0.54798786  1
  P  P27  1  0.20734533  0.75538659  0.04665056  1
  P  P28  1  0.80201396  0.75540239  0.74607788  1
  P  P29  1  0.19792231  0.24457983  0.25406302  1
  Bi  Bi30  1  0.69239939  0.03855278  0.65380302  1
  Bi  Bi31  1  0.71216678  0.56827006  0.14389216  1
  Bi  Bi32  1  0.28775995  0.43162196  0.85615042  1
  Bi  Bi33  1  0.30758985  0.96142238  0.34619857  1
