# generated using pymatgen
data_Co2H34N12Cl3O10
_symmetry_space_group_name_H-M   'P 1'
_cell_length_a   6.99019630
_cell_length_b   8.90920937
_cell_length_c   17.65706441
_cell_angle_alpha   90.00000000
_cell_angle_beta   90.00000000
_cell_angle_gamma   90.00000000
_symmetry_Int_Tables_number   1
_chemical_formula_structural   Co2H34N12Cl3O10
_chemical_formula_sum   'Co4 H68 N24 Cl6 O20'
_cell_volume   1099.63116103
_cell_formula_units_Z   2
loop_
 _symmetry_equiv_pos_site_id
 _symmetry_equiv_pos_as_xyz
  1  'x, y, z'
loop_
 _atom_site_type_symbol
 _atom_site_label
 _atom_site_symmetry_multiplicity
 _atom_site_fract_x
 _atom_site_fract_y
 _atom_site_fract_z
 _atom_site_occupancy
  Co  Co0  1  0.50000000  0.65011900  0.39340680  1
  Co  Co1  1  0.50000000  0.34988100  0.60659320  1
  Co  Co2  1  0.00000000  0.84988100  0.89340680  1
  Co  Co3  1  0.00000000  0.15011900  0.10659320  1
  H  H4  1  0.22366061  0.47193507  0.37674947  1
  H  H5  1  0.27633939  0.02806493  0.87674947  1
  H  H6  1  0.30089527  0.11202352  0.18444900  1
  H  H7  1  0.11458296  0.63770467  0.11975383  1
  H  H8  1  0.79180848  0.68601973  0.47489102  1
  H  H9  1  0.00000000  0.58879316  0.84079644  1
  H  H10  1  0.28598871  0.32372316  0.08743534  1
  H  H11  1  0.27633939  0.97193507  0.12325053  1
  H  H12  1  0.72366061  0.97193507  0.12325053  1
  H  H13  1  0.34848043  0.46949133  0.29694011  1
  H  H14  1  0.69910473  0.11202352  0.18444900  1
  H  H15  1  0.20819152  0.31398027  0.52510898  1
  H  H16  1  0.61721743  0.79844259  0.27989022  1
  H  H17  1  0.85117676  0.66774762  0.98901597  1
  H  H18  1  0.29180848  0.18601973  0.02510898  1
  H  H19  1  0.64882324  0.83225238  0.48901597  1
  H  H20  1  0.35117676  0.16774762  0.51098403  1
  H  H21  1  0.61458296  0.86229533  0.61975383  1
  H  H22  1  0.77633939  0.52806493  0.62325053  1
  H  H23  1  0.69910473  0.88797648  0.81555100  1
  H  H24  1  0.11721743  0.29844259  0.22010978  1
  H  H25  1  0.14882324  0.33225238  0.01098403  1
  H  H26  1  0.84848043  0.03050867  0.79694011  1
  H  H27  1  0.50000000  0.08879316  0.65920356  1
  H  H28  1  0.34848043  0.53050867  0.70305989  1
  H  H29  1  0.61458296  0.13770467  0.38024617  1
  H  H30  1  0.22366061  0.52806493  0.62325053  1
  H  H31  1  0.84848043  0.96949133  0.20305989  1
  H  H32  1  0.88541704  0.36229533  0.88024617  1
  H  H33  1  0.29180848  0.81398027  0.97489102  1
  H  H34  1  0.79180848  0.31398027  0.52510898  1
  H  H35  1  0.19910473  0.61202352  0.31555100  1
  H  H36  1  0.28598871  0.67627684  0.91256466  1
  H  H37  1  0.80089527  0.61202352  0.31555100  1
  H  H38  1  0.35117676  0.83225238  0.48901597  1
  H  H39  1  0.21401129  0.17627684  0.58743534  1
  H  H40  1  0.61721743  0.20155741  0.72010978  1
  H  H41  1  0.71401129  0.32372316  0.08743534  1
  H  H42  1  0.11721743  0.70155741  0.77989022  1
  H  H43  1  0.38541704  0.86229533  0.61975383  1
  H  H44  1  0.70819152  0.81398027  0.97489102  1
  H  H45  1  0.78598871  0.82372316  0.41256466  1
  H  H46  1  0.38278257  0.79844259  0.27989022  1
  H  H47  1  0.50000000  0.91120684  0.34079644  1
  H  H48  1  0.72366061  0.02806493  0.87674947  1
  H  H49  1  0.65151957  0.53050867  0.70305989  1
  H  H50  1  0.77633939  0.47193507  0.37674947  1
  H  H51  1  0.88278257  0.70155741  0.77989022  1
  H  H52  1  0.71401129  0.67627684  0.91256466  1
  H  H53  1  0.85117676  0.33225238  0.01098403  1
  H  H54  1  0.88278257  0.29844259  0.22010978  1
  H  H55  1  0.88541704  0.63770467  0.11975383  1
  H  H56  1  0.64882324  0.16774762  0.51098403  1
  H  H57  1  0.14882324  0.66774762  0.98901597  1
  H  H58  1  0.15151957  0.96949133  0.20305989  1
  H  H59  1  0.70819152  0.18601973  0.02510898  1
  H  H60  1  0.11458296  0.36229533  0.88024617  1
  H  H61  1  0.78598871  0.17627684  0.58743534  1
  H  H62  1  0.21401129  0.82372316  0.41256466  1
  H  H63  1  0.15151957  0.03050867  0.79694011  1
  H  H64  1  0.19910473  0.38797648  0.68444900  1
  H  H65  1  0.38541704  0.13770467  0.38024617  1
  H  H66  1  0.00000000  0.41120684  0.15920356  1
  H  H67  1  0.20819152  0.68601973  0.47489102  1
  H  H68  1  0.30089527  0.88797648  0.81555100  1
  H  H69  1  0.80089527  0.38797648  0.68444900  1
  H  H70  1  0.65151957  0.46949133  0.29694011  1
  H  H71  1  0.38278257  0.20155741  0.72010978  1
  N  N72  1  0.79874996  0.73889700  0.94823924  1
  N  N73  1  0.20125004  0.26110300  0.05176076  1
  N  N74  1  0.79874996  0.26110300  0.05176076  1
  N  N75  1  0.50000000  0.33566677  0.87217447  1
  N  N76  1  0.79691911  0.03864481  0.16079032  1
  N  N77  1  0.00000000  0.16433323  0.37217447  1
  N  N78  1  0.00000000  0.83566677  0.62782553  1
  N  N79  1  0.70308089  0.53864481  0.33920968  1
  N  N80  1  0.70308089  0.46135519  0.66079032  1
  N  N81  1  0.29874996  0.76110300  0.44823924  1
  N  N82  1  0.00000000  0.30675844  0.18521047  1
  N  N83  1  0.29874996  0.23889700  0.55176076  1
  N  N84  1  0.20308089  0.03864481  0.16079032  1
  N  N85  1  0.00000000  0.69324156  0.81478953  1
  N  N86  1  0.70125004  0.23889700  0.55176076  1
  N  N87  1  0.29691911  0.46135519  0.66079032  1
  N  N88  1  0.70125004  0.76110300  0.44823924  1
  N  N89  1  0.29691911  0.53864481  0.33920968  1
  N  N90  1  0.50000000  0.19324156  0.68521047  1
  N  N91  1  0.50000000  0.66433323  0.12782553  1
  N  N92  1  0.20125004  0.73889700  0.94823924  1
  N  N93  1  0.79691911  0.96135519  0.83920968  1
  N  N94  1  0.50000000  0.80675844  0.31478953  1
  N  N95  1  0.20308089  0.96135519  0.83920968  1
  Cl  Cl96  1  0.00000000  0.18850526  0.70872462  1
  Cl  Cl97  1  0.50000000  0.31149474  0.20872462  1
  Cl  Cl98  1  0.50000000  0.68850526  0.79127538  1
  Cl  Cl99  1  0.50000000  0.00000000  0.00000000  1
  Cl  Cl100  1  0.00000000  0.81149474  0.29127538  1
  Cl  Cl101  1  0.00000000  0.50000000  0.50000000  1
  O  O102  1  0.50000000  0.41329955  0.93108958  1
  O  O103  1  0.34275914  0.29445549  0.84113268  1
  O  O104  1  0.65724086  0.70554451  0.15886732  1
  O  O105  1  0.00000000  0.98409727  0.03692991  1
  O  O106  1  0.00000000  0.01590273  0.96307009  1
  O  O107  1  0.50000000  0.08971660  0.40306821  1
  O  O108  1  0.84275914  0.79445549  0.65886732  1
  O  O109  1  0.84275914  0.20554451  0.34113268  1
  O  O110  1  0.50000000  0.58670045  0.06891042  1
  O  O111  1  0.65724086  0.29445549  0.84113268  1
  O  O112  1  0.50000000  0.91028340  0.59693179  1
  O  O113  1  0.00000000  0.41028340  0.90306821  1
  O  O114  1  0.00000000  0.91329955  0.56891042  1
  O  O115  1  0.00000000  0.58971660  0.09693179  1
  O  O116  1  0.00000000  0.08670045  0.43108958  1
  O  O117  1  0.15724086  0.79445549  0.65886732  1
  O  O118  1  0.34275914  0.70554451  0.15886732  1
  O  O119  1  0.50000000  0.48409727  0.46307009  1
  O  O120  1  0.50000000  0.51590273  0.53692991  1
  O  O121  1  0.15724086  0.20554451  0.34113268  1
