# generated using pymatgen
data_Pb2ClO2
_symmetry_space_group_name_H-M   'P 1'
_cell_length_a   4.00970881
_cell_length_b   4.00961499
_cell_length_c   7.00707463
_cell_angle_alpha   106.61754394
_cell_angle_beta   106.62572454
_cell_angle_gamma   90.00000005
_symmetry_Int_Tables_number   1
_chemical_formula_structural   Pb2ClO2
_chemical_formula_sum   'Pb2 Cl1 O2'
_cell_volume   103.02590237
_cell_formula_units_Z   1
loop_
 _symmetry_equiv_pos_site_id
 _symmetry_equiv_pos_as_xyz
  1  'x, y, z'
loop_
 _atom_site_type_symbol
 _atom_site_label
 _atom_site_symmetry_multiplicity
 _atom_site_fract_x
 _atom_site_fract_y
 _atom_site_fract_z
 _atom_site_occupancy
  O  O0  1  0.74999704  0.24998149  0.49999408  1
  O  O1  1  0.25000296  0.75001851  0.50000592  1
  Cl  Cl2  1  0.50000000  0.50000000  0.00000000  1
  Pb  Pb3  1  0.84527698  0.84520384  0.69055396  1
  Pb  Pb4  1  0.15472302  0.15479616  0.30944604  1
