# generated using pymatgen
data_V(SiO3)2
_symmetry_space_group_name_H-M   'P 1'
_cell_length_a   6.51657734
_cell_length_b   6.51657734
_cell_length_c   5.36617266
_cell_angle_alpha   75.50565049
_cell_angle_beta   104.49434947
_cell_angle_gamma   95.08766524
_symmetry_Int_Tables_number   1
_chemical_formula_structural   V(SiO3)2
_chemical_formula_sum   'V2 Si4 O12'
_cell_volume   213.52142904
_cell_formula_units_Z   2
loop_
 _symmetry_equiv_pos_site_id
 _symmetry_equiv_pos_as_xyz
  1  'x, y, z'
loop_
 _atom_site_type_symbol
 _atom_site_label
 _atom_site_symmetry_multiplicity
 _atom_site_fract_x
 _atom_site_fract_y
 _atom_site_fract_z
 _atom_site_occupancy
  O  O0  1  0.04618204  0.81615495  0.63595791  1
  O  O1  1  0.18384505  0.95381796  0.13595791  1
  O  O2  1  0.10519916  0.38043854  0.77382623  1
  O  O3  1  0.36753309  0.65202496  0.54397096  1
  O  O4  1  0.61956146  0.89480084  0.27382623  1
  O  O5  1  0.34797504  0.63246691  0.04397096  1
  O  O6  1  0.65202496  0.36753309  0.95602904  1
  O  O7  1  0.38043854  0.10519916  0.72617377  1
  O  O8  1  0.63246691  0.34797504  0.45602904  1
  O  O9  1  0.89480084  0.61956146  0.22617377  1
  O  O10  1  0.81615495  0.04618204  0.86404209  1
  O  O11  1  0.95381796  0.18384505  0.36404209  1
  Si  Si12  1  0.21512258  0.61662285  0.74997995  1
  Si  Si13  1  0.38337715  0.78487742  0.24997995  1
  Si  Si14  1  0.61662285  0.21512258  0.75002005  1
  Si  Si15  1  0.78487742  0.38337715  0.25002005  1
  V  V16  1  0.10198666  0.10198666  0.75000000  1
  V  V17  1  0.89801334  0.89801334  0.25000000  1
