# generated using pymatgen
data_P2SeO3
_symmetry_space_group_name_H-M   'P 1'
_cell_length_a   6.83256133
_cell_length_b   11.94377075
_cell_length_c   12.36609614
_cell_angle_alpha   90.33643529
_cell_angle_beta   90.00000000
_cell_angle_gamma   90.00000000
_symmetry_Int_Tables_number   1
_chemical_formula_structural   P2SeO3
_chemical_formula_sum   'P16 Se8 O24'
_cell_volume   1009.13699853
_cell_formula_units_Z   8
loop_
 _symmetry_equiv_pos_site_id
 _symmetry_equiv_pos_as_xyz
  1  'x, y, z'
loop_
 _atom_site_type_symbol
 _atom_site_label
 _atom_site_symmetry_multiplicity
 _atom_site_fract_x
 _atom_site_fract_y
 _atom_site_fract_z
 _atom_site_occupancy
  O  O0  1  0.72466625  0.70360474  0.12153322  1
  O  O1  1  0.22466625  0.29639526  0.37846678  1
  O  O2  1  0.27533375  0.29639526  0.87846678  1
  O  O3  1  0.77533375  0.70360474  0.62153322  1
  O  O4  1  0.90773355  0.77496454  0.95637520  1
  O  O5  1  0.40773355  0.22503546  0.54362480  1
  O  O6  1  0.09226645  0.22503546  0.04362480  1
  O  O7  1  0.59226645  0.77496454  0.45637520  1
  O  O8  1  0.40163135  0.72051829  0.01919648  1
  O  O9  1  0.90163135  0.27948171  0.48080352  1
  O  O10  1  0.59836865  0.27948171  0.98080352  1
  O  O11  1  0.09836865  0.72051829  0.51919648  1
  O  O12  1  0.67915484  0.60611811  0.93850281  1
  O  O13  1  0.17915484  0.39388189  0.56149719  1
  O  O14  1  0.32084516  0.39388189  0.06149719  1
  O  O15  1  0.82084516  0.60611811  0.43850281  1
  O  O16  1  0.58558819  0.79264374  0.85618899  1
  O  O17  1  0.08558819  0.20735626  0.64381101  1
  O  O18  1  0.41441181  0.20735626  0.14381101  1
  O  O19  1  0.86863005  0.89019839  0.53697113  1
  O  O20  1  0.63136995  0.89019839  0.03697113  1
  O  O21  1  0.13136995  0.10980161  0.46302887  1
  O  O22  1  0.36863005  0.10980161  0.96302887  1
  O  O23  1  0.91441181  0.79264374  0.35618899  1
  P  P24  1  0.74615858  0.86831559  0.92449046  1
  P  P25  1  0.35913158  0.34619827  0.47915629  1
  P  P26  1  0.14086842  0.34619827  0.97915629  1
  P  P27  1  0.64086842  0.65380173  0.52084371  1
  P  P28  1  0.53325443  0.78935016  0.11531187  1
  P  P29  1  0.03325443  0.21064984  0.38468813  1
  P  P30  1  0.46674557  0.21064984  0.88468813  1
  P  P31  1  0.96674557  0.78935016  0.61531187  1
  P  P32  1  0.48784827  0.67785218  0.90438240  1
  P  P33  1  0.98784827  0.32214782  0.59561760  1
  P  P34  1  0.51215173  0.32214782  0.09561760  1
  P  P35  1  0.01215173  0.67785218  0.40438240  1
  P  P36  1  0.75384142  0.86831559  0.42449046  1
  P  P37  1  0.24615858  0.13168441  0.57550954  1
  P  P38  1  0.25384142  0.13168441  0.07550954  1
  P  P39  1  0.85913158  0.65380173  0.02084371  1
  Se  Se40  1  0.84757583  0.00486226  0.84257785  1
  Se  Se41  1  0.34757583  0.99513774  0.65742215  1
  Se  Se42  1  0.15242417  0.99513774  0.15742215  1
  Se  Se43  1  0.65242417  0.00486226  0.34257785  1
  Se  Se44  1  0.29592134  0.59708390  0.80256086  1
  Se  Se45  1  0.79592134  0.40291610  0.69743914  1
  Se  Se46  1  0.70407866  0.40291610  0.19743914  1
  Se  Se47  1  0.20407866  0.59708390  0.30256086  1
