# generated using pymatgen
data_Sc2H5
_symmetry_space_group_name_H-M   'P 1'
_cell_length_a   3.36049071
_cell_length_b   6.68102113
_cell_length_c   6.05017890
_cell_angle_alpha   90.00000000
_cell_angle_beta   90.00000000
_cell_angle_gamma   120.19805337
_symmetry_Int_Tables_number   1
_chemical_formula_structural   Sc2H5
_chemical_formula_sum   'Sc4 H10'
_cell_volume   117.40164975
_cell_formula_units_Z   2
loop_
 _symmetry_equiv_pos_site_id
 _symmetry_equiv_pos_as_xyz
  1  'x, y, z'
loop_
 _atom_site_type_symbol
 _atom_site_label
 _atom_site_symmetry_multiplicity
 _atom_site_fract_x
 _atom_site_fract_y
 _atom_site_fract_z
 _atom_site_occupancy
  Sc  Sc0  1  0.33923713  0.83923713  0.25000000  1
  Sc  Sc1  1  0.32677434  0.32677434  0.25000000  1
  Sc  Sc2  1  0.66076287  0.66076287  0.75000000  1
  Sc  Sc3  1  0.67322566  0.17322566  0.75000000  1
  H  H4  1  0.00552897  0.50552897  0.75000000  1
  H  H5  1  0.35580698  0.85580698  0.90984254  1
  H  H6  1  0.35580698  0.85580698  0.59015746  1
  H  H7  1  0.64419302  0.64419302  0.09015746  1
  H  H8  1  0.64419302  0.64419302  0.40984254  1
  H  H9  1  0.31096756  0.31096756  0.90809498  1
  H  H10  1  0.31096756  0.31096756  0.59190502  1
  H  H11  1  0.99447103  0.99447103  0.25000000  1
  H  H12  1  0.68903244  0.18903244  0.09190502  1
  H  H13  1  0.68903244  0.18903244  0.40809498  1
