# generated using pymatgen
data_Li3V2(SiO5)2
_symmetry_space_group_name_H-M   'P 1'
_cell_length_a   6.38841704
_cell_length_b   6.38841704
_cell_length_c   9.14863976
_cell_angle_alpha   90.00000000
_cell_angle_beta   90.00000000
_cell_angle_gamma   90.18688065
_symmetry_Int_Tables_number   1
_chemical_formula_structural   Li3V2(SiO5)2
_chemical_formula_sum   'Li6 V4 Si4 O20'
_cell_volume   373.37113078
_cell_formula_units_Z   2
loop_
 _symmetry_equiv_pos_site_id
 _symmetry_equiv_pos_as_xyz
  1  'x, y, z'
loop_
 _atom_site_type_symbol
 _atom_site_label
 _atom_site_symmetry_multiplicity
 _atom_site_fract_x
 _atom_site_fract_y
 _atom_site_fract_z
 _atom_site_occupancy
  Li  Li0  1  0.00000000  0.00000000  0.25000000  1
  Li  Li1  1  0.00000000  0.50000000  0.25000000  1
  Li  Li2  1  0.00000000  0.50000000  0.75000000  1
  Li  Li3  1  0.50000000  0.50000000  0.75000000  1
  Li  Li4  1  0.50000000  0.00000000  0.25000000  1
  Li  Li5  1  0.50000000  0.00000000  0.75000000  1
  O  O6  1  0.04159899  0.75187199  0.39389215  1
  O  O7  1  0.04296183  0.74124216  0.89339576  1
  O  O8  1  0.25187199  0.54159899  0.60610785  1
  O  O9  1  0.23077610  0.23077610  0.36645541  1
  O  O10  1  0.26922390  0.26922390  0.86645541  1
  O  O11  1  0.24124216  0.54296183  0.10660424  1
  O  O12  1  0.24812801  0.95840101  0.10610785  1
  O  O13  1  0.25875784  0.95703817  0.60660424  1
  O  O14  1  0.45703817  0.75875784  0.39339576  1
  O  O15  1  0.45840101  0.74812801  0.89389215  1
  O  O16  1  0.54296183  0.24124216  0.10660424  1
  O  O17  1  0.54159899  0.25187199  0.60610785  1
  O  O18  1  0.75187199  0.04159899  0.39389215  1
  O  O19  1  0.75875784  0.45703817  0.39339576  1
  O  O20  1  0.76922390  0.76922390  0.13354459  1
  O  O21  1  0.73077610  0.73077610  0.63354459  1
  O  O22  1  0.74124216  0.04296183  0.89339576  1
  O  O23  1  0.74812801  0.45840101  0.89389215  1
  O  O24  1  0.95840101  0.24812801  0.10610785  1
  O  O25  1  0.95703817  0.25875784  0.60660424  1
  Si  Si26  1  0.24947604  0.74947604  0.50000000  1
  Si  Si27  1  0.25052396  0.75052396  0.00000000  1
  Si  Si28  1  0.75052396  0.25052396  0.00000000  1
  Si  Si29  1  0.74947604  0.24947604  0.50000000  1
  V  V30  1  0.25839930  0.25839930  0.04744855  1
  V  V31  1  0.24160070  0.24160070  0.54744855  1
  V  V32  1  0.74160070  0.74160070  0.45255145  1
  V  V33  1  0.75839930  0.75839930  0.95255145  1
