# generated using pymatgen
data_LiFe2(PO4)3
_symmetry_space_group_name_H-M   'P 1'
_cell_length_a   8.69369039
_cell_length_b   8.69369098
_cell_length_c   8.70299460
_cell_angle_alpha   59.75533737
_cell_angle_beta   59.75533527
_cell_angle_gamma   59.83348864
_symmetry_Int_Tables_number   1
_chemical_formula_structural   LiFe2(PO4)3
_chemical_formula_sum   'Li2 Fe4 P6 O24'
_cell_volume   462.80778248
_cell_formula_units_Z   2
loop_
 _symmetry_equiv_pos_site_id
 _symmetry_equiv_pos_as_xyz
  1  'x, y, z'
loop_
 _atom_site_type_symbol
 _atom_site_label
 _atom_site_symmetry_multiplicity
 _atom_site_fract_x
 _atom_site_fract_y
 _atom_site_fract_z
 _atom_site_occupancy
  Li  Li0  1  0.50000000  0.00000000  0.00000000  1
  Li  Li1  1  0.99999900  0.50000100  0.50000000  1
  O  O2  1  0.56118727  0.91153477  0.26546722  1
  O  O3  1  0.12081666  0.00703522  0.80078267  1
  O  O4  1  0.51017389  0.80461418  0.61762927  1
  O  O5  1  0.19538682  0.48982611  0.88237073  1
  O  O6  1  0.80461518  0.51017389  0.11762827  1
  O  O7  1  0.69470249  0.38119636  0.99912432  1
  O  O8  1  0.87918334  0.99296378  0.19921733  1
  O  O9  1  0.41401379  0.26394014  0.06022436  1
  O  O10  1  0.93856905  0.23377279  0.58620467  1
  O  O11  1  0.73606086  0.58598521  0.43977564  1
  O  O12  1  0.30529751  0.61880364  0.00087468  1
  O  O13  1  0.99296478  0.87918434  0.69921733  1
  O  O14  1  0.23377279  0.93856905  0.08620467  1
  O  O15  1  0.06143095  0.76622821  0.41379533  1
  O  O16  1  0.91153477  0.56118627  0.76546722  1
  O  O17  1  0.48982611  0.19538582  0.38236973  1
  O  O18  1  0.58598621  0.73606086  0.93977564  1
  O  O19  1  0.08846623  0.43881273  0.23453378  1
  O  O20  1  0.38119736  0.69470149  0.49912532  1
  O  O21  1  0.76622721  0.06143195  0.91379533  1
  O  O22  1  0.00703422  0.12081666  0.30078267  1
  O  O23  1  0.43881273  0.08846523  0.73453278  1
  O  O24  1  0.26393914  0.41401379  0.56022436  1
  O  O25  1  0.61880264  0.30529751  0.50087568  1
  P  P26  1  0.95840530  0.04159570  0.75000000  1
  P  P27  1  0.54359797  0.74920334  0.45886885  1
  P  P28  1  0.45640203  0.25079766  0.54113115  1
  P  P29  1  0.04159470  0.95840530  0.25000000  1
  P  P30  1  0.25079666  0.45640203  0.04113215  1
  P  P31  1  0.74920334  0.54359697  0.95886885  1
  Fe  Fe32  1  0.35756533  0.85705083  0.85532070  1
  Fe  Fe33  1  0.14295017  0.64243367  0.64467930  1
  Fe  Fe34  1  0.85705083  0.35756533  0.35532170  1
  Fe  Fe35  1  0.64243467  0.14294917  0.14467830  1
