# generated using pymatgen
data_Nd2UTe4
_symmetry_space_group_name_H-M   'P 1'
_cell_length_a   8.20592219
_cell_length_b   8.20592277
_cell_length_c   8.20592272
_cell_angle_alpha   109.34249443
_cell_angle_beta   109.72898030
_cell_angle_gamma   109.34249637
_symmetry_Int_Tables_number   1
_chemical_formula_structural   Nd2UTe4
_chemical_formula_sum   'Nd4 U2 Te8'
_cell_volume   425.35716126
_cell_formula_units_Z   2
loop_
 _symmetry_equiv_pos_site_id
 _symmetry_equiv_pos_as_xyz
  1  'x, y, z'
loop_
 _atom_site_type_symbol
 _atom_site_label
 _atom_site_symmetry_multiplicity
 _atom_site_fract_x
 _atom_site_fract_y
 _atom_site_fract_z
 _atom_site_occupancy
  Nd  Nd0  1  0.25000000  0.62542448  0.37542448  1
  Nd  Nd1  1  0.75000000  0.87457552  0.12457552  1
  Nd  Nd2  1  0.62457552  0.37457552  0.25000000  1
  Nd  Nd3  1  0.87542448  0.12542448  0.75000000  1
  Te  Te4  1  0.00452239  0.84962460  0.50397213  1
  Te  Te5  1  0.00397213  0.34962460  0.50452239  1
  Te  Te6  1  0.49602787  0.00055027  0.34565247  1
  Te  Te7  1  0.15489779  0.15037540  0.15434753  1
  Te  Te8  1  0.34510221  0.49944973  0.99547761  1
  Te  Te9  1  0.49547761  0.99944973  0.84510221  1
  Te  Te10  1  0.65434753  0.65037540  0.65489779  1
  Te  Te11  1  0.84565247  0.50055027  0.99602787  1
  U  U12  1  0.12500000  0.75000000  0.87500000  1
  U  U13  1  0.37500000  0.25000000  0.62500000  1
