# generated using pymatgen
data_CsCu3As8H24C8(IO2)4
_symmetry_space_group_name_H-M   'P 1'
_cell_length_a   8.38846990
_cell_length_b   8.58192115
_cell_length_c   25.82384014
_cell_angle_alpha   94.84572597
_cell_angle_beta   92.39726597
_cell_angle_gamma   95.96515977
_symmetry_Int_Tables_number   1
_chemical_formula_structural   CsCu3As8H24C8(IO2)4
_chemical_formula_sum   'Cs2 Cu6 As16 H48 C16 I8 O16'
_cell_volume   1839.95876879
_cell_formula_units_Z   2
loop_
 _symmetry_equiv_pos_site_id
 _symmetry_equiv_pos_as_xyz
  1  'x, y, z'
loop_
 _atom_site_type_symbol
 _atom_site_label
 _atom_site_symmetry_multiplicity
 _atom_site_fract_x
 _atom_site_fract_y
 _atom_site_fract_z
 _atom_site_occupancy
  Cs  Cs0  1  0.42292626  0.85821146  0.76518696  1
  Cs  Cs1  1  0.57707374  0.14178854  0.23481304  1
  Cu  Cu2  1  0.24967098  0.15404670  0.37181964  1
  Cu  Cu3  1  0.75032902  0.84595330  0.62818036  1
  Cu  Cu4  1  0.75175742  0.59668635  0.86244316  1
  Cu  Cu5  1  0.29159873  0.55518963  0.29122923  1
  Cu  Cu6  1  0.70840127  0.44481037  0.70877077  1
  Cu  Cu7  1  0.24824258  0.40331365  0.13755684  1
  As  As8  1  0.01759596  0.84177458  0.66297683  1
  As  As9  1  0.99258053  0.50337841  0.71388987  1
  As  As10  1  0.76561746  0.85860051  0.53671591  1
  As  As11  1  0.01988337  0.65077118  0.83485278  1
  As  As12  1  0.92925738  0.93932394  0.77787915  1
  As  As13  1  0.98011663  0.34922882  0.16514722  1
  As  As14  1  0.95519005  0.19664935  0.54454040  1
  As  As15  1  0.22964308  0.54598698  0.06275465  1
  As  As16  1  0.04480995  0.80335065  0.45545960  1
  As  As17  1  0.07074262  0.06067606  0.22212085  1
  As  As18  1  0.03718467  0.26069807  0.99138615  1
  As  As19  1  0.96281533  0.73930193  0.00861385  1
  As  As20  1  0.00741947  0.49662159  0.28611013  1
  As  As21  1  0.98240404  0.15822542  0.33702317  1
  As  As22  1  0.23438254  0.14139949  0.46328409  1
  As  As23  1  0.77035692  0.45401302  0.93724535  1
  H  H24  1  0.79491398  0.26751712  0.08602155  1
  H  H25  1  0.28737543  0.65391740  0.44809665  1
  H  H26  1  0.43905601  0.63845810  0.00110238  1
  H  H27  1  0.94334268  0.16773720  0.84729912  1
  H  H28  1  0.69338135  0.14887613  0.36501650  1
  H  H29  1  0.68105902  0.34575783  0.13758596  1
  H  H30  1  0.07809662  0.76760320  0.21634575  1
  H  H31  1  0.31894098  0.65424217  0.86241404  1
  H  H32  1  0.64226386  0.66804530  0.46213581  1
  H  H33  1  0.63991351  0.19606938  0.96466738  1
  H  H34  1  0.48961168  0.74202226  0.50120990  1
  H  H35  1  0.36008649  0.80393062  0.03533262  1
  H  H36  1  0.58689216  0.86326418  0.45580951  1
  H  H37  1  0.71262457  0.34608260  0.55190335  1
  H  H38  1  0.82766732  0.10831447  0.41674821  1
  H  H39  1  0.51038832  0.25797774  0.49879010  1
  H  H40  1  0.80705498  0.47523131  0.10149223  1
  H  H41  1  0.19294502  0.52476869  0.89850777  1
  H  H42  1  0.88186456  0.75220086  0.28679347  1
  H  H43  1  0.88488078  0.81449334  0.19254426  1
  H  H44  1  0.76483226  0.95801743  0.36530677  1
  H  H45  1  0.75099123  0.79637135  0.07276101  1
  H  H46  1  0.20508602  0.73248288  0.91397845  1
  H  H47  1  0.56094399  0.36154190  0.99889762  1
  H  H48  1  0.08166020  0.05256342  0.91899930  1
  H  H49  1  0.25767117  0.40543946  0.69423658  1
  H  H50  1  0.92190338  0.23239680  0.78365425  1
  H  H51  1  0.17233268  0.89168553  0.58325179  1
  H  H52  1  0.10691555  0.52073285  0.43931223  1
  H  H53  1  0.22832914  0.05548722  0.97220467  1
  H  H54  1  0.41310784  0.13673582  0.54419049  1
  H  H55  1  0.10033809  0.30988800  0.64903485  1
  H  H56  1  0.05665732  0.83226280  0.15270088  1
  H  H57  1  0.11511922  0.18550666  0.80745574  1
  H  H58  1  0.35773614  0.33195470  0.53786419  1
  H  H59  1  0.24900877  0.20362865  0.92723899  1
  H  H60  1  0.82524760  0.39722547  0.49637688  1
  H  H61  1  0.89966191  0.69011200  0.35096515  1
  H  H62  1  0.23516774  0.04198257  0.63469323  1
  H  H63  1  0.74232883  0.59456054  0.30576342  1
  H  H64  1  0.50445465  0.70063752  0.06745256  1
  H  H65  1  0.30661865  0.85112387  0.63498350  1
  H  H66  1  0.11813544  0.24779914  0.71320653  1
  H  H67  1  0.91833980  0.94743658  0.08100070  1
  H  H68  1  0.49554535  0.29936248  0.93254744  1
  H  H69  1  0.77167086  0.94451278  0.02779533  1
  H  H70  1  0.17475240  0.60277453  0.50362312  1
  H  H71  1  0.89308445  0.47926715  0.56068777  1
  C  C72  1  0.40354197  0.68899125  0.03861697  1
  C  C73  1  0.20482463  0.91536470  0.62491817  1
  C  C74  1  0.86598776  0.65158205  0.31006783  1
  C  C75  1  0.13401224  0.34841795  0.68993217  1
  C  C76  1  0.16360422  0.12746473  0.94712473  1
  C  C77  1  0.79517537  0.08463530  0.37508183  1
  C  C78  1  0.98492534  0.15627856  0.80769107  1
  C  C79  1  0.79372567  0.36085685  0.11764755  1
  C  C80  1  0.83202184  0.37577642  0.53737375  1
  C  C81  1  0.59645803  0.31100875  0.96138303  1
  C  C82  1  0.60199781  0.77306343  0.48246128  1
  C  C83  1  0.16797816  0.62422358  0.46262625  1
  C  C84  1  0.39800219  0.22693657  0.51753872  1
  C  C85  1  0.01507466  0.84372144  0.19230893  1
  C  C86  1  0.83639578  0.87253527  0.05287527  1
  C  C87  1  0.20627433  0.63914315  0.88235245  1
  I  I88  1  0.33383584  0.87556885  0.33462516  1
  I  I89  1  0.44256803  0.58249763  0.20578254  1
  I  I90  1  0.44607259  0.40118261  0.35745687  1
  I  I91  1  0.55392741  0.59881739  0.64254313  1
  I  I92  1  0.32387098  0.12648993  0.10531469  1
  I  I93  1  0.66616416  0.12443115  0.66537484  1
  I  I94  1  0.55743197  0.41750237  0.79421746  1
  I  I95  1  0.67612902  0.87351007  0.89468531  1
  O  O96  1  0.90567566  0.34219119  0.32179677  1
  O  O97  1  0.06046035  0.23334760  0.48478719  1
  O  O98  1  0.10303737  0.55652480  0.77673347  1
  O  O99  1  0.07271545  0.95943982  0.72447440  1
  O  O100  1  0.89696263  0.44347520  0.22326653  1
  O  O101  1  0.93572921  0.33295355  0.93480278  1
  O  O102  1  0.19448552  0.42964669  0.00035913  1
  O  O103  1  0.79764310  0.05072471  0.51176453  1
  O  O104  1  0.09432434  0.65780881  0.67820323  1
  O  O105  1  0.80551448  0.57035331  0.99964087  1
  O  O106  1  0.92779650  0.14446416  0.17842806  1
  O  O107  1  0.07220350  0.85553584  0.82157194  1
  O  O108  1  0.93953965  0.76665240  0.51521281  1
  O  O109  1  0.06427079  0.66704645  0.06519722  1
  O  O110  1  0.92728455  0.04056018  0.27552560  1
  O  O111  1  0.20235690  0.94927529  0.48823547  1
