# generated using pymatgen
data_Sm(DyS2)2
_symmetry_space_group_name_H-M   'P 1'
_cell_length_a   7.24550863
_cell_length_b   7.24550802
_cell_length_c   7.24550803
_cell_angle_alpha   109.30464715
_cell_angle_beta   109.80488205
_cell_angle_gamma   109.30464582
_symmetry_Int_Tables_number   1
_chemical_formula_structural   Sm(DyS2)2
_chemical_formula_sum   'Sm2 Dy4 S8'
_cell_volume   292.80172681
_cell_formula_units_Z   2
loop_
 _symmetry_equiv_pos_site_id
 _symmetry_equiv_pos_as_xyz
  1  'x, y, z'
loop_
 _atom_site_type_symbol
 _atom_site_label
 _atom_site_symmetry_multiplicity
 _atom_site_fract_x
 _atom_site_fract_y
 _atom_site_fract_z
 _atom_site_occupancy
  Sm  Sm0  1  0.12500000  0.75000000  0.87500000  1
  Sm  Sm1  1  0.37500000  0.25000000  0.62500000  1
  Dy  Dy2  1  0.25000000  0.62582681  0.37582681  1
  Dy  Dy3  1  0.75000000  0.87417319  0.12417319  1
  Dy  Dy4  1  0.62417319  0.37417319  0.25000000  1
  Dy  Dy5  1  0.87582681  0.12582681  0.75000000  1
  S  S6  1  0.99471538  0.85311606  0.49693167  1
  S  S7  1  0.99693167  0.35311606  0.49471538  1
  S  S8  1  0.14159933  0.14688394  0.14381561  1
  S  S9  1  0.35840067  0.50221628  0.00528462  1
  S  S10  1  0.64381561  0.64688394  0.64159933  1
  S  S11  1  0.50528462  0.00221628  0.85840067  1
  S  S12  1  0.50306833  0.99778372  0.35618439  1
  S  S13  1  0.85618439  0.49778372  0.00306833  1
