# generated using pymatgen
data_Nd5CuSe8
_symmetry_space_group_name_H-M   'P 1'
_cell_length_a   7.70051144
_cell_length_b   7.70051216
_cell_length_c   7.70051200
_cell_angle_alpha   110.31460033
_cell_angle_beta   110.31460021
_cell_angle_gamma   107.79731267
_symmetry_Int_Tables_number   1
_chemical_formula_structural   Nd5CuSe8
_chemical_formula_sum   'Nd5 Cu1 Se8'
_cell_volume   351.28517186
_cell_formula_units_Z   1
loop_
 _symmetry_equiv_pos_site_id
 _symmetry_equiv_pos_as_xyz
  1  'x, y, z'
loop_
 _atom_site_type_symbol
 _atom_site_label
 _atom_site_symmetry_multiplicity
 _atom_site_fract_x
 _atom_site_fract_y
 _atom_site_fract_z
 _atom_site_occupancy
  Cu  Cu0  1  0.87500000  0.12500000  0.75000000  1
  Nd  Nd1  1  0.11439497  0.74572651  0.87260398  1
  Nd  Nd2  1  0.25427349  0.62687747  0.36866846  1
  Nd  Nd3  1  0.37312253  0.24179100  0.62739602  1
  Nd  Nd4  1  0.62500000  0.37500000  0.25000000  1
  Nd  Nd5  1  0.75820900  0.88560503  0.13133154  1
  Se  Se6  1  0.98411422  0.86300185  0.50995132  1
  Se  Se7  1  0.00951515  0.36359258  0.49105794  1
  Se  Se8  1  0.48154280  0.99048485  0.85407743  1
  Se  Se9  1  0.13699815  0.14694948  0.12111237  1
  Se  Se10  1  0.37253464  0.51845720  0.00894206  1
  Se  Se11  1  0.63640742  0.62746536  0.64592257  1
  Se  Se12  1  0.52583710  0.01588578  0.37888763  1
  Se  Se13  1  0.85305052  0.47416290  0.99004868  1
