# generated using pymatgen
data_Ce2Y2O7
_symmetry_space_group_name_H-M   'P 1'
_cell_length_a   3.75973893
_cell_length_b   15.37190095
_cell_length_c   13.24719938
_cell_angle_alpha   30.48294912
_cell_angle_beta   55.41503396
_cell_angle_gamma   60.71393565
_symmetry_Int_Tables_number   1
_chemical_formula_structural   Ce2Y2O7
_chemical_formula_sum   'Ce4 Y4 O14'
_cell_volume   319.74893650
_cell_formula_units_Z   2
loop_
 _symmetry_equiv_pos_site_id
 _symmetry_equiv_pos_as_xyz
  1  'x, y, z'
loop_
 _atom_site_type_symbol
 _atom_site_label
 _atom_site_symmetry_multiplicity
 _atom_site_fract_x
 _atom_site_fract_y
 _atom_site_fract_z
 _atom_site_occupancy
  Ce  Ce0  1  0.99104016  1.00000000  0.00447992  1
  Ce  Ce1  1  0.00895984  0.50000000  0.99552008  1
  Ce  Ce2  1  0.00000000  0.75000000  0.00000000  1
  Ce  Ce3  1  0.00000000  0.25000000  0.50000000  1
  O  O4  1  0.24905166  0.20623216  0.16924201  1
  O  O5  1  0.26945242  0.50000000  0.11527379  1
  O  O6  1  0.25299605  1.00000000  0.62350197  1
  O  O7  1  0.74478895  0.26130990  0.36629562  1
  O  O8  1  0.25521105  0.23869010  0.63370438  1
  O  O9  1  0.25521105  0.76130990  0.11108457  1
  O  O10  1  0.73054758  0.00000000  0.88472621  1
  O  O11  1  0.74700395  0.50000000  0.37649803  1
  O  O12  1  0.21622826  0.00000000  0.14188587  1
  O  O13  1  0.75094834  0.29376784  0.83075799  1
  O  O14  1  0.75094834  0.70623216  0.41829367  1
  O  O15  1  0.24905166  0.79376784  0.58170633  1
  O  O16  1  0.78377174  0.50000000  0.85811413  1
  O  O17  1  0.74478895  0.73869010  0.88891543  1
  Y  Y18  1  0.00000000  0.25000000  0.00000000  1
  Y  Y19  1  0.03834316  0.50000000  0.48082842  1
  Y  Y20  1  0.00000000  0.75000000  0.50000000  1
  Y  Y21  1  0.96165684  0.00000000  0.51917158  1
