# generated using pymatgen
data_MnPO4
_symmetry_space_group_name_H-M   'P 1'
_cell_length_a   8.45894572
_cell_length_b   7.15456872
_cell_length_c   14.69894299
_cell_angle_alpha   90.00000000
_cell_angle_beta   90.83974938
_cell_angle_gamma   90.00000000
_symmetry_Int_Tables_number   1
_chemical_formula_structural   MnPO4
_chemical_formula_sum   'Mn12 P12 O48'
_cell_volume   889.48608018
_cell_formula_units_Z   12
loop_
 _symmetry_equiv_pos_site_id
 _symmetry_equiv_pos_as_xyz
  1  'x, y, z'
loop_
 _atom_site_type_symbol
 _atom_site_label
 _atom_site_symmetry_multiplicity
 _atom_site_fract_x
 _atom_site_fract_y
 _atom_site_fract_z
 _atom_site_occupancy
  O  O0  1  0.87708737  0.75205118  0.48700725  1
  O  O1  1  0.94865710  0.42584983  0.40133721  1
  O  O2  1  0.91906174  0.26367707  0.05763729  1
  O  O3  1  0.92277495  0.23736795  0.74076374  1
  O  O4  1  0.87805570  0.93967111  0.16785483  1
  O  O5  1  0.94786438  0.06886028  0.39924077  1
  O  O6  1  0.87540513  0.58339740  0.17342920  1
  O  O7  1  0.85537326  0.71628653  0.82766534  1
  O  O8  1  0.83527517  0.92895494  0.96344822  1
  O  O9  1  0.81979513  0.75648823  0.65605684  1
  O  O10  1  0.81628969  0.57338608  0.97845606  1
  O  O11  1  0.79282767  0.76908628  0.31263181  1
  O  O12  1  0.05213562  0.93113872  0.60075923  1
  O  O13  1  0.05134290  0.57415117  0.59866279  1
  O  O14  1  0.08093826  0.73632193  0.94236271  1
  O  O15  1  0.07722505  0.76263105  0.25923626  1
  O  O16  1  0.12194430  0.06032789  0.83214617  1
  O  O17  1  0.12291263  0.24794782  0.51299275  1
  O  O18  1  0.12459487  0.41660160  0.82657080  1
  O  O19  1  0.14462674  0.28371347  0.17233466  1
  O  O20  1  0.16472483  0.07104606  0.03655178  1
  O  O21  1  0.18020587  0.24351077  0.34394316  1
  O  O22  1  0.18371031  0.42661292  0.02154394  1
  O  O23  1  0.20717233  0.23091272  0.68736819  1
  O  O24  1  0.29282767  0.73091372  0.81263181  1
  O  O25  1  0.31628969  0.92661292  0.47845606  1
  O  O26  1  0.31979413  0.74351177  0.15605684  1
  O  O27  1  0.33527517  0.57104606  0.46344822  1
  O  O28  1  0.35537326  0.78371447  0.32766534  1
  O  O29  1  0.70717233  0.26908728  0.18736819  1
  O  O30  1  0.37708737  0.74794782  0.98700725  1
  O  O31  1  0.37805570  0.56032789  0.66785383  1
  O  O32  1  0.41906174  0.23632193  0.55763729  1
  O  O33  1  0.44865710  0.07415017  0.90133821  1
  O  O34  1  0.42277495  0.26263205  0.24076374  1
  O  O35  1  0.44786438  0.43113872  0.89924077  1
  O  O36  1  0.55213462  0.56886028  0.10075923  1
  O  O37  1  0.57722505  0.73736795  0.75923626  1
  O  O38  1  0.55134190  0.92584983  0.09866279  1
  O  O39  1  0.58093826  0.76367707  0.44236271  1
  O  O40  1  0.62194430  0.43967111  0.33214617  1
  O  O41  1  0.62291263  0.25205118  0.01299275  1
  O  O42  1  0.62459487  0.08339740  0.32657080  1
  O  O43  1  0.64462674  0.21628653  0.67233466  1
  O  O44  1  0.66472483  0.42895494  0.53655178  1
  O  O45  1  0.68020587  0.25648823  0.84394316  1
  O  O46  1  0.68371031  0.07338608  0.52154394  1
  O  O47  1  0.37540513  0.91660260  0.67342920  1
  P  P48  1  0.04751351  0.24839227  0.41260537  1
  P  P49  1  0.09612932  0.23335438  0.77171026  1
  P  P50  1  0.10673775  0.25830068  0.07100882  1
  P  P51  1  0.39326225  0.75830068  0.42899118  1
  P  P52  1  0.40387068  0.73335438  0.72828874  1
  P  P53  1  0.45248749  0.74839227  0.08739563  1
  P  P54  1  0.54751351  0.25160873  0.91260537  1
  P  P55  1  0.59612932  0.26664462  0.27171126  1
  P  P56  1  0.60673775  0.24169932  0.57100882  1
  P  P57  1  0.89326225  0.74170032  0.92899118  1
  P  P58  1  0.90387168  0.76664562  0.22828974  1
  P  P59  1  0.95248749  0.75160773  0.58739563  1
  Mn  Mn60  1  0.74948763  0.05335043  0.07753689  1
  Mn  Mn61  1  0.74868860  0.95359862  0.41348415  1
  Mn  Mn62  1  0.75131140  0.45359862  0.08651585  1
  Mn  Mn63  1  0.75021583  0.48410369  0.75099075  1
  Mn  Mn64  1  0.75051237  0.55335143  0.42246311  1
  Mn  Mn65  1  0.74978417  0.98410369  0.74900925  1
  Mn  Mn66  1  0.25021583  0.01589531  0.25099075  1
  Mn  Mn67  1  0.24948763  0.44664957  0.57753689  1
  Mn  Mn68  1  0.24978417  0.51589531  0.24900925  1
  Mn  Mn69  1  0.24868860  0.54640038  0.91348415  1
  Mn  Mn70  1  0.25131140  0.04640238  0.58651585  1
  Mn  Mn71  1  0.25051237  0.94664957  0.92246311  1
