# generated using pymatgen
data_Mo(PO3)5
_symmetry_space_group_name_H-M   'P 1'
_cell_length_a   10.66910248
_cell_length_b   14.01765773
_cell_length_c   9.32646727
_cell_angle_alpha   89.99646431
_cell_angle_beta   69.99779920
_cell_angle_gamma   89.99786591
_symmetry_Int_Tables_number   1
_chemical_formula_structural   Mo(PO3)5
_chemical_formula_sum   'Mo4 P20 O60'
_cell_volume   1310.69080442
_cell_formula_units_Z   4
loop_
 _symmetry_equiv_pos_site_id
 _symmetry_equiv_pos_as_xyz
  1  'x, y, z'
loop_
 _atom_site_type_symbol
 _atom_site_label
 _atom_site_symmetry_multiplicity
 _atom_site_fract_x
 _atom_site_fract_y
 _atom_site_fract_z
 _atom_site_occupancy
  O  O0  1  0.89735332  0.75028883  0.93866132  1
  O  O1  1  0.82168144  0.33645597  0.89696167  1
  O  O2  1  0.89419567  0.47054686  0.71826378  1
  O  O3  1  0.89436426  0.02916536  0.71795128  1
  O  O4  1  0.10264911  0.25024846  0.06131217  1
  O  O5  1  0.17827899  0.83646345  0.10306592  1
  O  O6  1  0.10583096  0.97059455  0.28172010  1
  O  O7  1  0.10560161  0.52921050  0.28206792  1
  O  O8  1  0.17828915  0.66308264  0.10308785  1
  O  O9  1  0.11330560  0.37935329  0.49354675  1
  O  O10  1  0.11327719  0.12067601  0.49356726  1
  O  O11  1  0.14028410  0.91862990  0.56075946  1
  O  O12  1  0.14016517  0.58133701  0.56105845  1
  O  O13  1  0.29233753  0.25026810  0.14953312  1
  O  O14  1  0.34542271  0.97777764  0.07916763  1
  O  O15  1  0.28733982  0.85675580  0.29802528  1
  O  O16  1  0.34527508  0.52170470  0.07978284  1
  O  O17  1  0.28714847  0.64305452  0.29820169  1
  O  O18  1  0.21922797  0.74997509  0.52614703  1
  O  O19  1  0.28077203  0.25002591  0.47385297  1
  O  O20  1  0.21285153  0.35694548  0.70179831  1
  O  O21  1  0.15472592  0.47829530  0.92021616  1
  O  O22  1  0.21266018  0.14324420  0.70197472  1
  O  O23  1  0.15457629  0.02222236  0.92083237  1
  O  O24  1  0.20766247  0.74973190  0.85046688  1
  O  O25  1  0.35983583  0.41866299  0.43894155  1
  O  O26  1  0.35971590  0.08137010  0.43924154  1
  O  O27  1  0.38672281  0.87932399  0.50643274  1
  O  O28  1  0.38669440  0.62064671  0.50645325  1
  O  O29  1  0.32171085  0.33691736  0.89691215  1
  O  O30  1  0.39439939  0.47078950  0.71793208  1
  O  O31  1  0.39416904  0.02940545  0.71827990  1
  O  O32  1  0.32172101  0.16353655  0.89693408  1
  O  O33  1  0.60264768  0.24971117  0.06133868  1
  O  O34  1  0.39735089  0.74975154  0.93868783  1
  O  O35  1  0.67831856  0.66354403  0.10303833  1
  O  O36  1  0.60580433  0.52945314  0.28173622  1
  O  O37  1  0.60563574  0.97083464  0.28204872  1
  O  O38  1  0.67826652  0.83692362  0.10310922  1
  O  O39  1  0.61325434  0.12066011  0.49360402  1
  O  O40  1  0.61333050  0.37933677  0.49350126  1
  O  O41  1  0.64023113  0.58140572  0.56077278  1
  O  O42  1  0.64021681  0.91869648  0.56103806  1
  O  O43  1  0.79234847  0.24969729  0.14953230  1
  O  O44  1  0.84542290  0.52219545  0.07921819  1
  O  O45  1  0.78733823  0.64325312  0.29803495  1
  O  O46  1  0.84529366  0.97828595  0.07969932  1
  O  O47  1  0.78716950  0.85696441  0.29817296  1
  O  O48  1  0.71922861  0.75004712  0.52613782  1
  O  O49  1  0.78077139  0.24995388  0.47386218  1
  O  O50  1  0.71283050  0.14303559  0.70182704  1
  O  O51  1  0.65470634  0.02171405  0.92030068  1
  O  O52  1  0.71266177  0.35674688  0.70196505  1
  O  O53  1  0.65457710  0.47780455  0.92078181  1
  O  O54  1  0.70765053  0.75030271  0.85046870  1
  O  O55  1  0.85978319  0.08130352  0.43896194  1
  O  O56  1  0.85976887  0.41859428  0.43922722  1
  O  O57  1  0.88666950  0.62066323  0.50649874  1
  O  O58  1  0.82173348  0.16307638  0.89689078  1
  O  O59  1  0.88674466  0.87933989  0.50639598  1
  P  P60  1  0.75845340  0.85750669  0.47563557  1
  P  P61  1  0.76485987  0.07809946  0.82010185  1
  P  P62  1  0.76474237  0.42152176  0.82037567  1
  P  P63  1  0.74150636  0.35738707  0.52446961  1
  P  P64  1  0.25327432  0.25024260  0.00834870  1
  P  P65  1  0.23524215  0.92152957  0.17961538  1
  P  P66  1  0.23514694  0.57811042  0.17991714  1
  P  P67  1  0.24158220  0.35748707  0.52433630  1
  P  P68  1  0.25852469  0.85740387  0.47549855  1
  P  P69  1  0.24147631  0.14259613  0.52450145  1
  P  P70  1  0.25841880  0.64251293  0.47566370  1
  P  P71  1  0.26485306  0.42188958  0.82008186  1
  P  P72  1  0.26475885  0.07847043  0.82038462  1
  P  P73  1  0.24672568  0.74975740  0.99165130  1
  P  P74  1  0.75326735  0.24972907  0.00836521  1
  P  P75  1  0.73525763  0.57847824  0.17962433  1
  P  P76  1  0.73514013  0.92190054  0.17989815  1
  P  P77  1  0.74154660  0.14249331  0.52436443  1
  P  P78  1  0.75849364  0.64261293  0.47553039  1
  P  P79  1  0.74673265  0.75027093  0.99163379  1
  Mo  Mo80  1  0.99991397  0.49997711  0.50017567  1
  Mo  Mo81  1  0.50008603  0.50002289  0.49982433  1
  Mo  Mo82  1  0.49990827  0.00002386  0.50017960  1
  Mo  Mo83  1  0.00009173  0.99997614  0.49982040  1
