# generated using pymatgen
data_USiO4
_symmetry_space_group_name_H-M   'P 1'
_cell_length_a   5.87726296
_cell_length_b   5.87726296
_cell_length_c   5.87726296
_cell_angle_alpha   106.72902911
_cell_angle_beta   106.72902910
_cell_angle_gamma   115.10689938
_symmetry_Int_Tables_number   1
_chemical_formula_structural   USiO4
_chemical_formula_sum   'U2 Si2 O8'
_cell_volume   155.13484131
_cell_formula_units_Z   2
loop_
 _symmetry_equiv_pos_site_id
 _symmetry_equiv_pos_as_xyz
  1  'x, y, z'
loop_
 _atom_site_type_symbol
 _atom_site_label
 _atom_site_symmetry_multiplicity
 _atom_site_fract_x
 _atom_site_fract_y
 _atom_site_fract_z
 _atom_site_occupancy
  O  O0  1  0.13771606  0.70726886  0.43044720  1
  O  O1  1  0.70726886  0.77682167  0.56955280  1
  O  O2  1  0.70726886  0.13771606  0.93044720  1
  O  O3  1  0.77682167  0.70726886  0.06955280  1
  O  O4  1  0.29273114  0.86228394  0.06955280  1
  O  O5  1  0.22317833  0.29273114  0.93044720  1
  O  O6  1  0.86228394  0.29273114  0.56955280  1
  O  O7  1  0.29273114  0.22317833  0.43044720  1
  Si  Si8  1  0.12500000  0.87500000  0.25000000  1
  Si  Si9  1  0.87500000  0.12500000  0.75000000  1
  U  U10  1  0.62500000  0.37500000  0.25000000  1
  U  U11  1  0.37500000  0.62500000  0.75000000  1
