# generated using pymatgen
data_Eu(LuS2)2
_symmetry_space_group_name_H-M   'P 1'
_cell_length_a   7.22599962
_cell_length_b   7.22599965
_cell_length_c   7.22599969
_cell_angle_alpha   109.29535763
_cell_angle_beta   109.29535200
_cell_angle_gamma   109.82352467
_symmetry_Int_Tables_number   1
_chemical_formula_structural   Eu(LuS2)2
_chemical_formula_sum   'Eu2 Lu4 S8'
_cell_volume   290.44212849
_cell_formula_units_Z   2
loop_
 _symmetry_equiv_pos_site_id
 _symmetry_equiv_pos_as_xyz
  1  'x, y, z'
loop_
 _atom_site_type_symbol
 _atom_site_label
 _atom_site_symmetry_multiplicity
 _atom_site_fract_x
 _atom_site_fract_y
 _atom_site_fract_z
 _atom_site_occupancy
  Eu  Eu0  1  0.62500000  0.37500000  0.25000000  1
  Eu  Eu1  1  0.87500000  0.12500000  0.75000000  1
  Lu  Lu2  1  0.13146954  0.75000000  0.88146954  1
  Lu  Lu3  1  0.25000000  0.63146954  0.38146954  1
  Lu  Lu4  1  0.36853046  0.25000000  0.61853046  1
  Lu  Lu5  1  0.75000000  0.86853046  0.11853046  1
  S  S6  1  0.01208878  0.86448626  0.49574361  1
  S  S7  1  0.48791122  0.98365483  0.85239748  1
  S  S8  1  0.13551374  0.13125734  0.14760252  1
  S  S9  1  0.48365483  0.98791122  0.35239748  1
  S  S10  1  0.36448626  0.51208878  0.99574361  1
  S  S11  1  0.63125734  0.63551374  0.64760252  1
  S  S12  1  0.86874266  0.51634517  0.00425639  1
  S  S13  1  0.01634517  0.36874266  0.50425639  1
