# generated using pymatgen
data_Zr2InPd2
_symmetry_space_group_name_H-M   'P 1'
_cell_length_a   7.25065965
_cell_length_b   8.03921204
_cell_length_c   7.99949950
_cell_angle_alpha   90.12335812
_cell_angle_beta   89.72429784
_cell_angle_gamma   90.05614503
_symmetry_Int_Tables_number   1
_chemical_formula_structural   Zr2InPd2
_chemical_formula_sum   'Zr8 In4 Pd8'
_cell_volume   466.28085104
_cell_formula_units_Z   4
loop_
 _symmetry_equiv_pos_site_id
 _symmetry_equiv_pos_as_xyz
  1  'x, y, z'
loop_
 _atom_site_type_symbol
 _atom_site_label
 _atom_site_symmetry_multiplicity
 _atom_site_fract_x
 _atom_site_fract_y
 _atom_site_fract_z
 _atom_site_occupancy
  Zr  Zr0  1  0.49925626  0.84299065  0.84340705  1
  Zr  Zr1  1  0.49920056  0.68565332  0.31509825  1
  Zr  Zr2  1  0.00004478  0.81495813  0.81464542  1
  Zr  Zr3  1  -0.00034367  0.65668409  0.34304521  1
  Zr  Zr4  1  0.49911529  0.31447070  0.68434473  1
  Zr  Zr5  1  0.00031026  0.18518300  0.18569635  1
  Zr  Zr6  1  0.00066028  0.34289373  0.65732269  1
  Zr  Zr7  1  0.50034033  0.15686133  0.15719467  1
  In  In8  1  0.74992457  0.50089785  -0.00003796  1
  In  In9  1  0.25035709  0.99892932  0.50019355  1
  In  In10  1  0.75000351  0.00049648  0.49958718  1
  In  In11  1  0.25048836  0.49947768  0.00034438  1
  Pd  Pd12  1  0.77946506  0.87176382  0.12828044  1
  Pd  Pd13  1  0.22059806  0.12857278  0.87171300  1
  Pd  Pd14  1  0.27955659  0.62856458  0.62846526  1
  Pd  Pd15  1  0.22026803  0.87133348  0.12841464  1
  Pd  Pd16  1  0.78002351  0.12813463  0.87111491  1
  Pd  Pd17  1  0.72080012  0.37183100  0.37146434  1
  Pd  Pd18  1  0.72034342  0.62860274  0.62822881  1
  Pd  Pd19  1  0.27958761  0.37170068  0.37147710  1
