# generated using pymatgen
data_Al2CuO4
_symmetry_space_group_name_H-M   'P 1'
_cell_length_a   5.77312839
_cell_length_b   5.74884471
_cell_length_c   28.72456920
_cell_angle_alpha   59.97622930
_cell_angle_beta   60.36909312
_cell_angle_gamma   60.13746938
_symmetry_Int_Tables_number   1
_chemical_formula_structural   Al2CuO4
_chemical_formula_sum   'Al20 Cu10 O40'
_cell_volume   676.55040862
_cell_formula_units_Z   10
loop_
 _symmetry_equiv_pos_site_id
 _symmetry_equiv_pos_as_xyz
  1  'x, y, z'
loop_
 _atom_site_type_symbol
 _atom_site_label
 _atom_site_symmetry_multiplicity
 _atom_site_fract_x
 _atom_site_fract_y
 _atom_site_fract_z
 _atom_site_occupancy
  Al  Al0  1  0.25464226  0.24632841  0.05055278  1
  Al  Al1  1  0.62409178  0.12046768  0.12539345  1
  Al  Al2  1  0.25975110  0.24711656  0.24920473  1
  Al  Al3  1  0.62712612  0.62794537  0.02340159  1
  Al  Al4  1  0.62398893  0.62851443  0.12538497  1
  Al  Al5  1  0.62389562  0.11995650  0.32555606  1
  Al  Al6  1  0.62453138  0.62835298  0.22376228  1
  Al  Al7  1  0.25980801  0.24725136  0.44912973  1
  Al  Al8  1  0.62384440  0.62840041  0.32554748  1
  Al  Al9  1  0.62420200  0.12000357  0.52545347  1
  Al  Al10  1  0.62450965  0.62807059  0.42386650  1
  Al  Al11  1  0.26180734  0.24896618  0.64803747  1
  Al  Al12  1  0.62419164  0.62853322  0.52544018  1
  Al  Al13  1  0.62305418  0.12064584  0.72571980  1
  Al  Al14  1  0.62677434  0.62681203  0.62392237  1
  Al  Al15  1  0.12079782  0.62625082  0.92533617  1
  Al  Al16  1  0.62309763  0.62764918  0.72573716  1
  Al  Al17  1  0.61816484  0.62446724  0.82660960  1
  Al  Al18  1  0.62504271  0.12224646  0.92519100  1
  Al  Al19  1  0.62495717  0.62671190  0.92520237  1
  Cu  Cu20  1  0.00225329  0.00136735  0.99900250  1
  Cu  Cu21  1  0.99794066  0.00069897  0.20020170  1
  Cu  Cu22  1  0.11539432  0.62900800  0.12531195  1
  Cu  Cu23  1  0.99752995  0.00075130  0.40025425  1
  Cu  Cu24  1  0.11441349  0.62858488  0.32568726  1
  Cu  Cu25  1  0.99719236  0.99923684  0.60091519  1
  Cu  Cu26  1  0.11500171  0.62897607  0.52540312  1
  Cu  Cu27  1  0.99831546  -0.00113250  0.80079657  1
  Cu  Cu28  1  0.11635790  0.62706984  0.72592166  1
  Cu  Cu29  1  0.24716961  0.25268391  0.84950817  1
  O  O30  1  0.40476049  0.37060624  0.07384311  1
  O  O31  1  0.40481212  0.85547860  0.07382463  1
  O  O32  1  0.40155340  0.37123239  0.17118779  1
  O  O33  1  0.41403083  0.86308168  0.17193788  1
  O  O34  1  0.40275534  0.37166080  0.27395335  1
  O  O35  1  0.85570173  0.37943807  0.07708743  1
  O  O36  1  0.40298423  0.37118112  0.37091884  1
  O  O37  1  0.40277547  0.85584479  0.27394165  1
  O  O38  1  0.84304299  0.41468919  0.17420978  1
  O  O39  1  0.84391248  0.87279396  0.08210189  1
  O  O40  1  0.41354321  0.86275267  0.37216332  1
  O  O41  1  0.84313600  0.87114808  0.17420363  1
  O  O42  1  0.85912298  0.38025480  0.27607632  1
  O  O43  1  0.40291898  0.37184490  0.47377438  1
  O  O44  1  0.40294884  0.85635534  0.47376589  1
  O  O45  1  0.84272917  0.41403486  0.37432922  1
  O  O46  1  0.84196060  0.87205946  0.28278318  1
  O  O47  1  0.40526455  0.37283287  0.56979602  1
  O  O48  1  0.41460216  0.86289386  0.57189531  1
  O  O49  1  0.40635622  0.37125887  0.67244723  1
  O  O50  1  0.86026808  0.38083093  0.47560912  1
  O  O51  1  0.84276455  0.87156339  0.37432395  1
  O  O52  1  0.40627992  0.86007253  0.67245991  1
  O  O53  1  0.41022834  0.38659695  0.76330823  1
  O  O54  1  0.84512141  0.41358301  0.57381496  1
  O  O55  1  0.84267606  0.87202624  0.48265600  1
  O  O56  1  0.41396274  0.86200872  0.77240398  1
  O  O57  1  0.38347073  0.38815379  0.88045578  1
  O  O58  1  0.86830067  0.38114758  0.67388000  1
  O  O59  1  0.84513355  0.87217227  0.57381580  1
  O  O60  1  0.38344901  0.82604508  0.88046423  1
  O  O61  1  0.83938636  0.41120732  0.77568880  1
  O  O62  1  0.37532173  0.37802362  0.97371380  1
  O  O63  1  0.84753234  0.86682079  0.68376868  1
  O  O64  1  0.41931886  0.85905929  0.97248986  1
  O  O65  1  0.82207488  0.38735951  0.88064012  1
  O  O66  1  0.83924881  0.87122070  0.77569681  1
  O  O67  1  0.85684069  0.86068006  0.88434030  1
  O  O68  1  0.85990164  0.41969638  0.97239514  1
  O  O69  1  0.85996016  0.85835390  0.97238216  1
