# generated using pymatgen
data_FeP2O7
_symmetry_space_group_name_H-M   'P 1'
_cell_length_a   6.42677282
_cell_length_b   6.42760931
_cell_length_c   13.32773132
_cell_angle_alpha   78.80377864
_cell_angle_beta   77.80157868
_cell_angle_gamma   99.17777005
_symmetry_Int_Tables_number   1
_chemical_formula_structural   FeP2O7
_chemical_formula_sum   'Fe4 P8 O28'
_cell_volume   516.20680059
_cell_formula_units_Z   4
loop_
 _symmetry_equiv_pos_site_id
 _symmetry_equiv_pos_as_xyz
  1  'x, y, z'
loop_
 _atom_site_type_symbol
 _atom_site_label
 _atom_site_symmetry_multiplicity
 _atom_site_fract_x
 _atom_site_fract_y
 _atom_site_fract_z
 _atom_site_occupancy
  Fe  Fe0  1  0.26283640  0.12186654  0.14656890  1
  Fe  Fe1  1  0.23155197  0.59052891  0.64655214  1
  Fe  Fe2  1  0.76844803  0.40947109  0.35344786  1
  Fe  Fe3  1  0.73716360  0.87813346  0.85343110  1
  O  O4  1  0.23583030  0.81915785  0.12623088  1
  O  O5  1  0.08822221  0.46568000  0.35804506  1
  O  O6  1  0.12088282  0.01586209  0.30256940  1
  O  O7  1  0.03580694  0.87178888  0.87698139  1
  O  O8  1  0.09819927  0.19405178  0.51703648  1
  O  O9  1  0.32337398  0.44627693  0.14196346  1
  O  O10  1  0.24879690  0.91278296  0.62298246  1
  O  O11  1  0.28135916  0.59064850  0.49031339  1
  O  O12  1  0.18163344  0.57643795  0.80256631  1
  O  O13  1  0.58065611  0.77170850  0.00964163  1
  O  O14  1  0.22013567  0.26794792  0.67735166  1
  O  O15  1  0.21098510  0.61516045  0.98291351  1
  O  O16  1  0.44546673  0.36250383  0.37367495  1
  O  O17  1  0.55453720  0.10249073  0.17739888  1
  O  O18  1  0.44546280  0.89750927  0.82260112  1
  O  O19  1  0.55453327  0.63749617  0.62632505  1
  O  O20  1  0.78901490  0.38483955  0.01708649  1
  O  O21  1  0.77986433  0.73205208  0.32264834  1
  O  O22  1  0.41934389  0.22829150  0.99035837  1
  O  O23  1  0.81836656  0.42356205  0.19743369  1
  O  O24  1  0.71864084  0.40935150  0.50968661  1
  O  O25  1  0.75120310  0.08721704  0.37701754  1
  O  O26  1  0.67662602  0.55372307  0.85803654  1
  O  O27  1  0.90180073  0.80594822  0.48296352  1
  O  O28  1  0.96419306  0.12821112  0.12301861  1
  O  O29  1  0.87911718  0.98413791  0.69743060  1
  O  O30  1  0.91177779  0.53432000  0.64195494  1
  O  O31  1  0.76416970  0.18084215  0.87376912  1
  P  P32  1  0.34293560  0.66681211  0.06873078  1
  P  P33  1  0.23557160  0.41195029  0.43126585  1
  P  P34  1  0.11402693  0.08631061  0.63404037  1
  P  P35  1  0.22041758  0.74804223  0.86592713  1
  P  P36  1  0.77958242  0.25195777  0.13407287  1
  P  P37  1  0.88597307  0.91368939  0.36595963  1
  P  P38  1  0.76442840  0.58804971  0.56873415  1
  P  P39  1  0.65706440  0.33318789  0.93126922  1
