# generated using pymatgen
data_LiV(PO4)2
_symmetry_space_group_name_H-M   'P 1'
_cell_length_a   4.69267825
_cell_length_b   5.01299599
_cell_length_c   13.92556770
_cell_angle_alpha   84.70979757
_cell_angle_beta   90.00000000
_cell_angle_gamma   62.09213230
_symmetry_Int_Tables_number   1
_chemical_formula_structural   LiV(PO4)2
_chemical_formula_sum   'Li2 V2 P4 O16'
_cell_volume   287.91203947
_cell_formula_units_Z   2
loop_
 _symmetry_equiv_pos_site_id
 _symmetry_equiv_pos_as_xyz
  1  'x, y, z'
loop_
 _atom_site_type_symbol
 _atom_site_label
 _atom_site_symmetry_multiplicity
 _atom_site_fract_x
 _atom_site_fract_y
 _atom_site_fract_z
 _atom_site_occupancy
  Li  Li0  1  0.06909834  0.00000100  0.25000000  1
  Li  Li1  1  0.93090266  0.00000000  0.75000000  1
  O  O2  1  0.58154058  0.20061915  0.53726395  1
  O  O3  1  0.21784127  0.20061815  0.03726395  1
  O  O4  1  0.21787416  0.30887106  0.21096780  1
  O  O5  1  0.06152348  0.64868863  0.57636077  1
  O  O6  1  0.28978689  0.64868763  0.07636077  1
  O  O7  1  0.47325578  0.30887006  0.71096780  1
  O  O8  1  0.14241323  0.12052874  0.61551481  1
  O  O9  1  0.26294097  0.87947026  0.88448519  1
  O  O10  1  0.73705803  0.12052974  0.11551481  1
  O  O11  1  0.41845842  0.79938185  0.46273605  1
  O  O12  1  0.85758877  0.87947126  0.38448519  1
  O  O13  1  0.71021311  0.35131237  0.92363923  1
  O  O14  1  0.93847552  0.35131337  0.42363923  1
  O  O15  1  0.78212784  0.69112894  0.78903220  1
  O  O16  1  0.78216073  0.79938085  0.96273605  1
  O  O17  1  0.52674422  0.69112994  0.28903220  1
  P  P18  1  0.32128985  0.31746860  0.61615977  1
  P  P19  1  0.36124156  0.31746960  0.11615977  1
  P  P20  1  0.63875844  0.68253040  0.88384123  1
  P  P21  1  0.67870915  0.68253040  0.38384023  1
  V  V22  1  0.00000000  0.00000000  0.00000000  1
  V  V23  1  0.00000000  0.99999900  0.50000000  1
