# generated using pymatgen
data_Li3CrP2O9
_symmetry_space_group_name_H-M   'P 1'
_cell_length_a   6.84060067
_cell_length_b   8.00594712
_cell_length_c   7.13406974
_cell_angle_alpha   88.99659319
_cell_angle_beta   87.23917781
_cell_angle_gamma   64.77209720
_symmetry_Int_Tables_number   1
_chemical_formula_structural   Li3CrP2O9
_chemical_formula_sum   'Li6 Cr2 P4 O18'
_cell_volume   353.02340348
_cell_formula_units_Z   2
loop_
 _symmetry_equiv_pos_site_id
 _symmetry_equiv_pos_as_xyz
  1  'x, y, z'
loop_
 _atom_site_type_symbol
 _atom_site_label
 _atom_site_symmetry_multiplicity
 _atom_site_fract_x
 _atom_site_fract_y
 _atom_site_fract_z
 _atom_site_occupancy
  Li  Li0  1  0.08233460  0.80559654  0.75842071  1
  Li  Li1  1  0.00003835  0.50191364  0.50013042  1
  Li  Li2  1  0.62014089  0.74850056  0.30706156  1
  Li  Li3  1  0.39645567  0.25003844  0.69161528  1
  Li  Li4  1  0.24425662  0.00285261  0.99663201  1
  Li  Li5  1  0.87850079  0.19581863  0.24427873  1
  Cr  Cr6  1  0.99643374  0.50615157  0.99509991  1
  Cr  Cr7  1  0.50214325  0.49730374  0.00257110  1
  P  P8  1  0.12411073  0.74889852  0.29325034  1
  P  P9  1  0.60824386  0.79475890  0.75660545  1
  P  P10  1  0.38390603  0.20449745  0.24069459  1
  P  P11  1  0.88690766  0.25072398  0.70719099  1
  O  O12  1  0.11244682  0.74054865  0.50527252  1
  O  O13  1  0.64212397  0.34494786  0.78431545  1
  O  O14  1  0.18016464  0.26332724  0.11572459  1
  O  O15  1  0.77524335  0.47474726  0.08975488  1
  O  O16  1  0.23218110  0.52259877  0.91391363  1
  O  O17  1  0.37049150  0.64143955  0.22212064  1
  O  O18  1  0.45028977  0.72468814  0.86916939  1
  O  O19  1  0.67217738  0.70406380  0.56449390  1
  O  O20  1  0.48856491  0.99613027  0.23774955  1
  O  O21  1  0.99047047  0.64003856  0.22973625  1
  O  O22  1  0.00717469  0.37289836  0.76325266  1
  O  O23  1  0.54935381  0.27469940  0.14546367  1
  O  O24  1  0.82051600  0.73536462  0.87179308  1
  O  O25  1  0.88556657  0.25833079  0.49507328  1
  O  O26  1  0.99532214  0.06273570  0.79949888  1
  O  O27  1  0.31858573  0.29615935  0.43421750  1
  O  O28  1  0.48537532  0.00302165  0.76418979  1
  O  O29  1  0.05095162  0.93720649  0.20071023  1
