# generated using pymatgen
data_Mg16Si8HO32
_symmetry_space_group_name_H-M   'P 1'
_cell_length_a   6.07389822
_cell_length_b   9.66887628
_cell_length_c   10.47233921
_cell_angle_alpha   90.88079470
_cell_angle_beta   90.01483322
_cell_angle_gamma   90.00799146
_symmetry_Int_Tables_number   1
_chemical_formula_structural   Mg16Si8HO32
_chemical_formula_sum   'Mg16 Si8 H1 O32'
_cell_volume   614.94443612
_cell_formula_units_Z   1
loop_
 _symmetry_equiv_pos_site_id
 _symmetry_equiv_pos_as_xyz
  1  'x, y, z'
loop_
 _atom_site_type_symbol
 _atom_site_label
 _atom_site_symmetry_multiplicity
 _atom_site_fract_x
 _atom_site_fract_y
 _atom_site_fract_z
 _atom_site_occupancy
  H  H0  1  0.74487177  0.65222621  0.35029790  1
  Mg  Mg1  1  0.00218276  0.00500270  0.99353450  1
  Mg  Mg2  1  0.00303912  0.24382050  0.50251049  1
  Mg  Mg3  1  0.49786556  0.00499093  0.99355574  1
  Mg  Mg4  1  0.49720442  0.24382422  0.50252092  1
  Mg  Mg5  1  0.25012617  0.50028513  0.27914734  1
  Mg  Mg6  1  0.75006789  0.24491024  0.21939466  1
  Mg  Mg7  1  0.75011318  0.00800498  0.72127386  1
  Mg  Mg8  1  0.24999773  0.25781311  0.77875878  1
  Mg  Mg9  1  0.99962146  0.50203696  0.00107297  1
  Mg  Mg10  1  0.00629936  0.75540073  0.51019793  1
  Mg  Mg11  1  0.50048923  0.50203126  0.00102659  1
  Mg  Mg12  1  0.49381624  0.75555034  0.51091500  1
  Mg  Mg13  1  0.25008982  0.99564109  0.27616084  1
  Mg  Mg14  1  0.75083760  0.76743685  0.19647090  1
  Mg  Mg15  1  0.75003127  0.50315540  0.72518549  1
  Mg  Mg16  1  0.24984639  0.75083866  0.78037565  1
  O  O17  1  0.25006115  0.38530624  0.09484187  1
  O  O18  1  0.75011664  0.13139384  0.40713708  1
  O  O19  1  0.75001978  0.12017463  0.90454621  1
  O  O20  1  0.25012387  0.36632029  0.59216924  1
  O  O21  1  0.25001905  0.10587132  0.45045557  1
  O  O22  1  0.75005405  0.36239514  0.05243856  1
  O  O23  1  0.75020404  0.37648055  0.55907613  1
  O  O24  1  0.25002748  0.14340960  0.94707463  1
  O  O25  1  0.03360956  0.14028563  0.16085395  1
  O  O26  1  0.96910079  0.38700157  0.34260238  1
  O  O27  1  0.53360933  0.36356902  0.83889655  1
  O  O28  1  0.46624740  0.11254597  0.66423515  1
  O  O29  1  0.96643023  0.36357965  0.83891722  1
  O  O30  1  0.03398212  0.11259202  0.66426341  1
  O  O31  1  0.46648992  0.14029917  0.16087767  1
  O  O32  1  0.53124778  0.38701632  0.34260154  1
  O  O33  1  0.25002738  0.88600674  0.08715080  1
  O  O34  1  0.74987314  0.62076839  0.44477482  1
  O  O35  1  0.75006346  0.62117812  0.90770421  1
  O  O36  1  0.24990092  0.86829345  0.59699921  1
  O  O37  1  0.25018556  0.61246444  0.45153431  1
  O  O38  1  0.75005224  0.87248247  0.04087300  1
  O  O39  1  0.75017634  0.89193798  0.55150923  1
  O  O40  1  0.25000406  0.63907039  0.94665139  1
  O  O41  1  0.03228715  0.64437618  0.16000244  1
  O  O42  1  0.96670720  0.88665361  0.33701971  1
  O  O43  1  0.53252595  0.86252182  0.83152902  1
  O  O44  1  0.46562080  0.61017316  0.66560090  1
  O  O45  1  0.96739564  0.86255455  0.83154452  1
  O  O46  1  0.03425010  0.61014620  0.66538277  1
  O  O47  1  0.46831871  0.64440274  0.15989200  1
  O  O48  1  0.53315187  0.88669924  0.33714078  1
  Si  Si49  1  0.25004603  0.21566394  0.09444295  1
  Si  Si50  1  0.75024392  0.44704234  0.41629758  1
  Si  Si51  1  0.75002775  0.28929050  0.90607091  1
  Si  Si52  1  0.25004052  0.03714275  0.59688254  1
  Si  Si53  1  0.25022863  0.71640379  0.09123433  1
  Si  Si54  1  0.74998135  0.96191820  0.40528720  1
  Si  Si55  1  0.74997846  0.78991094  0.89817416  1
  Si  Si56  1  0.24999972  0.53578781  0.59517447  1
