# generated using pymatgen
data_Zr3(Bi5Br9)2
_symmetry_space_group_name_H-M   'P 1'
_cell_length_a   14.85815608
_cell_length_b   14.85815607
_cell_length_c   11.39968913
_cell_angle_alpha   90.00000000
_cell_angle_beta   90.00000000
_cell_angle_gamma   120.00000001
_symmetry_Int_Tables_number   1
_chemical_formula_structural   Zr3(Bi5Br9)2
_chemical_formula_sum   'Zr6 Bi20 Br36'
_cell_volume   2179.48293035
_cell_formula_units_Z   2
loop_
 _symmetry_equiv_pos_site_id
 _symmetry_equiv_pos_as_xyz
  1  'x, y, z'
loop_
 _atom_site_type_symbol
 _atom_site_label
 _atom_site_symmetry_multiplicity
 _atom_site_fract_x
 _atom_site_fract_y
 _atom_site_fract_z
 _atom_site_occupancy
  Zr  Zr0  1  0.22594375  0.89131410  0.24275186  1
  Zr  Zr1  1  0.10868590  0.33462965  0.24275186  1
  Zr  Zr2  1  0.33462965  0.22594375  0.74275186  1
  Zr  Zr3  1  0.66537035  0.77405625  0.24275186  1
  Zr  Zr4  1  0.89131410  0.66537035  0.74275186  1
  Zr  Zr5  1  0.77405625  0.10868590  0.74275186  1
  Bi  Bi6  1  0.12132401  0.51742513  0.75044923  1
  Bi  Bi7  1  0.23452638  0.70956306  0.57604708  1
  Bi  Bi8  1  0.23239377  0.70836878  0.91951841  1
  Bi  Bi9  1  0.39610112  0.87867599  0.75044923  1
  Bi  Bi10  1  0.29163122  0.52402498  0.91951841  1
  Bi  Bi11  1  0.29043694  0.52496332  0.57604708  1
  Bi  Bi12  1  0.47503668  0.76547362  0.57604708  1
  Bi  Bi13  1  0.47597502  0.76760623  0.91951841  1
  Bi  Bi14  1  0.48257487  0.60389888  0.75044923  1
  Bi  Bi15  1  0.51742513  0.39610112  0.25044923  1
  Bi  Bi16  1  0.52496332  0.23452638  0.07604708  1
  Bi  Bi17  1  0.52402498  0.23239377  0.41951841  1
  Bi  Bi18  1  0.70836878  0.47597502  0.41951841  1
  Bi  Bi19  1  0.70956306  0.47503668  0.07604708  1
  Bi  Bi20  1  -0.00000000  0.00000000  0.38923533  1
  Bi  Bi21  1  -0.00000000  0.00000000  0.88923533  1
  Bi  Bi22  1  0.60389888  0.12132401  0.25044923  1
  Bi  Bi23  1  0.76547362  0.29043694  0.07604708  1
  Bi  Bi24  1  0.76760623  0.29163122  0.41951841  1
  Bi  Bi25  1  0.87867599  0.48257487  0.25044923  1
  Br  Br26  1  0.07730015  0.85466162  0.40552937  1
  Br  Br27  1  0.08602608  0.83455619  0.08634070  1
  Br  Br28  1  0.08977776  0.80704945  0.74551125  1
  Br  Br29  1  0.06366467  0.43781088  0.08215650  1
  Br  Br30  1  0.06357581  0.42900938  0.42280011  1
  Br  Br31  1  0.19284509  0.69997026  0.26761705  1
  Br  Br32  1  0.36543357  0.93642419  0.42280011  1
  Br  Br33  1  0.37414621  0.93633533  0.08215650  1
  Br  Br34  1  0.16544381  0.25146989  0.08634070  1
  Br  Br35  1  0.14533838  0.22263854  0.40552937  1
  Br  Br36  1  0.19295055  0.28272831  0.74551125  1
  Br  Br37  1  0.30002974  0.49287483  0.26761705  1
  Br  Br38  1  0.50712517  0.80715491  0.26761705  1
  Br  Br39  1  0.25146989  0.08602608  0.58634070  1
  Br  Br40  1  0.22263854  0.07730015  0.90552937  1
  Br  Br41  1  0.28272831  0.08977776  0.24551125  1
  Br  Br42  1  0.43781088  0.37414621  0.58215650  1
  Br  Br43  1  0.42900938  0.36543357  0.92280011  1
  Br  Br44  1  0.56218912  0.62585379  0.08215650  1
  Br  Br45  1  0.57099062  0.63456643  0.42280011  1
  Br  Br46  1  0.71727169  0.91022224  0.74551125  1
  Br  Br47  1  0.74853011  0.91397392  0.08634070  1
  Br  Br48  1  0.77736146  0.92269985  0.40552937  1
  Br  Br49  1  0.49287483  0.19284509  0.76761705  1
  Br  Br50  1  0.69997026  0.50712517  0.76761705  1
  Br  Br51  1  0.80704945  0.71727169  0.24551125  1
  Br  Br52  1  0.83455619  0.74853011  0.58634070  1
  Br  Br53  1  0.85466162  0.77736146  0.90552937  1
  Br  Br54  1  0.63456643  0.06357581  0.92280011  1
  Br  Br55  1  0.62585379  0.06366467  0.58215650  1
  Br  Br56  1  0.80715491  0.30002974  0.76761705  1
  Br  Br57  1  0.93633533  0.56218912  0.58215650  1
  Br  Br58  1  0.93642419  0.57099062  0.92280011  1
  Br  Br59  1  0.91022224  0.19295055  0.24551125  1
  Br  Br60  1  0.92269985  0.14533838  0.90552937  1
  Br  Br61  1  0.91397392  0.16544381  0.58634070  1
