# generated using pymatgen
data_PH9C(NO)4
_symmetry_space_group_name_H-M   'P 1'
_cell_length_a   6.90614093
_cell_length_b   7.24909860
_cell_length_c   7.46517418
_cell_angle_alpha   86.87736714
_cell_angle_beta   81.05247449
_cell_angle_gamma   78.69700881
_symmetry_Int_Tables_number   1
_chemical_formula_structural   PH9C(NO)4
_chemical_formula_sum   'P2 H18 C2 N8 O8'
_cell_volume   361.91180588
_cell_formula_units_Z   2
loop_
 _symmetry_equiv_pos_site_id
 _symmetry_equiv_pos_as_xyz
  1  'x, y, z'
loop_
 _atom_site_type_symbol
 _atom_site_label
 _atom_site_symmetry_multiplicity
 _atom_site_fract_x
 _atom_site_fract_y
 _atom_site_fract_z
 _atom_site_occupancy
  P  P0  1  0.30214528  0.75829160  0.99187048  1
  P  P1  1  0.69785472  0.24170840  0.00812952  1
  H  H2  1  0.94332575  0.77553799  0.26622139  1
  H  H3  1  0.23010742  0.68927071  0.62403668  1
  H  H4  1  0.50000000  0.00000000  0.00000000  1
  H  H5  1  0.69978921  0.78476151  0.71941103  1
  H  H6  1  0.54435981  0.50337091  0.15722359  1
  H  H7  1  0.60734135  0.92994545  0.35166718  1
  H  H8  1  0.39241384  0.29586877  0.64864168  1
  H  H9  1  0.60758616  0.70413123  0.35135832  1
  H  H10  1  0.30021079  0.21523849  0.28058897  1
  H  H11  1  0.39265865  0.07005455  0.64833282  1
  H  H12  1  0.05667425  0.22446201  0.73377861  1
  H  H13  1  0.07947546  0.24616312  0.18224613  1
  H  H14  1  0.76989258  0.31072929  0.37596332  1
  H  H15  1  0.45564019  0.49662909  0.84277641  1
  H  H16  1  0.23389970  0.70716835  0.38611347  1
  H  H17  1  0.92052454  0.75383688  0.81775387  1
  H  H18  1  0.76610030  0.29283165  0.61388653  1
  H  H19  1  0.00000000  0.00000000  0.00000000  1
  C  C20  1  0.95697712  0.74978308  0.54028425  1
  C  C21  1  0.04302288  0.25021692  0.45971575  1
  N  N22  1  0.84393370  0.27113347  0.48462607  1
  N  N23  1  0.14840494  0.24604949  0.29352445  1
  N  N24  1  0.65337410  0.80438170  0.41697861  1
  N  N25  1  0.13705937  0.23363531  0.60638370  1
  N  N26  1  0.34662590  0.19561830  0.58302139  1
  N  N27  1  0.85159506  0.75395051  0.70647555  1
  N  N28  1  0.86294063  0.76636469  0.39361630  1
  N  N29  1  0.15606630  0.72886653  0.51537393  1
  O  O30  1  0.41886440  0.91285216  0.90997470  1
  O  O31  1  0.33092809  0.60433160  0.84057885  1
  O  O32  1  0.58113560  0.08714784  0.09002530  1
  O  O33  1  0.62692656  0.33538904  0.83528401  1
  O  O34  1  0.07243650  0.83591510  0.02222560  1
  O  O35  1  0.92756350  0.16408490  0.97777440  1
  O  O36  1  0.37307344  0.66461096  0.16471599  1
  O  O37  1  0.66907191  0.39566840  0.15942115  1
