# generated using pymatgen
data_FeP2O7
_symmetry_space_group_name_H-M   'P 1'
_cell_length_a   6.98461375
_cell_length_b   8.25071455
_cell_length_c   9.53759717
_cell_angle_alpha   90.00000000
_cell_angle_beta   108.67348453
_cell_angle_gamma   90.00000000
_symmetry_Int_Tables_number   1
_chemical_formula_structural   FeP2O7
_chemical_formula_sum   'Fe4 P8 O28'
_cell_volume   520.69968083
_cell_formula_units_Z   4
loop_
 _symmetry_equiv_pos_site_id
 _symmetry_equiv_pos_as_xyz
  1  'x, y, z'
loop_
 _atom_site_type_symbol
 _atom_site_label
 _atom_site_symmetry_multiplicity
 _atom_site_fract_x
 _atom_site_fract_y
 _atom_site_fract_z
 _atom_site_occupancy
  Fe  Fe0  1  0.72316504  0.73092206  0.50688179  1
  Fe  Fe1  1  0.72316504  0.76907794  0.00688179  1
  Fe  Fe2  1  0.27683496  0.23092206  0.99311821  1
  Fe  Fe3  1  0.27683496  0.26907794  0.49311821  1
  P  P4  1  0.53563868  0.08331119  0.79422327  1
  P  P5  1  0.46436132  0.91668881  0.20577673  1
  P  P6  1  0.06820975  0.46715582  0.70460563  1
  P  P7  1  0.93179025  0.53284418  0.29539437  1
  P  P8  1  0.06820975  0.03284418  0.20460563  1
  P  P9  1  0.53563868  0.41668881  0.29422327  1
  P  P10  1  0.46436132  0.58331119  0.70577673  1
  P  P11  1  0.93179025  0.96715582  0.79539437  1
  O  O12  1  0.52475754  0.91528397  0.85964133  1
  O  O13  1  0.47524246  0.41528397  0.64035867  1
  O  O14  1  0.89212363  0.90096850  0.63908542  1
  O  O15  1  0.23517910  0.60513933  0.70698420  1
  O  O16  1  0.91978526  0.83019349  0.90130749  1
  O  O17  1  0.50627739  0.78079783  0.10919561  1
  O  O18  1  0.39761971  0.09213207  0.63364843  1
  O  O19  1  0.23517910  0.89486067  0.20698420  1
  O  O20  1  0.08021474  0.33019349  0.59869251  1
  O  O21  1  0.13337894  0.05622465  0.84773034  1
  O  O22  1  0.47524246  0.08471603  0.14035867  1
  O  O23  1  0.86662106  0.55622465  0.65226966  1
  O  O24  1  0.49372261  0.28079783  0.39080439  1
  O  O25  1  0.89212363  0.59903150  0.13908542  1
  O  O26  1  0.52475754  0.58471603  0.35964133  1
  O  O27  1  0.86662106  0.94377535  0.15226966  1
  O  O28  1  0.76482090  0.39486067  0.29301580  1
  O  O29  1  0.13337894  0.44377535  0.34773034  1
  O  O30  1  0.60238029  0.59213207  0.86635157  1
  O  O31  1  0.08021474  0.16980651  0.09869251  1
  O  O32  1  0.49372261  0.21920217  0.89080439  1
  O  O33  1  0.10787637  0.40096850  0.86091458  1
  O  O34  1  0.50627739  0.71920217  0.60919561  1
  O  O35  1  0.91978526  0.66980651  0.40130749  1
  O  O36  1  0.60238029  0.90786793  0.36635157  1
  O  O37  1  0.76482090  0.10513933  0.79301580  1
  O  O38  1  0.39761971  0.40786793  0.13364843  1
  O  O39  1  0.10787637  0.09903150  0.36091458  1
