# generated using pymatgen
data_Mo15Se19
_symmetry_space_group_name_H-M   'P 1'
_cell_length_a   20.57848677
_cell_length_b   20.57848682
_cell_length_c   20.57848650
_cell_angle_alpha   27.20918199
_cell_angle_beta   27.20918173
_cell_angle_gamma   27.20918233
_symmetry_Int_Tables_number   1
_chemical_formula_structural   Mo15Se19
_chemical_formula_sum   'Mo30 Se38'
_cell_volume   1607.45387904
_cell_formula_units_Z   2
loop_
 _symmetry_equiv_pos_site_id
 _symmetry_equiv_pos_as_xyz
  1  'x, y, z'
loop_
 _atom_site_type_symbol
 _atom_site_label
 _atom_site_symmetry_multiplicity
 _atom_site_fract_x
 _atom_site_fract_y
 _atom_site_fract_z
 _atom_site_occupancy
  Mo  Mo0  1  0.91067365  0.75000000  0.58932635  1
  Mo  Mo1  1  0.19011589  0.99776938  0.87164747  1
  Mo  Mo2  1  0.95607338  0.63439548  0.77622256  1
  Mo  Mo3  1  0.30988411  0.62835253  0.50223062  1
  Mo  Mo4  1  0.62835253  0.50223062  0.30988411  1
  Mo  Mo5  1  0.00223062  0.12835253  0.80988411  1
  Mo  Mo6  1  0.69011589  0.37164747  0.49776938  1
  Mo  Mo7  1  0.25000000  0.41067365  0.08932635  1
  Mo  Mo8  1  0.45607338  0.27622256  0.13439548  1
  Mo  Mo9  1  0.80988411  0.00223062  0.12835253  1
  Mo  Mo10  1  0.36560452  0.22377744  0.04392662  1
  Mo  Mo11  1  0.12835253  0.80988411  0.00223062  1
  Mo  Mo12  1  0.75000000  0.58932635  0.91067365  1
  Mo  Mo13  1  0.08932635  0.25000000  0.41067365  1
  Mo  Mo14  1  0.77622256  0.95607338  0.63439548  1
  Mo  Mo15  1  0.87164747  0.19011589  0.99776938  1
  Mo  Mo16  1  0.50223062  0.30988411  0.62835253  1
  Mo  Mo17  1  0.41067365  0.08932635  0.25000000  1
  Mo  Mo18  1  0.13439548  0.45607338  0.27622256  1
  Mo  Mo19  1  0.27622256  0.13439548  0.45607338  1
  Mo  Mo20  1  0.63439548  0.77622256  0.95607338  1
  Mo  Mo21  1  0.86560452  0.54392662  0.72377744  1
  Mo  Mo22  1  0.54392662  0.72377744  0.86560452  1
  Mo  Mo23  1  0.37164747  0.49776938  0.69011589  1
  Mo  Mo24  1  0.99776938  0.87164747  0.19011589  1
  Mo  Mo25  1  0.04392662  0.36560452  0.22377744  1
  Mo  Mo26  1  0.22377744  0.04392662  0.36560452  1
  Mo  Mo27  1  0.58932635  0.91067365  0.75000000  1
  Mo  Mo28  1  0.49776938  0.69011589  0.37164747  1
  Mo  Mo29  1  0.72377744  0.86560452  0.54392662  1
  Se  Se30  1  0.68875577  0.05294897  0.30627772  1
  Se  Se31  1  0.44705103  0.81124423  0.19372228  1
  Se  Se32  1  0.80627772  0.55294897  0.18875577  1
  Se  Se33  1  0.46124274  0.08048577  0.81394353  1
  Se  Se34  1  0.19372228  0.44705103  0.81124423  1
  Se  Se35  1  0.55294897  0.18875577  0.80627772  1
  Se  Se36  1  0.17717397  0.17717397  0.17717397  1
  Se  Se37  1  0.30627772  0.68875577  0.05294897  1
  Se  Se38  1  0.41951423  0.03875726  0.68605647  1
  Se  Se39  1  0.53875726  0.91951423  0.18605647  1
  Se  Se40  1  0.68605647  0.41951423  0.03875726  1
  Se  Se41  1  0.75000000  0.05977042  0.44022958  1
  Se  Se42  1  0.94705103  0.69372228  0.31124423  1
  Se  Se43  1  0.31124423  0.94705103  0.69372228  1
  Se  Se44  1  0.67717397  0.67717397  0.67717397  1
  Se  Se45  1  0.05294897  0.30627772  0.68875577  1
  Se  Se46  1  0.18605647  0.53875726  0.91951423  1
  Se  Se47  1  0.82282603  0.82282603  0.82282603  1
  Se  Se48  1  0.05977042  0.44022958  0.75000000  1
  Se  Se49  1  0.05388385  0.05388385  0.05388385  1
  Se  Se50  1  0.81124423  0.19372228  0.44705103  1
  Se  Se51  1  0.18875577  0.80627772  0.55294897  1
  Se  Se52  1  0.08048577  0.81394353  0.46124274  1
  Se  Se53  1  0.81394353  0.46124274  0.08048577  1
  Se  Se54  1  0.25000000  0.94022958  0.55977042  1
  Se  Se55  1  0.44611615  0.44611615  0.44611615  1
  Se  Se56  1  0.69372228  0.31124423  0.94705103  1
  Se  Se57  1  0.55977042  0.25000000  0.94022958  1
  Se  Se58  1  0.03875726  0.68605647  0.41951423  1
  Se  Se59  1  0.44022958  0.75000000  0.05977042  1
  Se  Se60  1  0.91951423  0.18605647  0.53875726  1
  Se  Se61  1  0.32282603  0.32282603  0.32282603  1
  Se  Se62  1  0.31394353  0.58048577  0.96124274  1
  Se  Se63  1  0.58048577  0.96124274  0.31394353  1
  Se  Se64  1  0.55388385  0.55388385  0.55388385  1
  Se  Se65  1  0.94022958  0.55977042  0.25000000  1
  Se  Se66  1  0.96124274  0.31394353  0.58048577  1
  Se  Se67  1  0.94611615  0.94611615  0.94611615  1
