# generated using pymatgen
data_HgH10C3Br3N
_symmetry_space_group_name_H-M   'P 1'
_cell_length_a   8.31684415
_cell_length_b   9.07656659
_cell_length_c   14.92407389
_cell_angle_alpha   90.00000000
_cell_angle_beta   90.00000000
_cell_angle_gamma   91.21376675
_symmetry_Int_Tables_number   1
_chemical_formula_structural   HgH10C3Br3N
_chemical_formula_sum   'Hg4 H40 C12 Br12 N4'
_cell_volume   1126.34152347
_cell_formula_units_Z   4
loop_
 _symmetry_equiv_pos_site_id
 _symmetry_equiv_pos_as_xyz
  1  'x, y, z'
loop_
 _atom_site_type_symbol
 _atom_site_label
 _atom_site_symmetry_multiplicity
 _atom_site_fract_x
 _atom_site_fract_y
 _atom_site_fract_z
 _atom_site_occupancy
  Hg  Hg0  1  0.65327792  0.26657162  0.21432402  1
  Hg  Hg1  1  0.15327792  0.26657162  0.28567598  1
  Hg  Hg2  1  0.84672208  0.73342838  0.71432402  1
  Hg  Hg3  1  0.34672208  0.73342838  0.78567598  1
  H  H4  1  0.86432585  0.09347309  0.47505956  1
  H  H5  1  0.98151814  0.21630074  0.60585063  1
  H  H6  1  0.80708240  0.96386319  0.04097760  1
  H  H7  1  0.16593883  0.13862923  0.06132411  1
  H  H8  1  0.13567415  0.90652691  0.52494044  1
  H  H9  1  0.01648782  0.32435021  0.98375401  1
  H  H10  1  0.53857412  0.23202786  0.62189575  1
  H  H11  1  0.69521348  0.65763907  0.00687477  1
  H  H12  1  0.96142588  0.76797214  0.12189575  1
  H  H13  1  0.33406117  0.86137077  0.56132411  1
  H  H14  1  0.63567415  0.90652691  0.97505956  1
  H  H15  1  0.68991803  0.83639531  0.17308252  1
  H  H16  1  0.51648782  0.32435021  0.51624599  1
  H  H17  1  0.31008197  0.16360469  0.82691748  1
  H  H18  1  0.19521348  0.65763907  0.49312523  1
  H  H19  1  0.03857412  0.23202786  0.87810425  1
  H  H20  1  0.18991803  0.83639531  0.32691748  1
  H  H21  1  0.30708240  0.96386319  0.45902240  1
  H  H22  1  0.46142588  0.76797214  0.37810425  1
  H  H23  1  0.10477480  0.42078826  0.89027036  1
  H  H24  1  0.48151814  0.21630074  0.89414937  1
  H  H25  1  0.48351218  0.67564979  0.48375401  1
  H  H26  1  0.01848186  0.78369926  0.39414937  1
  H  H27  1  0.19291760  0.03613681  0.95902240  1
  H  H28  1  0.60477480  0.42078826  0.60972964  1
  H  H29  1  0.89522520  0.57921174  0.10972964  1
  H  H30  1  0.66593883  0.13862923  0.43867589  1
  H  H31  1  0.81008197  0.16360469  0.67308252  1
  H  H32  1  0.98351218  0.67564979  0.01624599  1
  H  H33  1  0.12982195  0.64551578  0.33633745  1
  H  H34  1  0.51848186  0.78369926  0.10585063  1
  H  H35  1  0.87017805  0.35448422  0.66366255  1
  H  H36  1  0.69291760  0.03613681  0.54097760  1
  H  H37  1  0.62982195  0.64551578  0.16366255  1
  H  H38  1  0.30478652  0.34236093  0.99312523  1
  H  H39  1  0.36432585  0.09347309  0.02494044  1
  H  H40  1  0.83406117  0.86137077  0.93867589  1
  H  H41  1  0.80478652  0.34236093  0.50687477  1
  H  H42  1  0.39522520  0.57921174  0.39027036  1
  H  H43  1  0.37017805  0.35448422  0.83633745  1
  C  C44  1  0.13767781  0.75165347  0.37111479  1
  C  C45  1  0.63767781  0.75165347  0.12888521  1
  C  C46  1  0.74337479  0.12219565  0.49704689  1
  C  C47  1  0.86232219  0.24834653  0.62888521  1
  C  C48  1  0.90842885  0.68591894  0.07612325  1
  C  C49  1  0.75662521  0.87780435  0.99704689  1
  C  C50  1  0.24337479  0.12219565  0.00295311  1
  C  C51  1  0.25662521  0.87780435  0.50295311  1
  C  C52  1  0.40842885  0.68591894  0.42387675  1
  C  C53  1  0.09157115  0.31408106  0.92387675  1
  C  C54  1  0.59157115  0.31408106  0.57612325  1
  C  C55  1  0.36232219  0.24834653  0.87111479  1
  Br  Br56  1  0.43540164  0.06449606  0.26929462  1
  Br  Br57  1  0.24999645  0.45718804  0.16657209  1
  Br  Br58  1  0.56459836  0.93550394  0.73070538  1
  Br  Br59  1  0.74999645  0.45718804  0.33342791  1
  Br  Br60  1  0.82931798  0.68085727  0.54352965  1
  Br  Br61  1  0.67068202  0.31914273  0.04352965  1
  Br  Br62  1  0.32931798  0.68085727  0.95647035  1
  Br  Br63  1  0.17068202  0.31914273  0.45647035  1
  Br  Br64  1  0.25000355  0.54281196  0.66657209  1
  Br  Br65  1  0.93540164  0.06449606  0.23070538  1
  Br  Br66  1  0.06459836  0.93550394  0.76929462  1
  Br  Br67  1  0.75000355  0.54281196  0.83342791  1
  N  N68  1  0.25461317  0.26297921  0.95089959  1
  N  N69  1  0.74538683  0.73702079  0.04910041  1
  N  N70  1  0.24538683  0.73702079  0.45089959  1
  N  N71  1  0.75461317  0.26297921  0.54910041  1
