# generated using pymatgen
data_Na2Bi5AuO11
_symmetry_space_group_name_H-M   'P 1'
_cell_length_a   3.91805048
_cell_length_b   12.49570468
_cell_length_c   12.49570468
_cell_angle_alpha   90.00000000
_cell_angle_beta   90.00000000
_cell_angle_gamma   90.00000000
_symmetry_Int_Tables_number   1
_chemical_formula_structural   Na2Bi5AuO11
_chemical_formula_sum   'Na4 Bi10 Au2 O22'
_cell_volume   611.77472777
_cell_formula_units_Z   2
loop_
 _symmetry_equiv_pos_site_id
 _symmetry_equiv_pos_as_xyz
  1  'x, y, z'
loop_
 _atom_site_type_symbol
 _atom_site_label
 _atom_site_symmetry_multiplicity
 _atom_site_fract_x
 _atom_site_fract_y
 _atom_site_fract_z
 _atom_site_occupancy
  Na  Na0  1  0.00000000  0.20392086  0.29607914  1
  Na  Na1  1  0.00000000  0.70392086  0.20392086  1
  Na  Na2  1  0.00000000  0.29607914  0.79607914  1
  Na  Na3  1  0.00000000  0.79607914  0.70392086  1
  Bi  Bi4  1  0.50000000  0.73054844  0.45060680  1
  Bi  Bi5  1  0.50000000  0.23054844  0.04939320  1
  Bi  Bi6  1  0.50000000  0.76945156  0.95060680  1
  Bi  Bi7  1  0.50000000  0.26945156  0.54939320  1
  Bi  Bi8  1  0.50000000  0.45060680  0.26945156  1
  Bi  Bi9  1  0.50000000  0.04939320  0.76945156  1
  Bi  Bi10  1  0.50000000  0.54939320  0.73054844  1
  Bi  Bi11  1  0.00000000  0.00000000  0.50000000  1
  Bi  Bi12  1  0.00000000  0.50000000  0.00000000  1
  Bi  Bi13  1  0.50000000  0.95060680  0.23054844  1
  Au  Au14  1  0.00000000  0.00000000  0.00000000  1
  Au  Au15  1  0.00000000  0.50000000  0.50000000  1
  O  O16  1  0.00000000  0.17153348  0.49670384  1
  O  O17  1  0.00000000  0.62220197  0.39124652  1
  O  O18  1  0.00000000  0.49670384  0.82846652  1
  O  O19  1  0.00000000  0.10875348  0.87779803  1
  O  O20  1  0.00000000  0.50329616  0.17153348  1
  O  O21  1  0.50000000  0.78824819  0.28824819  1
  O  O22  1  0.50000000  0.28824819  0.21175181  1
  O  O23  1  0.00000000  0.99670384  0.67153348  1
  O  O24  1  0.00000000  0.87779803  0.89124652  1
  O  O25  1  0.50000000  0.71175181  0.78824819  1
  O  O26  1  0.00000000  0.82846652  0.50329616  1
  O  O27  1  0.00000000  0.37779803  0.60875348  1
  O  O28  1  0.00000000  0.89124652  0.12220197  1
  O  O29  1  0.50000000  0.50000000  0.00000000  1
  O  O30  1  0.00000000  0.39124652  0.37779803  1
  O  O31  1  0.00000000  0.67153348  0.00329616  1
  O  O32  1  0.00000000  0.32846652  0.99670384  1
  O  O33  1  0.50000000  0.21175181  0.71175181  1
  O  O34  1  0.00000000  0.12220197  0.10875348  1
  O  O35  1  0.50000000  0.00000000  0.50000000  1
  O  O36  1  0.00000000  0.00329616  0.32846652  1
  O  O37  1  0.00000000  0.60875348  0.62220197  1
