# generated using pymatgen
data_Zn2In2S5
_symmetry_space_group_name_H-M   'P 1'
_cell_length_a   3.92144630
_cell_length_b   3.92144648
_cell_length_c   31.04520488
_cell_angle_alpha   90.00000000
_cell_angle_beta   90.00000000
_cell_angle_gamma   119.99999851
_symmetry_Int_Tables_number   1
_chemical_formula_structural   Zn2In2S5
_chemical_formula_sum   'Zn4 In4 S10'
_cell_volume   413.44498893
_cell_formula_units_Z   2
loop_
 _symmetry_equiv_pos_site_id
 _symmetry_equiv_pos_as_xyz
  1  'x, y, z'
loop_
 _atom_site_type_symbol
 _atom_site_label
 _atom_site_symmetry_multiplicity
 _atom_site_fract_x
 _atom_site_fract_y
 _atom_site_fract_z
 _atom_site_occupancy
  Zn  Zn0  1  0.33333300  0.66666700  0.30913838  1
  Zn  Zn1  1  0.66666700  0.33333300  0.80913838  1
  Zn  Zn2  1  0.66666700  0.33333300  0.06528913  1
  Zn  Zn3  1  0.33333300  0.66666700  0.56528913  1
  In  In4  1  0.33333300  0.66666700  0.91787224  1
  In  In5  1  0.00000000  0.00000000  0.18849089  1
  In  In6  1  0.00000000  0.00000000  0.68849089  1
  In  In7  1  0.66666700  0.33333300  0.41787224  1
  S  S8  1  0.66666700  0.33333300  0.33703236  1
  S  S9  1  0.33333300  0.66666700  0.04519185  1
  S  S10  1  0.33333300  0.66666700  0.45150121  1
  S  S11  1  0.33333300  0.66666700  0.23670596  1
  S  S12  1  0.66666700  0.33333300  0.14677798  1
  S  S13  1  0.66666700  0.33333300  0.95150121  1
  S  S14  1  0.33333300  0.66666700  0.83703236  1
  S  S15  1  0.33333300  0.66666700  0.64677798  1
  S  S16  1  0.66666700  0.33333300  0.73670596  1
  S  S17  1  0.66666700  0.33333300  0.54519185  1
