# generated using pymatgen
data_PWO5
_symmetry_space_group_name_H-M   'P 1'
_cell_length_a   5.42113868
_cell_length_b   12.50136243
_cell_length_c   13.29901189
_cell_angle_alpha   90.00000000
_cell_angle_beta   90.00000000
_cell_angle_gamma   90.00000000
_symmetry_Int_Tables_number   1
_chemical_formula_structural   PWO5
_chemical_formula_sum   'P8 W8 O40'
_cell_volume   901.29557250
_cell_formula_units_Z   8
loop_
 _symmetry_equiv_pos_site_id
 _symmetry_equiv_pos_as_xyz
  1  'x, y, z'
loop_
 _atom_site_type_symbol
 _atom_site_label
 _atom_site_symmetry_multiplicity
 _atom_site_fract_x
 _atom_site_fract_y
 _atom_site_fract_z
 _atom_site_occupancy
  P  P0  1  0.23474920  0.36832476  0.51986663  1
  P  P1  1  0.23474920  0.13167524  0.51986663  1
  P  P2  1  0.76525080  0.63167524  0.48013337  1
  P  P3  1  0.26525080  0.86832476  0.01986663  1
  P  P4  1  0.76525080  0.86832476  0.48013337  1
  P  P5  1  0.73474920  0.36832476  0.98013337  1
  P  P6  1  0.26525080  0.63167524  0.01986663  1
  P  P7  1  0.73474920  0.13167524  0.98013337  1
  W  W8  1  0.75657131  0.59843925  0.84844844  1
  W  W9  1  0.75657131  0.90156075  0.84844844  1
  W  W10  1  0.74342869  0.40156075  0.34844844  1
  W  W11  1  0.74342869  0.09843925  0.34844844  1
  W  W12  1  0.25657131  0.59843925  0.65155156  1
  W  W13  1  0.24342869  0.09843925  0.15155156  1
  W  W14  1  0.25657131  0.90156075  0.65155156  1
  W  W15  1  0.24342869  0.40156075  0.15155156  1
  O  O16  1  0.24979637  0.55997680  0.11309949  1
  O  O17  1  0.74979637  0.55997680  0.38690051  1
  O  O18  1  0.48629765  0.92302167  0.75591933  1
  O  O19  1  0.25054272  0.75000000  0.66805951  1
  O  O20  1  0.75054272  0.75000000  0.83194049  1
  O  O21  1  0.51506872  0.87957901  0.96812368  1
  O  O22  1  0.51370235  0.42302167  0.24408067  1
  O  O23  1  0.74714142  0.25000000  0.93236890  1
  O  O24  1  0.75285858  0.75000000  0.43236890  1
  O  O25  1  0.48493128  0.37957901  0.03187632  1
  O  O26  1  0.95375986  0.38280710  0.04937980  1
  O  O27  1  0.25020363  0.05997680  0.61309949  1
  O  O28  1  0.75020363  0.05997680  0.88690051  1
  O  O29  1  0.48629765  0.57697833  0.75591933  1
  O  O30  1  0.25285858  0.75000000  0.06763110  1
  O  O31  1  0.01506872  0.62042099  0.53187632  1
  O  O32  1  0.98629765  0.92302167  0.74408067  1
  O  O33  1  0.54624014  0.61719290  0.54937980  1
  O  O34  1  0.98629765  0.57697833  0.74408067  1
  O  O35  1  0.98493128  0.12042099  0.46812368  1
  O  O36  1  0.24945728  0.25000000  0.16805951  1
  O  O37  1  0.95375986  0.11719290  0.04937980  1
  O  O38  1  0.54624014  0.88280710  0.54937980  1
  O  O39  1  0.98493128  0.37957901  0.46812368  1
  O  O40  1  0.75020363  0.44002320  0.88690051  1
  O  O41  1  0.48493128  0.12042099  0.03187632  1
  O  O42  1  0.01506872  0.87957901  0.53187632  1
  O  O43  1  0.04624014  0.61719290  0.95062020  1
  O  O44  1  0.74979637  0.94002320  0.38690051  1
  O  O45  1  0.45375986  0.38280710  0.45062020  1
  O  O46  1  0.25020363  0.44002320  0.61309949  1
  O  O47  1  0.01370235  0.42302167  0.25591933  1
  O  O48  1  0.45375986  0.11719290  0.45062020  1
  O  O49  1  0.01370235  0.07697833  0.25591933  1
  O  O50  1  0.24979637  0.94002320  0.11309949  1
  O  O51  1  0.24714142  0.25000000  0.56763110  1
  O  O52  1  0.51370235  0.07697833  0.24408067  1
  O  O53  1  0.51506872  0.62042099  0.96812368  1
  O  O54  1  0.04624014  0.88280710  0.95062020  1
  O  O55  1  0.74945728  0.25000000  0.33194049  1
