# generated using pymatgen
data_Pb2O3
_symmetry_space_group_name_H-M   'P 1'
_cell_length_a   4.81279029
_cell_length_b   4.90332860
_cell_length_c   7.00916180
_cell_angle_alpha   90.00000000
_cell_angle_beta   90.82582251
_cell_angle_gamma   90.00000000
_symmetry_Int_Tables_number   1
_chemical_formula_structural   Pb2O3
_chemical_formula_sum   'Pb4 O6'
_cell_volume   165.38987133
_cell_formula_units_Z   2
loop_
 _symmetry_equiv_pos_site_id
 _symmetry_equiv_pos_as_xyz
  1  'x, y, z'
loop_
 _atom_site_type_symbol
 _atom_site_label
 _atom_site_symmetry_multiplicity
 _atom_site_fract_x
 _atom_site_fract_y
 _atom_site_fract_z
 _atom_site_occupancy
  Pb  Pb0  1  0.24920440  0.75000000  0.99573993  1
  Pb  Pb1  1  0.75079560  0.25000000  0.00426007  1
  Pb  Pb2  1  0.24378110  0.25000000  0.60724120  1
  Pb  Pb3  1  0.75621890  0.75000000  0.39275880  1
  O  O4  1  0.23936952  0.75000000  0.70606793  1
  O  O5  1  0.25053582  0.25000000  0.96061646  1
  O  O6  1  0.74946418  0.75000000  0.03938354  1
  O  O7  1  0.25544253  0.75000000  0.28535330  1
  O  O8  1  0.76063048  0.25000000  0.29393207  1
  O  O9  1  0.74455747  0.25000000  0.71464670  1
