# generated using pymatgen
data_Na2Cu5(Si2O7)2
_symmetry_space_group_name_H-M   'P 1'
_cell_length_a   5.82162594
_cell_length_b   7.89681283
_cell_length_c   8.11798125
_cell_angle_alpha   63.33077174
_cell_angle_beta   87.31459299
_cell_angle_gamma   69.24467651
_symmetry_Int_Tables_number   1
_chemical_formula_structural   Na2Cu5(Si2O7)2
_chemical_formula_sum   'Na2 Si4 Cu5 O14'
_cell_volume   309.03058204
_cell_formula_units_Z   1
loop_
 _symmetry_equiv_pos_site_id
 _symmetry_equiv_pos_as_xyz
  1  'x, y, z'
loop_
 _atom_site_type_symbol
 _atom_site_label
 _atom_site_symmetry_multiplicity
 _atom_site_fract_x
 _atom_site_fract_y
 _atom_site_fract_z
 _atom_site_occupancy
  Na  Na0  1  0.23260691  0.63134306  0.05807516  1
  Na  Na1  1  0.76739311  0.36865688  0.94192481  1
  Si  Si2  1  0.69283616  0.71389901  0.09135360  1
  Cu  Cu3  1  0.81257005  0.06767565  0.77247237  1
  Si  Si4  1  0.98619949  0.26127874  0.36496264  1
  Cu  Cu5  1  0.49999999  0.50000001  0.49999999  1
  Cu  Cu6  1  0.18742993  0.93232437  0.22752762  1
  Cu  Cu7  1  0.41656980  0.89624956  0.68112880  1
  Si  Si8  1  0.01380053  0.73872126  0.63503738  1
  Cu  Cu9  1  0.58343022  0.10375043  0.31887123  1
  Si  Si10  1  0.30716384  0.28610098  0.90864641  1
  O  O11  1  0.19443043  0.10856407  0.97079333  1
  O  O12  1  0.06178232  0.50384064  0.79412392  1
  O  O13  1  0.09107151  0.85887450  0.73329861  1
  O  O14  1  0.90892851  0.14112552  0.26670139  1
  O  O15  1  0.28162530  0.14481639  0.44914285  1
  O  O16  1  0.42141527  0.30406940  0.07727140  1
  O  O17  1  0.93821770  0.49615939  0.20587610  1
  O  O18  1  0.80556950  0.89143595  0.02920664  1
  O  O19  1  0.71837472  0.85518362  0.55085718  1
  O  O20  1  0.80830330  0.28057726  0.52357544  1
  O  O21  1  0.48768842  0.70362069  0.24198338  1
  O  O22  1  0.51231154  0.29637932  0.75801660  1
  O  O23  1  0.19169669  0.71942276  0.47642456  1
  O  O24  1  0.57858476  0.69593053  0.92272861  1
