# generated using pymatgen
data_MoH4O5
_symmetry_space_group_name_H-M   'P 1'
_cell_length_a   7.72918387
_cell_length_b   6.39339579
_cell_length_c   4.05172924
_cell_angle_alpha   90.01294826
_cell_angle_beta   89.87280029
_cell_angle_gamma   82.46023150
_symmetry_Int_Tables_number   1
_chemical_formula_structural   MoH4O5
_chemical_formula_sum   'Mo2 H8 O10'
_cell_volume   198.48755841
_cell_formula_units_Z   2
loop_
 _symmetry_equiv_pos_site_id
 _symmetry_equiv_pos_as_xyz
  1  'x, y, z'
loop_
 _atom_site_type_symbol
 _atom_site_label
 _atom_site_symmetry_multiplicity
 _atom_site_fract_x
 _atom_site_fract_y
 _atom_site_fract_z
 _atom_site_occupancy
  Mo  Mo0  1  0.73384482  0.00138064  0.95840108  1
  Mo  Mo1  1  0.24083035  0.97574047  0.08954182  1
  H  H2  1  0.12314587  0.54774492  0.49489900  1
  H  H3  1  0.90208672  0.60510162  0.23027391  1
  H  H4  1  0.94722367  0.57724376  0.70787112  1
  H  H5  1  0.57205643  0.40037807  0.50838983  1
  H  H6  1  0.44924566  0.57640170  0.70963720  1
  H  H7  1  0.39487868  0.61185427  0.21137341  1
  H  H8  1  0.73924187  0.55123180  0.00851848  1
  H  H9  1  0.25940979  0.41824217  0.01986309  1
  O  O10  1  0.01065274  0.97033268  0.02674606  1
  O  O11  1  0.51227873  0.94199989  0.01467053  1
  O  O12  1  0.00330096  0.51573437  0.50024212  1
  O  O13  1  0.52245119  0.54852176  0.50792513  1
  O  O14  1  0.75668707  0.97735345  0.52180190  1
  O  O15  1  0.25600748  0.95743912  0.52229510  1
  O  O16  1  0.70533905  0.27471615  0.01717344  1
  O  O17  1  0.82253792  0.65571430  0.02458912  1
  O  O18  1  0.29970796  0.65202944  0.03859866  1
  O  O19  1  0.24737404  0.26074443  0.02853900  1
