# generated using pymatgen
data_BiH24C6(I2N)3
_symmetry_space_group_name_H-M   'P 1'
_cell_length_a   18.48364183
_cell_length_b   18.48364200
_cell_length_c   18.48364196
_cell_angle_alpha   117.41487599
_cell_angle_beta   117.41487628
_cell_angle_gamma   117.41488049
_symmetry_Int_Tables_number   1
_chemical_formula_structural   BiH24C6(I2N)3
_chemical_formula_sum   'Bi4 H96 C24 I24 N12'
_cell_volume   2594.41735753
_cell_formula_units_Z   4
loop_
 _symmetry_equiv_pos_site_id
 _symmetry_equiv_pos_as_xyz
  1  'x, y, z'
loop_
 _atom_site_type_symbol
 _atom_site_label
 _atom_site_symmetry_multiplicity
 _atom_site_fract_x
 _atom_site_fract_y
 _atom_site_fract_z
 _atom_site_occupancy
  Bi  Bi0  1  0.50000000  0.00000000  0.00000000  1
  Bi  Bi1  1  0.50000000  0.50000000  0.50000000  1
  Bi  Bi2  1  0.00000000  0.00000000  0.50000000  1
  Bi  Bi3  1  0.00000000  0.50000000  0.00000000  1
  H  H4  1  0.45724965  0.07615805  0.32442477  1
  H  H5  1  0.74493163  0.78695780  0.56513409  1
  H  H6  1  0.82162376  0.87554678  0.56086706  1
  H  H7  1  0.30182169  0.88312695  0.54811524  1
  H  H8  1  0.50284322  0.66388027  0.06063325  1
  H  H9  1  0.54275035  0.92384195  0.67557523  1
  H  H10  1  0.81831275  0.01219897  0.04567913  1
  H  H11  1  0.13551566  0.75817219  0.62006554  1
  H  H12  1  0.24182781  0.37993446  0.86448434  1
  H  H13  1  0.35209308  0.58498492  0.12040438  1
  H  H14  1  0.58498492  0.12040438  0.35209308  1
  H  H15  1  0.68365828  0.44539588  0.08071860  1
  H  H16  1  0.89528003  0.01831750  0.80043334  1
  H  H17  1  0.43913294  0.17837624  0.12445322  1
  H  H18  1  0.52070166  0.61557583  0.80715304  1
  H  H19  1  0.42074601  0.51107305  0.03844988  1
  H  H20  1  0.18168725  0.98780103  0.95432087  1
  H  H21  1  0.70462231  0.37210847  0.56487365  1
  H  H22  1  0.19956666  0.10471997  0.98168250  1
  H  H23  1  0.09671499  0.48301849  0.29993782  1
  H  H24  1  0.64790692  0.41501508  0.87959562  1
  H  H25  1  0.11687305  0.45188476  0.69817831  1
  H  H26  1  0.20265025  0.02165047  0.88405615  1
  H  H27  1  0.98780103  0.95432087  0.18168725  1
  H  H28  1  0.21304220  0.43486591  0.25506837  1
  H  H29  1  0.29993782  0.09671499  0.48301849  1
  H  H30  1  0.54811524  0.30182169  0.88312694  1
  H  H31  1  0.92803352  0.16569019  0.37869331  1
  H  H32  1  0.37210847  0.56487365  0.70462231  1
  H  H33  1  0.80043334  0.89528003  0.01831750  1
  H  H34  1  0.16569019  0.37869331  0.92803352  1
  H  H35  1  0.11594385  0.79734975  0.97834953  1
  H  H36  1  0.55460412  0.91928140  0.31634172  1
  H  H37  1  0.49715678  0.33611973  0.93936675  1
  H  H38  1  0.10471997  0.98168250  0.19956666  1
  H  H39  1  0.43512635  0.29537769  0.62789153  1
  H  H40  1  0.43486591  0.25506837  0.21304220  1
  H  H41  1  0.12040438  0.35209308  0.58498492  1
  H  H42  1  0.03844988  0.42074601  0.51107305  1
  H  H43  1  0.01219897  0.04567913  0.81831275  1
  H  H44  1  0.31634172  0.55460412  0.91928140  1
  H  H45  1  0.95432087  0.18168725  0.98780103  1
  H  H46  1  0.75817219  0.62006554  0.13551566  1
  H  H47  1  0.91928140  0.31634172  0.55460412  1
  H  H48  1  0.06063325  0.50284322  0.66388027  1
  H  H49  1  0.45188476  0.69817831  0.11687306  1
  H  H50  1  0.66388027  0.06063325  0.50284322  1
  H  H51  1  0.87959562  0.64790692  0.41501508  1
  H  H52  1  0.97834953  0.11594385  0.79734975  1
  H  H53  1  0.02165047  0.88405615  0.20265025  1
  H  H54  1  0.37993446  0.86448434  0.24182781  1
  H  H55  1  0.51698151  0.70006218  0.90328501  1
  H  H56  1  0.80715304  0.52070166  0.61557583  1
  H  H57  1  0.38442417  0.19284696  0.47929834  1
  H  H58  1  0.04567913  0.81831275  0.01219897  1
  H  H59  1  0.32442477  0.45724965  0.07615805  1
  H  H60  1  0.92384195  0.67557523  0.54275035  1
  H  H61  1  0.08071860  0.68365828  0.44539588  1
  H  H62  1  0.56513409  0.74493163  0.78695780  1
  H  H63  1  0.41501508  0.87959562  0.64790692  1
  H  H64  1  0.47929834  0.38442417  0.19284696  1
  H  H65  1  0.86448434  0.24182781  0.37993446  1
  H  H66  1  0.17837624  0.12445322  0.43913294  1
  H  H67  1  0.88312695  0.54811524  0.30182169  1
  H  H68  1  0.62006554  0.13551566  0.75817219  1
  H  H69  1  0.88405615  0.20265025  0.02165047  1
  H  H70  1  0.51107305  0.03844988  0.42074601  1
  H  H71  1  0.69817831  0.11687305  0.45188476  1
  H  H72  1  0.61557583  0.80715304  0.52070166  1
  H  H73  1  0.29537769  0.62789153  0.43512635  1
  H  H74  1  0.78695780  0.56513409  0.74493163  1
  H  H75  1  0.37869331  0.92803352  0.16569019  1
  H  H76  1  0.79734975  0.97834953  0.11594385  1
  H  H77  1  0.67557523  0.54275035  0.92384195  1
  H  H78  1  0.12445322  0.43913294  0.17837624  1
  H  H79  1  0.87554678  0.56086706  0.82162376  1
  H  H80  1  0.44539588  0.08071860  0.68365828  1
  H  H81  1  0.70006218  0.90328501  0.51698151  1
  H  H82  1  0.62789153  0.43512635  0.29537769  1
  H  H83  1  0.01831750  0.80043334  0.89528003  1
  H  H84  1  0.25506837  0.21304220  0.43486591  1
  H  H85  1  0.07615805  0.32442477  0.45724965  1
  H  H86  1  0.90328501  0.51698151  0.70006218  1
  H  H87  1  0.83430981  0.62130669  0.07196648  1
  H  H88  1  0.33611973  0.93936675  0.49715678  1
  H  H89  1  0.07196648  0.83430981  0.62130669  1
  H  H90  1  0.19284696  0.47929834  0.38442417  1
  H  H91  1  0.62130669  0.07196648  0.83430981  1
  H  H92  1  0.48301849  0.29993782  0.09671499  1
  H  H93  1  0.98168250  0.19956666  0.10471997  1
  H  H94  1  0.93936675  0.49715678  0.33611973  1
  H  H95  1  0.57925399  0.48892695  0.96155012  1
  H  H96  1  0.56086706  0.82162376  0.87554678  1
  H  H97  1  0.48892695  0.96155012  0.57925399  1
  H  H98  1  0.56487365  0.70462231  0.37210847  1
  H  H99  1  0.96155012  0.57925399  0.48892695  1
  C  C100  1  0.40750028  0.61028262  0.02319170  1
  C  C101  1  0.34222555  0.18099672  0.50572377  1
  C  C102  1  0.96905696  0.70794781  0.52319921  1
  C  C103  1  0.65777445  0.81900328  0.49427623  1
  C  C104  1  0.07149403  0.97525358  0.23479455  1
  C  C105  1  0.52319921  0.96905696  0.70794781  1
  C  C106  1  0.03094304  0.29205219  0.47680079  1
  C  C107  1  0.97680830  0.59249972  0.38971738  1
  C  C108  1  0.47680079  0.03094304  0.29205219  1
  C  C109  1  0.29205219  0.47680079  0.03094304  1
  C  C110  1  0.61028262  0.02319170  0.40750028  1
  C  C111  1  0.49427623  0.65777444  0.81900328  1
  C  C112  1  0.70794781  0.52319921  0.96905696  1
  C  C113  1  0.38971738  0.97680830  0.59249972  1
  C  C114  1  0.02319170  0.40750028  0.61028262  1
  C  C115  1  0.18099672  0.50572377  0.34222555  1
  C  C116  1  0.76520545  0.92850597  0.02474642  1
  C  C117  1  0.59249972  0.38971738  0.97680830  1
  C  C118  1  0.02474642  0.76520545  0.92850597  1
  C  C119  1  0.23479455  0.07149403  0.97525358  1
  C  C120  1  0.92850597  0.02474642  0.76520545  1
  C  C121  1  0.50572377  0.34222556  0.18099672  1
  C  C122  1  0.81900328  0.49427623  0.65777445  1
  C  C123  1  0.97525358  0.23479455  0.07149403  1
  I  I124  1  0.70487521  0.29715175  0.32341718  1
  I  I125  1  0.91436581  0.10438158  0.55897164  1
  I  I126  1  0.78096787  0.68172408  0.61622329  1
  I  I127  1  0.80240439  0.20271949  0.15325259  1
  I  I128  1  0.67658282  0.29512479  0.70284825  1
  I  I129  1  0.89561842  0.44102836  0.08563419  1
  I  I130  1  0.29512479  0.70284825  0.67658282  1
  I  I131  1  0.55897164  0.91436581  0.10438158  1
  I  I132  1  0.21903213  0.31827592  0.38377671  1
  I  I133  1  0.10438158  0.55897164  0.91436581  1
  I  I134  1  0.29715175  0.32341718  0.70487521  1
  I  I135  1  0.84674741  0.19759561  0.79728051  1
  I  I136  1  0.20271949  0.15325259  0.80240439  1
  I  I137  1  0.68172408  0.61622329  0.78096787  1
  I  I138  1  0.15325259  0.80240439  0.20271949  1
  I  I139  1  0.70284825  0.67658282  0.29512479  1
  I  I140  1  0.31827592  0.38377671  0.21903213  1
  I  I141  1  0.79728051  0.84674741  0.19759561  1
  I  I142  1  0.61622329  0.78096787  0.68172408  1
  I  I143  1  0.38377671  0.21903213  0.31827592  1
  I  I144  1  0.32341718  0.70487521  0.29715175  1
  I  I145  1  0.44102836  0.08563419  0.89561842  1
  I  I146  1  0.19759561  0.79728051  0.84674741  1
  I  I147  1  0.08563419  0.89561842  0.44102836  1
  N  N148  1  0.40758161  0.21230102  0.12857623  1
  N  N149  1  0.65990668  0.51116532  0.01500090  1
  N  N150  1  0.34009332  0.48883468  0.98499910  1
  N  N151  1  0.48883468  0.98499910  0.34009332  1
  N  N152  1  0.98499910  0.34009332  0.48883468  1
  N  N153  1  0.21230102  0.12857623  0.40758161  1
  N  N154  1  0.78769898  0.87142377  0.59241839  1
  N  N155  1  0.87142377  0.59241839  0.78769898  1
  N  N156  1  0.59241839  0.78769898  0.87142377  1
  N  N157  1  0.12857623  0.40758161  0.21230102  1
  N  N158  1  0.51116532  0.01500090  0.65990668  1
  N  N159  1  0.01500090  0.65990668  0.51116532  1
