# generated using pymatgen
data_Al(HO)3
_symmetry_space_group_name_H-M   'P 1'
_cell_length_a   8.68240158
_cell_length_b   5.17990507
_cell_length_c   9.53086293
_cell_angle_alpha   90.00000000
_cell_angle_beta   88.58365558
_cell_angle_gamma   90.00000000
_symmetry_Int_Tables_number   1
_chemical_formula_structural   Al(HO)3
_chemical_formula_sum   'Al8 H24 O24'
_cell_volume   428.51022275
_cell_formula_units_Z   8
loop_
 _symmetry_equiv_pos_site_id
 _symmetry_equiv_pos_as_xyz
  1  'x, y, z'
loop_
 _atom_site_type_symbol
 _atom_site_label
 _atom_site_symmetry_multiplicity
 _atom_site_fract_x
 _atom_site_fract_y
 _atom_site_fract_z
 _atom_site_occupancy
  Al  Al0  1  0.32557146  0.00622306  0.51418110  1
  Al  Al1  1  0.82557146  0.49377694  0.01418110  1
  Al  Al2  1  0.68904142  0.98386109  0.49862105  1
  Al  Al3  1  0.18904142  0.51613891  0.99862105  1
  Al  Al4  1  0.16867134  0.51969586  0.50763392  1
  Al  Al5  1  0.66867134  0.98030414  0.00763392  1
  Al  Al6  1  0.82817288  0.49823778  0.48933741  1
  Al  Al7  1  0.32817288  0.00176222  0.98933741  1
  H  H8  1  0.31229811  0.70006541  0.72418964  1
  H  H9  1  0.81229811  0.79993459  0.22418964  1
  H  H10  1  0.70630483  0.26862027  0.29359626  1
  H  H11  1  0.20630483  0.23137973  0.79359626  1
  H  H12  1  0.81198234  0.19135906  0.70865651  1
  H  H13  1  0.31198234  0.30864094  0.20865651  1
  H  H14  1  0.07821772  0.91034453  0.38579938  1
  H  H15  1  0.57821772  0.58965547  0.88579938  1
  H  H16  1  0.95922185  0.82731170  0.60466179  1
  H  H17  1  0.45922185  0.67268830  0.10466179  1
  H  H18  1  0.01426950  0.41669968  0.29929320  1
  H  H19  1  0.51426950  0.08330032  0.79929320  1
  H  H20  1  0.50930273  0.30172292  0.61937033  1
  H  H21  1  0.00930273  0.19827708  0.11937033  1
  H  H22  1  0.50448932  0.67075737  0.41524681  1
  H  H23  1  0.49084958  0.85828869  0.27225327  1
  H  H24  1  0.00448932  0.82924263  0.91524681  1
  H  H25  1  0.99084958  0.64171131  0.77225327  1
  H  H26  1  0.08019393  0.13197266  0.63243373  1
  H  H27  1  0.58019393  0.36802734  0.13243373  1
  H  H28  1  0.67997729  0.67952772  0.70368224  1
  H  H29  1  0.17997729  0.82047228  0.20368224  1
  H  H30  1  0.44097498  0.35381759  0.39439029  1
  H  H31  1  0.94097498  0.14618241  0.89439029  1
  O  O32  1  0.30598813  0.70264399  0.61387698  1
  O  O33  1  0.80598813  0.79735601  0.11387698  1
  O  O34  1  0.68036180  0.29344158  0.39495210  1
  O  O35  1  0.18036180  0.20655842  0.89495210  1
  O  O36  1  0.83153831  0.17371923  0.60664709  1
  O  O37  1  0.33153831  0.32628077  0.10664709  1
  O  O38  1  0.18031930  0.83144354  0.39584348  1
  O  O39  1  0.68031930  0.66855646  0.89584348  1
  O  O40  1  0.98695129  0.64636523  0.62396734  1
  O  O41  1  0.48695129  0.85363477  0.12396734  1
  O  O42  1  0.01219548  0.37807661  0.40074715  1
  O  O43  1  0.51219548  0.12192339  0.90074715  1
  O  O44  1  0.50509252  0.11368571  0.61071374  1
  O  O45  1  0.00509252  0.38631429  0.11071374  1
  O  O46  1  0.49317910  0.85103517  0.38698363  1
  O  O47  1  0.99317910  0.64896483  0.88698363  1
  O  O48  1  0.18178641  0.21193359  0.61803075  1
  O  O49  1  0.68178641  0.28806641  0.11803075  1
  O  O50  1  0.81714940  0.79642944  0.38512406  1
  O  O51  1  0.31714940  0.70357056  0.88512406  1
  O  O52  1  0.67296907  0.66883371  0.60115232  1
  O  O53  1  0.17296907  0.83116629  0.10115232  1
  O  O54  1  0.33074789  0.31465982  0.40050544  1
  O  O55  1  0.83074789  0.18534018  0.90050544  1
