# generated using pymatgen
data_Al(HO)3
_symmetry_space_group_name_H-M   'P 1'
_cell_length_a   8.59706116
_cell_length_b   5.18167569
_cell_length_c   9.49889221
_cell_angle_alpha   90.08403843
_cell_angle_beta   89.03623182
_cell_angle_gamma   90.11482926
_symmetry_Int_Tables_number   1
_chemical_formula_structural   Al(HO)3
_chemical_formula_sum   'Al8 H24 O24'
_cell_volume   423.08774132
_cell_formula_units_Z   8
loop_
 _symmetry_equiv_pos_site_id
 _symmetry_equiv_pos_as_xyz
  1  'x, y, z'
loop_
 _atom_site_type_symbol
 _atom_site_label
 _atom_site_symmetry_multiplicity
 _atom_site_fract_x
 _atom_site_fract_y
 _atom_site_fract_z
 _atom_site_occupancy
  Al  Al0  1  0.33859168  0.01288183  0.50575280  1
  Al  Al1  1  0.81765397  0.49090450  0.01516878  1
  Al  Al2  1  0.68491361  0.00420854  0.48373126  1
  Al  Al3  1  0.16174247  0.51457520  0.00122501  1
  Al  Al4  1  0.16609286  0.48957634  0.50701483  1
  Al  Al5  1  0.68390077  0.00024345  0.00665756  1
  Al  Al6  1  0.83399279  0.50653184  0.48690843  1
  Al  Al7  1  0.32347563  0.02390078  0.99516276  1
  H  H8  1  0.41788711  0.61796197  0.61531300  1
  H  H9  1  0.81570399  0.80650811  0.23001103  1
  H  H10  1  0.68618747  0.30305785  0.27065467  1
  H  H11  1  0.06342413  0.15242939  0.88332954  1
  H  H12  1  0.92422584  0.08002759  0.59706853  1
  H  H13  1  0.31279727  0.32365645  0.20621854  1
  H  H14  1  0.05534495  0.89999359  0.40226581  1
  H  H15  1  0.17804055  0.83018941  0.27839063  1
  H  H16  1  0.68105007  0.67811470  0.80065935  1
  H  H17  1  0.99255748  0.61145106  0.70946503  1
  H  H18  1  0.48669852  0.87381787  0.22694435  1
  H  H19  1  0.47511000  0.65532187  0.10146768  1
  H  H20  1  0.01257416  0.38568434  0.28795464  1
  H  H21  1  0.51916196  0.32029508  0.90555506  1
  H  H22  1  0.51497607  0.10522800  0.70621192  1
  H  H23  1  0.98201694  0.18476424  0.12195146  1
  H  H24  1  0.52449468  0.68233098  0.38670425  1
  H  H25  1  0.96582518  0.81697707  0.88904817  1
  H  H26  1  0.19334327  0.19681740  0.71293122  1
  H  H27  1  0.30100599  0.71590425  0.79559420  1
  H  H28  1  0.60493738  0.48832501  0.61310650  1
  H  H29  1  0.04708744  0.85733146  0.12104963  1
  H  H30  1  0.44495705  0.36072259  0.38386400  1
  H  H31  1  0.82411566  0.17569747  0.78923031  1
  O  O32  1  0.31535094  0.69550639  0.60378185  1
  O  O33  1  0.82178838  0.80669443  0.11890353  1
  O  O34  1  0.67720408  0.31545648  0.38194125  1
  O  O35  1  0.17416767  0.20667348  0.88773703  1
  O  O36  1  0.82444253  0.17030335  0.60396210  1
  O  O37  1  0.31588447  0.33095654  0.10144930  1
  O  O38  1  0.16676538  0.84130719  0.38848383  1
  O  O39  1  0.67555405  0.67992493  0.90553841  1
  O  O40  1  0.99994831  0.62834525  0.60600651  1
  O  O41  1  0.48008274  0.84534085  0.11657603  1
  O  O42  1  0.01320049  0.36822802  0.39210570  1
  O  O43  1  0.50416380  0.13299256  0.89416245  1
  O  O44  1  0.51299416  0.12658858  0.60197393  1
  O  O45  1  0.99841636  0.37092242  0.11436588  1
  O  O46  1  0.49634752  0.86518287  0.37919745  1
  O  O47  1  0.98983147  0.63266845  0.89589115  1
  O  O48  1  0.18896129  0.18739910  0.60824329  1
  O  O49  1  0.68243617  0.29007031  0.11248469  1
  O  O50  1  0.82404177  0.80919823  0.38861725  1
  O  O51  1  0.30727467  0.71198661  0.89896379  1
  O  O52  1  0.67278883  0.64214439  0.60978884  1
  O  O53  1  0.16187551  0.82609823  0.11963242  1
  O  O54  1  0.33241181  0.31695890  0.38914260  1
  O  O55  1  0.84141068  0.16208220  0.89305076  1
