# generated using pymatgen
data_H4Pb(CO3)2
_symmetry_space_group_name_H-M   'P 1'
_cell_length_a   7.84958522
_cell_length_b   8.17656727
_cell_length_c   9.33779732
_cell_angle_alpha   89.99965322
_cell_angle_beta   90.00014391
_cell_angle_gamma   90.00015849
_symmetry_Int_Tables_number   1
_chemical_formula_structural   H4Pb(CO3)2
_chemical_formula_sum   'H16 Pb4 C8 O24'
_cell_volume   599.32468541
_cell_formula_units_Z   4
loop_
 _symmetry_equiv_pos_site_id
 _symmetry_equiv_pos_as_xyz
  1  'x, y, z'
loop_
 _atom_site_type_symbol
 _atom_site_label
 _atom_site_symmetry_multiplicity
 _atom_site_fract_x
 _atom_site_fract_y
 _atom_site_fract_z
 _atom_site_occupancy
  H  H0  1  0.84895637  0.05173630  0.17876745  1
  H  H1  1  0.65114615  0.31265643  0.41355909  1
  H  H2  1  0.65104423  0.05173611  0.17876675  1
  H  H3  1  0.84895575  0.44826424  0.67876733  1
  H  H4  1  0.34885456  0.68734360  0.58644037  1
  H  H5  1  0.34895650  0.55173634  0.32123214  1
  H  H6  1  0.15104396  0.55173619  0.32123185  1
  H  H7  1  0.34895589  0.94826373  0.82123292  1
  H  H8  1  0.15114503  0.81265447  0.08643737  1
  H  H9  1  0.65104380  0.44826398  0.67876692  1
  H  H10  1  0.65114604  0.18734523  0.91356179  1
  H  H11  1  0.84885468  0.18734586  0.91356184  1
  H  H12  1  0.15104312  0.94826361  0.82123231  1
  H  H13  1  0.84885453  0.31265622  0.41355928  1
  H  H14  1  0.34885424  0.81265484  0.08643731  1
  H  H15  1  0.15114549  0.68734360  0.58644036  1
  Pb  Pb16  1  0.75000031  0.47786456  0.10490141  1
  Pb  Pb17  1  0.24999954  0.52213729  0.89509873  1
  Pb  Pb18  1  0.24999861  0.97785586  0.39510252  1
  Pb  Pb19  1  0.75000025  0.02214266  0.60489971  1
  C  C20  1  0.15085749  0.26019920  0.64309474  1
  C  C21  1  0.34914209  0.23979848  0.14309881  1
  C  C22  1  0.15085864  0.23979681  0.14309732  1
  C  C23  1  0.65087637  0.76020065  0.85690121  1
  C  C24  1  0.84913188  0.73980115  0.35690535  1
  C  C25  1  0.84912226  0.76020325  0.85690370  1
  C  C26  1  0.65086807  0.73980043  0.35690469  1
  C  C27  1  0.34914238  0.26020021  0.64309436  1
  O  O28  1  0.07565390  0.15917544  0.56153774  1
  O  O29  1  0.24999962  0.76775992  0.13661103  1
  O  O30  1  0.75000029  0.26776236  0.36338584  1
  O  O31  1  0.07589458  0.36286436  0.72305852  1
  O  O32  1  0.25000024  0.73223756  0.63661359  1
  O  O33  1  0.57589402  0.63713376  0.27694080  1
  O  O34  1  0.25000012  0.50067441  0.36768062  1
  O  O35  1  0.74999993  0.49932607  0.63231889  1
  O  O36  1  0.07565415  0.34082015  0.06154283  1
  O  O37  1  0.24999981  0.99932734  0.86767857  1
  O  O38  1  0.07589376  0.13713288  0.22306309  1
  O  O39  1  0.57565375  0.84082288  0.43846295  1
  O  O40  1  0.92410824  0.86287048  0.77693674  1
  O  O41  1  0.57589053  0.86287155  0.77693806  1
  O  O42  1  0.42434575  0.34081839  0.06154168  1
  O  O43  1  0.75000027  0.23224006  0.86338805  1
  O  O44  1  0.92410815  0.63713339  0.27693894  1
  O  O45  1  0.57565046  0.65917915  0.93846276  1
  O  O46  1  0.92434860  0.65917754  0.93846135  1
  O  O47  1  0.74999987  0.00067304  0.13232042  1
  O  O48  1  0.42410444  0.36286476  0.72305769  1
  O  O49  1  0.42410716  0.13713173  0.22306107  1
  O  O50  1  0.92434901  0.84082414  0.43846380  1
  O  O51  1  0.42434514  0.15917735  0.56153731  1
