# generated using pymatgen
data_H8PtO6
_symmetry_space_group_name_H-M   'P 1'
_cell_length_a   5.60322052
_cell_length_b   5.60322052
_cell_length_c   7.31233358
_cell_angle_alpha   86.62778618
_cell_angle_beta   93.37221382
_cell_angle_gamma   97.31446286
_symmetry_Int_Tables_number   1
_chemical_formula_structural   H8PtO6
_chemical_formula_sum   'H16 Pt2 O12'
_cell_volume   227.01039296
_cell_formula_units_Z   2
loop_
 _symmetry_equiv_pos_site_id
 _symmetry_equiv_pos_as_xyz
  1  'x, y, z'
loop_
 _atom_site_type_symbol
 _atom_site_label
 _atom_site_symmetry_multiplicity
 _atom_site_fract_x
 _atom_site_fract_y
 _atom_site_fract_z
 _atom_site_occupancy
  H  H0  1  0.12872291  0.62604994  0.84760385  1
  H  H1  1  0.85341862  0.47551816  0.83934745  1
  H  H2  1  0.62008569  0.13227305  0.64754005  1
  H  H3  1  0.74304905  0.89054453  0.74666716  1
  H  H4  1  0.86772695  0.37991431  0.14754005  1
  H  H5  1  0.10945547  0.25695095  0.24666716  1
  H  H6  1  0.52448184  0.14658138  0.33934745  1
  H  H7  1  0.37395006  0.87127709  0.34760385  1
  H  H8  1  0.24492236  0.60678783  0.09232195  1
  H  H9  1  0.53782969  0.43764988  0.50923586  1
  H  H10  1  0.56235012  0.46217031  0.00923586  1
  H  H11  1  0.39321217  0.75507764  0.59232195  1
  H  H12  1  0.05386093  0.02935485  0.98327410  1
  H  H13  1  0.14871919  0.16642917  0.71257601  1
  H  H14  1  0.83357083  0.85128081  0.21257601  1
  H  H15  1  0.97064515  0.94613907  0.48327410  1
  Pt  Pt16  1  0.99586225  0.49789801  0.50432158  1
  Pt  Pt17  1  0.50210199  0.00413775  0.00432158  1
  O  O18  1  0.96477803  0.59610287  0.76465104  1
  O  O19  1  0.59353936  0.96893043  0.74070051  1
  O  O20  1  0.03106957  0.40646064  0.24070051  1
  O  O21  1  0.40389713  0.03522197  0.26465104  1
  O  O22  1  0.33384209  0.66254359  0.98199243  1
  O  O23  1  0.65513834  0.31562063  0.51109111  1
  O  O24  1  0.68437937  0.34486166  0.01109111  1
  O  O25  1  0.33745641  0.66615791  0.48199243  1
  O  O26  1  0.19023838  0.13890841  0.92636113  1
  O  O27  1  0.12752540  0.18365594  0.57324977  1
  O  O28  1  0.81634406  0.87247460  0.07324977  1
  O  O29  1  0.86109159  0.80976162  0.42636113  1
