# generated using pymatgen
data_N2O3
_symmetry_space_group_name_H-M   'P 1'
_cell_length_a   5.20785804
_cell_length_b   6.60992928
_cell_length_c   8.77656254
_cell_angle_alpha   90.00000000
_cell_angle_beta   90.00000000
_cell_angle_gamma   90.00000000
_symmetry_Int_Tables_number   1
_chemical_formula_structural   N2O3
_chemical_formula_sum   'N8 O12'
_cell_volume   302.12064431
_cell_formula_units_Z   4
loop_
 _symmetry_equiv_pos_site_id
 _symmetry_equiv_pos_as_xyz
  1  'x, y, z'
loop_
 _atom_site_type_symbol
 _atom_site_label
 _atom_site_symmetry_multiplicity
 _atom_site_fract_x
 _atom_site_fract_y
 _atom_site_fract_z
 _atom_site_occupancy
  N  N0  1  0.09874279  0.64115545  0.62596757  1
  N  N1  1  0.59874279  0.85884455  0.37403243  1
  N  N2  1  0.40125721  0.35884455  0.12596757  1
  N  N3  1  0.92802067  0.99856309  0.34404678  1
  N  N4  1  0.90125721  0.14115545  0.87403243  1
  N  N5  1  0.42802067  0.50143691  0.65595322  1
  N  N6  1  0.07197933  0.49856309  0.15595322  1
  N  N7  1  0.57197933  0.00143691  0.84404678  1
  O  O8  1  0.02634625  0.76619342  0.71925601  1
  O  O9  1  0.00760192  0.08647009  0.99135724  1
  O  O10  1  0.97365375  0.26619342  0.78074399  1
  O  O11  1  0.44422096  0.38829591  0.55685491  1
  O  O12  1  0.99239808  0.58647009  0.50864276  1
  O  O13  1  0.47365375  0.23380658  0.21925601  1
  O  O14  1  0.52634625  0.73380658  0.28074399  1
  O  O15  1  0.49239808  0.91352991  0.49135724  1
  O  O16  1  0.55577904  0.88829591  0.94314509  1
  O  O17  1  0.94422096  0.11170409  0.44314509  1
  O  O18  1  0.50760192  0.41352991  0.00864276  1
  O  O19  1  0.05577904  0.61170409  0.05685491  1
