# generated using pymatgen
data_SbS3N2Cl7
_symmetry_space_group_name_H-M   'P 1'
_cell_length_a   13.23671076
_cell_length_b   15.00581716
_cell_length_c   15.41978655
_cell_angle_alpha   88.58169370
_cell_angle_beta   90.00000000
_cell_angle_gamma   90.00000000
_symmetry_Int_Tables_number   1
_chemical_formula_structural   SbS3N2Cl7
_chemical_formula_sum   'Sb8 S24 N16 Cl56'
_cell_volume   3061.85780230
_cell_formula_units_Z   8
loop_
 _symmetry_equiv_pos_site_id
 _symmetry_equiv_pos_as_xyz
  1  'x, y, z'
loop_
 _atom_site_type_symbol
 _atom_site_label
 _atom_site_symmetry_multiplicity
 _atom_site_fract_x
 _atom_site_fract_y
 _atom_site_fract_z
 _atom_site_occupancy
  Sb  Sb0  1  0.17114463  0.82636930  0.44356316  1
  Sb  Sb1  1  0.63912044  0.20273007  0.08533610  1
  Sb  Sb2  1  0.67114463  0.67363070  0.55643684  1
  Sb  Sb3  1  0.32885537  0.32636930  0.44356316  1
  Sb  Sb4  1  0.13912044  0.29726993  0.91466390  1
  Sb  Sb5  1  0.82885537  0.17363070  0.55643684  1
  Sb  Sb6  1  0.36087956  0.79726993  0.91466390  1
  Sb  Sb7  1  0.86087956  0.70273007  0.08533610  1
  S  S8  1  0.94927775  0.38537951  0.34854480  1
  S  S9  1  0.44927775  0.11462049  0.65145520  1
  S  S10  1  0.78210686  0.35721857  0.33240432  1
  S  S11  1  0.21789314  0.64278143  0.66759568  1
  S  S12  1  0.70929647  0.40026173  0.70773172  1
  S  S13  1  0.28210686  0.14278143  0.66759568  1
  S  S14  1  0.55072225  0.88537951  0.34854480  1
  S  S15  1  0.78086724  0.40957221  0.87631245  1
  S  S16  1  0.33292609  0.96386995  0.68854600  1
  S  S17  1  0.16707391  0.46386995  0.68854600  1
  S  S18  1  0.71913276  0.90957221  0.87631245  1
  S  S19  1  0.71789314  0.85721857  0.33240432  1
  S  S20  1  0.88856150  0.89079104  0.86777850  1
  S  S21  1  0.29070353  0.59973827  0.29226828  1
  S  S22  1  0.38856150  0.60920896  0.13222150  1
  S  S23  1  0.66707391  0.03613005  0.31145400  1
  S  S24  1  0.28086724  0.09042779  0.12368755  1
  S  S25  1  0.61143850  0.39079104  0.86777850  1
  S  S26  1  0.83292609  0.53613005  0.31145400  1
  S  S27  1  0.79070353  0.90026173  0.70773172  1
  S  S28  1  0.11143850  0.10920896  0.13222150  1
  S  S29  1  0.20929647  0.09973827  0.29226828  1
  S  S30  1  0.05072225  0.61462049  0.65145520  1
  S  S31  1  0.21913276  0.59042779  0.12368755  1
  N  N32  1  0.24477576  0.54262658  0.69201244  1
  N  N33  1  0.93666633  0.48952975  0.34723071  1
  N  N34  1  0.43666633  0.01047025  0.65276929  1
  N  N35  1  0.70397837  0.91814560  0.77459432  1
  N  N36  1  0.61161612  0.37513134  0.76711325  1
  N  N37  1  0.56333367  0.98952975  0.34723071  1
  N  N38  1  0.20397837  0.58185440  0.22540568  1
  N  N39  1  0.88838388  0.87513134  0.76711325  1
  N  N40  1  0.11161612  0.12486866  0.23288675  1
  N  N41  1  0.06333367  0.51047025  0.65276929  1
  N  N42  1  0.75522424  0.45737342  0.30798756  1
  N  N43  1  0.74477576  0.95737342  0.30798756  1
  N  N44  1  0.25522424  0.04262658  0.69201244  1
  N  N45  1  0.79602163  0.41814560  0.77459432  1
  N  N46  1  0.29602163  0.08185440  0.22540568  1
  N  N47  1  0.38838388  0.62486866  0.23288675  1
  Cl  Cl48  1  0.87457331  0.17620678  0.40189666  1
  Cl  Cl49  1  0.20232044  0.84091025  0.84882727  1
  Cl  Cl50  1  0.94022155  0.02074182  0.88857510  1
  Cl  Cl51  1  0.42533640  0.76037267  0.77405912  1
  Cl  Cl52  1  0.76217487  0.53560692  0.53442931  1
  Cl  Cl53  1  0.44022155  0.47925818  0.11142490  1
  Cl  Cl54  1  0.23782513  0.46439308  0.46557069  1
  Cl  Cl55  1  0.58545185  0.81422012  0.57239710  1
  Cl  Cl56  1  0.12542669  0.82379322  0.59810334  1
  Cl  Cl57  1  0.70513284  0.16973056  0.94388842  1
  Cl  Cl58  1  0.49922837  0.84649091  0.22534852  1
  Cl  Cl59  1  0.82408532  0.75369139  0.52064228  1
  Cl  Cl60  1  0.41454815  0.18577988  0.42760290  1
  Cl  Cl61  1  0.28186096  0.32990518  0.29276611  1
  Cl  Cl62  1  0.73782513  0.03560692  0.53442931  1
  Cl  Cl63  1  0.08545185  0.68577988  0.42760290  1
  Cl  Cl64  1  0.17591468  0.24630861  0.47935772  1
  Cl  Cl65  1  0.29486716  0.83026944  0.05611158  1
  Cl  Cl66  1  0.48110009  0.24659953  0.02086879  1
  Cl  Cl67  1  0.79767956  0.15908975  0.15117273  1
  Cl  Cl68  1  0.50077163  0.15350909  0.77465148  1
  Cl  Cl69  1  0.57466360  0.23962733  0.22594088  1
  Cl  Cl70  1  0.05977845  0.97925818  0.11142490  1
  Cl  Cl71  1  0.57815942  0.05176631  0.10348835  1
  Cl  Cl72  1  0.00077163  0.34649091  0.22534852  1
  Cl  Cl73  1  0.79486716  0.66973056  0.94388842  1
  Cl  Cl74  1  0.78186096  0.17009482  0.70723389  1
  Cl  Cl75  1  0.67591468  0.25369139  0.52064228  1
  Cl  Cl76  1  0.70210864  0.35565926  0.06758875  1
  Cl  Cl77  1  0.52089211  0.59197390  0.58920275  1
  Cl  Cl78  1  0.26217487  0.96439308  0.46557069  1
  Cl  Cl79  1  0.07815942  0.44823369  0.89651165  1
  Cl  Cl80  1  0.20210864  0.14434074  0.93241125  1
  Cl  Cl81  1  0.42184058  0.94823369  0.89651165  1
  Cl  Cl82  1  0.29789136  0.64434074  0.93241125  1
  Cl  Cl83  1  0.20513284  0.33026944  0.05611158  1
  Cl  Cl84  1  0.92184058  0.55176631  0.10348835  1
  Cl  Cl85  1  0.55977845  0.52074182  0.88857510  1
  Cl  Cl86  1  0.71813904  0.67009482  0.70723389  1
  Cl  Cl87  1  0.51889991  0.75340047  0.97913121  1
  Cl  Cl88  1  0.47910789  0.40802610  0.41079725  1
  Cl  Cl89  1  0.32408532  0.74630861  0.47935772  1
  Cl  Cl90  1  0.70232044  0.65908975  0.15117273  1
  Cl  Cl91  1  0.29767956  0.34091025  0.84882727  1
  Cl  Cl92  1  0.98110009  0.25340047  0.97913121  1
  Cl  Cl93  1  0.21813904  0.82990518  0.29276611  1
  Cl  Cl94  1  0.91454815  0.31422012  0.57239710  1
  Cl  Cl95  1  0.92533640  0.73962733  0.22594088  1
  Cl  Cl96  1  0.02089211  0.90802610  0.41079725  1
  Cl  Cl97  1  0.79789136  0.85565926  0.06758875  1
  Cl  Cl98  1  0.01889991  0.74659953  0.02086879  1
  Cl  Cl99  1  0.07466360  0.26037267  0.77405912  1
  Cl  Cl100  1  0.97910789  0.09197390  0.58920275  1
  Cl  Cl101  1  0.62542669  0.67620678  0.40189666  1
  Cl  Cl102  1  0.99922837  0.65350909  0.77465148  1
  Cl  Cl103  1  0.37457331  0.32379322  0.59810334  1
