# generated using pymatgen
data_LiV2O5
_symmetry_space_group_name_H-M   'P 1'
_cell_length_a   3.64863751
_cell_length_b   9.71792569
_cell_length_c   11.39868102
_cell_angle_alpha   90.00000000
_cell_angle_beta   90.00000000
_cell_angle_gamma   90.00000000
_symmetry_Int_Tables_number   1
_chemical_formula_structural   LiV2O5
_chemical_formula_sum   'Li4 V8 O20'
_cell_volume   404.16517807
_cell_formula_units_Z   4
loop_
 _symmetry_equiv_pos_site_id
 _symmetry_equiv_pos_as_xyz
  1  'x, y, z'
loop_
 _atom_site_type_symbol
 _atom_site_label
 _atom_site_symmetry_multiplicity
 _atom_site_fract_x
 _atom_site_fract_y
 _atom_site_fract_z
 _atom_site_occupancy
  Li  Li0  1  0.27299605  0.14654247  0.50000000  1
  Li  Li1  1  0.52704299  0.64660150  0.50000000  1
  Li  Li2  1  0.02704299  0.35339850  0.00000000  1
  Li  Li3  1  0.77299605  0.85345753  0.00000000  1
  V  V4  1  0.99908633  0.44708168  0.34995587  1
  V  V5  1  0.49908633  0.55291832  0.15004413  1
  V  V6  1  0.80093102  0.94691871  0.65002713  1
  V  V7  1  0.49908633  0.55291832  0.84995587  1
  V  V8  1  0.30093102  0.05308129  0.15002713  1
  V  V9  1  0.99908633  0.44708168  0.65004413  1
  V  V10  1  0.30093102  0.05308129  0.84997287  1
  V  V11  1  0.80093102  0.94691871  0.34997287  1
  O  O12  1  0.49738986  0.50620467  0.67824580  1
  O  O13  1  0.79594824  0.77976102  0.62708082  1
  O  O14  1  0.29594824  0.22023898  0.12708082  1
  O  O15  1  0.29594824  0.22023898  0.87291918  1
  O  O16  1  0.29467036  0.97835304  0.00000000  1
  O  O17  1  0.50539853  0.47832331  0.00000000  1
  O  O18  1  0.30260424  0.00627393  0.32175505  1
  O  O19  1  0.79467036  0.02164696  0.50000000  1
  O  O20  1  0.50398634  0.72027232  0.12700821  1
  O  O21  1  0.00398634  0.27972768  0.62700821  1
  O  O22  1  0.00539853  0.52167669  0.50000000  1
  O  O23  1  0.49738986  0.50620467  0.32175420  1
  O  O24  1  0.80260424  0.99372607  0.17824495  1
  O  O25  1  0.00398634  0.27972768  0.37299179  1
  O  O26  1  0.79594824  0.77976102  0.37291918  1
  O  O27  1  0.99738986  0.49379533  0.17824580  1
  O  O28  1  0.30260424  0.00627393  0.67824495  1
  O  O29  1  0.50398634  0.72027232  0.87299179  1
  O  O30  1  0.80260424  0.99372607  0.82175505  1
  O  O31  1  0.99738986  0.49379533  0.82175420  1
