# generated using pymatgen
data_Yb6Fe23
_symmetry_space_group_name_H-M   'P 1'
_cell_length_a   8.44262722
_cell_length_b   8.44328518
_cell_length_c   8.44182342
_cell_angle_alpha   59.98704561
_cell_angle_beta   60.00684569
_cell_angle_gamma   59.99768277
_symmetry_Int_Tables_number   1
_chemical_formula_structural   Yb6Fe23
_chemical_formula_sum   'Yb6 Fe23'
_cell_volume   425.48343278
_cell_formula_units_Z   1
loop_
 _symmetry_equiv_pos_site_id
 _symmetry_equiv_pos_as_xyz
  1  'x, y, z'
loop_
 _atom_site_type_symbol
 _atom_site_label
 _atom_site_symmetry_multiplicity
 _atom_site_fract_x
 _atom_site_fract_y
 _atom_site_fract_z
 _atom_site_occupancy
  Yb  Yb0  1  0.78852498  0.21140735  0.21144169  1
  Yb  Yb1  1  0.78851615  0.78864131  0.21142851  1
  Yb  Yb2  1  0.78854443  0.21139889  0.78863752  1
  Yb  Yb3  1  0.21148657  0.21135009  0.78857771  1
  Yb  Yb4  1  0.21145972  0.78860442  0.21135721  1
  Yb  Yb5  1  0.21148174  0.78859312  0.78855885  1
  Fe  Fe6  1  0.82414128  0.52743339  0.82419461  1
  Fe  Fe7  1  0.17584882  0.47257876  0.17580163  1
  Fe  Fe8  1  0.99999103  0.49999709  0.00001010  1
  Fe  Fe9  1  0.37991455  0.37989806  0.37988170  1
  Fe  Fe10  1  0.17585211  0.17577654  0.47258320  1
  Fe  Fe11  1  0.13971474  0.62012005  0.62004010  1
  Fe  Fe12  1  0.49999156  0.99999569  0.99999023  1
  Fe  Fe13  1  0.82414487  0.82424083  0.82419346  1
  Fe  Fe14  1  0.52737754  0.82422055  0.82418987  1
  Fe  Fe15  1  0.62008420  0.13967267  0.62014422  1
  Fe  Fe16  1  0.50005166  0.49998159  0.50000116  1
  Fe  Fe17  1  0.47261543  0.17578193  0.17581106  1
  Fe  Fe18  1  0.86028085  0.37988031  0.37996227  1
  Fe  Fe19  1  0.17584676  0.17575892  0.17580242  1
  Fe  Fe20  1  0.50000285  0.99998153  0.50002511  1
  Fe  Fe21  1  0.99998686  0.00001087  0.49999442  1
  Fe  Fe22  1  0.62001871  0.62015873  0.13969007  1
  Fe  Fe23  1  0.82414349  0.82422413  0.52741755  1
  Fe  Fe24  1  0.62009108  0.62010162  0.62012105  1
  Fe  Fe25  1  0.37992434  0.86031654  0.37985866  1
  Fe  Fe26  1  0.49999429  0.50002404  0.99998458  1
  Fe  Fe27  1  0.37998727  0.37984296  0.86030325  1
  Fe  Fe28  1  0.99998212  0.50000802  0.49999781  1
