# generated using pymatgen
data_Mo9Se11
_symmetry_space_group_name_H-M   'P 1'
_cell_length_a   9.54666194
_cell_length_b   9.54666220
_cell_length_c   12.29101506
_cell_angle_alpha   90.00000000
_cell_angle_beta   90.00000000
_cell_angle_gamma   119.99999904
_symmetry_Int_Tables_number   1
_chemical_formula_structural   Mo9Se11
_chemical_formula_sum   'Mo18 Se22'
_cell_volume   970.11112776
_cell_formula_units_Z   2
loop_
 _symmetry_equiv_pos_site_id
 _symmetry_equiv_pos_as_xyz
  1  'x, y, z'
loop_
 _atom_site_type_symbol
 _atom_site_label
 _atom_site_symmetry_multiplicity
 _atom_site_fract_x
 _atom_site_fract_y
 _atom_site_fract_z
 _atom_site_occupancy
  Mo  Mo0  1  0.83942214  0.35631091  0.43876915  1
  Mo  Mo1  1  0.68071742  0.17850255  0.25000000  1
  Mo  Mo2  1  0.64368909  0.48311122  0.06123085  1
  Mo  Mo3  1  0.51688878  0.16057786  0.43876915  1
  Mo  Mo4  1  0.48311122  0.83942214  0.56123085  1
  Mo  Mo5  1  0.64368909  0.48311122  0.43876915  1
  Mo  Mo6  1  0.35631091  0.51688878  0.93876915  1
  Mo  Mo7  1  0.82149745  0.50221488  0.25000000  1
  Mo  Mo8  1  0.16057786  0.64368909  0.93876915  1
  Mo  Mo9  1  0.16057786  0.64368909  0.56123085  1
  Mo  Mo10  1  0.17850255  0.49778512  0.75000000  1
  Mo  Mo11  1  0.83942214  0.35631091  0.06123085  1
  Mo  Mo12  1  0.49778512  0.31928258  0.25000000  1
  Mo  Mo13  1  0.35631091  0.51688878  0.56123085  1
  Mo  Mo14  1  0.48311122  0.83942214  0.93876915  1
  Mo  Mo15  1  0.50221488  0.68071742  0.75000000  1
  Mo  Mo16  1  0.31928258  0.82149745  0.75000000  1
  Mo  Mo17  1  0.51688878  0.16057786  0.06123085  1
  Se  Se18  1  0.66666700  0.33333300  0.60219200  1
  Se  Se19  1  0.33333300  0.66666700  0.39780800  1
  Se  Se20  1  0.70710241  0.04049659  0.42173554  1
  Se  Se21  1  0.63004315  0.99380003  0.75000000  1
  Se  Se22  1  0.66660581  0.70710241  0.92173554  1
  Se  Se23  1  0.29289759  0.95950341  0.92173554  1
  Se  Se24  1  0.70710241  0.04049659  0.07826446  1
  Se  Se25  1  0.04049659  0.33339419  0.57826446  1
  Se  Se26  1  0.04049659  0.33339419  0.92173554  1
  Se  Se27  1  0.63624312  0.63004315  0.25000000  1
  Se  Se28  1  0.36375688  0.36995685  0.75000000  1
  Se  Se29  1  0.36995685  0.00619997  0.25000000  1
  Se  Se30  1  0.33339419  0.29289759  0.07826446  1
  Se  Se31  1  0.33339419  0.29289759  0.42173554  1
  Se  Se32  1  0.29289759  0.95950341  0.57826446  1
  Se  Se33  1  0.99380003  0.36375688  0.25000000  1
  Se  Se34  1  0.33333300  0.66666700  0.10219200  1
  Se  Se35  1  0.95950341  0.66660581  0.07826446  1
  Se  Se36  1  0.95950341  0.66660581  0.42173554  1
  Se  Se37  1  0.66660581  0.70710241  0.57826446  1
  Se  Se38  1  0.00619997  0.63624312  0.75000000  1
  Se  Se39  1  0.66666700  0.33333300  0.89780800  1
