# generated using pymatgen
data_U(WC)4
_symmetry_space_group_name_H-M   'P 1'
_cell_length_a   3.13682528
_cell_length_b   8.41017147
_cell_length_c   8.41021555
_cell_angle_alpha   89.99991396
_cell_angle_beta   90.00071937
_cell_angle_gamma   90.00016408
_symmetry_Int_Tables_number   1
_chemical_formula_structural   U(WC)4
_chemical_formula_sum   'U2 W8 C8'
_cell_volume   221.87190205
_cell_formula_units_Z   2
loop_
 _symmetry_equiv_pos_site_id
 _symmetry_equiv_pos_as_xyz
  1  'x, y, z'
loop_
 _atom_site_type_symbol
 _atom_site_label
 _atom_site_symmetry_multiplicity
 _atom_site_fract_x
 _atom_site_fract_y
 _atom_site_fract_z
 _atom_site_occupancy
  U  U0  1  0.00000724  0.00000104  0.99999550  1
  U  U1  1  0.49999399  0.49999880  0.50000150  1
  W  W2  1  0.00000179  0.15330229  0.38673911  1
  W  W3  1  0.99999942  0.61325771  0.15329934  1
  W  W4  1  0.49999979  0.85469067  0.31872093  1
  W  W5  1  0.50000332  0.31872138  0.14531114  1
  W  W6  1  0.99999671  0.84669756  0.61325589  1
  W  W7  1  0.50000107  0.14531191  0.68128195  1
  W  W8  1  0.50000121  0.68127921  0.85468929  1
  W  W9  1  -0.00000298  0.38674537  0.84670184  1
  C  C10  1  0.49999606  0.91521264  0.77385671  1
  C  C11  1  0.49999734  0.08478653  0.22614321  1
  C  C12  1  0.50000414  0.22613308  0.91520923  1
  C  C13  1  0.99999921  0.39432638  0.29449966  1
  C  C14  1  -0.00000561  0.70549818  0.39433356  1
  C  C15  1  0.50000141  0.77386244  0.08478981  1
  C  C16  1  0.00000370  0.29450273  0.60566998  1
  C  C17  1  0.00000220  0.60567210  0.70550135  1
