# generated using pymatgen
data_KU2F9
_symmetry_space_group_name_H-M   'P 1'
_cell_length_a   10.25485150
_cell_length_b   8.13935565
_cell_length_c   10.50987951
_cell_angle_alpha   90.00000000
_cell_angle_beta   90.00000000
_cell_angle_gamma   90.00000000
_symmetry_Int_Tables_number   1
_chemical_formula_structural   KU2F9
_chemical_formula_sum   'K4 U8 F36'
_cell_volume   877.23739850
_cell_formula_units_Z   4
loop_
 _symmetry_equiv_pos_site_id
 _symmetry_equiv_pos_as_xyz
  1  'x, y, z'
loop_
 _atom_site_type_symbol
 _atom_site_label
 _atom_site_symmetry_multiplicity
 _atom_site_fract_x
 _atom_site_fract_y
 _atom_site_fract_z
 _atom_site_occupancy
  K  K0  1  0.25000000  0.96441768  0.49931432  1
  K  K1  1  0.75000000  0.03558232  0.50068568  1
  K  K2  1  0.75000000  0.53558232  0.99931432  1
  K  K3  1  0.25000000  0.46441768  0.00068568  1
  U  U4  1  0.97862254  0.88005859  0.84484922  1
  U  U5  1  0.52137746  0.88005859  0.84484922  1
  U  U6  1  0.02137746  0.11994141  0.15515078  1
  U  U7  1  0.47862254  0.11994141  0.15515078  1
  U  U8  1  0.97862254  0.38005859  0.65515078  1
  U  U9  1  0.52137746  0.38005859  0.65515078  1
  U  U10  1  0.47862254  0.61994141  0.34484922  1
  U  U11  1  0.02137746  0.61994141  0.34484922  1
  F  F12  1  0.75000000  0.34565969  0.67072882  1
  F  F13  1  0.07947854  0.39000236  0.23799423  1
  F  F14  1  0.75000000  0.84565969  0.82927118  1
  F  F15  1  0.25000000  0.65434031  0.32927118  1
  F  F16  1  0.89372568  0.93793451  0.04244306  1
  F  F17  1  0.91243207  0.29069307  0.04353156  1
  F  F18  1  0.25000000  0.15434031  0.17072882  1
  F  F19  1  0.39372568  0.56206549  0.54244306  1
  F  F20  1  0.60627432  0.93793451  0.04244306  1
  F  F21  1  0.11006616  0.36054574  0.80673624  1
  F  F22  1  0.88993384  0.13945326  0.30673624  1
  F  F23  1  0.41243207  0.70930693  0.95646844  1
  F  F24  1  0.89372568  0.43793451  0.45755694  1
  F  F25  1  0.07947854  0.89000236  0.26200577  1
  F  F26  1  0.41243207  0.20930693  0.54353156  1
  F  F27  1  0.88993384  0.63945426  0.19326376  1
  F  F28  1  0.60627432  0.43793451  0.45755694  1
  F  F29  1  0.91243207  0.79069307  0.45646844  1
  F  F30  1  0.38993384  0.86054574  0.69326376  1
  F  F31  1  0.58756793  0.29069307  0.04353156  1
  F  F32  1  0.42052146  0.39000236  0.23799423  1
  F  F33  1  0.57947854  0.10999764  0.73799423  1
  F  F34  1  0.08756793  0.70930693  0.95646844  1
  F  F35  1  0.39372568  0.06206549  0.95755694  1
  F  F36  1  0.10627432  0.56206549  0.54244306  1
  F  F37  1  0.92052146  0.10999764  0.73799423  1
  F  F38  1  0.61006616  0.13945326  0.30673624  1
  F  F39  1  0.11006616  0.86054574  0.69326376  1
  F  F40  1  0.57947854  0.60999764  0.76200577  1
  F  F41  1  0.42052146  0.89000236  0.26200577  1
  F  F42  1  0.08756793  0.20930693  0.54353156  1
  F  F43  1  0.92052146  0.60999764  0.76200577  1
  F  F44  1  0.38993384  0.36054574  0.80673624  1
  F  F45  1  0.58756793  0.79069307  0.45646844  1
  F  F46  1  0.10627432  0.06206549  0.95755694  1
  F  F47  1  0.61006616  0.63945426  0.19326376  1
