# generated using pymatgen
data_Na2Sn(HO)6
_symmetry_space_group_name_H-M   'P 1'
_cell_length_a   5.93476608
_cell_length_b   5.93476608
_cell_length_c   5.93476536
_cell_angle_alpha   67.84337816
_cell_angle_beta   67.84337816
_cell_angle_gamma   67.84338586
_symmetry_Int_Tables_number   1
_chemical_formula_structural   Na2Sn(HO)6
_chemical_formula_sum   'Na2 Sn1 H6 O6'
_cell_volume   172.44508165
_cell_formula_units_Z   1
loop_
 _symmetry_equiv_pos_site_id
 _symmetry_equiv_pos_as_xyz
  1  'x, y, z'
loop_
 _atom_site_type_symbol
 _atom_site_label
 _atom_site_symmetry_multiplicity
 _atom_site_fract_x
 _atom_site_fract_y
 _atom_site_fract_z
 _atom_site_occupancy
  Na  Na0  1  0.61724253  0.61724253  0.61724253  1
  Na  Na1  1  0.38275747  0.38275747  0.38275747  1
  Sn  Sn2  1  0.00000000  -0.00000000  0.00000000  1
  H  H3  1  0.83494644  0.08856327  0.45316382  1
  H  H4  1  0.08856327  0.45316382  0.83494644  1
  H  H5  1  0.45316382  0.83494644  0.08856327  1
  H  H6  1  0.16505356  0.91143673  0.54683618  1
  H  H7  1  0.91143673  0.54683618  0.16505356  1
  H  H8  1  0.54683618  0.16505356  0.91143673  1
  O  O9  1  0.17483795  0.29189809  0.79396350  1
  O  O10  1  0.29189809  0.79396350  0.17483795  1
  O  O11  1  0.79396350  0.17483795  0.29189809  1
  O  O12  1  0.82516205  0.70810191  0.20603650  1
  O  O13  1  0.70810191  0.20603650  0.82516205  1
  O  O14  1  0.20603650  0.82516205  0.70810191  1
