# generated using pymatgen
data_Al(HO)3
_symmetry_space_group_name_H-M   'P 1'
_cell_length_a   8.75631901
_cell_length_b   5.12401402
_cell_length_c   9.35162057
_cell_angle_alpha   91.28208273
_cell_angle_beta   95.46127900
_cell_angle_gamma   90.52800319
_symmetry_Int_Tables_number   1
_chemical_formula_structural   Al(HO)3
_chemical_formula_sum   'Al8 H24 O24'
_cell_volume   417.54755481
_cell_formula_units_Z   8
loop_
 _symmetry_equiv_pos_site_id
 _symmetry_equiv_pos_as_xyz
  1  'x, y, z'
loop_
 _atom_site_type_symbol
 _atom_site_label
 _atom_site_symmetry_multiplicity
 _atom_site_fract_x
 _atom_site_fract_y
 _atom_site_fract_z
 _atom_site_occupancy
  Al  Al0  1  0.81042673  0.94408475  0.52185001  1
  Al  Al1  1  0.30743596  0.55706722  0.48517001  1
  Al  Al2  1  0.17563499  0.52772500  0.99335884  1
  Al  Al3  1  0.67598051  0.96407226  0.00071826  1
  Al  Al4  1  0.14285365  0.00341184  0.48818013  1
  Al  Al5  1  0.64326996  0.48982292  0.51812597  1
  Al  Al6  1  0.84453848  0.48513032  0.00040987  1
  Al  Al7  1  0.34184671  0.01920514  0.99795727  1
  H  H8  1  0.50891520  0.80973418  0.64958859  1
  H  H9  1  0.99127663  0.66517514  0.38709880  1
  H  H10  1  0.53185481  0.29968051  0.87162541  1
  H  H11  1  0.03748112  0.16948418  0.09867658  1
  H  H12  1  0.44270184  0.16507862  0.39160303  1
  H  H13  1  0.97333011  0.32127660  0.62033373  1
  H  H14  1  0.47893724  0.69677908  0.13159073  1
  H  H15  1  0.96050845  0.63214680  0.78279925  1
  H  H16  1  0.10540854  0.13390217  0.82014808  1
  H  H17  1  0.60255880  0.36745809  0.11955639  1
  H  H18  1  0.12111853  0.33690551  0.29126720  1
  H  H19  1  0.70546181  0.18852273  0.71317206  1
  H  H20  1  0.88243324  0.83245681  0.20694255  1
  H  H21  1  0.40035593  0.64249584  0.84081603  1
  H  H22  1  0.41035700  0.15818855  0.63615665  1
  H  H23  1  0.26765448  0.23554384  0.72447512  1
  H  H24  1  0.89908658  0.33305016  0.38783729  1
  H  H25  1  0.75251702  0.27339184  0.27277935  1
  H  H26  1  0.71095822  0.66385687  0.79010099  1
  H  H27  1  0.22961268  0.83746226  0.21292048  1
  H  H28  1  0.62427325  0.81198705  0.30075217  1
  H  H29  1  0.21642521  0.73023719  0.70941777  1
  H  H30  1  0.36429764  0.34988101  0.20266679  1
  H  H31  1  0.89370721  0.05773781  0.85773851  1
  O  O32  1  0.48231830  0.63076318  0.61849437  1
  O  O33  1  0.96324888  0.84944244  0.39017677  1
  O  O34  1  0.50677832  0.11671447  0.88725121  1
  O  O35  1  0.02785900  0.35982235  0.10735235  1
  O  O36  1  0.46123686  0.35563452  0.39563312  1
  O  O37  1  0.98809252  0.13200165  0.61366252  1
  O  O38  1  0.51221984  0.87377512  0.11238691  1
  O  O39  1  0.99255344  0.62468966  0.88692934  1
  O  O40  1  0.80061565  0.65706249  0.62959082  1
  O  O41  1  0.28024355  0.84586671  0.37982914  1
  O  O42  1  0.19678867  0.21260506  0.87333123  1
  O  O43  1  0.70402414  0.29008123  0.11753763  1
  O  O44  1  0.13589911  0.33762583  0.39704349  1
  O  O45  1  0.66496224  0.16464804  0.61139239  1
  O  O46  1  0.82875454  0.79011003  0.11181856  1
  O  O47  1  0.30813724  0.71214755  0.87803780  1
  O  O48  1  0.30286384  0.21367054  0.62273175  1
  O  O49  1  0.79054497  0.27957393  0.38342861  1
  O  O50  1  0.67837177  0.64727794  0.89048053  1
  O  O51  1  0.19933585  0.84242453  0.10266843  1
  O  O52  1  0.65479258  0.78184906  0.40214866  1
  O  O53  1  0.17330855  0.70969309  0.60820947  1
  O  O54  1  0.34731413  0.35012370  0.09709053  1
  O  O55  1  0.81036444  0.16003557  0.89162045  1
