# generated using pymatgen
data_P(HO)3
_symmetry_space_group_name_H-M   'P 1'
_cell_length_a   7.48384633
_cell_length_b   12.80722181
_cell_length_c   6.98050293
_cell_angle_alpha   90.00000000
_cell_angle_beta   90.00000000
_cell_angle_gamma   90.00000000
_symmetry_Int_Tables_number   1
_chemical_formula_structural   P(HO)3
_chemical_formula_sum   'P8 H24 O24'
_cell_volume   669.06221846
_cell_formula_units_Z   8
loop_
 _symmetry_equiv_pos_site_id
 _symmetry_equiv_pos_as_xyz
  1  'x, y, z'
loop_
 _atom_site_type_symbol
 _atom_site_label
 _atom_site_symmetry_multiplicity
 _atom_site_fract_x
 _atom_site_fract_y
 _atom_site_fract_z
 _atom_site_occupancy
  P  P0  1  0.51468410  0.36793761  0.03259696  1
  P  P1  1  0.48531590  0.63206239  0.53259696  1
  P  P2  1  0.98531590  0.86793761  0.53259696  1
  P  P3  1  0.01468410  0.13206239  0.03259696  1
  P  P4  1  0.57780640  0.11716521  0.46379754  1
  P  P5  1  0.42219360  0.88283479  0.96379754  1
  P  P6  1  0.92219360  0.61716521  0.96379754  1
  P  P7  1  0.07780640  0.38283479  0.46379754  1
  H  H8  1  0.78470240  0.31277643  0.93398151  1
  H  H9  1  0.21529760  0.68722357  0.43398151  1
  H  H10  1  0.71529760  0.81277643  0.43398151  1
  H  H11  1  0.28470240  0.18722357  0.93398151  1
  H  H12  1  0.44856131  0.29102289  0.74411433  1
  H  H13  1  0.55143869  0.70897711  0.24411433  1
  H  H14  1  0.05143869  0.79102289  0.24411433  1
  H  H15  1  0.94856131  0.20897711  0.74411433  1
  H  H16  1  0.54864607  0.52867709  0.92177155  1
  H  H17  1  0.45135393  0.47132291  0.42177155  1
  H  H18  1  0.95135393  0.02867709  0.42177155  1
  H  H19  1  0.04864607  0.97132291  0.92177155  1
  H  H20  1  0.49671789  0.27969598  0.39499757  1
  H  H21  1  0.50328211  0.72030402  0.89499757  1
  H  H22  1  0.00328211  0.77969598  0.89499757  1
  H  H23  1  0.99671789  0.22030402  0.39499757  1
  H  H24  1  0.57389045  0.06198292  0.16144065  1
  H  H25  1  0.42610955  0.93801708  0.66144065  1
  H  H26  1  0.92610955  0.56198292  0.66144065  1
  H  H27  1  0.07389045  0.43801708  0.16144065  1
  H  H28  1  0.28635988  0.04968848  0.47544601  1
  H  H29  1  0.71364012  0.95031152  0.97544601  1
  H  H30  1  0.21364012  0.54968848  0.97544601  1
  H  H31  1  0.78635988  0.45031152  0.47544601  1
  O  O32  1  0.71113128  0.37833822  0.93843114  1
  O  O33  1  0.28886872  0.62166178  0.43843114  1
  O  O34  1  0.78886872  0.87833822  0.43843114  1
  O  O35  1  0.21113128  0.12166178  0.93843114  1
  O  O36  1  0.40541918  0.29444741  0.87978919  1
  O  O37  1  0.59458082  0.70555259  0.37978919  1
  O  O38  1  0.09458082  0.79444741  0.37978919  1
  O  O39  1  0.90541918  0.20555259  0.87978919  1
  O  O40  1  0.44887147  0.48807741  0.97270894  1
  O  O41  1  0.55112853  0.51192259  0.47270894  1
  O  O42  1  0.05112853  0.98807741  0.47270894  1
  O  O43  1  0.94887147  0.01192259  0.97270894  1
  O  O44  1  0.50345830  0.23739637  0.51295252  1
  O  O45  1  0.49654170  0.76260363  0.01295252  1
  O  O46  1  0.99654170  0.73739637  0.01295252  1
  O  O47  1  0.00345830  0.26260363  0.51295252  1
  O  O48  1  0.55255594  0.12867924  0.23383188  1
  O  O49  1  0.44744406  0.87132076  0.73383188  1
  O  O50  1  0.94744406  0.62867924  0.73383188  1
  O  O51  1  0.05255594  0.37132076  0.23383188  1
  O  O52  1  0.40803203  0.04384549  0.53025622  1
  O  O53  1  0.59196797  0.95615451  0.03025622  1
  O  O54  1  0.09196797  0.54384549  0.03025622  1
  O  O55  1  0.90803203  0.45615451  0.53025622  1
