# generated using pymatgen
data_Cu(Mo3S4)2
_symmetry_space_group_name_H-M   'P 1'
_cell_length_a   6.48808214
_cell_length_b   6.47256494
_cell_length_c   12.99815885
_cell_angle_alpha   94.66392258
_cell_angle_beta   94.03848913
_cell_angle_gamma   93.65097418
_symmetry_Int_Tables_number   1
_chemical_formula_structural   Cu(Mo3S4)2
_chemical_formula_sum   'Cu2 Mo12 S16'
_cell_volume   541.36933802
_cell_formula_units_Z   2
loop_
 _symmetry_equiv_pos_site_id
 _symmetry_equiv_pos_as_xyz
  1  'x, y, z'
loop_
 _atom_site_type_symbol
 _atom_site_label
 _atom_site_symmetry_multiplicity
 _atom_site_fract_x
 _atom_site_fract_y
 _atom_site_fract_z
 _atom_site_occupancy
  Cu  Cu0  1  0.06507582  0.89657684  0.01842942  1
  Cu  Cu1  1  0.89691750  0.03872914  0.53225484  1
  Mo  Mo2  1  0.21204274  0.40727947  0.77368391  1
  Mo  Mo3  1  0.21429967  0.40289317  0.27124928  1
  Mo  Mo4  1  0.40505710  0.54369294  0.60576132  1
  Mo  Mo5  1  0.45850331  0.78219773  0.79739416  1
  Mo  Mo6  1  0.40345381  0.54331925  0.10653712  1
  Mo  Mo7  1  0.45181703  0.78635769  0.29722926  1
  Mo  Mo8  1  0.54264968  0.21750052  0.70286650  1
  Mo  Mo9  1  0.59538836  0.45362213  0.89326985  1
  Mo  Mo10  1  0.54650329  0.21388002  0.20224661  1
  Mo  Mo11  1  0.59506806  0.45720936  0.39265639  1
  Mo  Mo12  1  0.78885609  0.59162777  0.72753591  1
  Mo  Mo13  1  0.78358771  0.59665211  0.22763014  1
  S  S14  1  0.13849408  0.72477483  0.68964693  1
  S  S15  1  0.13039705  0.72875478  0.18848517  1
  S  S16  1  0.27399973  0.62810479  0.93327063  1
  S  S17  1  0.19973523  0.20777694  0.60525328  1
  S  S18  1  0.27353310  0.62086416  0.43144179  1
  S  S19  1  0.21011808  0.20001742  0.10216983  1
  S  S20  1  0.37709547  0.13554415  0.86166488  1
  S  S21  1  0.37947356  0.13711096  0.36149317  1
  S  S22  1  0.62773478  0.86303331  0.63638889  1
  S  S23  1  0.61848073  0.86319415  0.13788187  1
  S  S24  1  0.79989647  0.78717704  0.89787109  1
  S  S25  1  0.72890213  0.37592261  0.56530525  1
  S  S26  1  0.78659204  0.79791695  0.39899538  1
  S  S27  1  0.72404919  0.37812606  0.06788595  1
  S  S28  1  0.86335071  0.27384039  0.81050712  1
  S  S29  1  0.86652749  0.27720333  0.30964406  1
