# generated using pymatgen
data_Na21In5O15
_symmetry_space_group_name_H-M   'P 1'
_cell_length_a   9.70596939
_cell_length_b   9.71971414
_cell_length_c   9.69549442
_cell_angle_alpha   108.55769346
_cell_angle_beta   109.88329208
_cell_angle_gamma   109.98353470
_symmetry_Int_Tables_number   1
_chemical_formula_structural   Na21In5O15
_chemical_formula_sum   'Na21 In5 O15'
_cell_volume   703.91408362
_cell_formula_units_Z   1
loop_
 _symmetry_equiv_pos_site_id
 _symmetry_equiv_pos_as_xyz
  1  'x, y, z'
loop_
 _atom_site_type_symbol
 _atom_site_label
 _atom_site_symmetry_multiplicity
 _atom_site_fract_x
 _atom_site_fract_y
 _atom_site_fract_z
 _atom_site_occupancy
  Na  Na0  1  1.00000000  0.44092465  0.71308279  1
  Na  Na1  1  0.20546494  0.77634982  0.76430142  1
  Na  Na2  1  0.00000000  0.21330444  0.43194021  1
  Na  Na3  1  0.27716044  0.54563764  0.56162513  1
  Na  Na4  1  0.30239841  0.30229912  0.74038987  1
  Na  Na5  1  0.29709318  0.75426333  0.27594931  1
  Na  Na6  1  0.21726476  0.43313165  0.00081071  1
  Na  Na7  1  0.20561861  0.98058122  0.43625624  1
  Na  Na8  1  0.56187497  0.78543357  0.57348944  1
  Na  Na9  1  0.45337973  0.00728825  0.72681434  1
  Na  Na10  1  0.45941349  0.71928377  0.99875519  1
  Na  Na11  1  0.54662027  0.55390852  0.27343462  1
  Na  Na12  1  0.54058651  0.25987028  0.53934170  1
  Na  Na13  1  0.43812503  0.22355860  0.01161447  1
  Na  Na14  1  0.79453506  0.57088488  0.55883647  1
  Na  Na15  1  0.78273524  0.21586688  0.78354595  1
  Na  Na16  1  0.79438139  0.77496261  0.23063763  1
  Na  Na17  1  0.72283956  0.26847720  0.28446469  1
  Na  Na18  1  0.70290682  0.45717015  0.97885613  1
  Na  Na19  1  0.69760159  0.99990071  0.43799147  1
  Na  Na20  1  1.00000000  0.47328473  0.24802339  1
  In  In21  1  0.00000000  0.99230741  0.69054020  1
  In  In22  1  1.00000000  0.99133276  0.98961450  1
  In  In23  1  0.28762182  0.29526280  0.28781052  1
  In  In24  1  0.71237818  0.00764099  0.00018871  1
  In  In25  1  0.00000000  0.69738588  0.98132214  1
  O  O26  1  0.23184033  0.02505346  0.71888236  1
  O  O27  1  0.00000000  0.47666280  0.49654727  1
  O  O28  1  1.00000000  0.20899087  0.69700933  1
  O  O29  1  0.47511853  0.80498495  0.79251223  1
  O  O30  1  0.20568374  0.66761307  0.98235349  1
  O  O31  1  0.50919116  0.00224248  0.52373694  1
  O  O32  1  0.27135339  0.26433621  0.48653151  1
  O  O33  1  0.30074730  0.52478863  0.31062205  1
  O  O34  1  0.52488147  0.32986643  0.31739370  1
  O  O35  1  0.49080884  0.49305132  0.01454577  1
  O  O36  1  0.79431626  0.46192933  0.77666974  1
  O  O37  1  0.76815967  0.79321312  0.48704202  1
  O  O38  1  0.72864661  0.99298282  0.21517812  1
  O  O39  1  0.69925270  0.22404133  0.00987475  1
  O  O40  1  1.00000000  0.70523130  0.20176349  1
