# generated using pymatgen
data_Nd2Th2O7
_symmetry_space_group_name_H-M   'P 1'
_cell_length_a   3.90965755
_cell_length_b   15.90201979
_cell_length_c   13.74096459
_cell_angle_alpha   30.21969498
_cell_angle_beta   55.31590312
_cell_angle_gamma   60.54641809
_symmetry_Int_Tables_number   1
_chemical_formula_structural   Nd2Th2O7
_chemical_formula_sum   'Nd4 Th4 O14'
_cell_volume   353.57470653
_cell_formula_units_Z   2
loop_
 _symmetry_equiv_pos_site_id
 _symmetry_equiv_pos_as_xyz
  1  'x, y, z'
loop_
 _atom_site_type_symbol
 _atom_site_label
 _atom_site_symmetry_multiplicity
 _atom_site_fract_x
 _atom_site_fract_y
 _atom_site_fract_z
 _atom_site_occupancy
  Nd  Nd0  1  0.96215048  0.00000000  0.51892476  1
  Nd  Nd1  1  0.00000000  0.25000000  0.00000000  1
  Nd  Nd2  1  0.03784952  0.50000000  0.48107524  1
  Nd  Nd3  1  0.00000000  0.75000000  0.50000000  1
  Th  Th4  1  0.99576239  0.00000000  0.00211881  1
  Th  Th5  1  0.00423761  0.50000000  0.99788119  1
  Th  Th6  1  0.00000000  0.25000000  0.50000000  1
  Th  Th7  1  0.00000000  0.75000000  0.00000000  1
  O  O8  1  0.24515672  0.21539984  0.16202180  1
  O  O9  1  0.26206837  0.50000000  0.11896581  1
  O  O10  1  0.74266078  0.26268522  0.36598439  1
  O  O11  1  0.25733922  0.23731478  0.63401561  1
  O  O12  1  0.25733922  0.76268522  0.10864517  1
  O  O13  1  0.75016104  0.50000000  0.37491948  1
  O  O14  1  0.22807763  0.00000000  0.13596119  1
  O  O15  1  0.75484328  0.28460016  0.83797820  1
  O  O16  1  0.75484328  0.71539984  0.40717852  1
  O  O17  1  0.24515672  0.78460016  0.59282148  1
  O  O18  1  0.77192237  0.50000000  0.86403881  1
  O  O19  1  0.24983896  0.00000000  0.62508052  1
  O  O20  1  0.74266078  0.73731478  0.89135483  1
  O  O21  1  0.73793163  0.00000000  0.88103419  1
