# generated using pymatgen
data_Sb(PO3)4
_symmetry_space_group_name_H-M   'P 1'
_cell_length_a   5.44954622
_cell_length_b   10.53976266
_cell_length_c   10.53976282
_cell_angle_alpha   71.34084292
_cell_angle_beta   98.06680406
_cell_angle_gamma   98.06679832
_symmetry_Int_Tables_number   1
_chemical_formula_structural   Sb(PO3)4
_chemical_formula_sum   'Sb2 P8 O24'
_cell_volume   564.93088346
_cell_formula_units_Z   2
loop_
 _symmetry_equiv_pos_site_id
 _symmetry_equiv_pos_as_xyz
  1  'x, y, z'
loop_
 _atom_site_type_symbol
 _atom_site_label
 _atom_site_symmetry_multiplicity
 _atom_site_fract_x
 _atom_site_fract_y
 _atom_site_fract_z
 _atom_site_occupancy
  Sb  Sb0  1  0.00000000  0.50000000  0.00000000  1
  Sb  Sb1  1  0.00000000  0.00000000  0.50000000  1
  P  P2  1  0.54579386  0.70694874  0.94797689  1
  P  P3  1  0.81897978  0.62672896  0.22822820  1
  P  P4  1  0.81897978  0.22822820  0.62672896  1
  P  P5  1  0.45420614  0.29305126  0.05202311  1
  P  P6  1  0.54579386  0.94797689  0.70694874  1
  P  P7  1  0.18102022  0.37327104  0.77177180  1
  P  P8  1  0.18102022  0.77177180  0.37327104  1
  P  P9  1  0.45420614  0.05202311  0.29305126  1
  O  O10  1  0.62010207  0.86045461  0.86045461  1
  O  O11  1  0.73655665  0.31741408  0.06402372  1
  O  O12  1  0.64998024  0.09263667  0.71202540  1
  O  O13  1  0.67971875  0.90343102  0.61313942  1
  O  O14  1  0.73655665  0.06402372  0.31741408  1
  O  O15  1  0.32905006  0.65946891  0.43960250  1
  O  O16  1  0.03113493  0.46184486  0.81862361  1
  O  O17  1  0.03113493  0.81862361  0.46184486  1
  O  O18  1  0.96886507  0.53815514  0.18137639  1
  O  O19  1  0.00000000  0.75881090  0.24118910  1
  O  O20  1  0.35001976  0.90736333  0.28797460  1
  O  O21  1  0.64998024  0.71202540  0.09263667  1
  O  O22  1  0.32905006  0.43960250  0.65946891  1
  O  O23  1  0.32028125  0.09656898  0.38686058  1
  O  O24  1  1.00000000  0.24118910  0.75881090  1
  O  O25  1  0.26344335  0.93597628  0.68258592  1
  O  O26  1  0.37989793  0.13954539  0.13954539  1
  O  O27  1  0.67094994  0.34053109  0.56039750  1
  O  O28  1  0.32028125  0.38686058  0.09656898  1
  O  O29  1  0.96886507  0.18137639  0.53815514  1
  O  O30  1  0.67094994  0.56039750  0.34053109  1
  O  O31  1  0.67971875  0.61313942  0.90343102  1
  O  O32  1  0.26344335  0.68258592  0.93597628  1
  O  O33  1  0.35001976  0.28797460  0.90736333  1
