# generated using pymatgen
data_Ba25(Bi5O18)3
_symmetry_space_group_name_H-M   'P 1'
_cell_length_a   6.33651589
_cell_length_b   6.33651577
_cell_length_c   62.93742349
_cell_angle_alpha   92.83999360
_cell_angle_beta   118.18118675
_cell_angle_gamma   118.79740475
_symmetry_Int_Tables_number   1
_chemical_formula_structural   Ba25(Bi5O18)3
_chemical_formula_sum   'Ba25 Bi15 O54'
_cell_volume   1822.12997965
_cell_formula_units_Z   1
loop_
 _symmetry_equiv_pos_site_id
 _symmetry_equiv_pos_as_xyz
  1  'x, y, z'
loop_
 _atom_site_type_symbol
 _atom_site_label
 _atom_site_symmetry_multiplicity
 _atom_site_fract_x
 _atom_site_fract_y
 _atom_site_fract_z
 _atom_site_occupancy
  Ba  Ba0  1  0.46405004  0.77063873  0.92346888  1
  Ba  Ba1  1  0.43973115  0.26888945  0.97086206  1
  Ba  Ba2  1  0.48466458  0.25504096  0.87397055  1
  Ba  Ba3  1  0.50605892  0.75301090  0.82590698  1
  Ba  Ba4  1  0.52540862  0.24540866  0.77708173  1
  Ba  Ba5  1  0.54142361  0.73476660  0.72761902  1
  Ba  Ba6  1  0.58578249  0.75807683  0.63438593  1
  Ba  Ba7  1  0.57231735  0.24245461  0.68147720  1
  Ba  Ba8  1  0.52929671  0.77593123  0.53052279  1
  Ba  Ba9  1  0.49019262  0.25248298  0.57426756  1
  Ba  Ba10  1  0.99619553  0.53980298  0.35359985  1
  Ba  Ba11  1  0.59290560  0.28488344  0.48777890  1
  Ba  Ba12  1  0.51985892  0.82645933  0.43463183  1
  Ba  Ba13  1  0.06372066  0.53386562  0.55975863  1
  Ba  Ba14  1  0.52188449  0.33015602  0.38520405  1
  Ba  Ba15  1  0.50967781  0.80712020  0.33167980  1
  Ba  Ba16  1  0.47179518  0.79427550  0.22660707  1
  Ba  Ba17  1  0.46815571  0.29316698  0.27613227  1
  Ba  Ba18  1  0.95436106  0.53655146  0.04909125  1
  Ba  Ba19  1  0.47876476  0.78872725  0.12674920  1
  Ba  Ba20  1  0.47684564  0.30609231  0.17829379  1
  Ba  Ba21  1  0.98705723  0.53749845  0.25245557  1
  Ba  Ba22  1  0.41228548  0.26783810  0.06801236  1
  Ba  Ba23  1  0.42874082  0.75494775  0.01836886  1
  Ba  Ba24  1  0.94546585  0.50999079  0.14554566  1
  Bi  Bi25  1  0.00732399  0.99889359  0.80062176  1
  Bi  Bi26  1  0.02594969  0.49075112  0.75167008  1
  Bi  Bi27  1  0.96196165  0.51724650  0.94792081  1
  Bi  Bi28  1  0.03854029  0.46398705  0.65025273  1
  Bi  Bi29  1  0.97660987  0.01262398  0.89892338  1
  Bi  Bi30  1  0.99568414  0.50407756  0.84997617  1
  Bi  Bi31  1  0.03556325  0.98427713  0.70198404  1
  Bi  Bi32  1  0.00951835  0.04328014  0.40527985  1
  Bi  Bi33  1  0.06949428  0.97614141  0.60456357  1
  Bi  Bi34  1  0.02696848  0.99744501  0.50244135  1
  Bi  Bi35  1  0.01687325  0.53028496  0.45471582  1
  Bi  Bi36  1  0.98081780  0.01917670  0.19999945  1
  Bi  Bi37  1  0.96962989  0.00023126  0.09698612  1
  Bi  Bi38  1  0.99782338  0.02437133  0.30221947  1
  Bi  Bi39  1  0.94224094  0.02834034  0.99705813  1
  O  O40  1  0.01171917  0.78418391  0.97959031  1
  O  O41  1  0.96336514  0.23363615  0.97024783  1
  O  O42  1  0.93375243  0.25966483  0.91934173  1
  O  O43  1  0.46884216  0.73911317  0.97024783  1
  O  O44  1  0.98393664  0.23953582  0.87358634  1
  O  O45  1  0.00037021  0.75655584  0.82512957  1
  O  O46  1  0.45941068  0.26675494  0.92477995  1
  O  O47  1  0.49632753  0.75192672  0.87358634  1
  O  O48  1  0.98104453  0.78838879  0.92477995  1
  O  O49  1  0.49473990  0.25092552  0.82512957  1
  O  O50  1  0.00384286  0.76304982  0.87668927  1
  O  O51  1  0.51853578  0.75473355  0.77616373  1
  O  O52  1  0.52782257  0.23801195  0.72494173  1
  O  O53  1  0.00616786  0.74711393  0.77532818  1
  O  O54  1  0.14877699  0.21363923  0.63624162  1
  O  O55  1  0.52257733  0.75416575  0.67674898  1
  O  O56  1  0.99405193  0.24891022  0.82429622  1
  O  O57  1  0.00690375  0.24310152  0.77616373  1
  O  O58  1  0.01140534  0.72159472  0.72494173  1
  O  O59  1  0.55885110  0.15309857  0.61969407  1
  O  O60  1  0.99024948  0.71641555  0.67066650  1
  O  O61  1  0.59115419  0.70765689  0.57581233  1
  O  O62  1  0.04319188  0.23777789  0.72809698  1
  O  O63  1  0.00325778  0.25800466  0.47555293  1
  O  O64  1  0.04384215  0.63808962  0.61969407  1
  O  O65  1  0.01332408  0.24491250  0.67674898  1
  O  O66  1  0.51245202  0.22355624  0.52620161  1
  O  O67  1  0.49752467  0.75227154  0.47555293  1
  O  O68  1  0.00181895  0.21020405  0.37415668  1
  O  O69  1  0.03845989  0.74956411  0.52620161  1
  O  O70  1  0.05046645  0.16696914  0.57581233  1
  O  O71  1  0.50312895  0.23994997  0.42559884  1
  O  O72  1  0.04579065  0.25333828  0.32991289  1
  O  O73  1  0.53136278  0.73974788  0.37415668  1
  O  O74  1  0.01883496  0.23709302  0.52559280  1
  O  O75  1  0.99033218  0.20056281  0.27443983  1
  O  O76  1  0.01603845  0.75285946  0.42559884  1
  O  O77  1  0.44146837  0.16903615  0.31568457  1
  O  O78  1  0.54383553  0.75406617  0.27443983  1
  O  O79  1  0.95949808  0.28450442  0.42440025  1
  O  O80  1  0.96273130  0.22856062  0.17144023  1
  O  O81  1  0.98780953  0.71537731  0.31568457  1
  O  O82  1  0.46400493  0.18648083  0.21690368  1
  O  O83  1  0.48584168  0.75167100  0.17144023  1
  O  O84  1  0.96959470  0.21231532  0.07231958  1
  O  O85  1  0.98255595  0.70503185  0.21690368  1
  O  O86  1  0.39866528  0.12243096  0.10797542  1
  O  O87  1  0.51088050  0.75360112  0.07231958  1
  O  O88  1  0.06607892  0.25228850  0.23183674  1
  O  O89  1  0.95732329  0.68108896  0.10797542  1
  O  O90  1  0.40639029  0.31440614  0.02489479  1
  O  O91  1  0.06623101  0.22359018  0.12898212  1
  O  O92  1  0.93454171  0.84255756  0.02489479  1
  O  O93  1  0.85723543  0.26470909  0.01219445  1
