# generated using pymatgen
data_Cu11Sb4S13
_symmetry_space_group_name_H-M   'P 1'
_cell_length_a   9.09942664
_cell_length_b   8.91107828
_cell_length_c   8.91107758
_cell_angle_alpha   106.03878555
_cell_angle_beta   110.69652829
_cell_angle_gamma   110.69652410
_symmetry_Int_Tables_number   1
_chemical_formula_structural   Cu11Sb4S13
_chemical_formula_sum   'Cu11 Sb4 S13'
_cell_volume   561.94485391
_cell_formula_units_Z   1
loop_
 _symmetry_equiv_pos_site_id
 _symmetry_equiv_pos_as_xyz
  1  'x, y, z'
loop_
 _atom_site_type_symbol
 _atom_site_label
 _atom_site_symmetry_multiplicity
 _atom_site_fract_x
 _atom_site_fract_y
 _atom_site_fract_z
 _atom_site_occupancy
  Cu  Cu0  1  0.23161285  0.00252083  0.22151716  1
  Cu  Cu1  1  0.98458494  0.20546256  0.20546256  1
  Cu  Cu2  1  0.38858563  0.71094263  0.71094263  1
  Cu  Cu3  1  0.23161285  0.22151716  0.00252083  1
  Cu  Cu4  1  0.49349287  0.25549997  0.74995649  1
  Cu  Cu5  1  0.49349287  0.74995649  0.25549997  1
  Cu  Cu6  1  0.97664160  0.77168275  0.77168275  1
  Cu  Cu7  1  0.75635158  0.25466512  0.50894136  1
  Cu  Cu8  1  0.75635158  0.50894136  0.25466512  1
  Cu  Cu9  1  0.77441044  0.00430909  0.77910850  1
  Cu  Cu10  1  0.77441044  0.77910850  0.00430909  1
  Sb  Sb11  1  0.00788183  0.00354700  0.46703690  1
  Sb  Sb12  1  0.54469217  0.53207082  0.53207082  1
  Sb  Sb13  1  0.46872444  0.02504342  0.02504342  1
  Sb  Sb14  1  0.00788183  0.46703690  0.00354700  1
  S  S15  1  0.24841765  0.25146709  0.76646654  1
  S  S16  1  0.24841765  0.76646654  0.25146709  1
  S  S17  1  0.23336557  0.45840519  0.45840519  1
  S  S18  1  0.00222821  0.99790609  0.99790609  1
  S  S19  1  0.48493634  0.22203306  0.48154031  1
  S  S20  1  0.48493634  0.48154031  0.22203306  1
  S  S21  1  0.52498256  0.76665453  0.00831222  1
  S  S22  1  0.52498256  0.00831222  0.76665453  1
  S  S23  1  0.99809303  0.52351990  0.74744114  1
  S  S24  1  0.99809303  0.74744114  0.52351990  1
  S  S25  1  0.74865936  0.51441975  0.99649038  1
  S  S26  1  0.74865936  0.99649038  0.51441975  1
  S  S27  1  0.78350044  0.26303918  0.26303918  1
