# generated using pymatgen
data_Na11Ti20O40
_symmetry_space_group_name_H-M   'P 1'
_cell_length_a   5.87769034
_cell_length_b   5.87768395
_cell_length_c   117.23882155
_cell_angle_alpha   29.50980975
_cell_angle_beta   29.50974461
_cell_angle_gamma   29.70738071
_symmetry_Int_Tables_number   1
_chemical_formula_structural   Na11Ti20O40
_chemical_formula_sum   'Na11 Ti20 O40'
_cell_volume   873.42975746
_cell_formula_units_Z   1
loop_
 _symmetry_equiv_pos_site_id
 _symmetry_equiv_pos_as_xyz
  1  'x, y, z'
loop_
 _atom_site_type_symbol
 _atom_site_label
 _atom_site_symmetry_multiplicity
 _atom_site_fract_x
 _atom_site_fract_y
 _atom_site_fract_z
 _atom_site_occupancy
  Na  Na0  1  0.99744203  0.99744212  0.05028662  1
  Na  Na1  1  0.00268465  0.00268439  0.44970467  1
  Na  Na2  1  0.03656614  0.03656760  0.54626937  1
  Na  Na3  1  0.99979238  0.99979168  0.70000731  1
  Na  Na4  1  0.00515427  0.00515268  0.59951360  1
  Na  Na5  1  0.00012032  0.00011780  0.64998624  1
  Na  Na6  1  0.99971380  0.99971461  0.85003099  1
  Na  Na7  1  0.99950666  0.99950811  0.75005030  1
  Na  Na8  1  0.99996915  0.99996836  0.80000944  1
  Na  Na9  1  0.99426226  0.99426221  0.90056195  1
  Na  Na10  1  0.96304347  0.96304163  0.95376657  1
  Ti  Ti11  1  0.50305510  0.50304684  0.02402530  1
  Ti  Ti12  1  0.49958215  0.49958010  0.07566249  1
  Ti  Ti13  1  0.48977964  0.48978316  0.12594436  1
  Ti  Ti14  1  0.49191626  0.49191828  0.17576060  1
  Ti  Ti15  1  0.49755436  0.49755529  0.22525713  1
  Ti  Ti16  1  0.50261850  0.50261924  0.27472640  1
  Ti  Ti17  1  0.50844778  0.50844486  0.32420083  1
  Ti  Ti18  1  0.51208349  0.51208352  0.37387271  1
  Ti  Ti19  1  0.50300781  0.50300576  0.42408975  1
  Ti  Ti20  1  0.49625906  0.49626192  0.47603356  1
  Ti  Ti21  1  0.49713312  0.49713559  0.52482683  1
  Ti  Ti22  1  0.49745618  0.49745693  0.57539457  1
  Ti  Ti23  1  0.49363580  0.49363368  0.62562692  1
  Ti  Ti24  1  0.50093937  0.50093655  0.67492331  1
  Ti  Ti25  1  0.50201394  0.50201229  0.72479990  1
  Ti  Ti26  1  0.49686123  0.49686179  0.77532302  1
  Ti  Ti27  1  0.50037552  0.50037510  0.82495306  1
  Ti  Ti28  1  0.50626424  0.50626758  0.87437335  1
  Ti  Ti29  1  0.50109296  0.50109634  0.92475129  1
  Ti  Ti30  1  0.50138536  0.50138583  0.97533755  1
  O  O31  1  0.21501010  0.21501041  0.01256691  1
  O  O32  1  0.23838929  0.23839224  0.06069872  1
  O  O33  1  0.76212205  0.76212101  0.03919419  1
  O  O34  1  0.22848922  0.22849267  0.11081802  1
  O  O35  1  0.79131126  0.79131052  0.08712843  1
  O  O36  1  0.22844398  0.22844451  0.16073266  1
  O  O37  1  0.78315451  0.78315141  0.13799196  1
  O  O38  1  0.22536971  0.22536893  0.21108019  1
  O  O39  1  0.77973951  0.77973690  0.18839849  1
  O  O40  1  0.22259523  0.22259582  0.26135938  1
  O  O41  1  0.77708918  0.77708462  0.23867297  1
  O  O42  1  0.22030956  0.22031462  0.31160232  1
  O  O43  1  0.77470637  0.77470421  0.28890547  1
  O  O44  1  0.21780560  0.21781155  0.36191423  1
  O  O45  1  0.77244222  0.77244013  0.33916581  1
  O  O46  1  0.20962906  0.20963166  0.41277520  1
  O  O47  1  0.77273838  0.77273670  0.38904743  1
  O  O48  1  0.23838922  0.23838795  0.46076095  1
  O  O49  1  0.76179750  0.76179936  0.43928067  1
  O  O50  1  0.21858644  0.21858466  0.51236998  1
  O  O51  1  0.78549934  0.78550093  0.48742080  1
  O  O52  1  0.23378114  0.23378253  0.56177856  1
  O  O53  1  0.76158459  0.76158659  0.53902410  1
  O  O54  1  0.23269247  0.23268593  0.61204061  1
  O  O55  1  0.76618371  0.76618371  0.58821219  1
  O  O56  1  0.23324309  0.23324174  0.66208247  1
  O  O57  1  0.76600182  0.76600492  0.63799402  1
  O  O58  1  0.23313750  0.23313842  0.71205898  1
  O  O59  1  0.76448294  0.76448336  0.68818130  1
  O  O60  1  0.23437873  0.23437894  0.76185660  1
  O  O61  1  0.76479592  0.76479633  0.73823722  1
  O  O62  1  0.23533483  0.23533454  0.81184371  1
  O  O63  1  0.76547377  0.76547113  0.78807246  1
  O  O64  1  0.23394282  0.23394142  0.86203804  1
  O  O65  1  0.76522125  0.76522078  0.83804482  1
  O  O66  1  0.23345896  0.23345357  0.91181046  1
  O  O67  1  0.76655296  0.76655520  0.88806756  1
  O  O68  1  0.23860967  0.23861439  0.96090807  1
  O  O69  1  0.76646944  0.76648045  0.93822070  1
  O  O70  1  0.78131970  0.78131336  0.98757336  1
