# generated using pymatgen
data_Ce5CuSe8
_symmetry_space_group_name_H-M   'P 1'
_cell_length_a   7.67891862
_cell_length_b   7.67891839
_cell_length_c   7.67891850
_cell_angle_alpha   110.44650340
_cell_angle_beta   107.53778450
_cell_angle_gamma   110.44650393
_symmetry_Int_Tables_number   1
_chemical_formula_structural   Ce5CuSe8
_chemical_formula_sum   'Ce5 Cu1 Se8'
_cell_volume   348.26414881
_cell_formula_units_Z   1
loop_
 _symmetry_equiv_pos_site_id
 _symmetry_equiv_pos_as_xyz
  1  'x, y, z'
loop_
 _atom_site_type_symbol
 _atom_site_label
 _atom_site_symmetry_multiplicity
 _atom_site_fract_x
 _atom_site_fract_y
 _atom_site_fract_z
 _atom_site_occupancy
  Ce  Ce0  1  0.24112500  0.62669992  0.36887034  1
  Ce  Ce1  1  0.37500000  0.25000000  0.62500000  1
  Ce  Ce2  1  0.74217042  0.87330008  0.11442508  1
  Ce  Ce3  1  0.63112966  0.37225467  0.25782958  1
  Ce  Ce4  1  0.88557492  0.12774533  0.75887500  1
  Cu  Cu5  1  0.12500000  0.75000000  0.87500000  1
  Se  Se6  1  0.98949005  0.85069469  0.47861547  1
  Se  Se7  1  0.52138453  0.01087458  0.37207921  1
  Se  Se8  1  0.14764167  0.12073086  0.13974393  1
  Se  Se9  1  0.36120463  0.48912542  0.01050995  1
  Se  Se10  1  0.47308919  0.99210225  0.85235833  1
  Se  Se11  1  0.62792079  0.64930531  0.63879537  1
  Se  Se12  1  0.86025607  0.50789775  0.98098693  1
  Se  Se13  1  0.01901307  0.37926914  0.52691081  1
