# generated using pymatgen
data_Mo(HO2)2
_symmetry_space_group_name_H-M   'P 1'
_cell_length_a   7.61561616
_cell_length_b   6.35590081
_cell_length_c   3.76314388
_cell_angle_alpha   105.92810001
_cell_angle_beta   88.07589992
_cell_angle_gamma   112.92436768
_symmetry_Int_Tables_number   1
_chemical_formula_structural   Mo(HO2)2
_chemical_formula_sum   'Mo2 H4 O8'
_cell_volume   160.77043282
_cell_formula_units_Z   2
loop_
 _symmetry_equiv_pos_site_id
 _symmetry_equiv_pos_as_xyz
  1  'x, y, z'
loop_
 _atom_site_type_symbol
 _atom_site_label
 _atom_site_symmetry_multiplicity
 _atom_site_fract_x
 _atom_site_fract_y
 _atom_site_fract_z
 _atom_site_occupancy
  Mo  Mo0  1  0.78610668  0.91807775  0.72442622  1
  Mo  Mo1  1  0.21389332  0.08192225  0.27557378  1
  H  H2  1  0.85516606  0.41107528  0.97416181  1
  H  H3  1  0.14483394  0.58892472  0.02583819  1
  H  H4  1  0.68723618  0.46670657  0.50124062  1
  H  H5  1  0.31276382  0.53329343  0.49875938  1
  O  O6  1  0.54068264  0.79360549  0.67492307  1
  O  O7  1  0.45931736  0.20639451  0.32507693  1
  O  O8  1  0.13185261  0.05146803  0.76344862  1
  O  O9  1  0.86814739  0.94853197  0.23655138  1
  O  O10  1  0.82105865  0.23961048  0.87892722  1
  O  O11  1  0.17894135  0.76038952  0.12107278  1
  O  O12  1  0.80602631  0.61012390  0.59271669  1
  O  O13  1  0.19397369  0.38987610  0.40728331  1
