# generated using pymatgen
data_La8Cu7O19
_symmetry_space_group_name_H-M   'P 1'
_cell_length_a   3.77502533
_cell_length_b   7.15672184
_cell_length_c   34.24698307
_cell_angle_alpha   87.11969629
_cell_angle_beta   86.88906686
_cell_angle_gamma   74.83754045
_symmetry_Int_Tables_number   1
_chemical_formula_structural   La8Cu7O19
_chemical_formula_sum   'La16 Cu14 O38'
_cell_volume   891.09431764
_cell_formula_units_Z   2
loop_
 _symmetry_equiv_pos_site_id
 _symmetry_equiv_pos_as_xyz
  1  'x, y, z'
loop_
 _atom_site_type_symbol
 _atom_site_label
 _atom_site_symmetry_multiplicity
 _atom_site_fract_x
 _atom_site_fract_y
 _atom_site_fract_z
 _atom_site_occupancy
  La  La0  1  0.46206454  0.94477929  0.18212686  1
  La  La1  1  0.34262334  0.07632152  0.28928469  1
  La  La2  1  0.53121007  0.05283941  0.81852983  1
  La  La3  1  0.66157815  0.92145326  0.71146058  1
  La  La4  1  0.40657290  0.44340233  0.68201773  1
  La  La5  1  0.70520906  0.42145974  0.21086008  1
  La  La6  1  0.75534380  0.79090998  0.60558432  1
  La  La7  1  0.58728899  0.55491651  0.31834851  1
  La  La8  1  0.83874956  0.29403728  0.10585559  1
  La  La9  1  0.56094604  0.32105180  0.57584456  1
  La  La10  1  0.45992992  0.18033102  0.92426076  1
  La  La11  1  0.23944736  0.20888041  0.39441058  1
  La  La12  1  0.29693894  0.57561923  0.78946904  1
  La  La13  1  0.53924412  0.81929978  0.07574452  1
  La  La14  1  0.43264936  0.68192330  0.42391528  1
  La  La15  1  0.15736916  0.70620293  0.89432285  1
  Cu  Cu16  1  0.76577122  0.99099240  0.46861694  1
  Cu  Cu17  1  0.02700865  0.74947385  0.24976997  1
  Cu  Cu18  1  0.77250018  0.49920747  0.96890027  1
  Cu  Cu19  1  0.22919205  0.50198244  0.03104247  1
  Cu  Cu20  1  0.13971344  0.61973348  0.14201494  1
  Cu  Cu21  1  0.23399530  0.00739387  0.53115471  1
  Cu  Cu22  1  0.77628474  0.15216973  0.02300420  1
  Cu  Cu23  1  0.85718549  0.37916204  0.85825766  1
  Cu  Cu24  1  0.97509715  0.24714221  0.74998911  1
  Cu  Cu25  1  0.95177644  0.34818737  0.47711829  1
  Cu  Cu26  1  0.04262345  0.65348817  0.52304913  1
  Cu  Cu27  1  0.90349288  0.88357648  0.35824229  1
  Cu  Cu28  1  0.09380055  0.11856068  0.64190855  1
  Cu  Cu29  1  0.22081545  0.84468582  0.97711150  1
  O  O30  1  0.67311568  0.72065548  0.83510169  1
  O  O31  1  0.64286531  0.61750098  0.14252176  1
  O  O32  1  0.08249637  0.67748812  0.19662156  1
  O  O33  1  0.67051953  0.34789827  0.43021680  1
  O  O34  1  0.40433301  0.88562952  0.35772809  1
  O  O35  1  0.79002883  0.59343962  0.73001400  1
  O  O36  1  0.81923069  0.44202125  0.91328751  1
  O  O37  1  0.44453070  0.15434811  0.06918753  1
  O  O38  1  0.76023280  0.44544998  0.02818466  1
  O  O39  1  0.22559021  0.06354330  0.47161559  1
  O  O40  1  0.21646095  0.40531993  0.27011469  1
  O  O41  1  0.76044786  0.22038509  0.33486832  1
  O  O42  1  0.24065422  0.55534978  0.97181111  1
  O  O43  1  0.17949086  0.55616804  0.08680254  1
  O  O44  1  0.77017791  0.93640326  0.52876013  1
  O  O45  1  0.52532382  0.74963416  0.25019209  1
  O  O46  1  0.32526182  0.65455139  0.56972326  1
  O  O47  1  0.07783479  0.36727973  0.52971309  1
  O  O48  1  0.59443210  0.11665091  0.64252057  1
  O  O49  1  0.97730063  0.12777405  0.96948233  1
  O  O50  1  0.17178178  0.05581159  0.58691236  1
  O  O51  1  0.91834897  0.63393694  0.46944432  1
  O  O52  1  0.82566316  0.94345774  0.41299473  1
  O  O53  1  0.47380390  0.24709532  0.75047201  1
  O  O54  1  0.02459392  0.86729437  0.03028252  1
  O  O55  1  0.89059288  0.46493198  0.62846289  1
  O  O56  1  0.32155900  0.27977367  0.16520858  1
  O  O57  1  0.09989797  0.53467580  0.37164451  1
  O  O58  1  0.55212961  0.84250891  0.93052892  1
  O  O59  1  0.91679733  0.31890788  0.80325171  1
  O  O60  1  0.35566502  0.38097120  0.85759866  1
  O  O61  1  0.23003161  0.77566990  0.66511922  1
  O  O62  1  0.11711564  0.90206337  0.76963565  1
  O  O63  1  0.99241257  0.03435087  0.87097144  1
  O  O64  1  0.88474977  0.09506479  0.22973863  1
  O  O65  1  0.00589796  0.96392742  0.12883812  1
  O  O66  1  0.03933429  0.17849967  0.69658547  1
  O  O67  1  0.96024022  0.82206383  0.30346416  1
