# generated using pymatgen
data_H8CS(NO)4
_symmetry_space_group_name_H-M   'P 1'
_cell_length_a   6.12240344
_cell_length_b   7.41038209
_cell_length_c   7.88866744
_cell_angle_alpha   105.96412798
_cell_angle_beta   100.95270228
_cell_angle_gamma   94.40570046
_symmetry_Int_Tables_number   1
_chemical_formula_structural   H8CS(NO)4
_chemical_formula_sum   'H16 C2 S2 N8 O8'
_cell_volume   334.65939005
_cell_formula_units_Z   2
loop_
 _symmetry_equiv_pos_site_id
 _symmetry_equiv_pos_as_xyz
  1  'x, y, z'
loop_
 _atom_site_type_symbol
 _atom_site_label
 _atom_site_symmetry_multiplicity
 _atom_site_fract_x
 _atom_site_fract_y
 _atom_site_fract_z
 _atom_site_occupancy
  H  H0  1  0.63629461  0.90976249  0.33542793  1
  H  H1  1  0.36370539  0.09023751  0.66457207  1
  H  H2  1  0.90685902  0.85531070  0.32922290  1
  H  H3  1  0.09314098  0.14468930  0.67077710  1
  H  H4  1  0.72059149  0.30510356  0.03967841  1
  H  H5  1  0.27940851  0.69489644  0.96032159  1
  H  H6  1  0.55020454  0.42010636  0.16869272  1
  H  H7  1  0.44979546  0.57989364  0.83130728  1
  H  H8  1  0.59897786  0.24305206  0.36334652  1
  H  H9  1  0.40102214  0.75694794  0.63665348  1
  H  H10  1  0.84195223  0.46654494  0.25013108  1
  H  H11  1  0.15804777  0.53345506  0.74986892  1
  H  H12  1  0.08973840  0.25215850  0.19509419  1
  H  H13  1  0.91026160  0.74784150  0.80490581  1
  H  H14  1  0.13158077  0.02126553  0.20269355  1
  H  H15  1  0.86841923  0.97873447  0.79730645  1
  C  C16  1  0.83663093  0.09516956  0.25804670  1
  C  C17  1  0.16336907  0.90483044  0.74195330  1
  S  S18  1  0.73266382  0.34729599  0.71978377  1
  S  S19  1  0.26733618  0.65270401  0.28021623  1
  N  N20  1  0.70387175  0.36124628  0.17548640  1
  N  N21  1  0.29612825  0.63875372  0.82451360  1
  N  N22  1  0.79089672  0.94531020  0.31375765  1
  N  N23  1  0.20910328  0.05468980  0.68624235  1
  N  N24  1  0.02811249  0.12463772  0.20727467  1
  N  N25  1  0.97188751  0.87536228  0.79272533  1
  N  N26  1  0.67357986  0.20997973  0.25063831  1
  N  N27  1  0.32642014  0.79002027  0.74936169  1
  O  O28  1  0.71587484  0.53803345  0.84205603  1
  O  O29  1  0.28412516  0.46196655  0.15794397  1
  O  O30  1  0.73955513  0.20640988  0.82543719  1
  O  O31  1  0.26044487  0.79359012  0.17456281  1
  O  O32  1  0.53232951  0.28672194  0.56687358  1
  O  O33  1  0.46767049  0.71327806  0.43312642  1
  O  O34  1  0.94277555  0.35611011  0.65036690  1
  O  O35  1  0.05722445  0.64388989  0.34963310  1
