# generated using pymatgen
data_Ga2CuO4
_symmetry_space_group_name_H-M   'P 1'
_cell_length_a   5.92784240
_cell_length_b   5.92784318
_cell_length_c   35.22072873
_cell_angle_alpha   60.33700359
_cell_angle_beta   60.33699930
_cell_angle_gamma   60.57186679
_symmetry_Int_Tables_number   1
_chemical_formula_structural   Ga2CuO4
_chemical_formula_sum   'Ga24 Cu12 O48'
_cell_volume   883.34666846
_cell_formula_units_Z   12
loop_
 _symmetry_equiv_pos_site_id
 _symmetry_equiv_pos_as_xyz
  1  'x, y, z'
loop_
 _atom_site_type_symbol
 _atom_site_label
 _atom_site_symmetry_multiplicity
 _atom_site_fract_x
 _atom_site_fract_y
 _atom_site_fract_z
 _atom_site_occupancy
  Ga  Ga0  1  0.00284742  0.00284742  0.00080136  1
  Ga  Ga1  1  0.00388268  0.00388268  0.16670302  1
  Ga  Ga2  1  0.13047023  0.62164689  0.10386807  1
  Ga  Ga3  1  0.62164689  0.13047023  0.10386807  1
  Ga  Ga4  1  0.62153212  0.62153212  0.02197248  1
  Ga  Ga5  1  0.00780073  0.00780073  0.33142187  1
  Ga  Ga6  1  0.12602832  0.62305512  0.27096993  1
  Ga  Ga7  1  0.62305512  0.12602832  0.27096993  1
  Ga  Ga8  1  0.62126340  0.62126340  0.18889029  1
  Ga  Ga9  1  0.24299485  0.24299485  0.37648228  1
  Ga  Ga10  1  0.00676551  0.00676551  0.49879693  1
  Ga  Ga11  1  0.12540456  0.62552920  0.43727381  1
  Ga  Ga12  1  0.62552920  0.12540456  0.43727381  1
  Ga  Ga13  1  0.24339446  0.24339446  0.54273460  1
  Ga  Ga14  1  0.00677617  0.00677617  0.66554165  1
  Ga  Ga15  1  0.12498377  0.62495276  0.60417659  1
  Ga  Ga16  1  0.62495276  0.12498377  0.60417659  1
  Ga  Ga17  1  0.24334710  0.24334710  0.70946043  1
  Ga  Ga18  1  0.00628002  0.00628002  0.83236390  1
  Ga  Ga19  1  0.12501437  0.62485182  0.77083310  1
  Ga  Ga20  1  0.62485182  0.12501437  0.77083310  1
  Ga  Ga21  1  0.24498779  0.24498779  0.87522615  1
  Ga  Ga22  1  0.13047815  0.62409646  0.93676741  1
  Ga  Ga23  1  0.62409646  0.13047815  0.93676741  1
  Cu  Cu24  1  0.24679855  0.24679855  0.04152275  1
  Cu  Cu25  1  0.24614720  0.24614720  0.20865984  1
  Cu  Cu26  1  0.62098070  0.62098070  0.10368625  1
  Cu  Cu27  1  0.62243013  0.62243013  0.27069820  1
  Cu  Cu28  1  0.62547099  0.62547099  0.35394040  1
  Cu  Cu29  1  0.62522411  0.62522411  0.43737246  1
  Cu  Cu30  1  0.62511732  0.62511732  0.52074393  1
  Cu  Cu31  1  0.62494363  0.62494363  0.60416525  1
  Cu  Cu32  1  0.62488715  0.62488715  0.68751974  1
  Cu  Cu33  1  0.62488542  0.62488542  0.77091632  1
  Cu  Cu34  1  0.62503953  0.62503953  0.85412303  1
  Cu  Cu35  1  0.62446761  0.62446761  0.93680683  1
  O  O36  1  0.38607916  0.38607916  0.06414838  1
  O  O37  1  0.38131263  0.84301196  0.06365938  1
  O  O38  1  0.38089911  0.38089911  0.14084625  1
  O  O39  1  0.84301196  0.38131263  0.06365938  1
  O  O40  1  0.38598686  0.38598686  0.23197552  1
  O  O41  1  0.39685286  0.87312523  0.14539656  1
  O  O42  1  0.87239191  0.87239191  0.06638629  1
  O  O43  1  0.87312523  0.39685286  0.14539656  1
  O  O44  1  0.38279058  0.83940310  0.23090698  1
  O  O45  1  0.37155076  0.37155076  0.31156006  1
  O  O46  1  0.83940310  0.38279058  0.23090698  1
  O  O47  1  0.86858905  0.86858905  0.14461717  1
  O  O48  1  0.37346891  0.37346891  0.39913741  1
  O  O49  1  0.39442045  0.87902371  0.31030329  1
  O  O50  1  0.87511486  0.87511486  0.23212638  1
  O  O51  1  0.87902371  0.39442045  0.31030329  1
  O  O52  1  0.36914246  0.85562085  0.39816992  1
  O  O53  1  0.37383266  0.37383266  0.47667194  1
  O  O54  1  0.85562085  0.36914246  0.39816992  1
  O  O55  1  0.87657732  0.87657732  0.30931591  1
  O  O56  1  0.37395525  0.37395525  0.56540790  1
  O  O57  1  0.39401952  0.88001821  0.47718705  1
  O  O58  1  0.87657878  0.87657878  0.39821033  1
  O  O59  1  0.88001821  0.39401952  0.47718705  1
  O  O60  1  0.37385045  0.37385045  0.64322571  1
  O  O61  1  0.36989599  0.85606810  0.56455003  1
  O  O62  1  0.87565035  0.87565035  0.47635729  1
  O  O63  1  0.85606810  0.36989599  0.56455003  1
  O  O64  1  0.37381304  0.37381304  0.73203601  1
  O  O65  1  0.39384281  0.88029743  0.64381538  1
  O  O66  1  0.88029743  0.39384281  0.64381538  1
  O  O67  1  0.87613837  0.87613837  0.56508081  1
  O  O68  1  0.37463555  0.37463555  0.80936536  1
  O  O69  1  0.36997901  0.85609676  0.73111384  1
  O  O70  1  0.85609676  0.36997901  0.73111384  1
  O  O71  1  0.87628387  0.87628387  0.64290510  1
  O  O72  1  0.37199379  0.37199379  0.89812516  1
  O  O73  1  0.39278456  0.88112145  0.81047254  1
  O  O74  1  0.87628076  0.87628076  0.73179248  1
  O  O75  1  0.88112145  0.39278456  0.81047254  1
  O  O76  1  0.38578624  0.38578624  0.97156426  1
  O  O77  1  0.36755061  0.86134837  0.89717508  1
  O  O78  1  0.87677325  0.87677325  0.80951373  1
  O  O79  1  0.86134837  0.36755061  0.89717508  1
  O  O80  1  0.39486896  0.87523955  0.97914170  1
  O  O81  1  0.87523955  0.39486896  0.97914170  1
  O  O82  1  0.87329110  0.87329110  0.89922916  1
  O  O83  1  0.86786720  0.86786720  0.97829008  1
