# generated using pymatgen
data_Eu(Ni3S4)2
_symmetry_space_group_name_H-M   'P 1'
_cell_length_a   6.22594995
_cell_length_b   6.22803906
_cell_length_c   6.23416109
_cell_angle_alpha   89.54644687
_cell_angle_beta   89.50603789
_cell_angle_gamma   89.52889960
_symmetry_Int_Tables_number   1
_chemical_formula_structural   Eu(Ni3S4)2
_chemical_formula_sum   'Eu1 Ni6 S8'
_cell_volume   241.70786709
_cell_formula_units_Z   1
loop_
 _symmetry_equiv_pos_site_id
 _symmetry_equiv_pos_as_xyz
  1  'x, y, z'
loop_
 _atom_site_type_symbol
 _atom_site_label
 _atom_site_symmetry_multiplicity
 _atom_site_fract_x
 _atom_site_fract_y
 _atom_site_fract_z
 _atom_site_occupancy
  Eu  Eu0  1  -0.00031986  0.00065049  0.99955277  1
  Ni  Ni1  1  0.40723179  0.19365049  0.56875130  1
  Ni  Ni2  1  0.56924783  0.40742229  0.19319610  1
  Ni  Ni3  1  0.59293453  0.80628215  0.43140826  1
  Ni  Ni4  1  0.80715660  0.43072938  0.59230685  1
  Ni  Ni5  1  0.19286348  0.56917771  0.40786697  1
  Ni  Ni6  1  0.43088467  0.59239099  0.80672437  1
  S  S7  1  0.14743245  0.38435355  0.72927880  1
  S  S8  1  0.27092859  0.85233111  0.61545557  1
  S  S9  1  0.74493639  0.74485389  0.74484852  1
  S  S10  1  0.25509610  0.25513134  0.25543201  1
  S  S11  1  0.85261053  0.61566280  0.27074083  1
  S  S12  1  0.38364133  0.72866129  0.14732296  1
  S  S13  1  0.72910223  0.14765121  0.38434059  1
  S  S14  1  0.61625333  0.27105129  0.85277410  1
