# generated using pymatgen
data_MoH4O5
_symmetry_space_group_name_H-M   'P 1'
_cell_length_a   8.24561816
_cell_length_b   6.45686849
_cell_length_c   4.31469973
_cell_angle_alpha   78.64307562
_cell_angle_beta   90.51555612
_cell_angle_gamma   90.31894739
_symmetry_Int_Tables_number   1
_chemical_formula_structural   MoH4O5
_chemical_formula_sum   'Mo2 H8 O10'
_cell_volume   225.20957058
_cell_formula_units_Z   2
loop_
 _symmetry_equiv_pos_site_id
 _symmetry_equiv_pos_as_xyz
  1  'x, y, z'
loop_
 _atom_site_type_symbol
 _atom_site_label
 _atom_site_symmetry_multiplicity
 _atom_site_fract_x
 _atom_site_fract_y
 _atom_site_fract_z
 _atom_site_occupancy
  Mo  Mo0  1  0.69664357  0.01516333  0.93851418  1
  Mo  Mo1  1  0.19697406  0.98507478  0.05847665  1
  H  H2  1  0.05416568  0.44816166  0.37169054  1
  H  H3  1  0.55564161  0.55104357  0.63239994  1
  H  H4  1  0.72398791  0.19780496  0.39501660  1
  H  H5  1  0.22088319  0.80206411  0.60182721  1
  H  H6  1  0.92722555  0.44245967  0.64375709  1
  H  H7  1  0.83502960  0.64908508  0.19753969  1
  H  H8  1  0.42584658  0.55804219  0.36008683  1
  H  H9  1  0.33707401  0.35175135  0.80530334  1
  O  O10  1  0.98665109  0.98661251  0.00501315  1
  O  O11  1  0.48640404  0.01325793  0.98518474  1
  O  O12  1  0.97230271  0.53171196  0.45307779  1
  O  O13  1  0.47254902  0.46823924  0.55086340  1
  O  O14  1  0.71755334  0.04383630  0.47552791  1
  O  O15  1  0.21721613  0.95626762  0.52302380  1
  O  O16  1  0.75858317  0.27752360  0.93481600  1
  O  O17  1  0.73845978  0.72281738  0.07915899  1
  O  O18  1  0.25722077  0.72211342  0.06854398  1
  O  O19  1  0.24056720  0.27751033  0.92201215  1
