# generated using pymatgen
data_Ca10V5Fe15(BiO24)2
_symmetry_space_group_name_H-M   'P 1'
_cell_length_a   10.90036241
_cell_length_b   10.90077488
_cell_length_c   10.90518943
_cell_angle_alpha   109.59280461
_cell_angle_beta   109.24939352
_cell_angle_gamma   109.52195827
_symmetry_Int_Tables_number   1
_chemical_formula_structural   Ca10V5Fe15(BiO24)2
_chemical_formula_sum   'Ca10 V5 Fe15 Bi2 O48'
_cell_volume   998.09395730
_cell_formula_units_Z   1
loop_
 _symmetry_equiv_pos_site_id
 _symmetry_equiv_pos_as_xyz
  1  'x, y, z'
loop_
 _atom_site_type_symbol
 _atom_site_label
 _atom_site_symmetry_multiplicity
 _atom_site_fract_x
 _atom_site_fract_y
 _atom_site_fract_z
 _atom_site_occupancy
  Ca  Ca0  1  0.12831984  0.37447594  0.75222514  1
  Ca  Ca1  1  0.25432848  0.87494540  0.62668156  1
  Ca  Ca2  1  0.12492231  0.25016540  0.37484073  1
  Ca  Ca3  1  0.62064976  0.87564357  0.74821576  1
  Ca  Ca4  1  0.25250335  0.37614736  0.12436679  1
  Ca  Ca5  1  0.74749665  0.62385264  0.87563321  1
  Ca  Ca6  1  0.37935024  0.12435643  0.25178424  1
  Ca  Ca7  1  0.87507769  0.74983460  0.62515927  1
  Ca  Ca8  1  0.87168016  0.62552406  0.24777486  1
  Ca  Ca9  1  0.74567152  0.12505460  0.37331844  1
  V  V10  1  0.00000000  0.00000000  0.50000000  1
  V  V11  1  0.00000000  0.50000000  0.50000000  1
  V  V12  1  0.00000000  0.50000000  0.00000000  1
  V  V13  1  0.00000000  0.00000000  0.00000000  1
  V  V14  1  0.50000000  0.50000000  0.50000000  1
  Fe  Fe15  1  0.12285037  0.74916347  0.87373758  1
  Fe  Fe16  1  0.12487524  0.87526516  0.24859270  1
  Fe  Fe17  1  0.37421499  0.62635330  0.74874398  1
  Fe  Fe18  1  0.24860183  0.12545085  0.87321453  1
  Fe  Fe19  1  0.25090870  0.62568645  0.37653303  1
  Fe  Fe20  1  0.50000000  0.00000000  0.50000000  1
  Fe  Fe21  1  0.37296936  0.25033800  0.62294647  1
  Fe  Fe22  1  0.62703064  0.74966200  0.37705353  1
  Fe  Fe23  1  0.50000000  0.50000000  0.00000000  1
  Fe  Fe24  1  0.62578501  0.37364670  0.25125602  1
  Fe  Fe25  1  0.74909130  0.37431355  0.62346697  1
  Fe  Fe26  1  0.75139817  0.87454915  0.12678547  1
  Fe  Fe27  1  0.50000000  0.00000000  0.00000000  1
  Fe  Fe28  1  0.87512476  0.12473484  0.75140730  1
  Fe  Fe29  1  0.87714963  0.25083653  0.12626242  1
  Bi  Bi30  1  0.38609709  0.75668444  0.12663034  1
  Bi  Bi31  1  0.61390291  0.24331556  0.87336966  1
  O  O32  1  0.09319099  0.98160859  0.66989290  1
  O  O33  1  0.01665450  0.32853160  0.90495202  1
  O  O34  1  0.10868142  0.59238385  0.91981992  1
  O  O35  1  0.07584749  0.69105861  0.67198176  1
  O  O36  1  0.07654712  0.88765785  0.40356787  1
  O  O37  1  0.09274093  0.61003402  0.42129682  1
  O  O38  1  0.17012993  0.48145412  0.59277513  1
  O  O39  1  0.41948132  0.82191611  0.79810750  1
  O  O40  1  0.37696654  0.58197949  0.90234478  1
  O  O41  1  0.29464459  0.32131684  0.91861510  1
  O  O42  1  0.32002424  0.91872864  0.29730819  1
  O  O43  1  0.02002602  0.19166683  0.11466916  1
  O  O44  1  0.17045353  0.19103914  0.57527390  1
  O  O45  1  0.18782197  0.57525987  0.17178471  1
  O  O46  1  0.40147744  0.81988451  0.52215390  1
  O  O47  1  0.30993870  0.48185440  0.38688364  1
  O  O48  1  0.31839440  0.90179457  0.02123477  1
  O  O49  1  0.11061210  0.01802268  0.18916962  1
  O  O50  1  0.51729283  0.61048287  0.68813199  1
  O  O51  1  0.40489862  0.08483411  0.87758148  1
  O  O52  1  0.52443261  0.40365908  0.82012901  1
  O  O53  1  0.38435685  0.30977563  0.48000251  1
  O  O54  1  0.58245618  0.90263854  0.37791396  1
  O  O55  1  0.18774582  0.11043913  0.01652794  1
  O  O56  1  0.81225418  0.88956087  0.98347206  1
  O  O57  1  0.41754382  0.09736146  0.62208604  1
  O  O58  1  0.61564315  0.69022437  0.51999749  1
  O  O59  1  0.47556739  0.59634092  0.17987099  1
  O  O60  1  0.59510138  0.91516589  0.12241852  1
  O  O61  1  0.48270717  0.38951713  0.31186801  1
  O  O62  1  0.88938790  0.98197732  0.81083038  1
  O  O63  1  0.68160560  0.09820543  0.97876523  1
  O  O64  1  0.69006130  0.51814560  0.61311636  1
  O  O65  1  0.59852256  0.18011549  0.47784610  1
  O  O66  1  0.81217803  0.42474013  0.82821529  1
  O  O67  1  0.82954647  0.80896086  0.42472610  1
  O  O68  1  0.97997398  0.80833317  0.88533084  1
  O  O69  1  0.67997576  0.08127136  0.70269181  1
  O  O70  1  0.70535541  0.67868316  0.08138490  1
  O  O71  1  0.62303346  0.41802051  0.09765522  1
  O  O72  1  0.58051868  0.17808389  0.20189250  1
  O  O73  1  0.82987007  0.51854588  0.40722487  1
  O  O74  1  0.90725907  0.38996598  0.57870318  1
  O  O75  1  0.92345288  0.11234215  0.59643213  1
  O  O76  1  0.92415251  0.30894139  0.32801824  1
  O  O77  1  0.89131858  0.40761615  0.08018008  1
  O  O78  1  0.98334550  0.67146840  0.09504798  1
  O  O79  1  0.90680901  0.01839141  0.33010710  1
