# generated using pymatgen
data_Er18Ti14O55
_symmetry_space_group_name_H-M   'P 1'
_cell_length_a   7.22741170
_cell_length_b   7.24449660
_cell_length_c   28.83132247
_cell_angle_alpha   59.83157891
_cell_angle_beta   59.52343803
_cell_angle_gamma   59.92176968
_symmetry_Int_Tables_number   1
_chemical_formula_structural   Er18Ti14O55
_chemical_formula_sum   'Er18 Ti14 O55'
_cell_volume   1061.56146986
_cell_formula_units_Z   1
loop_
 _symmetry_equiv_pos_site_id
 _symmetry_equiv_pos_as_xyz
  1  'x, y, z'
loop_
 _atom_site_type_symbol
 _atom_site_label
 _atom_site_symmetry_multiplicity
 _atom_site_fract_x
 _atom_site_fract_y
 _atom_site_fract_z
 _atom_site_occupancy
  Er  Er0  1  0.99826582  0.98221380  0.13432665  1
  Er  Er1  1  0.51846168  0.99005391  0.00035763  1
  Er  Er2  1  0.50824161  0.98560415  0.12624386  1
  Er  Er3  1  0.47710136  0.52406934  0.99368999  1
  Er  Er4  1  0.99729584  0.49726875  0.37704166  1
  Er  Er5  1  0.50824161  0.50117879  0.12624386  1
  Er  Er6  1  0.49777041  0.99734814  0.37690510  1
  Er  Er7  1  0.49680227  0.49633422  0.25263232  1
  Er  Er8  1  0.99062027  0.50773473  0.12347757  1
  Er  Er9  1  0.00117604  0.49954773  0.62493212  1
  Er  Er10  1  0.49777041  0.49726106  0.37690510  1
  Er  Er11  1  0.49972684  0.49975660  0.50018999  1
  Er  Er12  1  0.50033064  0.49989711  0.62470788  1
  Er  Er13  1  0.51129495  0.00542923  0.87169391  1
  Er  Er14  1  0.50110175  0.50275162  0.74834875  1
  Er  Er15  1  0.50033064  0.00094074  0.62470788  1
  Er  Er16  1  0.51129495  0.49650019  0.87169391  1
  Er  Er17  1  0.00109759  0.50471444  0.87236838  1
  Ti  Ti18  1  0.00535134  0.00451779  0.00137259  1
  Ti  Ti19  1  0.99847351  0.99736627  0.37669849  1
  Ti  Ti20  1  0.48991481  0.00216897  0.25143681  1
  Ti  Ti21  1  0.00535134  0.48464051  0.00137259  1
  Ti  Ti22  1  0.00150228  0.00288535  0.25203868  1
  Ti  Ti23  1  0.49906916  0.99905569  0.50070486  1
  Ti  Ti24  1  0.00185606  0.00001113  0.74959833  1
  Ti  Ti25  1  0.00150228  0.48745764  0.25203868  1
  Ti  Ti26  1  0.99487855  0.00206675  0.87524699  1
  Ti  Ti27  1  0.99904034  0.99884501  0.50083750  1
  Ti  Ti28  1  0.49844278  0.00089323  0.74994269  1
  Ti  Ti29  1  0.99980415  0.99777825  0.62615984  1
  Ti  Ti30  1  0.99904034  0.49876465  0.50083750  1
  Ti  Ti31  1  0.00185606  0.49973949  0.74959833  1
  O  O32  1  0.12262247  0.13041794  0.16283178  1
  O  O33  1  0.08359690  0.66529297  0.02145379  1
  O  O34  1  0.63362538  0.14503186  0.02890956  1
  O  O35  1  0.12262247  0.59563446  0.16283178  1
  O  O36  1  0.08126155  0.08063694  0.41739964  1
  O  O37  1  0.32960106  0.32859047  0.23856599  1
  O  O38  1  0.36479726  0.88194174  0.09282932  1
  O  O39  1  0.06828379  0.68626878  0.26479516  1
  O  O40  1  0.61136577  0.11725084  0.16353364  1
  O  O41  1  0.63362538  0.60570252  0.02890956  1
  O  O42  1  0.68650326  0.06643235  0.26523465  1
  O  O43  1  0.92030432  0.34616097  0.08297853  1
  O  O44  1  0.37311063  0.37156543  0.34593963  1
  O  O45  1  0.32960106  0.88754650  0.23856599  1
  O  O46  1  0.63277236  0.61476506  0.15942438  1
  O  O47  1  0.08126155  0.66850095  0.41739964  1
  O  O48  1  0.08364251  0.08327007  0.66559625  1
  O  O49  1  0.33266545  0.33232929  0.47903464  1
  O  O50  1  0.33088759  0.91692213  0.33381754  1
  O  O51  1  0.08184837  0.66917273  0.51995204  1
  O  O52  1  0.66828573  0.08093240  0.41746187  1
  O  O53  1  0.88595111  0.32375389  0.24163577  1
  O  O54  1  0.92030432  0.90161858  0.08297853  1
  O  O55  1  0.68650326  0.68612780  0.26523465  1
  O  O56  1  0.66932011  0.08139683  0.51987162  1
  O  O57  1  0.37608908  0.37427470  0.59384038  1
  O  O58  1  0.33266545  0.91886469  0.47903464  1
  O  O59  1  0.91607246  0.33146644  0.33432828  1
  O  O60  1  0.62371955  0.62524113  0.40644955  1
  O  O61  1  0.08364251  0.67070040  0.66559625  1
  O  O62  1  0.03959966  0.08101694  0.92130419  1
  O  O63  1  0.33394239  0.33163896  0.72793749  1
  O  O64  1  0.33209982  0.91998224  0.58198442  1
  O  O65  1  0.08837494  0.67308735  0.76636309  1
  O  O66  1  0.67148022  0.08140872  0.66642508  1
  O  O67  1  0.91842533  0.33284912  0.47896861  1
  O  O68  1  0.91607246  0.91514998  0.33432828  1
  O  O69  1  0.66932011  0.66979857  0.51987162  1
  O  O70  1  0.66941445  0.08425222  0.76899541  1
  O  O71  1  0.91932345  0.33168829  0.58213338  1
  O  O72  1  0.37027435  0.38072896  0.84206693  1
  O  O73  1  0.03959966  0.69416465  0.92130419  1
  O  O74  1  0.62612445  0.62744779  0.65474499  1
  O  O75  1  0.33394239  0.92266670  0.72793749  1
  O  O76  1  0.32960311  0.35887334  0.97290462  1
  O  O77  1  0.32808398  0.92186480  0.83204711  1
  O  O78  1  0.66352151  0.10784078  0.90519873  1
  O  O79  1  0.92099163  0.33264299  0.72843010  1
  O  O80  1  0.91932345  0.92045676  0.58213338  1
  O  O81  1  0.66941445  0.67035370  0.76899541  1
  O  O82  1  0.32960311  0.91990308  0.97290462  1
  O  O83  1  0.92700008  0.34262903  0.83040510  1
  O  O84  1  0.62879648  0.62887688  0.90336244  1
  O  O85  1  0.97410809  0.31431952  0.97431272  1
  O  O86  1  0.92700008  0.90875247  0.83040510  1
