# generated using pymatgen
data_Sr2La14Zn3Cu5O32
_symmetry_space_group_name_H-M   'P 1'
_cell_length_a   5.40187197
_cell_length_b   5.56178331
_cell_length_c   28.09371580
_cell_angle_alpha   89.84216397
_cell_angle_beta   112.57316990
_cell_angle_gamma   90.00352806
_symmetry_Int_Tables_number   1
_chemical_formula_structural   Sr2La14Zn3Cu5O32
_chemical_formula_sum   'Sr2 La14 Zn3 Cu5 O32'
_cell_volume   779.38283372
_cell_formula_units_Z   1
loop_
 _symmetry_equiv_pos_site_id
 _symmetry_equiv_pos_as_xyz
  1  'x, y, z'
loop_
 _atom_site_type_symbol
 _atom_site_label
 _atom_site_symmetry_multiplicity
 _atom_site_fract_x
 _atom_site_fract_y
 _atom_site_fract_z
 _atom_site_occupancy
  Sr  Sr0  1  0.13731268  0.50487053  0.31878080  1
  Sr  Sr1  1  0.64378905  0.99577791  0.07215533  1
  La  La2  1  0.13984541  0.51324178  0.82030362  1
  La  La3  1  0.36527156  0.01661732  0.93237551  1
  La  La4  1  0.13780805  0.51498847  0.56937373  1
  La  La5  1  0.36071150  0.01421960  0.67983363  1
  La  La6  1  0.63937083  0.98667287  0.82036180  1
  La  La7  1  0.86307801  0.48520345  0.93115961  1
  La  La8  1  0.35287675  0.02265750  0.42616879  1
  La  La9  1  0.63757475  0.98255812  0.56923960  1
  La  La10  1  0.86226354  0.48643018  0.68072084  1
  La  La11  1  0.13859761  0.51893834  0.07082460  1
  La  La12  1  0.36015765  0.01406785  0.18003241  1
  La  La13  1  0.63461470  0.97945562  0.31783368  1
  La  La14  1  0.85644564  0.49010904  0.42821760  1
  La  La15  1  0.86225396  0.48403021  0.18083284  1
  Zn  Zn16  1  0.00198402  0.99912933  0.75102943  1
  Zn  Zn17  1  0.99312814  0.00248316  0.49658582  1
  Zn  Zn18  1  0.50279029  0.50095120  0.75142136  1
  Cu  Cu19  1  0.99877386  0.99882020  0.24937456  1
  Cu  Cu20  1  0.49753131  0.49845831  0.49875909  1
  Cu  Cu21  1  0.00417015  0.00055842  0.00224548  1
  Cu  Cu22  1  0.50101797  0.49844807  0.25049284  1
  Cu  Cu23  1  0.50404738  0.50336785  0.00224305  1
  O  O24  1  0.23490355  0.74811248  0.99319433  1
  O  O25  1  0.18367666  0.94127346  0.84099064  1
  O  O26  1  0.31041908  0.44099796  0.90614073  1
  O  O27  1  0.23568614  0.75142294  0.74223976  1
  O  O28  1  0.26473222  0.24943993  0.75724439  1
  O  O29  1  0.73725192  0.74794840  0.99299334  1
  O  O30  1  0.18364199  0.94297063  0.59108967  1
  O  O31  1  0.31624903  0.43864107  0.65860070  1
  O  O32  1  0.68047031  0.55750959  0.84008741  1
  O  O33  1  0.81408384  0.05376702  0.90760530  1
  O  O34  1  0.24399690  0.74403638  0.49497474  1
  O  O35  1  0.26938110  0.25564454  0.50794420  1
  O  O36  1  0.73397160  0.75082005  0.74231971  1
  O  O37  1  0.76370131  0.24889026  0.75733435  1
  O  O38  1  0.17970158  0.96983155  0.33896652  1
  O  O39  1  0.32201854  0.43038720  0.41075643  1
  O  O40  1  0.69133489  0.56727991  0.59489491  1
  O  O41  1  0.81554014  0.06008638  0.65854142  1
  O  O42  1  0.24586352  0.74830085  0.24418032  1
  O  O43  1  0.26525435  0.24807089  0.25314346  1
  O  O44  1  0.73625769  0.74396478  0.49510184  1
  O  O45  1  0.76203264  0.25523370  0.50802135  1
  O  O46  1  0.18159134  0.94495281  0.09087738  1
  O  O47  1  0.31455354  0.44705277  0.15699763  1
  O  O48  1  0.68835025  0.56619591  0.34400897  1
  O  O49  1  0.82138362  0.05141671  0.41095959  1
  O  O50  1  0.25121353  0.25595123  0.00218518  1
  O  O51  1  0.73108168  0.74855529  0.24419926  1
  O  O52  1  0.74712803  0.24789458  0.25325247  1
  O  O53  1  0.69036650  0.52931741  0.09271649  1
  O  O54  1  0.83248717  0.04628907  0.16611491  1
  O  O55  1  0.75625953  0.25568893  0.00195559  1
