# generated using pymatgen
data_NiP2O7
_symmetry_space_group_name_H-M   'P 1'
_cell_length_a   6.99702194
_cell_length_b   8.29225339
_cell_length_c   9.71070954
_cell_angle_alpha   90.00000000
_cell_angle_beta   107.57748536
_cell_angle_gamma   90.00000000
_symmetry_Int_Tables_number   1
_chemical_formula_structural   NiP2O7
_chemical_formula_sum   'Ni4 P8 O28'
_cell_volume   537.11916039
_cell_formula_units_Z   4
loop_
 _symmetry_equiv_pos_site_id
 _symmetry_equiv_pos_as_xyz
  1  'x, y, z'
loop_
 _atom_site_type_symbol
 _atom_site_label
 _atom_site_symmetry_multiplicity
 _atom_site_fract_x
 _atom_site_fract_y
 _atom_site_fract_z
 _atom_site_occupancy
  Ni  Ni0  1  0.72344836  0.77038132  0.00592037  1
  Ni  Ni1  1  0.27655164  0.22961868  0.99407963  1
  Ni  Ni2  1  0.27655164  0.27038132  0.49407963  1
  Ni  Ni3  1  0.72344836  0.72961868  0.50592037  1
  P  P4  1  0.93871456  0.96689844  0.79189700  1
  P  P5  1  0.53996121  0.41858326  0.29176661  1
  P  P6  1  0.06128544  0.46689844  0.70810300  1
  P  P7  1  0.53996121  0.08141674  0.79176661  1
  P  P8  1  0.46003879  0.58141674  0.70823339  1
  P  P9  1  0.06128544  0.03310156  0.20810300  1
  P  P10  1  0.93871456  0.53310156  0.29189700  1
  P  P11  1  0.46003879  0.91858326  0.20823339  1
  O  O12  1  0.09760786  0.10613187  0.35701747  1
  O  O13  1  0.07151730  0.17433956  0.10675672  1
  O  O14  1  0.90239214  0.89386813  0.64298253  1
  O  O15  1  0.49898996  0.72094688  0.61517519  1
  O  O16  1  0.86331112  0.94622404  0.14860257  1
  O  O17  1  0.09760786  0.39386813  0.85701747  1
  O  O18  1  0.86331112  0.55377596  0.64860257  1
  O  O19  1  0.92848270  0.67433956  0.39324328  1
  O  O20  1  0.76783536  0.39985731  0.28687841  1
  O  O21  1  0.52900946  0.57818631  0.36691083  1
  O  O22  1  0.60115766  0.59430468  0.86028460  1
  O  O23  1  0.49898996  0.77905312  0.11517519  1
  O  O24  1  0.39884234  0.40569532  0.13971540  1
  O  O25  1  0.13668888  0.44622404  0.35139743  1
  O  O26  1  0.50101004  0.22094688  0.88482481  1
  O  O27  1  0.52900946  0.92181369  0.86691083  1
  O  O28  1  0.60115766  0.90569532  0.36028460  1
  O  O29  1  0.76783536  0.10014269  0.78687841  1
  O  O30  1  0.23216464  0.89985731  0.21312159  1
  O  O31  1  0.47099054  0.07818631  0.13308917  1
  O  O32  1  0.13668888  0.05377596  0.85139743  1
  O  O33  1  0.23216464  0.60014269  0.71312159  1
  O  O34  1  0.90239214  0.60613187  0.14298253  1
  O  O35  1  0.47099054  0.42181369  0.63308917  1
  O  O36  1  0.07151730  0.32566044  0.60675672  1
  O  O37  1  0.39884234  0.09430468  0.63971540  1
  O  O38  1  0.50101004  0.27905312  0.38482481  1
  O  O39  1  0.92848270  0.82566044  0.89324328  1
