# generated using pymatgen
data_Mn(PO3)3
_symmetry_space_group_name_H-M   'P 1'
_cell_length_a   9.58962193
_cell_length_b   9.55035055
_cell_length_c   9.52859483
_cell_angle_alpha   111.67785572
_cell_angle_beta   106.18513827
_cell_angle_gamma   106.76916361
_symmetry_Int_Tables_number   1
_chemical_formula_structural   Mn(PO3)3
_chemical_formula_sum   'Mn4 P12 O36'
_cell_volume   699.87872445
_cell_formula_units_Z   4
loop_
 _symmetry_equiv_pos_site_id
 _symmetry_equiv_pos_as_xyz
  1  'x, y, z'
loop_
 _atom_site_type_symbol
 _atom_site_label
 _atom_site_symmetry_multiplicity
 _atom_site_fract_x
 _atom_site_fract_y
 _atom_site_fract_z
 _atom_site_occupancy
  Mn  Mn0  1  0.79194622  0.70663769  0.88794137  1
  Mn  Mn1  1  0.28235999  0.23164218  0.73470651  1
  Mn  Mn2  1  0.71764001  0.76835782  0.26529349  1
  Mn  Mn3  1  0.20805378  0.29336231  0.11205863  1
  P  P4  1  0.64629450  0.39235164  0.00709456  1
  P  P5  1  0.08042793  0.91225148  0.81802668  1
  P  P6  1  0.91957207  0.08774852  0.18197332  1
  P  P7  1  0.69438746  0.32929091  0.57031314  1
  P  P8  1  0.40809816  0.57013489  0.69325989  1
  P  P9  1  0.83317808  0.20453793  0.94385901  1
  P  P10  1  0.90196915  0.15300385  0.51177198  1
  P  P11  1  0.59190184  0.42986511  0.30674011  1
  P  P12  1  0.30561254  0.67070909  0.42968686  1
  P  P13  1  0.35370550  0.60764836  0.99290544  1
  P  P14  1  0.09803085  0.84699615  0.48822802  1
  P  P15  1  0.16682192  0.79546207  0.05614099  1
  O  O16  1  0.19048855  0.09924587  0.89826910  1
  O  O17  1  0.36688434  0.65013021  0.84946798  1
  O  O18  1  0.25309322  0.51733935  0.26462446  1
  O  O19  1  0.19638467  0.62527424  0.99683903  1
  O  O20  1  0.86123672  0.30096838  0.59977401  1
  O  O21  1  0.50079756  0.73737623  0.15497793  1
  O  O22  1  0.32005016  0.42562304  0.94361142  1
  O  O23  1  0.55023429  0.17677004  0.50456933  1
  O  O24  1  0.08471524  0.13749628  0.18748111  1
  O  O25  1  0.05701731  0.18177343  0.63862584  1
  O  O26  1  0.41579313  0.32204563  0.25231959  1
  O  O27  1  0.82587824  0.17075800  0.09863075  1
  O  O28  1  0.06495466  0.81574902  0.63245258  1
  O  O29  1  0.94298269  0.81822657  0.36137416  1
  O  O30  1  0.17412176  0.82924200  0.90136925  1
  O  O31  1  0.49920244  0.26262377  0.84502207  1
  O  O32  1  0.70712335  0.06932037  0.78037641  1
  O  O33  1  0.76065438  0.98403821  0.43364264  1
  O  O34  1  0.64876940  0.61325930  0.36518407  1
  O  O35  1  0.35123060  0.38674070  0.63481693  1
  O  O36  1  0.29574637  0.60164854  0.56353582  1
  O  O37  1  0.00899904  0.27072643  0.97138398  1
  O  O38  1  0.91528476  0.86250372  0.81251889  1
  O  O39  1  0.74690678  0.48266065  0.73537554  1
  O  O40  1  0.44976571  0.82322996  0.49543067  1
  O  O41  1  0.80361533  0.37472576  0.00316097  1
  O  O42  1  0.58420687  0.67795437  0.74768041  1
  O  O43  1  0.13876328  0.69903162  0.40022599  1
  O  O44  1  0.99100096  0.72927357  0.02861602  1
  O  O45  1  0.23934562  0.01596179  0.56635736  1
  O  O46  1  0.70425363  0.39835146  0.43646418  1
  O  O47  1  0.93504534  0.18425098  0.36754742  1
  O  O48  1  0.63311566  0.34986979  0.15053202  1
  O  O49  1  0.80951145  0.90075413  0.10173090  1
  O  O50  1  0.29287665  0.93067963  0.21962359  1
  O  O51  1  0.67994984  0.57437696  0.05638858  1
