# generated using pymatgen
data_VH4NO3
_symmetry_space_group_name_H-M   'P 1'
_cell_length_a   4.95935043
_cell_length_b   12.00363654
_cell_length_c   5.85986322
_cell_angle_alpha   90.00000000
_cell_angle_beta   90.00000000
_cell_angle_gamma   90.00000000
_symmetry_Int_Tables_number   1
_chemical_formula_structural   VH4NO3
_chemical_formula_sum   'V4 H16 N4 O12'
_cell_volume   348.83906407
_cell_formula_units_Z   4
loop_
 _symmetry_equiv_pos_site_id
 _symmetry_equiv_pos_as_xyz
  1  'x, y, z'
loop_
 _atom_site_type_symbol
 _atom_site_label
 _atom_site_symmetry_multiplicity
 _atom_site_fract_x
 _atom_site_fract_y
 _atom_site_fract_z
 _atom_site_occupancy
  V  V0  1  0.46420966  0.32687628  0.75000000  1
  V  V1  1  0.53579034  0.67312372  0.25000000  1
  V  V2  1  0.46420966  0.17312372  0.25000000  1
  V  V3  1  0.53579034  0.82687628  0.75000000  1
  H  H4  1  0.75671789  0.04386927  0.75000000  1
  H  H5  1  0.24328211  0.95613073  0.25000000  1
  H  H6  1  0.75671789  0.45613073  0.25000000  1
  H  H7  1  0.24328211  0.54386927  0.75000000  1
  H  H8  1  0.10354381  0.03029824  0.75000000  1
  H  H9  1  0.89645619  0.96970176  0.25000000  1
  H  H10  1  0.10354381  0.46970176  0.25000000  1
  H  H11  1  0.89645619  0.53029824  0.75000000  1
  H  H12  1  0.95100750  0.13629412  0.89260054  1
  H  H13  1  0.04899250  0.86370588  0.39260054  1
  H  H14  1  0.95100750  0.36370588  0.10739946  1
  H  H15  1  0.04899250  0.63629412  0.60739946  1
  H  H16  1  0.04899250  0.86370588  0.10739946  1
  H  H17  1  0.95100750  0.13629412  0.60739946  1
  H  H18  1  0.04899250  0.63629412  0.89260054  1
  H  H19  1  0.95100750  0.36370588  0.39260054  1
  N  N20  1  0.94097566  0.08609854  0.75000000  1
  N  N21  1  0.05902434  0.91390146  0.25000000  1
  N  N22  1  0.94097566  0.41390146  0.25000000  1
  N  N23  1  0.05902434  0.58609854  0.75000000  1
  O  O24  1  0.12790074  0.33070871  0.75000000  1
  O  O25  1  0.87209926  0.66929129  0.25000000  1
  O  O26  1  0.12790074  0.16929129  0.25000000  1
  O  O27  1  0.87209926  0.83070871  0.75000000  1
  O  O28  1  0.57812987  0.45931294  0.75000000  1
  O  O29  1  0.42187013  0.54068706  0.25000000  1
  O  O30  1  0.57812987  0.04068706  0.25000000  1
  O  O31  1  0.42187013  0.95931294  0.75000000  1
  O  O32  1  0.58119418  0.25000000  0.50000000  1
  O  O33  1  0.41880582  0.75000000  0.00000000  1
  O  O34  1  0.41880582  0.75000000  0.50000000  1
  O  O35  1  0.58119418  0.25000000  0.00000000  1
