# generated using pymatgen
data_K2Cr2O7
_symmetry_space_group_name_H-M   'P 1'
_cell_length_a   6.71776820
_cell_length_b   8.14085825
_cell_length_c   16.04409595
_cell_angle_alpha   93.96846158
_cell_angle_beta   90.00000000
_cell_angle_gamma   90.00000000
_symmetry_Int_Tables_number   1
_chemical_formula_structural   K2Cr2O7
_chemical_formula_sum   'K8 Cr8 O28'
_cell_volume   875.32210797
_cell_formula_units_Z   4
loop_
 _symmetry_equiv_pos_site_id
 _symmetry_equiv_pos_as_xyz
  1  'x, y, z'
loop_
 _atom_site_type_symbol
 _atom_site_label
 _atom_site_symmetry_multiplicity
 _atom_site_fract_x
 _atom_site_fract_y
 _atom_site_fract_z
 _atom_site_occupancy
  K  K0  1  0.50000000  0.76030844  0.14604210  1
  K  K1  1  0.00000000  0.71393001  0.36842340  1
  K  K2  1  0.50000000  0.28606999  0.13157660  1
  K  K3  1  0.00000000  0.28606999  0.63157660  1
  K  K4  1  0.50000000  0.23969156  0.85395790  1
  K  K5  1  0.00000000  0.76030844  0.64604210  1
  K  K6  1  0.50000000  0.71393001  0.86842340  1
  K  K7  1  0.00000000  0.23969156  0.35395790  1
  Cr  Cr8  1  0.50000000  0.43433274  0.63597151  1
  Cr  Cr9  1  0.00000000  0.43433274  0.13597151  1
  Cr  Cr10  1  0.00000000  0.56566726  0.86402849  1
  Cr  Cr11  1  0.50000000  0.56566726  0.36402849  1
  Cr  Cr12  1  0.50000000  0.00215745  0.62933756  1
  Cr  Cr13  1  0.50000000  0.99784255  0.37066244  1
  Cr  Cr14  1  0.00000000  0.99784255  0.87066244  1
  Cr  Cr15  1  0.00000000  0.00215745  0.12933756  1
  O  O16  1  0.79733735  0.48823993  0.90209142  1
  O  O17  1  0.20266265  0.51176007  0.09790858  1
  O  O18  1  0.70266265  0.48823993  0.40209142  1
  O  O19  1  0.79995248  0.07755227  0.91444737  1
  O  O20  1  0.00000000  0.78185942  0.88683583  1
  O  O21  1  0.50000000  0.53334139  0.26171339  1
  O  O22  1  0.70004752  0.92244773  0.58555263  1
  O  O23  1  0.00000000  0.21814058  0.11316417  1
  O  O24  1  0.20004752  0.07755227  0.91444737  1
  O  O25  1  0.50000000  0.21814058  0.61316417  1
  O  O26  1  0.00000000  0.46665861  0.23828661  1
  O  O27  1  0.50000000  0.97400468  0.72994843  1
  O  O28  1  0.00000000  0.53334139  0.76171339  1
  O  O29  1  0.20004752  0.92244773  0.08555263  1
  O  O30  1  0.29995248  0.07755227  0.41444737  1
  O  O31  1  0.50000000  0.46665861  0.73828661  1
  O  O32  1  0.29733735  0.48823993  0.40209142  1
  O  O33  1  0.70266265  0.51176007  0.59790858  1
  O  O34  1  0.79733735  0.51176007  0.09790858  1
  O  O35  1  0.29733735  0.51176007  0.59790858  1
  O  O36  1  0.29995248  0.92244773  0.58555263  1
  O  O37  1  0.50000000  0.02599532  0.27005157  1
  O  O38  1  0.70004752  0.07755227  0.41444737  1
  O  O39  1  0.00000000  0.97400468  0.22994843  1
  O  O40  1  0.50000000  0.78185942  0.38683583  1
  O  O41  1  0.20266265  0.48823993  0.90209142  1
  O  O42  1  0.79995248  0.92244773  0.08555263  1
  O  O43  1  0.00000000  0.02599532  0.77005157  1
