# generated using pymatgen
data_V(PO3)3
_symmetry_space_group_name_H-M   'P 1'
_cell_length_a   9.67667046
_cell_length_b   9.43119243
_cell_length_c   9.42668123
_cell_angle_alpha   108.84794333
_cell_angle_beta   104.33726598
_cell_angle_gamma   109.33486825
_symmetry_Int_Tables_number   1
_chemical_formula_structural   V(PO3)3
_chemical_formula_sum   'V4 P12 O36'
_cell_volume   705.09184899
_cell_formula_units_Z   4
loop_
 _symmetry_equiv_pos_site_id
 _symmetry_equiv_pos_as_xyz
  1  'x, y, z'
loop_
 _atom_site_type_symbol
 _atom_site_label
 _atom_site_symmetry_multiplicity
 _atom_site_fract_x
 _atom_site_fract_y
 _atom_site_fract_z
 _atom_site_occupancy
  V  V0  1  0.78990334  0.69968044  0.89967070  1
  V  V1  1  0.27556138  0.22543298  0.74481125  1
  V  V2  1  0.21009666  0.30031956  0.10032930  1
  V  V3  1  0.72443862  0.77456702  0.25518875  1
  P  P4  1  0.90053291  0.15625955  0.51566981  1
  P  P5  1  0.07826542  0.90437147  0.81173364  1
  P  P6  1  0.59504218  0.43367305  0.30283751  1
  P  P7  1  0.40495782  0.56632695  0.69716249  1
  P  P8  1  0.83219243  0.20327693  0.93813430  1
  P  P9  1  0.16780757  0.79672307  0.06186570  1
  P  P10  1  0.92173458  0.09562853  0.18826636  1
  P  P11  1  0.64970916  0.39049186  -0.00013344  1
  P  P12  1  0.35029084  0.60950814  0.00013344  1
  P  P13  1  0.69648686  0.33366247  0.57265908  1
  P  P14  1  0.30351314  0.66633753  0.42734092  1
  P  P15  1  0.09946709  0.84374045  0.48433019  1
  O  O16  1  0.41878247  0.32893559  0.24916071  1
  O  O17  1  0.35499121  0.64082365  0.84513378  1
  O  O18  1  0.82158830  0.16591829  0.09637456  1
  O  O19  1  0.50079126  0.73785567  0.14574508  1
  O  O20  1  0.99252449  0.72439113  0.03506620  1
  O  O21  1  0.70962030  0.06628327  0.78317552  1
  O  O22  1  0.29550114  0.59126479  0.56355954  1
  O  O23  1  0.14228768  0.69699562  0.40682766  1
  O  O24  1  0.94395790  0.19335678  0.37055987  1
  O  O25  1  0.81495081  0.90508894  0.12279736  1
  O  O26  1  0.24410076  0.51176478  0.26792147  1
  O  O27  1  0.31395650  0.42653303  0.96339237  1
  O  O28  1  0.80320575  0.37164871  0.99081486  1
  O  O29  1  0.68604350  0.57346697  0.03660763  1
  O  O30  1  0.34813735  0.38083793  0.64705213  1
  O  O31  1  0.65186265  0.61916207  0.35294787  1
  O  O32  1  0.00747551  0.27560887  0.96493380  1
  O  O33  1  0.18504919  0.09491106  0.87720264  1
  O  O34  1  0.45073979  0.81615669  0.48496992  1
  O  O35  1  0.94759166  0.80977929  0.35818131  1
  O  O36  1  0.64500879  0.35917635  0.15486622  1
  O  O37  1  0.54926021  0.18384331  0.51503008  1
  O  O38  1  0.05604210  0.80664322  0.62944013  1
  O  O39  1  0.05240834  0.19022071  0.64181869  1
  O  O40  1  0.29037970  0.93371673  0.21682448  1
  O  O41  1  0.58121753  0.67106441  0.75083929  1
  O  O42  1  0.23621751  0.01543994  0.56107501  1
  O  O43  1  0.76378249  0.98456006  0.43892499  1
  O  O44  1  0.91893747  0.86066646  0.82300469  1
  O  O45  1  0.08106253  0.13933354  0.17699531  1
  O  O46  1  0.75589924  0.48823522  0.73207853  1
  O  O47  1  0.19679425  0.62835129  0.00918514  1
  O  O48  1  0.70449886  0.40873521  0.43644046  1
  O  O49  1  0.85771232  0.30300438  0.59317234  1
  O  O50  1  0.49920874  0.26214433  0.85425492  1
  O  O51  1  0.17841170  0.83408171  0.90362544  1
