# generated using pymatgen
data_Sr5La3Mn8(O5F)4
_symmetry_space_group_name_H-M   'P 1'
_cell_length_a   5.64614605
_cell_length_b   5.70831929
_cell_length_c   15.62281695
_cell_angle_alpha   89.82325822
_cell_angle_beta   89.91021438
_cell_angle_gamma   89.95164155
_symmetry_Int_Tables_number   1
_chemical_formula_structural   Sr5La3Mn8(O5F)4
_chemical_formula_sum   'Sr5 La3 Mn8 O20 F4'
_cell_volume   503.52026786
_cell_formula_units_Z   1
loop_
 _symmetry_equiv_pos_site_id
 _symmetry_equiv_pos_as_xyz
  1  'x, y, z'
loop_
 _atom_site_type_symbol
 _atom_site_label
 _atom_site_symmetry_multiplicity
 _atom_site_fract_x
 _atom_site_fract_y
 _atom_site_fract_z
 _atom_site_occupancy
  Sr  Sr0  1  0.01129544  0.50102771  0.12349307  1
  Sr  Sr1  1  0.00835809  0.50282857  0.62319541  1
  Sr  Sr2  1  0.49985188  0.00358655  0.37979200  1
  Sr  Sr3  1  0.48142047  0.00251630  0.87325013  1
  Sr  Sr4  1  0.49960005  0.00899210  0.12164479  1
  La  La5  1  0.53309389  0.00089733  0.61752494  1
  La  La6  1  0.97312957  0.50237721  0.38337429  1
  La  La7  1  0.99079097  0.49608888  0.87675250  1
  Mn  Mn8  1  0.01113532  0.01321422  0.00119206  1
  Mn  Mn9  1  0.50234368  0.50115350  0.24939260  1
  Mn  Mn10  1  0.50756087  0.51095669  0.75042268  1
  Mn  Mn11  1  0.48747608  0.49019642  0.00097002  1
  Mn  Mn12  1  0.49748888  0.49937558  0.50061950  1
  Mn  Mn13  1  0.00533646  0.00137151  0.24953371  1
  Mn  Mn14  1  0.00462288  0.00040478  0.50016145  1
  Mn  Mn15  1  0.98648084  0.98523174  0.75049439  1
  O  O16  1  0.99001550  0.07790935  0.37531888  1
  O  O17  1  0.00914264  0.07393375  0.87344867  1
  O  O18  1  0.22632439  0.72566957  0.48151433  1
  O  O19  1  0.22637628  0.72742313  0.76847632  1
  O  O20  1  0.21713427  0.72436374  0.98084663  1
  O  O21  1  0.26692540  0.23618440  0.01090424  1
  O  O22  1  0.25181046  0.25147955  0.23669669  1
  O  O23  1  0.27766510  0.22469642  0.51819684  1
  O  O24  1  0.49303798  0.56863536  0.12473522  1
  O  O25  1  0.49169713  0.57353831  0.62538862  1
  O  O26  1  0.50549339  0.44338733  0.87380854  1
  O  O27  1  0.52820276  0.43912974  0.37565924  1
  O  O28  1  0.76951344  0.73461070  0.26871800  1
  O  O29  1  0.73499020  0.76393702  0.48810623  1
  O  O30  1  0.74276419  0.75222803  0.76936207  1
  O  O31  1  0.76989742  0.27703317  0.01165040  1
  O  O32  1  0.76485944  0.26296836  0.51717658  1
  O  O33  1  0.75024562  0.24647223  0.73182585  1
  O  O34  1  0.00529470  0.94067232  0.12407743  1
  O  O35  1  0.98907872  0.94164680  0.62531553  1
  F  F36  1  0.25079946  0.74712560  0.28164088  1
  F  F37  1  0.26475598  0.23043478  0.73042434  1
  F  F38  1  0.72666832  0.77235491  0.97987851  1
  F  F39  1  0.74732184  0.24394633  0.22501642  1
