# generated using pymatgen
data_Rb2CuH4(C2O5)2
_symmetry_space_group_name_H-M   'P 1'
_cell_length_a   7.04898588
_cell_length_b   9.00767463
_cell_length_c   9.05867677
_cell_angle_alpha   107.82091529
_cell_angle_beta   97.95201090
_cell_angle_gamma   97.92191716
_symmetry_Int_Tables_number   1
_chemical_formula_structural   Rb2CuH4(C2O5)2
_chemical_formula_sum   'Rb4 Cu2 H8 C8 O20'
_cell_volume   532.32408212
_cell_formula_units_Z   2
loop_
 _symmetry_equiv_pos_site_id
 _symmetry_equiv_pos_as_xyz
  1  'x, y, z'
loop_
 _atom_site_type_symbol
 _atom_site_label
 _atom_site_symmetry_multiplicity
 _atom_site_fract_x
 _atom_site_fract_y
 _atom_site_fract_z
 _atom_site_occupancy
  Rb  Rb0  1  0.62872558  0.88079601  0.83243981  1
  Rb  Rb1  1  0.37127442  0.11920399  0.16756019  1
  Rb  Rb2  1  0.74391892  0.44978629  0.87169082  1
  Rb  Rb3  1  0.25608108  0.55021371  0.12830918  1
  Cu  Cu4  1  0.00000000  0.00000000  0.50000000  1
  Cu  Cu5  1  0.50000000  0.50000000  0.50000000  1
  H  H6  1  0.50267722  0.17210804  0.56198067  1
  H  H7  1  0.49732278  0.82789196  0.43801933  1
  H  H8  1  0.70554831  0.23099574  0.51466808  1
  H  H9  1  0.29445169  0.76900426  0.48533192  1
  H  H10  1  0.13765338  0.81784730  0.91750323  1
  H  H11  1  0.86234662  0.18215270  0.08249677  1
  H  H12  1  0.15206221  0.81204776  0.74465145  1
  H  H13  1  0.84793779  0.18795224  0.25534855  1
  C  C14  1  0.94355002  0.84898465  0.18159671  1
  C  C15  1  0.05644998  0.15101535  0.81840329  1
  C  C16  1  0.73704740  0.84339193  0.22400092  1
  C  C17  1  0.26295260  0.15660807  0.77599908  1
  C  C18  1  0.77835786  0.53496890  0.32460663  1
  C  C19  1  0.22164214  0.46503110  0.67539337  1
  C  C20  1  0.87145603  0.63392906  0.50037723  1
  C  C21  1  0.12854397  0.36607094  0.49962277  1
  O  O22  1  0.08754817  0.92392984  0.29680462  1
  O  O23  1  0.91245183  0.07607016  0.70319538  1
  O  O24  1  0.96089129  0.78140757  0.04194086  1
  O  O25  1  0.03910871  0.21859243  0.95805914  1
  O  O26  1  0.73497925  0.90900773  0.37274601  1
  O  O27  1  0.26502075  0.09099227  0.62725399  1
  O  O28  1  0.58840625  0.77775755  0.11972510  1
  O  O29  1  0.41159375  0.22224245  0.88027490  1
  O  O30  1  0.59889539  0.46360219  0.30147540  1
  O  O31  1  0.40110461  0.53639781  0.69852460  1
  O  O32  1  0.87474157  0.53099594  0.21845677  1
  O  O33  1  0.12525843  0.46900406  0.78154323  1
  O  O34  1  0.76624635  0.62130719  0.60297984  1
  O  O35  1  0.23375365  0.37869281  0.39702016  1
  O  O36  1  0.03796562  0.72041613  0.53460696  1
  O  O37  1  0.96203438  0.27958387  0.46539304  1
  O  O38  1  0.56982725  0.24463652  0.51539703  1
  O  O39  1  0.43017275  0.75536348  0.48460297  1
  O  O40  1  0.21634586  0.86677265  0.85655051  1
  O  O41  1  0.78365414  0.13322735  0.14344949  1
