# generated using pymatgen
data_Si2H2O5
_symmetry_space_group_name_H-M   'P 1'
_cell_length_a   8.69492084
_cell_length_b   8.58395718
_cell_length_c   8.63385372
_cell_angle_alpha   138.06930243
_cell_angle_beta   56.89706396
_cell_angle_gamma   145.61125609
_symmetry_Int_Tables_number   1
_chemical_formula_structural   Si2H2O5
_chemical_formula_sum   'Si4 H4 O10'
_cell_volume   239.25635023
_cell_formula_units_Z   2
loop_
 _symmetry_equiv_pos_site_id
 _symmetry_equiv_pos_as_xyz
  1  'x, y, z'
loop_
 _atom_site_type_symbol
 _atom_site_label
 _atom_site_symmetry_multiplicity
 _atom_site_fract_x
 _atom_site_fract_y
 _atom_site_fract_z
 _atom_site_occupancy
  Si  Si0  1  0.55634093  0.06744436  0.72477546  1
  Si  Si1  1  0.37806645  0.87847742  0.29850666  1
  Si  Si2  1  0.87323034  0.06456490  0.01198704  1
  Si  Si3  1  0.08224170  0.90164292  0.02342279  1
  H  H4  1  0.17309963  0.72327349  0.53332731  1
  H  H5  1  0.70223446  0.87772304  0.63247160  1
  H  H6  1  0.60217665  0.54191642  0.62729643  1
  H  H7  1  0.24108560  0.11080112  0.34154602  1
  O  O8  1  0.36549784  0.87370586  0.51178783  1
  O  O9  1  0.06163836  0.06740858  0.01408277  1
  O  O10  1  0.31821766  0.93023578  0.87040712  1
  O  O11  1  0.07863912  0.46756550  0.13380165  1
  O  O12  1  0.63927686  0.95617421  0.17729209  1
  O  O13  1  0.78721341  0.48005341  0.87009501  1
  O  O14  1  0.66632890  0.91357459  0.57513034  1
  O  O15  1  0.40038957  0.15803882  0.43517589  1
  O  O16  1  0.73812390  0.81277962  0.74956147  1
  O  O17  1  0.14580164  0.09307696  0.28859550  1
