# generated using pymatgen
data_NdH32C8N4Cl7
_symmetry_space_group_name_H-M   'P 1'
_cell_length_a   8.84582504
_cell_length_b   10.57203856
_cell_length_c   13.62024985
_cell_angle_alpha   90.00000000
_cell_angle_beta   90.00000000
_cell_angle_gamma   90.00000000
_symmetry_Int_Tables_number   1
_chemical_formula_structural   NdH32C8N4Cl7
_chemical_formula_sum   'Nd2 H64 C16 N8 Cl14'
_cell_volume   1273.74402012
_cell_formula_units_Z   2
loop_
 _symmetry_equiv_pos_site_id
 _symmetry_equiv_pos_as_xyz
  1  'x, y, z'
loop_
 _atom_site_type_symbol
 _atom_site_label
 _atom_site_symmetry_multiplicity
 _atom_site_fract_x
 _atom_site_fract_y
 _atom_site_fract_z
 _atom_site_occupancy
  Nd  Nd0  1  0.07011558  0.50000000  0.50000000  1
  Nd  Nd1  1  0.92988442  0.00000000  0.00000000  1
  H  H2  1  0.03522328  0.89566771  0.75575527  1
  H  H3  1  0.03522328  0.10433229  0.24424473  1
  H  H4  1  0.96477672  0.60433229  0.25575527  1
  H  H5  1  0.96477672  0.39566771  0.74424473  1
  H  H6  1  0.01780632  0.77539155  0.67750060  1
  H  H7  1  0.01780632  0.22460845  0.32249940  1
  H  H8  1  0.98219368  0.72460845  0.17750060  1
  H  H9  1  0.98219368  0.27539155  0.82249940  1
  H  H10  1  0.37665306  0.67835613  0.43337590  1
  H  H11  1  0.37665306  0.32164387  0.56662410  1
  H  H12  1  0.62334694  0.82164387  0.93337590  1
  H  H13  1  0.62334694  0.17835613  0.06662410  1
  H  H14  1  0.45763990  0.82274226  0.44233188  1
  H  H15  1  0.45763990  0.17725774  0.55766812  1
  H  H16  1  0.54236010  0.67725774  0.94233188  1
  H  H17  1  0.54236010  0.32274226  0.05766812  1
  H  H18  1  0.16823058  0.88276464  0.55586715  1
  H  H19  1  0.16823058  0.11723536  0.44413285  1
  H  H20  1  0.83176942  0.61723536  0.05586715  1
  H  H21  1  0.83176942  0.38276464  0.94413285  1
  H  H22  1  0.26679855  0.86673189  0.66948902  1
  H  H23  1  0.26679855  0.13326811  0.33051098  1
  H  H24  1  0.73320145  0.63326811  0.16948902  1
  H  H25  1  0.73320145  0.36673189  0.83051098  1
  H  H26  1  0.18239637  0.01536428  0.63768964  1
  H  H27  1  0.18239637  0.98463572  0.36231036  1
  H  H28  1  0.81760363  0.48463572  0.13768964  1
  H  H29  1  0.81760363  0.51536428  0.86231036  1
  H  H30  1  0.90168144  0.03474278  0.64054992  1
  H  H31  1  0.90168144  0.96525722  0.35945008  1
  H  H32  1  0.09831856  0.46525722  0.14054992  1
  H  H33  1  0.09831856  0.53474278  0.85945008  1
  H  H34  1  0.79198506  0.90443408  0.68405845  1
  H  H35  1  0.79198506  0.09556592  0.31594155  1
  H  H36  1  0.20801494  0.59556592  0.18405845  1
  H  H37  1  0.20801494  0.40443408  0.81594155  1
  H  H38  1  0.87402661  0.89852688  0.56425622  1
  H  H39  1  0.87402661  0.10147312  0.43574378  1
  H  H40  1  0.12597339  0.60147312  0.06425622  1
  H  H41  1  0.12597339  0.39852688  0.93574378  1
  H  H42  1  0.53833668  0.81417195  0.27353118  1
  H  H43  1  0.53833668  0.18582805  0.72646882  1
  H  H44  1  0.46166332  0.68582805  0.77353118  1
  H  H45  1  0.46166332  0.31417195  0.22646882  1
  H  H46  1  0.33878122  0.79273095  0.28438448  1
  H  H47  1  0.33878122  0.20726905  0.71561552  1
  H  H48  1  0.66121878  0.70726905  0.78438448  1
  H  H49  1  0.66121878  0.29273095  0.21561552  1
  H  H50  1  0.45810697  0.65871001  0.26364833  1
  H  H51  1  0.45810697  0.34128999  0.73635167  1
  H  H52  1  0.54189303  0.84128999  0.76364833  1
  H  H53  1  0.54189303  0.15871001  0.23635167  1
  H  H54  1  0.61694751  0.57813590  0.40817889  1
  H  H55  1  0.61694751  0.42186410  0.59182111  1
  H  H56  1  0.38305249  0.92186410  0.90817889  1
  H  H57  1  0.38305249  0.07813590  0.09182111  1
  H  H58  1  0.61368545  0.66866542  0.51899783  1
  H  H59  1  0.61368545  0.33133458  0.48100217  1
  H  H60  1  0.38631455  0.83133458  0.01899783  1
  H  H61  1  0.38631455  0.16866542  0.98100217  1
  H  H62  1  0.70452738  0.73090737  0.41234472  1
  H  H63  1  0.70452738  0.26909263  0.58765528  1
  H  H64  1  0.29547262  0.76909263  0.91234472  1
  H  H65  1  0.29547262  0.23090737  0.08765528  1
  C  C66  1  0.17180234  0.91302257  0.63249943  1
  C  C67  1  0.17180234  0.08697743  0.36750057  1
  C  C68  1  0.82819766  0.58697743  0.13249943  1
  C  C69  1  0.82819766  0.41302257  0.86750057  1
  C  C70  1  0.88945979  0.93211787  0.63943579  1
  C  C71  1  0.88945979  0.06788213  0.36056421  1
  C  C72  1  0.11054021  0.56788213  0.13943579  1
  C  C73  1  0.11054021  0.43211787  0.86056421  1
  C  C74  1  0.44953536  0.75070485  0.29986386  1
  C  C75  1  0.44953536  0.24929515  0.70013614  1
  C  C76  1  0.55046464  0.74929515  0.79986386  1
  C  C77  1  0.55046464  0.25070485  0.20013614  1
  C  C78  1  0.61012156  0.67347198  0.43866610  1
  C  C79  1  0.61012156  0.32652802  0.56133390  1
  C  C80  1  0.38987844  0.82652802  0.93866610  1
  C  C81  1  0.38987844  0.17347198  0.06133390  1
  N  N82  1  0.02874566  0.87302264  0.68157696  1
  N  N83  1  0.02874566  0.12697736  0.31842304  1
  N  N84  1  0.97125434  0.62697736  0.18157696  1
  N  N85  1  0.97125434  0.37302264  0.81842304  1
  N  N86  1  0.46501919  0.73298240  0.40786854  1
  N  N87  1  0.46501919  0.26701760  0.59213146  1
  N  N88  1  0.53498081  0.76701760  0.90786854  1
  N  N89  1  0.53498081  0.23298240  0.09213146  1
  Cl  Cl90  1  0.06088050  0.73190520  0.40589101  1
  Cl  Cl91  1  0.06088050  0.26809480  0.59410899  1
  Cl  Cl92  1  0.93911950  0.76809480  0.90589101  1
  Cl  Cl93  1  0.93911950  0.23190520  0.09410899  1
  Cl  Cl94  1  0.87208435  0.58757744  0.64267811  1
  Cl  Cl95  1  0.87208435  0.41242256  0.35732189  1
  Cl  Cl96  1  0.12791565  0.91242256  0.14267811  1
  Cl  Cl97  1  0.12791565  0.08757744  0.85732189  1
  Cl  Cl98  1  0.30235790  0.57864660  0.61999626  1
  Cl  Cl99  1  0.30235790  0.42135340  0.38000374  1
  Cl  Cl100  1  0.69764210  0.92135340  0.11999626  1
  Cl  Cl101  1  0.69764210  0.07864660  0.88000374  1
  Cl  Cl102  1  0.51520916  0.00000000  0.50000000  1
  Cl  Cl103  1  0.48479084  0.50000000  0.00000000  1
