# generated using pymatgen
data_LiNiP2O7
_symmetry_space_group_name_H-M   'P 1'
_cell_length_a   7.19952232
_cell_length_b   7.98762220
_cell_length_c   9.42496041
_cell_angle_alpha   90.00000000
_cell_angle_beta   109.64888013
_cell_angle_gamma   90.00000000
_symmetry_Int_Tables_number   1
_chemical_formula_structural   LiNiP2O7
_chemical_formula_sum   'Li4 Ni4 P8 O28'
_cell_volume   510.44154369
_cell_formula_units_Z   4
loop_
 _symmetry_equiv_pos_site_id
 _symmetry_equiv_pos_as_xyz
  1  'x, y, z'
loop_
 _atom_site_type_symbol
 _atom_site_label
 _atom_site_symmetry_multiplicity
 _atom_site_fract_x
 _atom_site_fract_y
 _atom_site_fract_z
 _atom_site_occupancy
  Li  Li0  1  0.80395133  0.47298630  0.28351407  1
  Li  Li1  1  0.19604867  0.52701370  0.71648593  1
  Li  Li2  1  0.80395133  0.02701370  0.78351407  1
  Li  Li3  1  0.19604867  0.97298630  0.21648593  1
  Ni  Ni4  1  0.76038424  0.49541091  0.74825081  1
  Ni  Ni5  1  0.23961576  0.50458909  0.25174919  1
  Ni  Ni6  1  0.23961576  0.99541091  0.75174919  1
  Ni  Ni7  1  0.76038424  0.00458909  0.24825081  1
  P  P8  1  0.82956774  0.79075916  0.54863832  1
  P  P9  1  0.41577502  0.73699342  0.54522510  1
  P  P10  1  0.41577502  0.76300658  0.04522510  1
  P  P11  1  0.82956774  0.70924084  0.04863832  1
  P  P12  1  0.17043226  0.29075916  0.95136168  1
  P  P13  1  0.58422498  0.23699342  0.95477490  1
  P  P14  1  0.58422498  0.26300658  0.45477490  1
  P  P15  1  0.17043226  0.20924084  0.45136168  1
  O  O16  1  0.12016878  0.39173858  0.39924916  1
  O  O17  1  0.71109975  0.36220982  0.90707704  1
  O  O18  1  0.28890025  0.63779018  0.09292296  1
  O  O19  1  0.53520931  0.42052089  0.35656263  1
  O  O20  1  0.61719989  0.66372395  0.06457274  1
  O  O21  1  0.61719989  0.83627605  0.56457274  1
  O  O22  1  0.53520931  0.07947911  0.85656263  1
  O  O23  1  0.81440493  0.79965768  0.38297631  1
  O  O24  1  0.95241270  0.57769931  0.15667530  1
  O  O25  1  0.69052709  0.28763733  0.62452862  1
  O  O26  1  0.28890025  0.86220982  0.59292296  1
  O  O27  1  0.04758730  0.07769931  0.34332470  1
  O  O28  1  0.18559507  0.20034232  0.61702369  1
  O  O29  1  0.81440493  0.70034232  0.88297631  1
  O  O30  1  0.12016878  0.10826142  0.89924916  1
  O  O31  1  0.38280011  0.16372395  0.43542726  1
  O  O32  1  0.71109975  0.13779018  0.40707704  1
  O  O33  1  0.69052709  0.21236267  0.12452862  1
  O  O34  1  0.46479069  0.92052089  0.14343737  1
  O  O35  1  0.87983122  0.60826142  0.60075084  1
  O  O36  1  0.18559507  0.29965768  0.11702369  1
  O  O37  1  0.87983122  0.89173858  0.10075084  1
  O  O38  1  0.30947291  0.71236267  0.37547138  1
  O  O39  1  0.46479069  0.57947911  0.64343737  1
  O  O40  1  0.95241270  0.92230069  0.65667530  1
  O  O41  1  0.04758730  0.42230069  0.84332470  1
  O  O42  1  0.30947291  0.78763733  0.87547138  1
  O  O43  1  0.38280011  0.33627605  0.93542726  1
