# generated using pymatgen
data_Li10Mn23O48
_symmetry_space_group_name_H-M   'P 1'
_cell_length_a   5.91441566
_cell_length_b   5.93437813
_cell_length_c   35.26318704
_cell_angle_alpha   59.67763925
_cell_angle_beta   60.66520305
_cell_angle_gamma   59.88828926
_symmetry_Int_Tables_number   1
_chemical_formula_structural   Li10Mn23O48
_chemical_formula_sum   'Li10 Mn23 O48'
_cell_volume   876.55551761
_cell_formula_units_Z   1
loop_
 _symmetry_equiv_pos_site_id
 _symmetry_equiv_pos_as_xyz
  1  'x, y, z'
loop_
 _atom_site_type_symbol
 _atom_site_label
 _atom_site_symmetry_multiplicity
 _atom_site_fract_x
 _atom_site_fract_y
 _atom_site_fract_z
 _atom_site_occupancy
  Li  Li0  1  0.13661414  0.11679863  0.02163110  1
  Li  Li1  1  0.15279481  0.12098113  0.18420715  1
  Li  Li2  1  0.13012109  0.12850936  0.35214370  1
  Li  Li3  1  0.13227962  0.11464851  0.52307022  1
  Li  Li4  1  0.13415125  0.13166170  0.68375422  1
  Li  Li5  1  0.87033550  0.86494312  0.48329671  1
  Li  Li6  1  0.11062889  0.12563420  0.85635078  1
  Li  Li7  1  0.86620010  0.88484037  0.64401953  1
  Li  Li8  1  0.88934401  0.87528224  0.81001525  1
  Li  Li9  1  0.86553122  0.86987905  0.98245211  1
  Mn  Mn10  1  0.49067694  0.49684363  0.00260597  1
  Mn  Mn11  1  0.50137085  0.50111414  0.08251461  1
  Mn  Mn12  1  0.50137085  0.00242537  0.08251461  1
  Mn  Mn13  1  0.49323269  0.50023174  0.16771764  1
  Mn  Mn14  1  0.99977389  0.49613964  0.41799147  1
  Mn  Mn15  1  0.49367423  0.50045561  0.24919638  1
  Mn  Mn16  1  0.84580497  0.88388558  0.14773698  1
  Mn  Mn17  1  0.49367423  0.01069189  0.24919638  1
  Mn  Mn18  1  0.50149342  0.50040260  0.33294990  1
  Mn  Mn19  1  0.49709961  0.49534800  0.41830924  1
  Mn  Mn20  1  0.86650608  0.88682008  0.30997563  1
  Mn  Mn21  1  0.49509267  0.49329385  0.50305327  1
  Mn  Mn22  1  0.49709961  0.99769896  0.41830924  1
  Mn  Mn23  1  0.49917217  0.49983928  0.58346142  1
  Mn  Mn24  1  0.00689488  0.49974405  0.74893617  1
  Mn  Mn25  1  0.50736800  0.50576919  0.66351594  1
  Mn  Mn26  1  0.49917217  0.00021802  0.58346142  1
  Mn  Mn27  1  0.50832355  0.49772349  0.74853940  1
  Mn  Mn28  1  0.99259734  0.50145214  0.91741673  1
  Mn  Mn29  1  0.50008850  0.50052362  0.83314371  1
  Mn  Mn30  1  0.50832355  0.00271656  0.74853940  1
  Mn  Mn31  1  0.49136035  0.50347476  0.91773242  1
  Mn  Mn32  1  0.49136035  0.99877238  0.91773242  1
  O  O33  1  0.30595765  0.24900768  0.03832813  1
  O  O34  1  0.30845036  0.24461419  0.11705354  1
  O  O35  1  0.30595765  0.71506587  0.03832813  1
  O  O36  1  0.71580755  0.26053447  0.04385392  1
  O  O37  1  0.27883569  0.74254899  0.12267805  1
  O  O38  1  0.29805645  0.24803592  0.20670419  1
  O  O39  1  0.69730425  0.75476653  0.04886078  1
  O  O40  1  0.71322781  0.29187157  0.12512546  1
  O  O41  1  0.29805645  0.71368448  0.20670419  1
  O  O42  1  0.29993559  0.24516260  0.28495687  1
  O  O43  1  0.71322781  0.74414985  0.12512546  1
  O  O44  1  0.71277575  0.26062147  0.21099722  1
  O  O45  1  0.28439206  0.74095218  0.28895026  1
  O  O46  1  0.25677712  0.26454576  0.37886676  1
  O  O47  1  0.69761113  0.29017791  0.29428052  1
  O  O48  1  0.70819953  0.74889467  0.21566819  1
  O  O49  1  0.24405896  0.26520392  0.45425520  1
  O  O50  1  0.25677712  0.70547457  0.37886676  1
  O  O51  1  0.69761113  0.74652582  0.29428052  1
  O  O52  1  0.70451849  0.26361113  0.37804287  1
  O  O53  1  0.29568413  0.73255964  0.45653276  1
  O  O54  1  0.30965853  0.24700554  0.53827681  1
  O  O55  1  0.75465500  0.73210773  0.38018826  1
  O  O56  1  0.74502769  0.29066749  0.45540497  1
  O  O57  1  0.29812238  0.24973023  0.61706952  1
  O  O58  1  0.30965853  0.71367508  0.53827681  1
  O  O59  1  0.74502769  0.73187497  0.45540497  1
  O  O60  1  0.71440518  0.25764196  0.54505182  1
  O  O61  1  0.26077699  0.26469583  0.71135447  1
  O  O62  1  0.28441456  0.74157317  0.62207352  1
  O  O63  1  0.69055669  0.28546979  0.62841051  1
  O  O64  1  0.70030268  0.75006047  0.54992973  1
  O  O65  1  0.25827940  0.26341155  0.78581658  1
  O  O66  1  0.26077699  0.70640239  0.71135447  1
  O  O67  1  0.71107064  0.26695791  0.70916926  1
  O  O68  1  0.69055669  0.75351248  0.62841051  1
  O  O69  1  0.24417243  0.25816239  0.88062564  1
  O  O70  1  0.30257357  0.73381073  0.78830050  1
  O  O71  1  0.75540798  0.28708275  0.78572680  1
  O  O72  1  0.75045680  0.73415506  0.71353851  1
  O  O73  1  0.24868647  0.26719889  0.95281896  1
  O  O74  1  0.24417243  0.71390936  0.88062564  1
  O  O75  1  0.69786228  0.26746134  0.87786884  1
  O  O76  1  0.75540798  0.74314646  0.78572680  1
  O  O77  1  0.28734868  0.73437504  0.95731687  1
  O  O78  1  0.73795713  0.29504426  0.95507828  1
  O  O79  1  0.74195325  0.73756607  0.88048577  1
  O  O80  1  0.73795713  0.73652893  0.95507828  1
