# generated using pymatgen
data_H8PtN2(ClO)2
_symmetry_space_group_name_H-M   'P 1'
_cell_length_a   6.47891954
_cell_length_b   7.62595531
_cell_length_c   6.77447928
_cell_angle_alpha   90.00000000
_cell_angle_beta   89.84129876
_cell_angle_gamma   90.00000000
_symmetry_Int_Tables_number   1
_chemical_formula_structural   H8PtN2(ClO)2
_chemical_formula_sum   'H16 Pt2 N4 Cl4 O4'
_cell_volume   334.71185508
_cell_formula_units_Z   2
loop_
 _symmetry_equiv_pos_site_id
 _symmetry_equiv_pos_as_xyz
  1  'x, y, z'
loop_
 _atom_site_type_symbol
 _atom_site_label
 _atom_site_symmetry_multiplicity
 _atom_site_fract_x
 _atom_site_fract_y
 _atom_site_fract_z
 _atom_site_occupancy
  H  H0  1  0.17804494  0.25000000  0.58762411  1
  H  H1  1  0.82195506  0.75000000  0.41237589  1
  H  H2  1  0.82491619  0.25000000  0.19973619  1
  H  H3  1  0.17508381  0.75000000  0.80026381  1
  H  H4  1  0.11071340  0.93459284  0.34689075  1
  H  H5  1  0.88928660  0.43459284  0.65310925  1
  H  H6  1  0.88928660  0.06540716  0.65310925  1
  H  H7  1  0.11071340  0.56540716  0.34689075  1
  H  H8  1  0.34176922  0.92763900  0.23727492  1
  H  H9  1  0.65823078  0.42763900  0.76272508  1
  H  H10  1  0.65823078  0.07236100  0.76272508  1
  H  H11  1  0.34176922  0.57236100  0.23727492  1
  H  H12  1  0.13099328  0.92908861  0.09884131  1
  H  H13  1  0.86900672  0.42908861  0.90115869  1
  H  H14  1  0.86900672  0.07091139  0.90115869  1
  H  H15  1  0.13099328  0.57091139  0.09884131  1
  Pt  Pt16  1  0.20602397  0.25000000  0.22733002  1
  Pt  Pt17  1  0.79397603  0.75000000  0.77266998  1
  N  N18  1  0.19589541  0.97929620  0.22722379  1
  N  N19  1  0.80410459  0.47929620  0.77277621  1
  N  N20  1  0.80410459  0.02070380  0.77277621  1
  N  N21  1  0.19589541  0.52070380  0.22722379  1
  Cl  Cl22  1  0.35477065  0.25000000  0.90933321  1
  Cl  Cl23  1  0.64522935  0.75000000  0.09066679  1
  Cl  Cl24  1  0.52680426  0.25000000  0.39084361  1
  Cl  Cl25  1  0.47319574  0.75000000  0.60915639  1
  O  O26  1  0.06302841  0.25000000  0.49380476  1
  O  O27  1  0.93697159  0.75000000  0.50619524  1
  O  O28  1  0.92824224  0.25000000  0.09236301  1
  O  O29  1  0.07175776  0.75000000  0.90763699  1
