# generated using pymatgen
data_Ba5In5O12
_symmetry_space_group_name_H-M   'P 1'
_cell_length_a   9.83805843
_cell_length_b   7.36507671
_cell_length_c   5.99361224
_cell_angle_alpha   91.39212018
_cell_angle_beta   71.45533410
_cell_angle_gamma   73.01624240
_symmetry_Int_Tables_number   1
_chemical_formula_structural   Ba5In5O12
_chemical_formula_sum   'Ba5 In5 O12'
_cell_volume   390.47581842
_cell_formula_units_Z   1
loop_
 _symmetry_equiv_pos_site_id
 _symmetry_equiv_pos_as_xyz
  1  'x, y, z'
loop_
 _atom_site_type_symbol
 _atom_site_label
 _atom_site_symmetry_multiplicity
 _atom_site_fract_x
 _atom_site_fract_y
 _atom_site_fract_z
 _atom_site_occupancy
  Ba  Ba0  1  0.20030585  0.10104114  0.39162404  1
  Ba  Ba1  1  0.59969415  0.29895886  0.20837596  1
  Ba  Ba2  1  0.40000000  0.70000000  0.80000000  1
  Ba  Ba3  1  0.79576775  0.92366767  0.60496721  1
  Ba  Ba4  1  0.00423225  0.47633133  0.99503279  1
  In  In5  1  0.40000000  0.20000000  0.80000000  1
  In  In6  1  0.79274834  0.42949063  0.58689443  1
  In  In7  1  0.19055398  0.61593791  0.41782251  1
  In  In8  1  0.60944602  0.78406209  0.18217749  1
  In  In9  1  0.00725166  0.97050937  0.01310557  1
  O  O10  1  0.20089162  0.09887270  0.88829121  1
  O  O11  1  0.59910838  0.30112730  0.71170879  1
  O  O12  1  0.73891455  0.52330080  0.95061889  1
  O  O13  1  0.90000000  0.20000000  0.30000000  1
  O  O14  1  0.48558192  0.01659771  0.03195358  1
  O  O15  1  0.31441808  0.38340229  0.56804642  1
  O  O16  1  0.66933037  0.68295409  0.48389965  1
  O  O17  1  0.78593401  0.92592722  0.09586807  1
  O  O18  1  0.06108545  0.87669920  0.64938111  1
  O  O19  1  0.40000000  0.70000000  0.30000000  1
  O  O20  1  0.01406599  0.47407278  0.50413193  1
  O  O21  1  0.13066963  0.71704591  0.11610035  1
