# generated using pymatgen
data_SrBi5O9
_symmetry_space_group_name_H-M   'P 1'
_cell_length_a   4.06570089
_cell_length_b   10.00544445
_cell_length_c   6.89485177
_cell_angle_alpha   81.78853348
_cell_angle_beta   90.08465870
_cell_angle_gamma   101.84192292
_symmetry_Int_Tables_number   1
_chemical_formula_structural   SrBi5O9
_chemical_formula_sum   'Sr1 Bi5 O9'
_cell_volume   271.58091539
_cell_formula_units_Z   1
loop_
 _symmetry_equiv_pos_site_id
 _symmetry_equiv_pos_as_xyz
  1  'x, y, z'
loop_
 _atom_site_type_symbol
 _atom_site_label
 _atom_site_symmetry_multiplicity
 _atom_site_fract_x
 _atom_site_fract_y
 _atom_site_fract_z
 _atom_site_occupancy
  Sr  Sr0  1  0.01566589  0.98835714  0.00071426  1
  Bi  Bi1  1  0.86107996  0.68213557  0.41656945  1
  Bi  Bi2  1  0.68104805  0.31724555  0.10179746  1
  Bi  Bi3  1  0.50900461  0.98728960  0.50285400  1
  Bi  Bi4  1  0.34757695  0.66881381  0.87625589  1
  Bi  Bi5  1  0.18811079  0.32570555  0.60439492  1
  O  O6  1  0.69312788  0.33552665  0.43388310  1
  O  O7  1  0.88105035  0.69296264  0.09269415  1
  O  O8  1  0.97252430  0.90324141  0.38033622  1
  O  O9  1  0.82301668  0.60017586  0.73763153  1
  O  O10  1  0.57263949  0.10290602  0.14921362  1
  O  O11  1  0.17941258  0.31581473  0.94014872  1
  O  O12  1  0.38570591  0.73288253  0.51696135  1
  O  O13  1  0.46311686  0.88820716  0.83260514  1
  O  O14  1  0.08437670  0.11233579  0.63836019  1
