# generated using pymatgen
data_FeHO2
_symmetry_space_group_name_H-M   'P 1'
_cell_length_a   7.74186471
_cell_length_b   7.74186471
_cell_length_c   7.74186471
_cell_angle_alpha   92.28023870
_cell_angle_beta   92.28023870
_cell_angle_gamma   156.98839059
_symmetry_Int_Tables_number   1
_chemical_formula_structural   FeHO2
_chemical_formula_sum   'Fe4 H4 O8'
_cell_volume   177.74842005
_cell_formula_units_Z   4
loop_
 _symmetry_equiv_pos_site_id
 _symmetry_equiv_pos_as_xyz
  1  'x, y, z'
loop_
 _atom_site_type_symbol
 _atom_site_label
 _atom_site_symmetry_multiplicity
 _atom_site_fract_x
 _atom_site_fract_y
 _atom_site_fract_z
 _atom_site_occupancy
  Fe  Fe0  1  0.34318581  0.82130425  0.16449006  1
  Fe  Fe1  1  0.65681419  0.17869575  0.83550994  1
  Fe  Fe2  1  0.17869575  0.34318581  0.52188156  1
  Fe  Fe3  1  0.82130425  0.65681419  0.47811844  1
  H  H4  1  0.54344802  0.72741412  0.27086214  1
  H  H5  1  0.45655198  0.27258588  0.72913786  1
  H  H6  1  0.27258588  0.54344802  0.81603389  1
  H  H7  1  0.72741412  0.45655198  0.18396611  1
  O  O8  1  0.15767020  0.79558960  0.95325980  1
  O  O9  1  0.84232980  0.20441040  0.04674020  1
  O  O10  1  0.20441040  0.15767020  0.36208059  1
  O  O11  1  0.79558960  0.84232980  0.63791941  1
  O  O12  1  0.53950106  0.81942274  0.35892380  1
  O  O13  1  0.46049894  0.18057726  0.64107620  1
  O  O14  1  0.18057726  0.53950106  0.72007833  1
  O  O15  1  0.81942274  0.46049894  0.27992167  1
