# generated using pymatgen
data_Li4Cu(PO4)2
_symmetry_space_group_name_H-M   'P 1'
_cell_length_a   4.67916794
_cell_length_b   5.45298422
_cell_length_c   6.14052990
_cell_angle_alpha   96.49247095
_cell_angle_beta   93.53895111
_cell_angle_gamma   103.87448989
_symmetry_Int_Tables_number   1
_chemical_formula_structural   Li4Cu(PO4)2
_chemical_formula_sum   'Li4 Cu1 P2 O8'
_cell_volume   150.48902918
_cell_formula_units_Z   1
loop_
 _symmetry_equiv_pos_site_id
 _symmetry_equiv_pos_as_xyz
  1  'x, y, z'
loop_
 _atom_site_type_symbol
 _atom_site_label
 _atom_site_symmetry_multiplicity
 _atom_site_fract_x
 _atom_site_fract_y
 _atom_site_fract_z
 _atom_site_occupancy
  Li  Li0  1  0.15332662  0.28500832  0.57682623  1
  Li  Li1  1  0.29109418  0.57745854  0.17027094  1
  Li  Li2  1  0.70890582  0.42254146  0.82972906  1
  Li  Li3  1  0.84667338  0.71499168  0.42317377  1
  Cu  Cu4  1  0.00000000  0.00000000  0.00000000  1
  P  P5  1  0.38513824  0.78757328  0.71877166  1
  P  P6  1  0.61486176  0.21242672  0.28122834  1
  O  O7  1  0.23916328  0.57381923  0.85408009  1
  O  O8  1  0.26836230  0.69969293  0.47555606  1
  O  O9  1  0.27143982  0.18144001  0.26235362  1
  O  O10  1  0.31600335  0.04792857  0.80218800  1
  O  O11  1  0.68399665  0.95207143  0.19781200  1
  O  O12  1  0.72856018  0.81855999  0.73764638  1
  O  O13  1  0.73163770  0.30030707  0.52444394  1
  O  O14  1  0.76083672  0.42618077  0.14591991  1
