# generated using pymatgen
data_VPH5NO6
_symmetry_space_group_name_H-M   'P 1'
_cell_length_a   6.87949682
_cell_length_b   9.66373384
_cell_length_c   9.16343296
_cell_angle_alpha   90.00000000
_cell_angle_beta   90.00000000
_cell_angle_gamma   90.00000000
_symmetry_Int_Tables_number   1
_chemical_formula_structural   VPH5NO6
_chemical_formula_sum   'V4 P4 H20 N4 O24'
_cell_volume   609.19992495
_cell_formula_units_Z   4
loop_
 _symmetry_equiv_pos_site_id
 _symmetry_equiv_pos_as_xyz
  1  'x, y, z'
loop_
 _atom_site_type_symbol
 _atom_site_label
 _atom_site_symmetry_multiplicity
 _atom_site_fract_x
 _atom_site_fract_y
 _atom_site_fract_z
 _atom_site_occupancy
  V  V0  1  0.52750801  0.97938217  0.49022454  1
  V  V1  1  0.47249199  0.47938217  0.50977546  1
  V  V2  1  0.97249199  0.47938217  0.49022454  1
  V  V3  1  0.02750801  0.97938217  0.50977546  1
  P  P4  1  0.79414466  0.04665073  0.20381943  1
  P  P5  1  0.20585534  0.54665073  0.79618057  1
  P  P6  1  0.70585534  0.54665073  0.20381943  1
  P  P7  1  0.29414466  0.04665073  0.79618057  1
  H  H8  1  0.14864812  0.26248940  0.16325811  1
  H  H9  1  0.85135188  0.76248940  0.83674189  1
  H  H10  1  0.35135188  0.76248940  0.16325811  1
  H  H11  1  0.64864812  0.26248940  0.83674189  1
  H  H12  1  0.33296756  0.16251404  0.10907541  1
  H  H13  1  0.66703244  0.66251404  0.89092459  1
  H  H14  1  0.16703244  0.66251404  0.10907541  1
  H  H15  1  0.83296756  0.16251404  0.89092459  1
  H  H16  1  0.32467545  0.60865678  0.24120901  1
  H  H17  1  0.67532455  0.10865678  0.75879099  1
  H  H18  1  0.17532455  0.10865678  0.24120901  1
  H  H19  1  0.82467545  0.60865678  0.75879099  1
  H  H20  1  0.33751213  0.23274446  0.27912409  1
  H  H21  1  0.66248787  0.73274446  0.72087591  1
  H  H22  1  0.16248787  0.73274446  0.27912409  1
  H  H23  1  0.83751213  0.23274446  0.72087591  1
  H  H24  1  0.74170209  0.83639132  0.11278818  1
  H  H25  1  0.25829791  0.33639132  0.88721182  1
  H  H26  1  0.75829791  0.33639132  0.11278818  1
  H  H27  1  0.24170209  0.83639132  0.88721182  1
  N  N28  1  0.25165572  0.19274073  0.19770293  1
  N  N29  1  0.74834428  0.69274073  0.80229707  1
  N  N30  1  0.24834428  0.69274073  0.19770293  1
  N  N31  1  0.75165572  0.19274073  0.80229707  1
  O  O32  1  0.78096369  0.03208683  0.54583271  1
  O  O33  1  0.21903631  0.53208683  0.45416729  1
  O  O34  1  0.71903631  0.53208683  0.54583271  1
  O  O35  1  0.28096369  0.03208683  0.45416729  1
  O  O36  1  0.97386997  0.00568109  0.29969841  1
  O  O37  1  0.02613003  0.50568109  0.70030159  1
  O  O38  1  0.52613003  0.50568109  0.29969841  1
  O  O39  1  0.47386997  0.00568109  0.70030159  1
  O  O40  1  0.60379365  0.04138805  0.29559501  1
  O  O41  1  0.39620635  0.54138805  0.70440499  1
  O  O42  1  0.89620635  0.54138805  0.29559501  1
  O  O43  1  0.10379365  0.04138805  0.70440499  1
  O  O44  1  0.77781654  0.93382725  0.07942232  1
  O  O45  1  0.22218346  0.43382725  0.92057768  1
  O  O46  1  0.72218346  0.43382725  0.07942232  1
  O  O47  1  0.27781654  0.93382725  0.92057768  1
  O  O48  1  0.52943024  0.81111365  0.48040380  1
  O  O49  1  0.47056976  0.31111365  0.51959620  1
  O  O50  1  0.97056976  0.31111365  0.48040380  1
  O  O51  1  0.02943024  0.81111365  0.51959620  1
  O  O52  1  0.82782695  0.18389350  0.12855385  1
  O  O53  1  0.17217305  0.68389350  0.87144615  1
  O  O54  1  0.67217305  0.68389350  0.12855385  1
  O  O55  1  0.32782695  0.18389350  0.87144615  1
