# generated using pymatgen
data_BaCaI4
_symmetry_space_group_name_H-M   'P 1'
_cell_length_a   8.91343011
_cell_length_b   9.22187139
_cell_length_c   9.22187139
_cell_angle_alpha   110.41339616
_cell_angle_beta   66.73703348
_cell_angle_gamma   66.73703348
_symmetry_Int_Tables_number   1
_chemical_formula_structural   BaCaI4
_chemical_formula_sum   'Ba2 Ca2 I8'
_cell_volume   512.75000917
_cell_formula_units_Z   2
loop_
 _symmetry_equiv_pos_site_id
 _symmetry_equiv_pos_as_xyz
  1  'x, y, z'
loop_
 _atom_site_type_symbol
 _atom_site_label
 _atom_site_symmetry_multiplicity
 _atom_site_fract_x
 _atom_site_fract_y
 _atom_site_fract_z
 _atom_site_occupancy
  Ba  Ba0  1  0.25000000  0.38457787  0.11542213  1
  Ba  Ba1  1  0.75000000  0.61542213  0.88457787  1
  Ca  Ca2  1  0.75000000  0.25239869  0.24760131  1
  Ca  Ca3  1  0.25000000  0.74760131  0.75239869  1
  I  I4  1  0.21882355  0.01034232  0.13331157  1
  I  I5  1  0.92054883  0.79519019  0.13774243  1
  I  I6  1  0.28117645  0.36668843  0.48965768  1
  I  I7  1  0.57945117  0.36225757  0.70480981  1
  I  I8  1  0.42054883  0.63774243  0.29519019  1
  I  I9  1  0.71882355  0.63331157  0.51034232  1
  I  I10  1  0.07945117  0.20480981  0.86225757  1
  I  I11  1  0.78117645  0.98965768  0.86668843  1
