# generated using pymatgen
data_Sb6O5F8
_symmetry_space_group_name_H-M   'P 1'
_cell_length_a   6.25583709
_cell_length_b   4.24631771
_cell_length_c   14.25121675
_cell_angle_alpha   99.18667674
_cell_angle_beta   94.00757016
_cell_angle_gamma   89.19519403
_symmetry_Int_Tables_number   1
_chemical_formula_structural   Sb6O5F8
_chemical_formula_sum   'Sb6 O5 F8'
_cell_volume   372.80198666
_cell_formula_units_Z   1
loop_
 _symmetry_equiv_pos_site_id
 _symmetry_equiv_pos_as_xyz
  1  'x, y, z'
loop_
 _atom_site_type_symbol
 _atom_site_label
 _atom_site_symmetry_multiplicity
 _atom_site_fract_x
 _atom_site_fract_y
 _atom_site_fract_z
 _atom_site_occupancy
  Sb  Sb0  1  0.13224806  0.80442778  0.08457325  1
  Sb  Sb1  1  0.30843827  0.64870641  0.74258788  1
  Sb  Sb2  1  0.19856346  0.68245359  0.40277025  1
  Sb  Sb3  1  0.86874889  0.17648824  0.56505633  1
  Sb  Sb4  1  0.79462440  0.24849924  0.95892885  1
  Sb  Sb5  1  0.77996612  0.21976993  0.25380195  1
  O  O6  1  0.96361751  0.34509345  0.37309714  1
  O  O7  1  0.03585121  0.29221098  0.06291872  1
  O  O8  1  0.87416898  0.75598048  0.98868566  1
  O  O9  1  0.97845664  0.86626411  0.20503714  1
  O  O10  1  0.08935256  0.84569170  0.52797004  1
  F  F11  1  0.92029768  0.06820880  0.69497841  1
  F  F12  1  0.59790071  0.59661302  0.70502684  1
  F  F13  1  0.35532241  0.13943064  0.76103167  1
  F  F14  1  0.36808294  0.35528555  0.45778033  1
  F  F15  1  0.57144051  0.29901076  0.05109626  1
  F  F16  1  0.40202735  0.70981709  0.87760993  1
  F  F17  1  0.63485633  0.87379825  0.53171414  1
  F  F18  1  0.62603400  0.90159997  0.31222020  1
