# generated using pymatgen
data_WN2
_symmetry_space_group_name_H-M   'P 1'
_cell_length_a   5.77930034
_cell_length_b   5.78145085
_cell_length_c   6.33070105
_cell_angle_alpha   89.98773688
_cell_angle_beta   90.02632769
_cell_angle_gamma   120.00945938
_symmetry_Int_Tables_number   1
_chemical_formula_structural   WN2
_chemical_formula_sum   'W3 N6'
_cell_volume   183.16947022
_cell_formula_units_Z   3
loop_
 _symmetry_equiv_pos_site_id
 _symmetry_equiv_pos_as_xyz
  1  'x, y, z'
loop_
 _atom_site_type_symbol
 _atom_site_label
 _atom_site_symmetry_multiplicity
 _atom_site_fract_x
 _atom_site_fract_y
 _atom_site_fract_z
 _atom_site_occupancy
  W  W0  1  0.99996942  0.47451167  0.66661600  1
  W  W1  1  0.52537509  0.52535617  -0.00016655  1
  W  W2  1  0.47461079  0.99994795  0.33359157  1
  N  N3  1  0.16343451  0.74228108  0.46418359  1
  N  N4  1  0.25806908  0.42128410  0.79772190  1
  N  N5  1  0.57876902  0.83665760  0.13077619  1
  N  N6  1  0.42114950  0.25785141  0.20243597  1
  N  N7  1  0.83655669  0.57885055  0.86926407  1
  N  N8  1  0.74206591  0.16325948  0.53561128  1
