# generated using pymatgen
data_Dy2(BiO2)7
_symmetry_space_group_name_H-M   'P 1'
_cell_length_a   10.58603668
_cell_length_b   3.91907595
_cell_length_c   10.50346411
_cell_angle_alpha   90.00000263
_cell_angle_beta   65.61132626
_cell_angle_gamma   79.33269517
_symmetry_Int_Tables_number   1
_chemical_formula_structural   Dy2(BiO2)7
_chemical_formula_sum   'Dy2 Bi7 O14'
_cell_volume   388.59374319
_cell_formula_units_Z   1
loop_
 _symmetry_equiv_pos_site_id
 _symmetry_equiv_pos_as_xyz
  1  'x, y, z'
loop_
 _atom_site_type_symbol
 _atom_site_label
 _atom_site_symmetry_multiplicity
 _atom_site_fract_x
 _atom_site_fract_y
 _atom_site_fract_z
 _atom_site_occupancy
  Dy  Dy0  1  0.00942719  0.99528691  0.99916079  1
  Dy  Dy1  1  0.33683031  0.33158534  0.97977351  1
  Bi  Bi2  1  0.02161571  0.48919215  0.69250255  1
  Bi  Bi3  1  0.31010282  0.84494859  0.32863115  1
  Bi  Bi4  1  0.36002212  0.81998894  0.68162978  1
  Bi  Bi5  1  0.64168972  0.17915514  0.31278781  1
  Bi  Bi6  1  0.65961870  0.67019015  0.01137745  1
  Bi  Bi7  1  0.68557957  0.15720972  0.67300864  1
  Bi  Bi8  1  0.97490492  0.51254804  0.31524993  1
  O  O9  1  0.08457489  0.45771255  0.09371393  1
  O  O10  1  0.10024867  0.94987616  0.32761054  1
  O  O11  1  0.13104829  0.93447586  0.73776113  1
  O  O12  1  0.40115409  0.79942345  0.10008446  1
  O  O13  1  0.33379341  0.33310330  0.41311104  1
  O  O14  1  0.42138287  0.28930907  0.74093918  1
  O  O15  1  0.26517058  0.86741421  0.91144484  1
  O  O16  1  0.73337216  0.13331342  0.08519484  1
  O  O17  1  0.57850199  0.71074901  0.25165959  1
  O  O18  1  0.57844266  0.21077867  0.89820173  1
  O  O19  1  0.87245063  0.06377468  0.25290668  1
  O  O20  1  0.67364585  0.66317658  0.58189824  1
  O  O21  1  0.88512168  0.05743916  0.69640623  1
  O  O22  1  0.94130118  0.52934991  0.91494497  1
