# generated using pymatgen
data_KVO2
_symmetry_space_group_name_H-M   'P 1'
_cell_length_a   3.09008158
_cell_length_b   3.15284819
_cell_length_c   6.19994287
_cell_angle_alpha   88.83954176
_cell_angle_beta   90.00000000
_cell_angle_gamma   119.34360813
_symmetry_Int_Tables_number   1
_chemical_formula_structural   KVO2
_chemical_formula_sum   'K1 V1 O2'
_cell_volume   52.63913859
_cell_formula_units_Z   1
loop_
 _symmetry_equiv_pos_site_id
 _symmetry_equiv_pos_as_xyz
  1  'x, y, z'
loop_
 _atom_site_type_symbol
 _atom_site_label
 _atom_site_symmetry_multiplicity
 _atom_site_fract_x
 _atom_site_fract_y
 _atom_site_fract_z
 _atom_site_occupancy
  K  K0  1  0.00000704  0.00000000  0.50000000  1
  V  V1  1  0.99999720  0.00000000  0.00000000  1
  O  O2  1  0.33361974  0.66725371  0.17302060  1
  O  O3  1  0.66636603  0.33274629  0.82697940  1
