# generated using pymatgen
data_Fe8H10O17
_symmetry_space_group_name_H-M   'P 1'
_cell_length_a   10.51725688
_cell_length_b   6.13080994
_cell_length_c   11.04037396
_cell_angle_alpha   90.77585057
_cell_angle_beta   89.08117126
_cell_angle_gamma   87.39918520
_symmetry_Int_Tables_number   1
_chemical_formula_structural   Fe8H10O17
_chemical_formula_sum   'Fe16 H20 O34'
_cell_volume   710.97833906
_cell_formula_units_Z   2
loop_
 _symmetry_equiv_pos_site_id
 _symmetry_equiv_pos_as_xyz
  1  'x, y, z'
loop_
 _atom_site_type_symbol
 _atom_site_label
 _atom_site_symmetry_multiplicity
 _atom_site_fract_x
 _atom_site_fract_y
 _atom_site_fract_z
 _atom_site_occupancy
  Fe  Fe0  1  0.32478889  0.01471455  0.08089900  1
  Fe  Fe1  1  0.14189901  0.02785784  0.62504227  1
  Fe  Fe2  1  0.82214930  0.28592558  0.58181207  1
  Fe  Fe3  1  0.72719621  0.23702929  0.07591673  1
  Fe  Fe4  1  0.69557527  0.99767720  0.79586198  1
  Fe  Fe5  1  0.87945988  0.99390468  0.25194742  1
  Fe  Fe6  1  0.16987829  0.26489317  0.33306811  1
  Fe  Fe7  1  0.33754764  0.27015091  0.79522747  1
  Fe  Fe8  1  0.31771935  0.50062697  0.08115726  1
  Fe  Fe9  1  0.14356617  0.53382465  0.62560012  1
  Fe  Fe10  1  0.81785005  0.77992691  0.53370980  1
  Fe  Fe11  1  0.87285269  0.69914508  0.96015598  1
  Fe  Fe12  1  0.67495880  0.48033247  0.80392678  1
  Fe  Fe13  1  0.86858575  0.51069623  0.25940875  1
  Fe  Fe14  1  0.16732820  0.76476018  0.33975228  1
  Fe  Fe15  1  0.33996274  0.76900424  0.79483066  1
  H  H16  1  0.37833344  0.01153230  0.29881768  1
  H  H17  1  0.37818648  0.01876120  0.58218517  1
  H  H18  1  0.53185489  0.23708447  0.90919424  1
  H  H19  1  0.72140009  0.25201579  0.36830131  1
  H  H20  1  0.60776501  0.05127400  0.55432528  1
  H  H21  1  0.98287648  0.03063648  0.47297661  1
  H  H22  1  0.65130408  0.91281755  0.21847787  1
  H  H23  1  0.51446631  0.24863626  0.16274780  1
  H  H24  1  0.08591407  0.34841039  0.83357007  1
  H  H25  1  0.38218633  0.52106140  0.30311822  1
  H  H26  1  0.38645166  0.51808744  0.58531867  1
  H  H27  1  0.54836343  0.76891168  0.90629441  1
  H  H28  1  0.76392682  0.63846814  0.68498308  1
  H  H29  1  0.98871418  0.51573701  0.47231651  1
  H  H30  1  0.12106876  0.78623745  0.07648670  1
  H  H31  1  0.52374985  0.70254072  0.14004267  1
  H  H32  1  0.08000027  0.84689176  0.84726300  1
  H  H33  1  -0.00006160  0.36911441  0.01005803  1
  H  H34  1  0.99653967  0.05289125  0.92572590  1
  H  H35  1  0.69289443  0.60120056  0.12891577  1
  O  O36  1  0.29999851  0.00811338  0.34595339  1
  O  O37  1  0.04581011  0.01996532  0.33013729  1
  O  O38  1  0.34766736  0.02152647  0.66618025  1
  O  O39  1  0.32871735  0.02180706  0.90690425  1
  O  O40  1  0.80058355  0.24553859  0.75589808  1
  O  O41  1  0.54221691  0.24535713  0.81994269  1
  O  O42  1  0.89487596  0.24905652  0.14634614  1
  O  O43  1  0.80794509  0.27985256  0.39436904  1
  O  O44  1  0.68828730  0.02199749  0.59406547  1
  O  O45  1  0.94863857  0.02250366  0.56036094  1
  O  O46  1  0.67769511  0.06271854  0.22391930  1
  O  O47  1  0.73055555  0.98543187  0.96501644  1
  O  O48  1  0.22216223  0.26139789  0.14146722  1
  O  O49  1  0.46672404  0.24930302  0.08677595  1
  O  O50  1  0.14407928  0.29363486  0.75885595  1
  O  O51  1  0.16749864  0.27325439  0.51952528  1
  O  O52  1  0.29860084  0.51268767  0.34061861  1
  O  O53  1  0.04468360  0.51783900  0.33080502  1
  O  O54  1  0.34827438  0.51615728  0.66640815  1
  O  O55  1  0.32898986  0.51951962  0.90704052  1
  O  O56  1  0.80719263  0.73246837  0.77142282  1
  O  O57  1  0.54562516  0.75501508  0.81761206  1
  O  O58  1  0.89311809  0.74282943  0.13730292  1
  O  O59  1  0.81533119  0.77151844  0.36853655  1
  O  O60  1  0.70419170  0.54942461  0.60652916  1
  O  O61  1  0.95375583  0.53022937  0.55914360  1
  O  O62  1  0.72198573  0.49683427  0.96784185  1
  O  O63  1  0.20045522  0.77049653  0.12318486  1
  O  O64  1  0.43394462  0.74410614  0.12826668  1
  O  O65  1  0.15236593  0.78851105  0.75136561  1
  O  O66  1  0.17042373  0.77485424  0.51726653  1
  O  O67  1  0.00044192  0.45168661  0.93422653  1
  O  O68  1  0.02022854  0.89703968  0.92786301  1
  O  O69  1  0.67665761  0.50388868  0.19739711  1
