# generated using pymatgen
data_Li3CuS2
_symmetry_space_group_name_H-M   'P 1'
_cell_length_a   8.19207622
_cell_length_b   8.19207622
_cell_length_c   8.19207622
_cell_angle_alpha   122.36313676
_cell_angle_beta   122.36313676
_cell_angle_gamma   85.95345056
_symmetry_Int_Tables_number   1
_chemical_formula_structural   Li3CuS2
_chemical_formula_sum   'Li12 Cu4 S8'
_cell_volume   373.84535838
_cell_formula_units_Z   4
loop_
 _symmetry_equiv_pos_site_id
 _symmetry_equiv_pos_as_xyz
  1  'x, y, z'
loop_
 _atom_site_type_symbol
 _atom_site_label
 _atom_site_symmetry_multiplicity
 _atom_site_fract_x
 _atom_site_fract_y
 _atom_site_fract_z
 _atom_site_occupancy
  Li  Li0  1  0.83735770  0.16264230  0.25000000  1
  Li  Li1  1  0.00000000  0.00000000  0.00000000  1
  Li  Li2  1  0.50000000  0.00000000  0.50000000  1
  Li  Li3  1  0.83735770  0.58735770  0.67471439  1
  Li  Li4  1  0.41264230  0.58735770  0.25000000  1
  Li  Li5  1  0.58735770  0.83735770  0.17471439  1
  Li  Li6  1  0.00000000  0.50000000  0.00000000  1
  Li  Li7  1  0.00000000  0.00000000  0.50000000  1
  Li  Li8  1  0.16264230  0.41264230  0.32528561  1
  Li  Li9  1  0.58735770  0.41264230  0.75000000  1
  Li  Li10  1  0.41264230  0.16264230  0.82528561  1
  Li  Li11  1  0.16264230  0.83735770  0.75000000  1
  Cu  Cu12  1  0.47746330  0.22746330  0.25000000  1
  Cu  Cu13  1  0.77253670  0.52253670  0.25000000  1
  Cu  Cu14  1  0.22746330  0.47746330  0.75000000  1
  Cu  Cu15  1  0.52253670  0.77253670  0.75000000  1
  S  S16  1  0.79008733  0.76973706  0.02034927  1
  S  S17  1  0.75061221  0.23026294  0.52034927  1
  S  S18  1  0.23026294  0.20991267  0.47965073  1
  S  S19  1  0.76973706  0.24938779  0.97965073  1
  S  S20  1  0.23026294  0.75061221  0.02034927  1
  S  S21  1  0.76973706  0.79008733  0.52034927  1
  S  S22  1  0.20991267  0.23026294  0.97965073  1
  S  S23  1  0.24938779  0.76973706  0.47965073  1
