# generated using pymatgen
data_Ga4SiO8
_symmetry_space_group_name_H-M   'P 1'
_cell_length_a   6.40088803
_cell_length_b   6.40088803
_cell_length_c   9.40821086
_cell_angle_alpha   55.03108279
_cell_angle_beta   124.96891721
_cell_angle_gamma   153.05545050
_symmetry_Int_Tables_number   1
_chemical_formula_structural   Ga4SiO8
_chemical_formula_sum   'Ga4 Si1 O8'
_cell_volume   141.10888847
_cell_formula_units_Z   1
loop_
 _symmetry_equiv_pos_site_id
 _symmetry_equiv_pos_as_xyz
  1  'x, y, z'
loop_
 _atom_site_type_symbol
 _atom_site_label
 _atom_site_symmetry_multiplicity
 _atom_site_fract_x
 _atom_site_fract_y
 _atom_site_fract_z
 _atom_site_occupancy
  Ga  Ga0  1  0.24482405  0.75517595  0.64429685  1
  Ga  Ga1  1  0.53871784  0.46128216  0.72168522  1
  Ga  Ga2  1  0.46128216  0.53871784  0.27831478  1
  Ga  Ga3  1  0.75517595  0.24482405  0.35570315  1
  Si  Si4  1  0.00000000  0.00000000  0.00000000  1
  O  O5  1  0.11449851  0.88550149  0.70127696  1
  O  O6  1  0.15186332  0.84813668  0.20587415  1
  O  O7  1  0.35379185  0.64620815  0.53694184  1
  O  O8  1  0.55508100  0.44491900  0.93156603  1
  O  O9  1  0.44491900  0.55508100  0.06843397  1
  O  O10  1  0.64620815  0.35379185  0.46305816  1
  O  O11  1  0.84813668  0.15186332  0.79412585  1
  O  O12  1  0.88550149  0.11449851  0.29872304  1
