# generated using pymatgen
data_U4BiO10
_symmetry_space_group_name_H-M   'P 1'
_cell_length_a   6.66679015
_cell_length_b   5.44229167
_cell_length_c   6.66679015
_cell_angle_alpha   114.08957195
_cell_angle_beta   99.59008438
_cell_angle_gamma   65.91042805
_symmetry_Int_Tables_number   1
_chemical_formula_structural   U4BiO10
_chemical_formula_sum   'U4 Bi1 O10'
_cell_volume   201.59040892
_cell_formula_units_Z   1
loop_
 _symmetry_equiv_pos_site_id
 _symmetry_equiv_pos_as_xyz
  1  'x, y, z'
loop_
 _atom_site_type_symbol
 _atom_site_label
 _atom_site_symmetry_multiplicity
 _atom_site_fract_x
 _atom_site_fract_y
 _atom_site_fract_z
 _atom_site_occupancy
  U  U0  1  0.40027803  0.20061428  0.80150658  1
  U  U1  1  0.99972197  0.99938572  0.99849342  1
  U  U2  1  0.79849342  0.40089231  0.60027803  1
  U  U3  1  0.60150658  0.79910769  0.19972197  1
  Bi  Bi4  1  0.20000000  0.60000000  0.40000000  1
  O  O5  1  0.09395531  0.06438647  0.70903377  1
  O  O6  1  0.09395531  0.55069299  0.70903377  1
  O  O7  1  0.30604469  0.64930701  0.09096623  1
  O  O8  1  0.70000000  0.85000000  0.90000000  1
  O  O9  1  0.70000000  0.35000000  0.90000000  1
  O  O10  1  0.50903377  0.24165822  0.50604469  1
  O  O11  1  0.50903377  0.75535270  0.50604469  1
  O  O12  1  0.30604469  0.13561353  0.09096623  1
  O  O13  1  0.89096623  0.44464730  0.29395531  1
  O  O14  1  0.89096623  0.95834178  0.29395531  1
