# generated using pymatgen
data_LaTiNO2
_symmetry_space_group_name_H-M   'P 1'
_cell_length_a   5.59311601
_cell_length_b   8.00479979
_cell_length_c   5.59367622
_cell_angle_alpha   90.03583267
_cell_angle_beta   90.38705548
_cell_angle_gamma   90.04115172
_symmetry_Int_Tables_number   1
_chemical_formula_structural   LaTiNO2
_chemical_formula_sum   'La4 Ti4 N4 O8'
_cell_volume   250.43297791
_cell_formula_units_Z   4
loop_
 _symmetry_equiv_pos_site_id
 _symmetry_equiv_pos_as_xyz
  1  'x, y, z'
loop_
 _atom_site_type_symbol
 _atom_site_label
 _atom_site_symmetry_multiplicity
 _atom_site_fract_x
 _atom_site_fract_y
 _atom_site_fract_z
 _atom_site_occupancy
  La  La0  1  0.49902453  0.23539164  0.00433970  1
  La  La1  1  0.49920440  0.76357751  0.00055490  1
  La  La2  1  0.99541075  0.75854510  0.50367467  1
  La  La3  1  0.99831787  0.23282635  0.50669082  1
  Ti  Ti4  1  0.48797954  0.99961342  0.50019997  1
  Ti  Ti5  1  0.49960531  0.48681967  0.50367878  1
  Ti  Ti6  1  0.00216651  0.99676226  0.01417823  1
  Ti  Ti7  1  0.99737637  0.49996670  0.00110682  1
  N  N8  1  0.70506496  0.00131420  0.19337624  1
  N  N9  1  0.50542183  0.25575346  0.50241965  1
  N  N10  1  0.30233706  0.00216035  0.79727892  1
  N  N11  1  0.20321164  0.99710097  0.29426165  1
  O  O12  1  0.80289320  0.50428022  0.29619894  1
  O  O13  1  0.81191688  0.99727762  0.69045228  1
  O  O14  1  0.70164000  0.50485271  0.80261691  1
  O  O15  1  0.51156059  0.74846267  0.50696620  1
  O  O16  1  0.29315971  0.50713953  0.19983162  1
  O  O17  1  0.19643167  0.50480965  0.70153579  1
  O  O18  1  0.99371318  0.25712419  0.98988699  1
  O  O19  1  0.99344402  0.74622180  0.99074993  1
