# generated using pymatgen
data_Li3Ti6O13
_symmetry_space_group_name_H-M   'P 1'
_cell_length_a   6.33971606
_cell_length_b   6.33971606
_cell_length_c   10.51469261
_cell_angle_alpha   79.81631316
_cell_angle_beta   100.18368684
_cell_angle_gamma   143.45625120
_symmetry_Int_Tables_number   1
_chemical_formula_structural   Li3Ti6O13
_chemical_formula_sum   'Li3 Ti6 O13'
_cell_volume   247.23503717
_cell_formula_units_Z   1
loop_
 _symmetry_equiv_pos_site_id
 _symmetry_equiv_pos_as_xyz
  1  'x, y, z'
loop_
 _atom_site_type_symbol
 _atom_site_label
 _atom_site_symmetry_multiplicity
 _atom_site_fract_x
 _atom_site_fract_y
 _atom_site_fract_z
 _atom_site_occupancy
  Li  Li0  1  0.06927838  0.93072162  0.41325206  1
  Li  Li1  1  0.00000000  0.00000000  0.00000000  1
  Li  Li2  1  0.93072162  0.06927838  0.58674794  1
  Ti  Ti3  1  0.28212966  0.71787034  0.64084299  1
  Ti  Ti4  1  0.40171194  0.59828806  0.36030415  1
  Ti  Ti5  1  0.34199469  0.65800531  0.00139895  1
  Ti  Ti6  1  0.65800531  0.34199469  0.99860105  1
  Ti  Ti7  1  0.59828806  0.40171194  0.63969585  1
  Ti  Ti8  1  0.71787034  0.28212966  0.35915701  1
  O  O9  1  0.10669396  0.89330604  0.60682016  1
  O  O10  1  0.17070423  0.82929577  0.00014438  1
  O  O11  1  0.23837952  0.76162048  0.39954306  1
  O  O12  1  0.31644131  0.68355869  0.80796034  1
  O  O13  1  0.43245756  0.56754244  0.59272273  1
  O  O14  1  0.37824321  0.62175679  0.19184895  1
  O  O15  1  0.62175679  0.37824321  0.80815105  1
  O  O16  1  0.50000000  0.50000000  0.00000000  1
  O  O17  1  0.56754244  0.43245756  0.40727727  1
  O  O18  1  0.68355869  0.31644131  0.19203966  1
  O  O19  1  0.76162048  0.23837952  0.60045694  1
  O  O20  1  0.82929577  0.17070423  0.99985562  1
  O  O21  1  0.89330604  0.10669396  0.39317984  1
