# generated using pymatgen
data_Cu2OF2
_symmetry_space_group_name_H-M   'P 1'
_cell_length_a   5.26637545
_cell_length_b   5.22404275
_cell_length_c   13.95934771
_cell_angle_alpha   88.36202836
_cell_angle_beta   89.99999996
_cell_angle_gamma   59.73158274
_symmetry_Int_Tables_number   1
_chemical_formula_structural   Cu2OF2
_chemical_formula_sum   'Cu12 O6 F12'
_cell_volume   331.50897576
_cell_formula_units_Z   6
loop_
 _symmetry_equiv_pos_site_id
 _symmetry_equiv_pos_as_xyz
  1  'x, y, z'
loop_
 _atom_site_type_symbol
 _atom_site_label
 _atom_site_symmetry_multiplicity
 _atom_site_fract_x
 _atom_site_fract_y
 _atom_site_fract_z
 _atom_site_occupancy
  Cu  Cu0  1  0.95393917  0.98457312  0.65244157  1
  Cu  Cu1  1  0.06148771  0.98457312  0.15244157  1
  Cu  Cu2  1  0.58313489  0.72720530  0.81746292  1
  Cu  Cu3  1  0.63614439  0.69612589  0.51478820  1
  Cu  Cu4  1  0.68965881  0.72720530  0.31746292  1
  Cu  Cu5  1  0.66772972  0.69612589  0.01478820  1
  Cu  Cu6  1  0.33227028  0.30387411  0.98521180  1
  Cu  Cu7  1  0.31034119  0.27279470  0.68253708  1
  Cu  Cu8  1  0.36385561  0.30387411  0.48521180  1
  Cu  Cu9  1  0.41686511  0.27279470  0.18253708  1
  Cu  Cu10  1  0.93851229  0.01542688  0.84755843  1
  Cu  Cu11  1  0.04606083  0.01542688  0.34755843  1
  O  O12  1  0.62331835  0.98449666  0.91179066  1
  O  O13  1  0.39218499  0.98449666  0.41179066  1
  O  O14  1  0.60781501  0.01550334  0.58820934  1
  O  O15  1  0.37668165  0.01550334  0.08820934  1
  O  O16  1  0.22456293  1.00000000  0.75000000  1
  O  O17  1  0.77543707  0.00000000  0.25000000  1
  F  F18  1  0.98055491  0.64791275  0.73679012  1
  F  F19  1  0.37153234  0.64791275  0.23679012  1
  F  F20  1  0.26796337  0.67216037  0.91795505  1
  F  F21  1  0.05987625  0.67216037  0.41795505  1
  F  F22  1  0.31306001  0.59153577  0.58597559  1
  F  F23  1  0.09540521  0.59153577  0.08597559  1
  F  F24  1  0.90459479  0.40846423  0.91402441  1
  F  F25  1  0.68693999  0.40846423  0.41402441  1
  F  F26  1  0.94012375  0.32783963  0.58204495  1
  F  F27  1  0.73203663  0.32783963  0.08204495  1
  F  F28  1  0.62846766  0.35208725  0.76320988  1
  F  F29  1  0.01944509  0.35208725  0.26320988  1
