# generated using pymatgen
data_CuSb(PO4)2
_symmetry_space_group_name_H-M   'P 1'
_cell_length_a   10.00091545
_cell_length_b   6.23269921
_cell_length_c   5.01770520
_cell_angle_alpha   90.00000000
_cell_angle_beta   92.83534869
_cell_angle_gamma   90.00000000
_symmetry_Int_Tables_number   1
_chemical_formula_structural   CuSb(PO4)2
_chemical_formula_sum   'Cu2 Sb2 P4 O16'
_cell_volume   312.38421552
_cell_formula_units_Z   2
loop_
 _symmetry_equiv_pos_site_id
 _symmetry_equiv_pos_as_xyz
  1  'x, y, z'
loop_
 _atom_site_type_symbol
 _atom_site_label
 _atom_site_symmetry_multiplicity
 _atom_site_fract_x
 _atom_site_fract_y
 _atom_site_fract_z
 _atom_site_occupancy
  Cu  Cu0  1  0.28493768  0.25000000  0.91226887  1
  Cu  Cu1  1  0.71506232  0.75000000  0.08773113  1
  Sb  Sb2  1  0.22075586  0.75000000  0.46254426  1
  Sb  Sb3  1  0.77924414  0.25000000  0.53745574  1
  P  P4  1  0.10048221  0.25000000  0.40955663  1
  P  P5  1  0.40716419  0.75000000  0.91563060  1
  P  P6  1  0.59283581  0.25000000  0.08436940  1
  P  P7  1  0.89951779  0.75000000  0.59044337  1
  O  O8  1  0.05084524  0.75000000  0.68501129  1
  O  O9  1  0.11488316  0.25000000  0.71289202  1
  O  O10  1  0.16940163  0.05053138  0.27812580  1
  O  O11  1  0.16940163  0.44946862  0.27812580  1
  O  O12  1  0.32857606  0.94036335  0.76251244  1
  O  O13  1  0.32857606  0.55963665  0.76251244  1
  O  O14  1  0.38560275  0.75000000  0.21944856  1
  O  O15  1  0.44570092  0.25000000  0.13619763  1
  O  O16  1  0.55429908  0.75000000  0.86380237  1
  O  O17  1  0.61439725  0.25000000  0.78055144  1
  O  O18  1  0.67142394  0.05963665  0.23748756  1
  O  O19  1  0.67142394  0.44036335  0.23748756  1
  O  O20  1  0.83059837  0.55053138  0.72187420  1
  O  O21  1  0.83059837  0.94946862  0.72187420  1
  O  O22  1  0.88511684  0.75000000  0.28710798  1
  O  O23  1  0.94915476  0.25000000  0.31498871  1
