# generated using pymatgen
data_Dy2TeO6
_symmetry_space_group_name_H-M   'P 1'
_cell_length_a   4.99922684
_cell_length_b   4.99904435
_cell_length_c   10.10404781
_cell_angle_alpha   90.00000000
_cell_angle_beta   90.00000000
_cell_angle_gamma   90.00055564
_symmetry_Int_Tables_number   1
_chemical_formula_structural   Dy2TeO6
_chemical_formula_sum   'Dy4 Te2 O12'
_cell_volume   252.51386282
_cell_formula_units_Z   2
loop_
 _symmetry_equiv_pos_site_id
 _symmetry_equiv_pos_as_xyz
  1  'x, y, z'
loop_
 _atom_site_type_symbol
 _atom_site_label
 _atom_site_symmetry_multiplicity
 _atom_site_fract_x
 _atom_site_fract_y
 _atom_site_fract_z
 _atom_site_occupancy
  Dy  Dy0  1  0.99999534  0.00000041  0.33456908  1
  Dy  Dy1  1  0.99999534  0.00000041  0.66543092  1
  Dy  Dy2  1  0.50004170  0.50003921  0.16542793  1
  Dy  Dy3  1  0.50004170  0.50003921  0.83457207  1
  Te  Te4  1  0.00004297  0.00003164  0.00000000  1
  Te  Te5  1  0.50000492  0.50001719  0.50000000  1
  O  O6  1  0.18302209  0.18301743  0.14572090  1
  O  O7  1  0.18302209  0.18301743  0.85427910  1
  O  O8  1  0.22233028  0.22218388  0.50000000  1
  O  O9  1  0.27780142  0.72231894  0.00000000  1
  O  O10  1  0.31697162  0.68293544  0.35428935  1
  O  O11  1  0.31697162  0.68293544  0.64571065  1
  O  O12  1  0.68302572  0.31706833  0.35429157  1
  O  O13  1  0.68302572  0.31706833  0.64570843  1
  O  O14  1  0.72232415  0.27780286  0.00000000  1
  O  O15  1  0.77766504  0.77780893  0.50000000  1
  O  O16  1  0.81705964  0.81705796  0.14569758  1
  O  O17  1  0.81705964  0.81705796  0.85430242  1
