# generated using pymatgen
data_Na5GdO4
_symmetry_space_group_name_H-M   'P 1'
_cell_length_a   6.11587585
_cell_length_b   8.45848700
_cell_length_c   6.13738253
_cell_angle_alpha   90.00000000
_cell_angle_beta   90.00000000
_cell_angle_gamma   90.00000000
_symmetry_Int_Tables_number   1
_chemical_formula_structural   Na5GdO4
_chemical_formula_sum   'Na10 Gd2 O8'
_cell_volume   317.49328163
_cell_formula_units_Z   2
loop_
 _symmetry_equiv_pos_site_id
 _symmetry_equiv_pos_as_xyz
  1  'x, y, z'
loop_
 _atom_site_type_symbol
 _atom_site_label
 _atom_site_symmetry_multiplicity
 _atom_site_fract_x
 _atom_site_fract_y
 _atom_site_fract_z
 _atom_site_occupancy
  Na  Na0  1  0.05311785  0.31815639  0.92030825  1
  Na  Na1  1  0.05311785  0.68184361  0.92030825  1
  Na  Na2  1  0.24003464  0.69195409  0.40041213  1
  Na  Na3  1  0.24003464  0.30804591  0.40041213  1
  Na  Na4  1  0.27417530  0.00000000  0.66113302  1
  Na  Na5  1  0.55311785  0.81815639  0.07969175  1
  Na  Na6  1  0.55311785  0.18184361  0.07969175  1
  Na  Na7  1  0.74003464  0.80804591  0.59958787  1
  Na  Na8  1  0.74003464  0.19195409  0.59958787  1
  Na  Na9  1  0.77417530  0.50000000  0.33886698  1
  Gd  Gd10  1  0.00797195  0.00000000  0.16136881  1
  Gd  Gd11  1  0.50797195  0.50000000  0.83863119  1
  O  O12  1  0.34678980  0.00000000  0.26138788  1
  O  O13  1  0.41284106  0.50000000  0.18196985  1
  O  O14  1  0.38993795  0.26492807  0.74050942  1
  O  O15  1  0.38993795  0.73507193  0.74050942  1
  O  O16  1  0.84678980  0.50000000  0.73861212  1
  O  O17  1  0.91284106  0.00000000  0.81803015  1
  O  O18  1  0.88993795  0.76492807  0.25949058  1
  O  O19  1  0.88993795  0.23507193  0.25949058  1
