# generated using pymatgen
data_BaLa2Br8
_symmetry_space_group_name_H-M   'P 1'
_cell_length_a   8.34817015
_cell_length_b   10.70551601
_cell_length_c   10.70551601
_cell_angle_alpha   98.74414175
_cell_angle_beta   112.94830276
_cell_angle_gamma   67.05169724
_symmetry_Int_Tables_number   1
_chemical_formula_structural   BaLa2Br8
_chemical_formula_sum   'Ba2 La4 Br16'
_cell_volume   811.31764041
_cell_formula_units_Z   2
loop_
 _symmetry_equiv_pos_site_id
 _symmetry_equiv_pos_as_xyz
  1  'x, y, z'
loop_
 _atom_site_type_symbol
 _atom_site_label
 _atom_site_symmetry_multiplicity
 _atom_site_fract_x
 _atom_site_fract_y
 _atom_site_fract_z
 _atom_site_occupancy
  Ba  Ba0  1  0.00000000  0.00000000  0.00000000  1
  Ba  Ba1  1  0.75000000  0.50000000  0.50000000  1
  La  La2  1  0.58327626  0.07389258  0.34677423  1
  La  La3  1  0.76349798  0.65322577  0.07389258  1
  La  La4  1  0.34283116  0.34677423  0.92610742  1
  La  La5  1  0.31039560  0.92610742  0.65322577  1
  Br  Br6  1  0.24475416  0.19046323  0.09663911  1
  Br  Br7  1  0.66736715  0.26489970  0.21119527  1
  Br  Br8  1  0.25719415  0.07621906  0.41837234  1
  Br  Br9  1  0.16117819  0.58162766  0.07621906  1
  Br  Br10  1  0.54371653  0.30465006  0.51890504  1
  Br  Br11  1  0.97518850  0.48109496  0.30465006  1
  Br  Br12  1  0.06773214  0.21119527  0.73510030  1
  Br  Br13  1  0.56478361  0.09663911  0.80953677  1
  Br  Br14  1  0.85188495  0.90336089  0.19046323  1
  Br  Br15  1  0.54382812  0.78880473  0.26489970  1
  Br  Br16  1  0.15163340  0.51890504  0.69534994  1
  Br  Br17  1  0.32946156  0.69534994  0.48109496  1
  Br  Br18  1  0.66658678  0.41837234  0.92378094  1
  Br  Br19  1  0.91504087  0.92378094  0.58162766  1
  Br  Br20  1  0.72107158  0.73510030  0.78880473  1
  Br  Br21  1  0.33857728  0.80953677  0.90336089  1
