# generated using pymatgen
data_LiCuTeO4
_symmetry_space_group_name_H-M   'P 1'
_cell_length_a   6.18464871
_cell_length_b   6.18464871
_cell_length_c   8.63654143
_cell_angle_alpha   90.00000000
_cell_angle_beta   90.00000000
_cell_angle_gamma   90.00000000
_symmetry_Int_Tables_number   1
_chemical_formula_structural   LiCuTeO4
_chemical_formula_sum   'Li4 Cu4 Te4 O16'
_cell_volume   330.34667043
_cell_formula_units_Z   4
loop_
 _symmetry_equiv_pos_site_id
 _symmetry_equiv_pos_as_xyz
  1  'x, y, z'
loop_
 _atom_site_type_symbol
 _atom_site_label
 _atom_site_symmetry_multiplicity
 _atom_site_fract_x
 _atom_site_fract_y
 _atom_site_fract_z
 _atom_site_occupancy
  Li  Li0  1  0.00000000  0.20981493  0.00000000  1
  Li  Li1  1  0.00000000  0.79018507  0.50000000  1
  Li  Li2  1  0.20981493  0.00000000  0.25000000  1
  Li  Li3  1  0.79018507  0.00000000  0.75000000  1
  Cu  Cu4  1  0.24614512  0.24614512  0.62500000  1
  Cu  Cu5  1  0.24614512  0.75385488  0.87500000  1
  Cu  Cu6  1  0.75385488  0.24614512  0.37500000  1
  Cu  Cu7  1  0.75385488  0.75385488  0.12500000  1
  Te  Te8  1  0.22667352  0.50000000  0.25000000  1
  Te  Te9  1  0.50000000  0.22667352  0.00000000  1
  Te  Te10  1  0.50000000  0.77332648  0.50000000  1
  Te  Te11  1  0.77332648  0.50000000  0.75000000  1
  O  O12  1  0.02487455  0.26567977  0.25066026  1
  O  O13  1  0.02487455  0.73432023  0.24933974  1
  O  O14  1  0.26567977  0.02487455  0.99933974  1
  O  O15  1  0.26567977  0.97512545  0.50066026  1
  O  O16  1  0.26851301  0.48364773  0.01630899  1
  O  O17  1  0.26851301  0.51635227  0.48369101  1
  O  O18  1  0.48364773  0.26851301  0.23369101  1
  O  O19  1  0.48364773  0.73148699  0.26630899  1
  O  O20  1  0.51635227  0.26851301  0.76630899  1
  O  O21  1  0.51635227  0.73148699  0.73369101  1
  O  O22  1  0.73148699  0.51635227  0.51630899  1
  O  O23  1  0.73148699  0.48364773  0.98369101  1
  O  O24  1  0.73432023  0.02487455  0.00066026  1
  O  O25  1  0.73432023  0.97512545  0.49933974  1
  O  O26  1  0.97512545  0.26567977  0.74933974  1
  O  O27  1  0.97512545  0.73432023  0.75066026  1
