# generated using pymatgen
data_GdTmO3
_symmetry_space_group_name_H-M   'P 1'
_cell_length_a   5.94978836
_cell_length_b   8.33352689
_cell_length_c   5.69140845
_cell_angle_alpha   90.00000000
_cell_angle_beta   90.00000000
_cell_angle_gamma   90.00000000
_symmetry_Int_Tables_number   1
_chemical_formula_structural   GdTmO3
_chemical_formula_sum   'Gd4 Tm4 O12'
_cell_volume   282.19551891
_cell_formula_units_Z   4
loop_
 _symmetry_equiv_pos_site_id
 _symmetry_equiv_pos_as_xyz
  1  'x, y, z'
loop_
 _atom_site_type_symbol
 _atom_site_label
 _atom_site_symmetry_multiplicity
 _atom_site_fract_x
 _atom_site_fract_y
 _atom_site_fract_z
 _atom_site_occupancy
  Gd  Gd0  1  0.05314615  0.25000000  0.98674065  1
  Gd  Gd1  1  0.44685385  0.75000000  0.48674065  1
  Gd  Gd2  1  0.55314615  0.25000000  0.51325935  1
  Gd  Gd3  1  0.94685385  0.75000000  0.01325935  1
  Tm  Tm4  1  0.00000000  0.00000000  0.50000000  1
  Tm  Tm5  1  0.00000000  0.50000000  0.50000000  1
  Tm  Tm6  1  0.50000000  0.00000000  0.00000000  1
  Tm  Tm7  1  0.50000000  0.50000000  0.00000000  1
  O  O8  1  0.06885054  0.75000000  0.63787486  1
  O  O9  1  0.18377507  0.57133107  0.18014835  1
  O  O10  1  0.18377507  0.92866893  0.18014835  1
  O  O11  1  0.31622493  0.07133107  0.68014835  1
  O  O12  1  0.31622493  0.42866893  0.68014835  1
  O  O13  1  0.43114946  0.25000000  0.13787486  1
  O  O14  1  0.56885054  0.75000000  0.86212514  1
  O  O15  1  0.68377507  0.92866893  0.31985165  1
  O  O16  1  0.68377507  0.57133107  0.31985165  1
  O  O17  1  0.81622493  0.07133107  0.81985165  1
  O  O18  1  0.81622493  0.42866893  0.81985165  1
  O  O19  1  0.93114946  0.25000000  0.36212514  1
