# generated using pymatgen
data_BaSrI4
_symmetry_space_group_name_H-M   'P 1'
_cell_length_a   6.36053268
_cell_length_b   12.20986798
_cell_length_c   8.30069562
_cell_angle_alpha   90.00000000
_cell_angle_beta   90.00000000
_cell_angle_gamma   105.09776997
_symmetry_Int_Tables_number   1
_chemical_formula_structural   BaSrI4
_chemical_formula_sum   'Ba2 Sr2 I8'
_cell_volume   622.39124200
_cell_formula_units_Z   2
loop_
 _symmetry_equiv_pos_site_id
 _symmetry_equiv_pos_as_xyz
  1  'x, y, z'
loop_
 _atom_site_type_symbol
 _atom_site_label
 _atom_site_symmetry_multiplicity
 _atom_site_fract_x
 _atom_site_fract_y
 _atom_site_fract_z
 _atom_site_occupancy
  Ba  Ba0  1  0.18777018  0.37553935  0.89664760  1
  Ba  Ba1  1  0.81222982  0.62446065  0.39664760  1
  Sr  Sr2  1  0.41546238  0.83092577  0.99465018  1
  Sr  Sr3  1  0.58453762  0.16907423  0.49465018  1
  I  I4  1  0.09896981  0.19794061  0.55000917  1
  I  I5  1  0.45500332  0.91000564  0.37548346  1
  I  I6  1  0.32202212  0.64404323  0.68915692  1
  I  I7  1  0.29038965  0.58077830  0.20376066  1
  I  I8  1  0.90103019  0.80205939  0.05000917  1
  I  I9  1  0.70961035  0.41922170  0.70376066  1
  I  I10  1  0.54499668  0.08999436  0.87548346  1
  I  I11  1  0.67797788  0.35595677  0.18915692  1
