# generated using pymatgen
data_LiTi(PO3)4
_symmetry_space_group_name_H-M   'P 1'
_cell_length_a   5.15495373
_cell_length_b   13.82714474
_cell_length_c   7.13287573
_cell_angle_alpha   90.00000000
_cell_angle_beta   94.60080516
_cell_angle_gamma   90.00000000
_symmetry_Int_Tables_number   1
_chemical_formula_structural   LiTi(PO3)4
_chemical_formula_sum   'Li2 Ti2 P8 O24'
_cell_volume   506.78094118
_cell_formula_units_Z   2
loop_
 _symmetry_equiv_pos_site_id
 _symmetry_equiv_pos_as_xyz
  1  'x, y, z'
loop_
 _atom_site_type_symbol
 _atom_site_label
 _atom_site_symmetry_multiplicity
 _atom_site_fract_x
 _atom_site_fract_y
 _atom_site_fract_z
 _atom_site_occupancy
  Li  Li0  1  0.57580614  0.98738259  0.11639644  1
  Li  Li1  1  0.42419386  0.48738259  0.88360356  1
  Ti  Ti2  1  0.50922575  0.76397425  0.51225584  1
  Ti  Ti3  1  0.49077425  0.26397425  0.48774416  1
  P  P4  1  0.03562324  0.90466086  0.55467923  1
  P  P5  1  0.98450976  0.62268131  0.45662315  1
  P  P6  1  0.13904593  0.32861438  0.09168845  1
  P  P7  1  0.22156121  0.67878564  0.11213166  1
  P  P8  1  0.77843879  0.17878564  0.88786834  1
  P  P9  1  0.86095407  0.82861438  0.90831155  1
  P  P10  1  0.01549024  0.12268131  0.54337685  1
  P  P11  1  0.96437676  0.40466086  0.44532077  1
  O  O12  1  0.05209395  0.73856612  0.95370848  1
  O  O13  1  0.04037815  0.89436070  0.77959331  1
  O  O14  1  0.00918825  0.13773116  0.76583101  1
  O  O15  1  0.18880396  0.38594866  0.92224309  1
  O  O16  1  0.07331232  0.51183706  0.48756000  1
  O  O17  1  0.16629349  0.33871826  0.53801810  1
  O  O18  1  0.19159651  0.68139830  0.56366070  1
  O  O19  1  0.30867966  0.89725969  0.49644513  1
  O  O20  1  0.29010579  0.13294911  0.48892163  1
  O  O21  1  0.38685452  0.74729200  0.23696476  1
  O  O22  1  0.37009569  0.28996372  0.21357958  1
  O  O23  1  0.35264743  0.59872418  0.01763556  1
  O  O24  1  0.64735257  0.09872418  0.98236444  1
  O  O25  1  0.62990431  0.78996372  0.78642042  1
  O  O26  1  0.61314548  0.24729200  0.76303524  1
  O  O27  1  0.70989321  0.63294911  0.51107837  1
  O  O28  1  0.69132034  0.39725969  0.50355487  1
  O  O29  1  0.80840349  0.18139830  0.43633930  1
  O  O30  1  0.83370651  0.83871826  0.46198190  1
  O  O31  1  0.92668768  0.01183706  0.51244000  1
  O  O32  1  0.81119604  0.88594866  0.07775691  1
  O  O33  1  0.99081175  0.63773116  0.23416899  1
  O  O34  1  0.95962185  0.39436070  0.22040669  1
  O  O35  1  0.94790605  0.23856612  0.04629152  1
