# generated using pymatgen
data_K7(Bi3O8)3
_symmetry_space_group_name_H-M   'P 1'
_cell_length_a   8.56437631
_cell_length_b   9.57766585
_cell_length_c   9.57835290
_cell_angle_alpha   66.42670130
_cell_angle_beta   90.00000000
_cell_angle_gamma   63.44213342
_symmetry_Int_Tables_number   1
_chemical_formula_structural   K7(Bi3O8)3
_chemical_formula_sum   'K7 Bi9 O24'
_cell_volume   628.62472058
_cell_formula_units_Z   1
loop_
 _symmetry_equiv_pos_site_id
 _symmetry_equiv_pos_as_xyz
  1  'x, y, z'
loop_
 _atom_site_type_symbol
 _atom_site_label
 _atom_site_symmetry_multiplicity
 _atom_site_fract_x
 _atom_site_fract_y
 _atom_site_fract_z
 _atom_site_occupancy
  K  K0  1  0.06250000  0.37500000  0.75000000  1
  K  K1  1  0.18718268  0.12563364  0.25135919  1
  K  K2  1  0.68758928  0.12482145  0.24776376  1
  K  K3  1  0.43741072  0.62517855  0.25223624  1
  K  K4  1  0.31427497  0.87145006  0.75001161  1
  K  K5  1  0.81072503  0.87854994  0.74998839  1
  K  K6  1  0.93781732  0.62436636  0.24864081  1
  Bi  Bi7  1  0.00212330  0.99865425  0.00083276  1
  Bi  Bi8  1  0.37439235  0.24941810  0.49943339  1
  Bi  Bi9  1  0.49922245  0.99865425  0.00083276  1
  Bi  Bi10  1  0.24881046  0.50058190  0.00056661  1
  Bi  Bi11  1  0.12287670  0.75134575  0.49916724  1
  Bi  Bi12  1  0.56250000  0.37500000  0.75000000  1
  Bi  Bi13  1  0.87618954  0.24941810  0.49943339  1
  Bi  Bi14  1  0.62577755  0.75134575  0.49916724  1
  Bi  Bi15  1  0.75060765  0.50058190  0.00056661  1
  O  O16  1  0.00236623  0.99675429  0.50662004  1
  O  O17  1  0.24470707  0.01058485  0.99366199  1
  O  O18  1  0.00236365  0.49527270  0.99507456  1
  O  O19  1  0.12263635  0.25472730  0.50492544  1
  O  O20  1  0.50087948  0.99675429  0.50662004  1
  O  O21  1  0.27514203  0.49041189  0.51895349  1
  O  O22  1  0.12263377  0.75324571  0.99337996  1
  O  O23  1  0.31792699  0.37500000  0.25000000  1
  O  O24  1  0.39055393  0.25958811  0.98104651  1
  O  O25  1  0.06250000  0.87500000  0.25000000  1
  O  O26  1  0.21838250  0.60520384  0.75019980  1
  O  O27  1  0.44858634  0.14479616  0.74980020  1
  O  O28  1  0.62016816  0.25966468  0.51979228  1
  O  O29  1  0.50483184  0.49033532  0.98020772  1
  O  O30  1  0.38927781  0.72144437  0.51867109  1
  O  O31  1  0.73572219  0.02855563  0.98132891  1
  O  O32  1  0.67641366  0.60520384  0.75019980  1
  O  O33  1  0.84985797  0.25958811  0.98104651  1
  O  O34  1  0.90661750  0.14479616  0.74980020  1
  O  O35  1  0.80707301  0.37500000  0.25000000  1
  O  O36  1  0.73444607  0.49041189  0.51895349  1
  O  O37  1  0.62412052  0.75324571  0.99337996  1
  O  O38  1  0.56250000  0.87500000  0.25000000  1
  O  O39  1  0.88029293  0.73941515  0.50633801  1
