# generated using pymatgen
data_LiTeHO4
_symmetry_space_group_name_H-M   'P 1'
_cell_length_a   6.43428598
_cell_length_b   6.12976426
_cell_length_c   5.10785331
_cell_angle_alpha   90.00000000
_cell_angle_beta   130.30924708
_cell_angle_gamma   90.00000000
_symmetry_Int_Tables_number   1
_chemical_formula_structural   LiTeHO4
_chemical_formula_sum   'Li2 Te2 H2 O8'
_cell_volume   153.62390836
_cell_formula_units_Z   2
loop_
 _symmetry_equiv_pos_site_id
 _symmetry_equiv_pos_as_xyz
  1  'x, y, z'
loop_
 _atom_site_type_symbol
 _atom_site_label
 _atom_site_symmetry_multiplicity
 _atom_site_fract_x
 _atom_site_fract_y
 _atom_site_fract_z
 _atom_site_occupancy
  Li  Li0  1  0.61080163  0.99970545  0.22456219  1
  Li  Li1  1  0.61080163  0.50029455  0.22456219  1
  Te  Te2  1  0.99337998  0.25000000  0.99991618  1
  Te  Te3  1  0.99480736  0.75000000  0.99625876  1
  H  H4  1  0.06123707  0.75000000  0.51224762  1
  H  H5  1  0.04056246  0.25000000  0.50584579  1
  O  O6  1  0.20311897  0.75000000  0.48378422  1
  O  O7  1  0.18771676  0.25000000  0.48411687  1
  O  O8  1  0.22879695  0.00222130  0.06411572  1
  O  O9  1  0.22879695  0.49777870  0.06411572  1
  O  O10  1  0.76608837  0.50201059  0.94924509  1
  O  O11  1  0.76608837  0.99798941  0.94924509  1
  O  O12  1  0.81240869  0.75000000  0.52386379  1
  O  O13  1  0.80379781  0.25000000  0.52471878  1
