# generated using pymatgen
data_BaLaI5
_symmetry_space_group_name_H-M   'P 1'
_cell_length_a   12.19365605
_cell_length_b   8.80269680
_cell_length_c   8.80269680
_cell_angle_alpha   70.85779891
_cell_angle_beta   69.74592912
_cell_angle_gamma   69.74592912
_symmetry_Int_Tables_number   1
_chemical_formula_structural   BaLaI5
_chemical_formula_sum   'Ba2 La2 I10'
_cell_volume   808.04911229
_cell_formula_units_Z   2
loop_
 _symmetry_equiv_pos_site_id
 _symmetry_equiv_pos_as_xyz
  1  'x, y, z'
loop_
 _atom_site_type_symbol
 _atom_site_label
 _atom_site_symmetry_multiplicity
 _atom_site_fract_x
 _atom_site_fract_y
 _atom_site_fract_z
 _atom_site_occupancy
  Ba  Ba0  1  0.75000000  0.54905141  0.45094859  1
  Ba  Ba1  1  0.25000000  0.45094859  0.54905141  1
  La  La2  1  0.50000000  0.00000000  0.00000000  1
  La  La3  1  0.00000000  0.00000000  0.00000000  1
  I  I4  1  0.87642180  0.25922524  0.21719823  1
  I  I5  1  0.96899592  0.29534202  0.67924170  1
  I  I6  1  0.37642180  0.21719823  0.25922524  1
  I  I7  1  0.75000000  0.90316007  0.09683993  1
  I  I8  1  0.53100408  0.32075830  0.70465798  1
  I  I9  1  0.46899592  0.67924170  0.29534202  1
  I  I10  1  0.25000000  0.09683993  0.90316007  1
  I  I11  1  0.62357820  0.78280177  0.74077476  1
  I  I12  1  0.03100408  0.70465798  0.32075830  1
  I  I13  1  0.12357820  0.74077476  0.78280177  1
