# generated using pymatgen
data_Mg2Cu5O7
_symmetry_space_group_name_H-M   'P 1'
_cell_length_a   4.03821183
_cell_length_b   9.43620326
_cell_length_c   22.72404812
_cell_angle_alpha   90.00000000
_cell_angle_beta   90.00000000
_cell_angle_gamma   90.00000000
_symmetry_Int_Tables_number   1
_chemical_formula_structural   Mg2Cu5O7
_chemical_formula_sum   'Mg12 Cu30 O42'
_cell_volume   865.90866224
_cell_formula_units_Z   6
loop_
 _symmetry_equiv_pos_site_id
 _symmetry_equiv_pos_as_xyz
  1  'x, y, z'
loop_
 _atom_site_type_symbol
 _atom_site_label
 _atom_site_symmetry_multiplicity
 _atom_site_fract_x
 _atom_site_fract_y
 _atom_site_fract_z
 _atom_site_occupancy
  Mg  Mg0  1  0.25000000  0.75000000  0.19623552  1
  Mg  Mg1  1  0.25000000  0.75000000  0.33892879  1
  Mg  Mg2  1  0.25000000  0.75000000  0.48158617  1
  Mg  Mg3  1  0.25000000  0.75000000  0.62426795  1
  Mg  Mg4  1  0.25000000  0.75000000  0.76714969  1
  Mg  Mg5  1  0.25000000  0.75000000  0.91008989  1
  Mg  Mg6  1  0.25000000  0.75000000  0.05335116  1
  Mg  Mg7  1  0.75000000  0.25000000  0.08962803  1
  Mg  Mg8  1  0.75000000  0.25000000  0.23228008  1
  Mg  Mg9  1  0.75000000  0.25000000  0.37496924  1
  Mg  Mg10  1  0.75000000  0.25000000  0.80474958  1
  Mg  Mg11  1  0.75000000  0.25000000  0.51868883  1
  Cu  Cu12  1  0.25000000  0.08441658  0.02586329  1
  Cu  Cu13  1  0.25000000  0.08543412  0.16758496  1
  Cu  Cu14  1  0.25000000  0.41558342  0.02586329  1
  Cu  Cu15  1  0.25000000  0.08555282  0.31042680  1
  Cu  Cu16  1  0.25000000  0.41456588  0.16758496  1
  Cu  Cu17  1  0.25000000  0.08587262  0.45321986  1
  Cu  Cu18  1  0.25000000  0.41444718  0.31042680  1
  Cu  Cu19  1  0.25000000  0.08543391  0.59670024  1
  Cu  Cu20  1  0.25000000  0.41412738  0.45321986  1
  Cu  Cu21  1  0.25000000  0.08448858  0.74016940  1
  Cu  Cu22  1  0.25000000  0.41456609  0.59670024  1
  Cu  Cu23  1  0.25000000  0.41551142  0.74016940  1
  Cu  Cu24  1  0.25000000  0.08532946  0.88259021  1
  Cu  Cu25  1  0.25000000  0.41467054  0.88259021  1
  Cu  Cu26  1  0.75000000  0.58534448  0.11778034  1
  Cu  Cu27  1  0.75000000  0.91465552  0.11778034  1
  Cu  Cu28  1  0.75000000  0.25000000  0.66294639  1
  Cu  Cu29  1  0.75000000  0.58547514  0.26070505  1
  Cu  Cu30  1  0.75000000  0.58557510  0.40357104  1
  Cu  Cu31  1  0.75000000  0.91442490  0.40357104  1
  Cu  Cu32  1  0.75000000  0.91452486  0.26070505  1
  Cu  Cu33  1  0.75000000  0.25000000  0.94897333  1
  Cu  Cu34  1  0.75000000  0.58563574  0.54496993  1
  Cu  Cu35  1  0.75000000  0.58593296  0.68908131  1
  Cu  Cu36  1  0.75000000  0.91436426  0.54496993  1
  Cu  Cu37  1  0.75000000  0.91406704  0.68908131  1
  Cu  Cu38  1  0.75000000  0.58520856  0.83045499  1
  Cu  Cu39  1  0.75000000  0.58645485  0.97531274  1
  Cu  Cu40  1  0.75000000  0.91479144  0.83045499  1
  Cu  Cu41  1  0.75000000  0.91354515  0.97531274  1
  O  O42  1  0.25000000  0.25000000  0.07469408  1
  O  O43  1  0.25000000  0.25000000  0.21707193  1
  O  O44  1  0.25000000  0.25000000  0.35994376  1
  O  O45  1  0.25000000  0.25000000  0.50270583  1
  O  O46  1  0.25000000  0.59651190  0.12682758  1
  O  O47  1  0.25000000  0.59630404  0.26957139  1
  O  O48  1  0.25000000  0.25000000  0.64525592  1
  O  O49  1  0.25000000  0.59588822  0.41221258  1
  O  O50  1  0.25000000  0.25000000  0.78898028  1
  O  O51  1  0.25000000  0.59539504  0.55536718  1
  O  O52  1  0.25000000  0.25000000  0.93119688  1
  O  O53  1  0.25000000  0.59582310  0.69803948  1
  O  O54  1  0.25000000  0.59547721  0.84121523  1
  O  O55  1  0.25000000  0.59613032  0.98412700  1
  O  O56  1  0.25000000  0.90369596  0.26957139  1
  O  O57  1  0.25000000  0.90411178  0.41221258  1
  O  O58  1  0.25000000  0.90348810  0.12682758  1
  O  O59  1  0.25000000  0.90460496  0.55536718  1
  O  O60  1  0.25000000  0.90417690  0.69803948  1
  O  O61  1  0.25000000  0.90452279  0.84121523  1
  O  O62  1  0.25000000  0.90386968  0.98412700  1
  O  O63  1  0.75000000  0.09179801  0.01844056  1
  O  O64  1  0.75000000  0.09595562  0.15918148  1
  O  O65  1  0.75000000  0.09622153  0.44441853  1
  O  O66  1  0.75000000  0.09631004  0.30167696  1
  O  O67  1  0.75000000  0.40820199  0.01844056  1
  O  O68  1  0.75000000  0.40404438  0.15918148  1
  O  O69  1  0.75000000  0.75000000  0.06832684  1
  O  O70  1  0.75000000  0.09318055  0.58673760  1
  O  O71  1  0.75000000  0.09268021  0.73191149  1
  O  O72  1  0.75000000  0.40368996  0.30167696  1
  O  O73  1  0.75000000  0.40377847  0.44441853  1
  O  O74  1  0.75000000  0.75000000  0.21120336  1
  O  O75  1  0.75000000  0.75000000  0.35408557  1
  O  O76  1  0.75000000  0.09290881  0.87269961  1
  O  O77  1  0.75000000  0.40681945  0.58673760  1
  O  O78  1  0.75000000  0.40731979  0.73191149  1
  O  O79  1  0.75000000  0.75000000  0.49534419  1
  O  O80  1  0.75000000  0.75000000  0.63931307  1
  O  O81  1  0.75000000  0.75000000  0.78111563  1
  O  O82  1  0.75000000  0.40709119  0.87269961  1
  O  O83  1  0.75000000  0.75000000  0.92520437  1
