# generated using pymatgen
data_LiSiBiO4
_symmetry_space_group_name_H-M   'P 1'
_cell_length_a   8.65248544
_cell_length_b   8.65248545
_cell_length_c   8.65248494
_cell_angle_alpha   103.17332329
_cell_angle_beta   103.17332322
_cell_angle_gamma   103.17332015
_symmetry_Int_Tables_number   1
_chemical_formula_structural   LiSiBiO4
_chemical_formula_sum   'Li6 Si6 Bi6 O24'
_cell_volume   586.76739255
_cell_formula_units_Z   6
loop_
 _symmetry_equiv_pos_site_id
 _symmetry_equiv_pos_as_xyz
  1  'x, y, z'
loop_
 _atom_site_type_symbol
 _atom_site_label
 _atom_site_symmetry_multiplicity
 _atom_site_fract_x
 _atom_site_fract_y
 _atom_site_fract_z
 _atom_site_occupancy
  Li  Li0  1  0.03786910  0.44142956  0.18980559  1
  Li  Li1  1  0.55857044  0.81019441  0.96213090  1
  Li  Li2  1  0.81019441  0.96213090  0.55857044  1
  Li  Li3  1  0.18980559  0.03786910  0.44142956  1
  Li  Li4  1  0.44142956  0.18980559  0.03786910  1
  Li  Li5  1  0.96213090  0.55857044  0.81019441  1
  Si  Si6  1  0.14463817  0.91235713  0.74571150  1
  Si  Si7  1  0.25428850  0.85536183  0.08764287  1
  Si  Si8  1  0.08764287  0.25428850  0.85536183  1
  Si  Si9  1  0.91235713  0.74571150  0.14463817  1
  Si  Si10  1  0.74571150  0.14463817  0.91235713  1
  Si  Si11  1  0.85536183  0.08764287  0.25428850  1
  Bi  Bi12  1  0.45637776  0.81255857  0.55408538  1
  Bi  Bi13  1  0.18744143  0.44591462  0.54362224  1
  Bi  Bi14  1  0.44591462  0.54362224  0.18744143  1
  Bi  Bi15  1  0.55408538  0.45637776  0.81255857  1
  Bi  Bi16  1  0.81255857  0.55408538  0.45637776  1
  Bi  Bi17  1  0.54362224  0.18744143  0.44591462  1
  O  O18  1  0.26201757  0.95632291  0.94264028  1
  O  O19  1  0.05735972  0.73798243  0.04367709  1
  O  O20  1  0.25576643  0.92971738  0.61882071  1
  O  O21  1  0.38117929  0.74423357  0.07028262  1
  O  O22  1  0.69463050  0.01184120  0.73012732  1
  O  O23  1  0.28033912  0.55783278  0.33312183  1
  O  O24  1  0.07028262  0.38117929  0.74423357  1
  O  O25  1  0.44216722  0.66687817  0.71966088  1
  O  O26  1  0.98815880  0.26987268  0.30536950  1
  O  O27  1  0.26987268  0.30536950  0.98815880  1
  O  O28  1  0.66687817  0.71966088  0.44216722  1
  O  O29  1  0.04367709  0.05735972  0.73798243  1
  O  O30  1  0.95632291  0.94264028  0.26201757  1
  O  O31  1  0.33312183  0.28033912  0.55783278  1
  O  O32  1  0.73012732  0.69463050  0.01184120  1
  O  O33  1  0.01184120  0.73012732  0.69463050  1
  O  O34  1  0.55783278  0.33312183  0.28033912  1
  O  O35  1  0.92971738  0.61882071  0.25576643  1
  O  O36  1  0.71966088  0.44216722  0.66687817  1
  O  O37  1  0.30536950  0.98815880  0.26987268  1
  O  O38  1  0.61882071  0.25576643  0.92971738  1
  O  O39  1  0.74423357  0.07028262  0.38117929  1
  O  O40  1  0.94264028  0.26201757  0.95632291  1
  O  O41  1  0.73798243  0.04367709  0.05735972  1
