# generated using pymatgen
data_Cd(GaO2)2
_symmetry_space_group_name_H-M   'P 1'
_cell_length_a   9.25103189
_cell_length_b   3.00851063
_cell_length_c   10.76849397
_cell_angle_alpha   90.00000000
_cell_angle_beta   90.00000000
_cell_angle_gamma   90.00000000
_symmetry_Int_Tables_number   1
_chemical_formula_structural   Cd(GaO2)2
_chemical_formula_sum   'Cd4 Ga8 O16'
_cell_volume   299.70686962
_cell_formula_units_Z   4
loop_
 _symmetry_equiv_pos_site_id
 _symmetry_equiv_pos_as_xyz
  1  'x, y, z'
loop_
 _atom_site_type_symbol
 _atom_site_label
 _atom_site_symmetry_multiplicity
 _atom_site_fract_x
 _atom_site_fract_y
 _atom_site_fract_z
 _atom_site_occupancy
  Cd  Cd0  1  0.24199858  0.75000000  0.34505083  1
  Cd  Cd1  1  0.25800142  0.25000000  0.84505083  1
  Cd  Cd2  1  0.74199858  0.75000000  0.15494917  1
  Cd  Cd3  1  0.75800142  0.25000000  0.65494917  1
  Ga  Ga4  1  0.08337878  0.75000000  0.60467113  1
  Ga  Ga5  1  0.06363582  0.75000000  0.11270876  1
  Ga  Ga6  1  0.43636418  0.25000000  0.61270876  1
  Ga  Ga7  1  0.41662122  0.25000000  0.10467113  1
  Ga  Ga8  1  0.58337878  0.75000000  0.89532887  1
  Ga  Ga9  1  0.56363582  0.75000000  0.38729124  1
  Ga  Ga10  1  0.93636418  0.25000000  0.88729124  1
  Ga  Ga11  1  0.91662122  0.25000000  0.39532887  1
  O  O12  1  0.02980504  0.25000000  0.71584544  1
  O  O13  1  0.08119994  0.75000000  0.92923938  1
  O  O14  1  0.11576858  0.25000000  0.47664136  1
  O  O15  1  0.20363906  0.25000000  0.15864048  1
  O  O16  1  0.29636094  0.75000000  0.65864048  1
  O  O17  1  0.38423142  0.75000000  0.97664136  1
  O  O18  1  0.41880006  0.25000000  0.42923938  1
  O  O19  1  0.47019496  0.75000000  0.21584544  1
  O  O20  1  0.52980504  0.25000000  0.78415456  1
  O  O21  1  0.58119994  0.75000000  0.57076062  1
  O  O22  1  0.61576858  0.25000000  0.02335864  1
  O  O23  1  0.70363906  0.25000000  0.34135952  1
  O  O24  1  0.79636094  0.75000000  0.84135952  1
  O  O25  1  0.88423142  0.75000000  0.52335864  1
  O  O26  1  0.91880006  0.25000000  0.07076062  1
  O  O27  1  0.97019496  0.75000000  0.28415456  1
