# generated using pymatgen
data_LiCu(PO3)3
_symmetry_space_group_name_H-M   'P 1'
_cell_length_a   10.65827484
_cell_length_b   11.48774109
_cell_length_c   5.40905955
_cell_angle_alpha   90.00000000
_cell_angle_beta   90.00000000
_cell_angle_gamma   90.00000000
_symmetry_Int_Tables_number   1
_chemical_formula_structural   LiCu(PO3)3
_chemical_formula_sum   'Li4 Cu4 P12 O36'
_cell_volume   662.28255666
_cell_formula_units_Z   4
loop_
 _symmetry_equiv_pos_site_id
 _symmetry_equiv_pos_as_xyz
  1  'x, y, z'
loop_
 _atom_site_type_symbol
 _atom_site_label
 _atom_site_symmetry_multiplicity
 _atom_site_fract_x
 _atom_site_fract_y
 _atom_site_fract_z
 _atom_site_occupancy
  Li  Li0  1  0.11916733  0.07616162  0.08901419  1
  Li  Li1  1  0.38083267  0.92383838  0.58901419  1
  Li  Li2  1  0.61916733  0.42383838  0.91098581  1
  Li  Li3  1  0.88083267  0.57616162  0.41098581  1
  Cu  Cu4  1  0.03134453  0.85997406  0.59061615  1
  Cu  Cu5  1  0.46865547  0.14002594  0.09061615  1
  Cu  Cu6  1  0.53134453  0.64002594  0.40938385  1
  Cu  Cu7  1  0.96865547  0.35997406  0.90938385  1
  P  P8  1  0.07489254  0.62153725  0.87352723  1
  P  P9  1  0.14889853  0.36602031  0.37192383  1
  P  P10  1  0.19457940  0.82111107  0.06809815  1
  P  P11  1  0.30542060  0.17888893  0.56809815  1
  P  P12  1  0.35110147  0.63397969  0.87192383  1
  P  P13  1  0.42510746  0.37846275  0.37352723  1
  P  P14  1  0.57489254  0.87846275  0.12647277  1
  P  P15  1  0.64889853  0.13397969  0.62807617  1
  P  P16  1  0.69457940  0.67888893  0.93190185  1
  P  P17  1  0.80542060  0.32111107  0.43190185  1
  P  P18  1  0.85110147  0.86602031  0.12807617  1
  P  P19  1  0.92510746  0.12153725  0.62647277  1
  O  O20  1  0.01139252  0.03151945  0.51931241  1
  O  O21  1  0.03668273  0.68385652  0.63786123  1
  O  O22  1  0.05878131  0.44083260  0.50844149  1
  O  O23  1  0.09045782  0.71875419  0.08810836  1
  O  O24  1  0.11611245  0.32124575  0.11687460  1
  O  O25  1  0.17850633  0.88541904  0.82391531  1
  O  O26  1  0.19564078  0.88825656  0.30272049  1
  O  O27  1  0.17873616  0.25471083  0.54809509  1
  O  O28  1  0.21521460  0.57048120  0.85843128  1
  O  O29  1  0.28478540  0.42951880  0.35843128  1
  O  O30  1  0.32126384  0.74528917  0.04809509  1
  O  O31  1  0.30435922  0.11174344  0.80272049  1
  O  O32  1  0.32149367  0.11458096  0.32391531  1
  O  O33  1  0.38388755  0.67875425  0.61687460  1
  O  O34  1  0.40954218  0.28124581  0.58810836  1
  O  O35  1  0.44121869  0.55916740  0.00844149  1
  O  O36  1  0.46331727  0.31614348  0.13786123  1
  O  O37  1  0.48860748  0.96848055  0.01931241  1
  O  O38  1  0.51139252  0.46848055  0.48068759  1
  O  O39  1  0.53668273  0.81614348  0.36213877  1
  O  O40  1  0.55878131  0.05916740  0.49155851  1
  O  O41  1  0.59045782  0.78124581  0.91189164  1
  O  O42  1  0.61611245  0.17875425  0.88312540  1
  O  O43  1  0.67850633  0.61458096  0.17608469  1
  O  O44  1  0.69564078  0.61174344  0.69727951  1
  O  O45  1  0.67873616  0.24528917  0.45190491  1
  O  O46  1  0.71521460  0.92951880  0.14156872  1
  O  O47  1  0.78478540  0.07048120  0.64156872  1
  O  O48  1  0.82126384  0.75471083  0.95190491  1
  O  O49  1  0.80435922  0.38825656  0.19727951  1
  O  O50  1  0.82149367  0.38541904  0.67608469  1
  O  O51  1  0.88388755  0.82124575  0.38312540  1
  O  O52  1  0.90954218  0.21875419  0.41189164  1
  O  O53  1  0.94121869  0.94083260  0.99155851  1
  O  O54  1  0.96331727  0.18385652  0.86213877  1
  O  O55  1  0.98860748  0.53151945  0.98068759  1
