# generated using pymatgen
data_Li6Ag3F10
_symmetry_space_group_name_H-M   'P 1'
_cell_length_a   19.81348327
_cell_length_b   9.20392093
_cell_length_c   5.56233901
_cell_angle_alpha   90.00000000
_cell_angle_beta   90.00000000
_cell_angle_gamma   90.00000000
_symmetry_Int_Tables_number   1
_chemical_formula_structural   Li6Ag3F10
_chemical_formula_sum   'Li24 Ag12 F40'
_cell_volume   1014.35778343
_cell_formula_units_Z   4
loop_
 _symmetry_equiv_pos_site_id
 _symmetry_equiv_pos_as_xyz
  1  'x, y, z'
loop_
 _atom_site_type_symbol
 _atom_site_label
 _atom_site_symmetry_multiplicity
 _atom_site_fract_x
 _atom_site_fract_y
 _atom_site_fract_z
 _atom_site_occupancy
  Li  Li0  1  0.01749412  0.72354018  0.23612991  1
  Li  Li1  1  0.04472751  0.98713932  0.37663022  1
  Li  Li2  1  0.10536147  0.54460014  0.82753306  1
  Li  Li3  1  0.14707231  0.73030835  0.36801297  1
  Li  Li4  1  0.20230005  0.27313793  0.75544473  1
  Li  Li5  1  0.23407379  0.42028672  0.18748029  1
  Li  Li6  1  0.26592621  0.92028672  0.68748029  1
  Li  Li7  1  0.29769995  0.77313793  0.25544473  1
  Li  Li8  1  0.35292769  0.23030835  0.86801297  1
  Li  Li9  1  0.39463853  0.04460014  0.32753306  1
  Li  Li10  1  0.45527249  0.48713932  0.87663022  1
  Li  Li11  1  0.48250588  0.22354018  0.73612991  1
  Li  Li12  1  0.51749412  0.77645982  0.23612991  1
  Li  Li13  1  0.54472751  0.51286068  0.37663022  1
  Li  Li14  1  0.60536147  0.95539986  0.82753306  1
  Li  Li15  1  0.64707231  0.76969165  0.36801297  1
  Li  Li16  1  0.70230005  0.22686207  0.75544473  1
  Li  Li17  1  0.73407379  0.07971328  0.18748029  1
  Li  Li18  1  0.76592621  0.57971328  0.68748029  1
  Li  Li19  1  0.79769995  0.72686207  0.25544473  1
  Li  Li20  1  0.85292769  0.26969165  0.86801297  1
  Li  Li21  1  0.89463853  0.45539986  0.32753306  1
  Li  Li22  1  0.95527249  0.01286068  0.87663022  1
  Li  Li23  1  0.98250588  0.27645982  0.73612991  1
  Ag  Ag24  1  0.07959831  0.40067766  0.32094531  1
  Ag  Ag25  1  0.10337453  0.92457921  0.85513358  1
  Ag  Ag26  1  0.22586361  0.08266949  0.19932758  1
  Ag  Ag27  1  0.27413639  0.58266949  0.69932758  1
  Ag  Ag28  1  0.39662547  0.42457921  0.35513358  1
  Ag  Ag29  1  0.42040169  0.90067766  0.82094531  1
  Ag  Ag30  1  0.57959831  0.09932234  0.32094531  1
  Ag  Ag31  1  0.60337453  0.57542079  0.85513358  1
  Ag  Ag32  1  0.72586361  0.41733051  0.19932758  1
  Ag  Ag33  1  0.77413639  0.91733051  0.69932758  1
  Ag  Ag34  1  0.89662547  0.07542079  0.35513358  1
  Ag  Ag35  1  0.92040169  0.59932234  0.82094531  1
  F  F36  1  0.01508396  0.09233587  0.64083695  1
  F  F37  1  0.03089757  0.44728828  0.67321276  1
  F  F38  1  0.06603595  0.80098922  0.51737152  1
  F  F39  1  0.10116152  0.69340868  0.06776296  1
  F  F40  1  0.11535175  0.06570651  0.19957166  1
  F  F41  1  0.14807916  0.39077583  0.00608456  1
  F  F42  1  0.16809997  0.56673046  0.57041436  1
  F  F43  1  0.20380983  0.06604807  0.78993352  1
  F  F44  1  0.22014713  0.85127639  0.41088017  1
  F  F45  1  0.22671310  0.28309287  0.43026688  1
  F  F46  1  0.27328690  0.78309287  0.93026688  1
  F  F47  1  0.27985287  0.35127639  0.91088017  1
  F  F48  1  0.29619017  0.56604807  0.28993352  1
  F  F49  1  0.33190003  0.06673046  0.07041436  1
  F  F50  1  0.35192084  0.89077583  0.50608456  1
  F  F51  1  0.38464825  0.56570651  0.69957166  1
  F  F52  1  0.39883848  0.19340868  0.56776296  1
  F  F53  1  0.43396405  0.30098922  0.01737152  1
  F  F54  1  0.46910243  0.94728828  0.17321276  1
  F  F55  1  0.48491604  0.59233587  0.14083695  1
  F  F56  1  0.51508396  0.40766413  0.64083695  1
  F  F57  1  0.53089757  0.05271172  0.67321276  1
  F  F58  1  0.56603595  0.69901078  0.51737152  1
  F  F59  1  0.60116152  0.80659132  0.06776296  1
  F  F60  1  0.61535175  0.43429349  0.19957166  1
  F  F61  1  0.64807916  0.10922417  0.00608456  1
  F  F62  1  0.66809997  0.93326954  0.57041436  1
  F  F63  1  0.70380983  0.43395193  0.78993352  1
  F  F64  1  0.72014713  0.64872361  0.41088017  1
  F  F65  1  0.72671310  0.21690713  0.43026688  1
  F  F66  1  0.77328690  0.71690713  0.93026688  1
  F  F67  1  0.77985287  0.14872361  0.91088017  1
  F  F68  1  0.79619017  0.93395193  0.28993352  1
  F  F69  1  0.83190003  0.43326954  0.07041436  1
  F  F70  1  0.85192084  0.60922417  0.50608456  1
  F  F71  1  0.88464825  0.93429349  0.69957166  1
  F  F72  1  0.89883848  0.30659132  0.56776296  1
  F  F73  1  0.93396405  0.19901078  0.01737152  1
  F  F74  1  0.96910243  0.55271172  0.17321276  1
  F  F75  1  0.98491604  0.90766413  0.14083695  1
