# generated using pymatgen
data_Cd(C2N3)2
_symmetry_space_group_name_H-M   'P 1'
_cell_length_a   6.36978981
_cell_length_b   7.62051639
_cell_length_c   7.81032881
_cell_angle_alpha   90.00000000
_cell_angle_beta   92.63661019
_cell_angle_gamma   90.00000000
_symmetry_Int_Tables_number   1
_chemical_formula_structural   Cd(C2N3)2
_chemical_formula_sum   'Cd2 C8 N12'
_cell_volume   378.72050919
_cell_formula_units_Z   2
loop_
 _symmetry_equiv_pos_site_id
 _symmetry_equiv_pos_as_xyz
  1  'x, y, z'
loop_
 _atom_site_type_symbol
 _atom_site_label
 _atom_site_symmetry_multiplicity
 _atom_site_fract_x
 _atom_site_fract_y
 _atom_site_fract_z
 _atom_site_occupancy
  Cd  Cd0  1  0.00000000  0.00000000  0.00000000  1
  Cd  Cd1  1  0.50000000  0.50000000  0.50000000  1
  C  C2  1  0.27001620  0.85524994  0.65979383  1
  C  C3  1  0.22866018  0.36624714  0.13167079  1
  C  C4  1  0.77133982  0.63375286  0.86832921  1
  C  C5  1  0.72998380  0.14475006  0.34020617  1
  C  C6  1  0.22998380  0.35524994  0.84020617  1
  C  C7  1  0.77001620  0.64475006  0.15979383  1
  C  C8  1  0.72866018  0.13375286  0.63167079  1
  C  C9  1  0.27133982  0.86624714  0.36832921  1
  N  N10  1  0.71694825  0.58819031  0.73001174  1
  N  N11  1  0.84448643  0.69646366  0.01507614  1
  N  N12  1  0.78305175  0.08819031  0.76998826  1
  N  N13  1  0.28458359  0.39157272  0.70311200  1
  N  N14  1  0.21694825  0.91180969  0.23001174  1
  N  N15  1  0.28305175  0.41180969  0.26998826  1
  N  N16  1  0.34448643  0.80353634  0.51507614  1
  N  N17  1  0.78458359  0.10842728  0.20311200  1
  N  N18  1  0.21541641  0.89157272  0.79688800  1
  N  N19  1  0.71541641  0.60842728  0.29688800  1
  N  N20  1  0.65551357  0.19646366  0.48492386  1
  N  N21  1  0.15551357  0.30353634  0.98492386  1
