# generated using pymatgen
data_SbOF
_symmetry_space_group_name_H-M   'P 1'
_cell_length_a   12.56839993
_cell_length_b   5.49156915
_cell_length_c   13.49907818
_cell_angle_alpha   90.00000000
_cell_angle_beta   90.00000000
_cell_angle_gamma   90.00000000
_symmetry_Int_Tables_number   1
_chemical_formula_structural   SbOF
_chemical_formula_sum   'Sb16 O16 F16'
_cell_volume   931.70957959
_cell_formula_units_Z   16
loop_
 _symmetry_equiv_pos_site_id
 _symmetry_equiv_pos_as_xyz
  1  'x, y, z'
loop_
 _atom_site_type_symbol
 _atom_site_label
 _atom_site_symmetry_multiplicity
 _atom_site_fract_x
 _atom_site_fract_y
 _atom_site_fract_z
 _atom_site_occupancy
  Sb  Sb0  1  0.16487172  0.24134624  0.98324082  1
  Sb  Sb1  1  0.16487172  0.25865376  0.48324082  1
  Sb  Sb2  1  0.09595632  0.71017009  0.73083722  1
  Sb  Sb3  1  0.09595632  0.78982991  0.23083722  1
  Sb  Sb4  1  0.40404368  0.28982991  0.23083722  1
  Sb  Sb5  1  0.40404368  0.21017009  0.73083722  1
  Sb  Sb6  1  0.33512828  0.75865376  0.48324082  1
  Sb  Sb7  1  0.33512828  0.74134624  0.98324082  1
  Sb  Sb8  1  0.66487172  0.24134624  0.51675918  1
  Sb  Sb9  1  0.66487172  0.25865376  0.01675918  1
  Sb  Sb10  1  0.59595632  0.78982991  0.26916278  1
  Sb  Sb11  1  0.59595632  0.71017009  0.76916278  1
  Sb  Sb12  1  0.90404368  0.21017009  0.76916278  1
  Sb  Sb13  1  0.90404368  0.28982991  0.26916278  1
  Sb  Sb14  1  0.83512828  0.75865376  0.01675918  1
  Sb  Sb15  1  0.83512828  0.74134624  0.51675918  1
  O  O16  1  0.01954588  0.48234516  0.20352096  1
  O  O17  1  0.01954588  0.01765484  0.70352096  1
  O  O18  1  0.21604352  0.56219073  0.42104573  1
  O  O19  1  0.21604352  0.93780927  0.92104573  1
  O  O20  1  0.28395648  0.43780927  0.92104573  1
  O  O21  1  0.28395648  0.06219073  0.42104573  1
  O  O22  1  0.48045412  0.98234516  0.20352096  1
  O  O23  1  0.48045412  0.51765484  0.70352096  1
  O  O24  1  0.51954588  0.48234516  0.29647904  1
  O  O25  1  0.51954588  0.01765484  0.79647904  1
  O  O26  1  0.71604352  0.93780927  0.57895427  1
  O  O27  1  0.71604352  0.56219073  0.07895427  1
  O  O28  1  0.78395648  0.43780927  0.57895427  1
  O  O29  1  0.78395648  0.06219073  0.07895427  1
  O  O30  1  0.98045412  0.98234516  0.29647904  1
  O  O31  1  0.98045412  0.51765484  0.79647904  1
  F  F32  1  0.04653930  0.92478524  0.10042591  1
  F  F33  1  0.04653930  0.57521476  0.60042591  1
  F  F34  1  0.25149622  0.15712772  0.10396711  1
  F  F35  1  0.25149622  0.34287228  0.60396711  1
  F  F36  1  0.24850378  0.65712772  0.10396711  1
  F  F37  1  0.24850378  0.84287228  0.60396711  1
  F  F38  1  0.45346070  0.07521476  0.60042591  1
  F  F39  1  0.45346070  0.42478524  0.10042591  1
  F  F40  1  0.54653930  0.57521476  0.89957409  1
  F  F41  1  0.54653930  0.92478524  0.39957409  1
  F  F42  1  0.75149622  0.34287228  0.89603289  1
  F  F43  1  0.75149622  0.15712772  0.39603289  1
  F  F44  1  0.74850378  0.84287228  0.89603289  1
  F  F45  1  0.74850378  0.65712772  0.39603289  1
  F  F46  1  0.95346070  0.07521476  0.89957409  1
  F  F47  1  0.95346070  0.42478524  0.39957409  1
