# generated using pymatgen
data_NaTi4O8
_symmetry_space_group_name_H-M   'P 1'
_cell_length_a   7.13030021
_cell_length_b   10.35614043
_cell_length_c   6.06816739
_cell_angle_alpha   91.21276727
_cell_angle_beta   85.41026125
_cell_angle_gamma   78.91145166
_symmetry_Int_Tables_number   1
_chemical_formula_structural   NaTi4O8
_chemical_formula_sum   'Na3 Ti12 O24'
_cell_volume   438.00642366
_cell_formula_units_Z   3
loop_
 _symmetry_equiv_pos_site_id
 _symmetry_equiv_pos_as_xyz
  1  'x, y, z'
loop_
 _atom_site_type_symbol
 _atom_site_label
 _atom_site_symmetry_multiplicity
 _atom_site_fract_x
 _atom_site_fract_y
 _atom_site_fract_z
 _atom_site_occupancy
  Na  Na0  1  0.42661644  0.93577371  0.98003622  1
  Na  Na1  1  0.57336962  0.30555376  0.25928184  1
  Na  Na2  1  0.57132247  0.57553540  0.53107636  1
  Ti  Ti3  1  0.98045840  0.00750481  0.99962246  1
  Ti  Ti4  1  0.00169391  0.75230529  0.74626685  1
  Ti  Ti5  1  0.02116290  0.24215400  0.25765069  1
  Ti  Ti6  1  0.01325399  0.49377042  0.49985832  1
  Ti  Ti7  1  0.30709533  0.21070972  0.73547198  1
  Ti  Ti8  1  0.29786338  0.46177524  0.97564122  1
  Ti  Ti9  1  0.29726160  0.70449856  0.22057820  1
  Ti  Ti10  1  0.30012631  0.95156890  0.47776618  1
  Ti  Ti11  1  0.69385214  0.03929772  0.51717111  1
  Ti  Ti12  1  0.70441153  0.29140641  0.77504514  1
  Ti  Ti13  1  0.70406710  0.79491342  0.27449142  1
  Ti  Ti14  1  0.70141996  0.54925144  0.01778009  1
  O  O15  1  0.14476946  0.14390176  0.97856429  1
  O  O16  1  0.13899444  0.65154765  0.47846710  1
  O  O17  1  0.14289668  0.40099658  0.22711312  1
  O  O18  1  0.13969799  0.90160629  0.73324799  1
  O  O19  1  0.18746720  0.39758297  0.70817247  1
  O  O20  1  0.18527609  0.14887679  0.46064702  1
  O  O21  1  0.18353030  0.64868655  0.96064235  1
  O  O22  1  0.18253177  0.89838340  0.21900202  1
  O  O23  1  0.45203299  0.02583352  0.68634308  1
  O  O24  1  0.44930679  0.26952038  0.95670618  1
  O  O25  1  0.45295962  0.77644627  0.45239289  1
  O  O26  1  0.45408118  0.52276366  0.21184473  1
  O  O27  1  0.54778902  0.22565045  0.56186746  1
  O  O28  1  0.54435757  0.47149917  0.81184905  1
  O  O29  1  0.54512550  0.72596942  0.04313557  1
  O  O30  1  0.54917454  0.97787957  0.29010484  1
  O  O31  1  0.81227559  0.10113419  0.79053934  1
  O  O32  1  0.81647569  0.35316184  0.02976399  1
  O  O33  1  0.81510053  0.60298504  0.28014123  1
  O  O34  1  0.81381864  0.85278395  0.53717765  1
  O  O35  1  0.85352828  0.35327354  0.51777681  1
  O  O36  1  0.85238450  0.10591723  0.27149837  1
  O  O37  1  0.85810658  0.59794649  0.76364617  1
  O  O38  1  0.85994095  0.84775849  0.01944320  1
