# generated using pymatgen
data_Cu2OF2
_symmetry_space_group_name_H-M   'P 1'
_cell_length_a   8.44075604
_cell_length_b   8.44355771
_cell_length_c   8.39366510
_cell_angle_alpha   108.67235196
_cell_angle_beta   108.71161463
_cell_angle_gamma   109.91915852
_symmetry_Int_Tables_number   1
_chemical_formula_structural   Cu2OF2
_chemical_formula_sum   'Cu16 O8 F16'
_cell_volume   466.65814101
_cell_formula_units_Z   8
loop_
 _symmetry_equiv_pos_site_id
 _symmetry_equiv_pos_as_xyz
  1  'x, y, z'
loop_
 _atom_site_type_symbol
 _atom_site_label
 _atom_site_symmetry_multiplicity
 _atom_site_fract_x
 _atom_site_fract_y
 _atom_site_fract_z
 _atom_site_occupancy
  Cu  Cu0  1  0.82076628  0.32313458  0.05200448  1
  Cu  Cu1  1  0.03583826  0.02570336  0.03575341  1
  Cu  Cu2  1  0.51858305  0.00516593  0.49624137  1
  Cu  Cu3  1  0.47420975  0.51313749  0.98785333  1
  Cu  Cu4  1  0.51917999  0.27665682  0.24886438  1
  Cu  Cu5  1  0.93976950  0.18757417  0.75058023  1
  Cu  Cu6  1  0.73028383  0.45293192  0.66618030  1
  Cu  Cu7  1  0.75981952  0.96900969  0.24407024  1
  Cu  Cu8  1  0.29661851  0.24982798  0.49445971  1
  Cu  Cu9  1  0.72627630  0.74564213  0.47676940  1
  Cu  Cu10  1  0.27035098  0.04143071  0.80775580  1
  Cu  Cu11  1  0.21997289  0.52237543  0.25920704  1
  Cu  Cu12  1  0.04442690  0.79479509  0.27259670  1
  Cu  Cu13  1  0.98141625  0.50004919  0.48079525  1
  Cu  Cu14  1  0.47266891  0.74452120  0.78111173  1
  Cu  Cu15  1  0.20904211  0.72001831  0.95401290  1
  O  O16  1  0.74279347  0.98968583  0.47933999  1
  O  O17  1  0.27836596  0.06498980  0.04544768  1
  O  O18  1  0.01422820  0.56537102  0.28985798  1
  O  O19  1  0.50384500  0.21618139  0.44495585  1
  O  O20  1  0.02440872  0.27962727  0.02662908  1
  O  O21  1  0.44726764  0.72970190  0.99362256  1
  O  O22  1  0.75002424  0.52176680  0.46446797  1
  O  O23  1  0.07619876  0.03146179  0.27535410  1
  F  F24  1  0.75634676  0.19580938  0.25014857  1
  F  F25  1  0.78106730  0.73216746  0.22125810  1
  F  F26  1  0.44413820  0.53579890  0.23116151  1
  F  F27  1  0.71729002  0.25781189  0.77851395  1
  F  F28  1  0.93605429  0.91929962  0.74522732  1
  F  F29  1  0.19827581  0.43591459  0.49096020  1
  F  F30  1  0.57828505  0.33053024  0.04157993  1
  F  F31  1  0.27048452  0.79348964  0.22999383  1
  F  F32  1  0.94726224  0.68015644  0.90987192  1
  F  F33  1  0.51337334  0.47541961  0.74834053  1
  F  F34  1  0.48196349  0.77061395  0.56105381  1
  F  F35  1  0.21428791  0.24612723  0.78710227  1
  F  F36  1  0.75689604  0.92798686  0.97342650  1
  F  F37  1  0.01020924  0.43550147  0.69430286  1
  F  F38  1  0.30973461  0.01207096  0.58330061  1
  F  F39  1  0.22798011  0.78054293  0.72582564  1
