# generated using pymatgen
data_LiAg2F4
_symmetry_space_group_name_H-M   'P 1'
_cell_length_a   5.83477766
_cell_length_b   7.34706674
_cell_length_c   5.83477731
_cell_angle_alpha   66.60410617
_cell_angle_beta   89.99999762
_cell_angle_gamma   113.39589265
_symmetry_Int_Tables_number   1
_chemical_formula_structural   LiAg2F4
_chemical_formula_sum   'Li2 Ag4 F8'
_cell_volume   206.96523032
_cell_formula_units_Z   2
loop_
 _symmetry_equiv_pos_site_id
 _symmetry_equiv_pos_as_xyz
  1  'x, y, z'
loop_
 _atom_site_type_symbol
 _atom_site_label
 _atom_site_symmetry_multiplicity
 _atom_site_fract_x
 _atom_site_fract_y
 _atom_site_fract_z
 _atom_site_occupancy
  Li  Li0  1  0.37500000  0.25000000  0.87500000  1
  Li  Li1  1  0.62500000  0.75000000  0.12500000  1
  Ag  Ag2  1  0.00000000  0.50000000  0.00000000  1
  Ag  Ag3  1  0.00000000  0.50000000  0.50000000  1
  Ag  Ag4  1  0.00000000  0.00000000  0.50000000  1
  Ag  Ag5  1  0.50000000  0.00000000  0.50000000  1
  F  F6  1  0.06793400  0.20422682  0.08826619  1
  F  F7  1  0.36370818  0.79577318  0.29249302  1
  F  F8  1  0.20750698  0.29577318  0.56793400  1
  F  F9  1  0.41173381  0.70422682  0.86370818  1
  F  F10  1  0.58826619  0.29577318  0.13629182  1
  F  F11  1  0.79249302  0.70422682  0.43206600  1
  F  F12  1  0.63629182  0.20422682  0.70750698  1
  F  F13  1  0.93206600  0.79577318  0.91173381  1
