# generated using pymatgen
data_P2HNF4
_symmetry_space_group_name_H-M   'P 1'
_cell_length_a   8.89514870
_cell_length_b   4.81478876
_cell_length_c   12.19499576
_cell_angle_alpha   90.00000000
_cell_angle_beta   98.25755118
_cell_angle_gamma   90.00000000
_symmetry_Int_Tables_number   1
_chemical_formula_structural   P2HNF4
_chemical_formula_sum   'P8 H4 N4 F16'
_cell_volume   516.87560965
_cell_formula_units_Z   4
loop_
 _symmetry_equiv_pos_site_id
 _symmetry_equiv_pos_as_xyz
  1  'x, y, z'
loop_
 _atom_site_type_symbol
 _atom_site_label
 _atom_site_symmetry_multiplicity
 _atom_site_fract_x
 _atom_site_fract_y
 _atom_site_fract_z
 _atom_site_occupancy
  P  P0  1  0.15180959  0.08693581  0.84888690  1
  P  P1  1  0.05649158  0.14074822  0.33951720  1
  P  P2  1  0.34819041  0.58693581  0.65111310  1
  P  P3  1  0.55649158  0.35925178  0.83951720  1
  P  P4  1  0.44350842  0.64074822  0.16048280  1
  P  P5  1  0.65180959  0.41306419  0.34888690  1
  P  P6  1  0.94350842  0.85925178  0.66048280  1
  P  P7  1  0.84819041  0.91306419  0.15111310  1
  H  H8  1  0.06505643  0.19628016  0.14675917  1
  H  H9  1  0.43494357  0.69628016  0.35324083  1
  H  H10  1  0.56505643  0.30371984  0.64675917  1
  H  H11  1  0.93494357  0.80371984  0.85324083  1
  N  N12  1  0.00295018  0.10177442  0.20100361  1
  N  N13  1  0.50295018  0.39822558  0.70100361  1
  N  N14  1  0.49704982  0.60177442  0.29899639  1
  N  N15  1  0.99704982  0.89822558  0.79899639  1
  F  F16  1  0.08398778  0.25048207  0.94703249  1
  F  F17  1  0.08072830  0.47483500  0.34257003  1
  F  F18  1  0.24485494  0.86054889  0.93001908  1
  F  F19  1  0.25514506  0.36054889  0.56998092  1
  F  F20  1  0.23516453  0.06931640  0.34566658  1
  F  F21  1  0.26483547  0.56931640  0.15433342  1
  F  F22  1  0.41601222  0.75048207  0.55296751  1
  F  F23  1  0.41927170  0.97483500  0.15742997  1
  F  F24  1  0.58072830  0.02516500  0.84257003  1
  F  F25  1  0.58398778  0.24951793  0.44703249  1
  F  F26  1  0.73516453  0.43068360  0.84566658  1
  F  F27  1  0.76483547  0.93068360  0.65433342  1
  F  F28  1  0.74485494  0.63945111  0.43001908  1
  F  F29  1  0.75514506  0.13945111  0.06998092  1
  F  F30  1  0.91927170  0.52516500  0.65742997  1
  F  F31  1  0.91601222  0.74951793  0.05296751  1
