# generated using pymatgen
data_H16Ru3C6(Cl3O7)2
_symmetry_space_group_name_H-M   'P 1'
_cell_length_a   6.64707762
_cell_length_b   7.40065142
_cell_length_c   15.19592990
_cell_angle_alpha   91.91368912
_cell_angle_beta   98.75986631
_cell_angle_gamma   116.14643552
_symmetry_Int_Tables_number   1
_chemical_formula_structural   H16Ru3C6(Cl3O7)2
_chemical_formula_sum   'H16 Ru3 C6 Cl6 O14'
_cell_volume   658.93815502
_cell_formula_units_Z   1
loop_
 _symmetry_equiv_pos_site_id
 _symmetry_equiv_pos_as_xyz
  1  'x, y, z'
loop_
 _atom_site_type_symbol
 _atom_site_label
 _atom_site_symmetry_multiplicity
 _atom_site_fract_x
 _atom_site_fract_y
 _atom_site_fract_z
 _atom_site_occupancy
  H  H0  1  0.63726611  0.34956242  0.35839472  1
  H  H1  1  0.36273389  0.65043758  0.64160528  1
  H  H2  1  0.90098489  0.48595646  0.37878269  1
  H  H3  1  0.09901511  0.51404354  0.62121731  1
  H  H4  1  0.72216436  0.13282175  0.56753895  1
  H  H5  1  0.27783564  0.86717825  0.43246105  1
  H  H6  1  0.77721878  0.23300597  0.47735689  1
  H  H7  1  0.22278122  0.76699403  0.52264311  1
  H  H8  1  0.05085983  0.08456965  0.67917042  1
  H  H9  1  0.94914017  0.91543035  0.32082958  1
  H  H10  1  0.29536616  0.15641536  0.65682975  1
  H  H11  1  0.70463384  0.84358464  0.34317025  1
  H  H12  1  0.77408473  0.66909416  0.57981815  1
  H  H13  1  0.22591527  0.33090584  0.42018185  1
  H  H14  1  0.74147556  0.60281599  0.47695225  1
  H  H15  1  0.25852444  0.39718401  0.52304775  1
  Ru  Ru16  1  0.00000000  0.00000000  0.50000000  1
  Ru  Ru17  1  0.74116823  0.61128025  0.82222345  1
  Ru  Ru18  1  0.25883177  0.38871975  0.17777655  1
  C  C19  1  0.77630208  0.41131146  0.88776643  1
  C  C20  1  0.22369792  0.58868854  0.11223357  1
  C  C21  1  0.73156901  0.75190892  0.92578416  1
  C  C22  1  0.26843099  0.24809108  0.07421584  1
  C  C23  1  0.06201205  0.77077808  0.83444110  1
  C  C24  1  0.93798795  0.22922192  0.16555890  1
  Cl  Cl25  1  0.72670570  0.42341271  0.68039180  1
  Cl  Cl26  1  0.27329430  0.57658729  0.31960820  1
  Cl  Cl27  1  0.68294483  0.86210413  0.73343699  1
  Cl  Cl28  1  0.31705517  0.13789587  0.26656301  1
  Cl  Cl29  1  0.32896559  0.41799255  0.80676719  1
  Cl  Cl30  1  0.67103441  0.58200745  0.19323281  1
  O  O31  1  0.76953906  0.42032683  0.40834646  1
  O  O32  1  0.23046094  0.57967317  0.59165354  1
  O  O33  1  0.76094858  0.11380313  0.50970383  1
  O  O34  1  0.23905142  0.88619687  0.49029617  1
  O  O35  1  0.13637254  0.05194349  0.63946546  1
  O  O36  1  0.86362746  0.94805651  0.36053454  1
  O  O37  1  0.74858726  0.71095280  0.52000110  1
  O  O38  1  0.25141274  0.28904720  0.47999890  1
  O  O39  1  0.79942931  0.29157740  0.92950665  1
  O  O40  1  0.20057069  0.70842260  0.07049335  1
  O  O41  1  0.72256470  0.83660781  0.98903278  1
  O  O42  1  0.27743530  0.16339219  0.01096722  1
  O  O43  1  0.25632957  0.87091764  0.84460219  1
  O  O44  1  0.74367043  0.12908236  0.15539781  1
