# generated using pymatgen
data_Li4Fe(PO3)6
_symmetry_space_group_name_H-M   'P 1'
_cell_length_a   7.36591708
_cell_length_b   7.36591708
_cell_length_c   13.95937286
_cell_angle_alpha   86.92791159
_cell_angle_beta   93.07208841
_cell_angle_gamma   116.18414320
_symmetry_Int_Tables_number   1
_chemical_formula_structural   Li4Fe(PO3)6
_chemical_formula_sum   'Li8 Fe2 P12 O36'
_cell_volume   678.31122734
_cell_formula_units_Z   2
loop_
 _symmetry_equiv_pos_site_id
 _symmetry_equiv_pos_as_xyz
  1  'x, y, z'
loop_
 _atom_site_type_symbol
 _atom_site_label
 _atom_site_symmetry_multiplicity
 _atom_site_fract_x
 _atom_site_fract_y
 _atom_site_fract_z
 _atom_site_occupancy
  Li  Li0  1  0.03952611  0.70124844  0.92273993  1
  Li  Li1  1  0.29875156  0.96047389  0.42273993  1
  Li  Li2  1  0.21579013  0.55608429  0.54696585  1
  Li  Li3  1  0.44391571  0.78420987  0.04696585  1
  Li  Li4  1  0.55608429  0.21579013  0.95303415  1
  Li  Li5  1  0.78420987  0.44391571  0.45303415  1
  Li  Li6  1  0.70124844  0.03952611  0.57726007  1
  Li  Li7  1  0.96047389  0.29875156  0.07726007  1
  Fe  Fe8  1  0.62631391  0.62631391  0.75000000  1
  Fe  Fe9  1  0.37368609  0.37368609  0.25000000  1
  P  P10  1  0.03543374  0.85166403  0.61420763  1
  P  P11  1  0.14833597  0.96456626  0.11420763  1
  P  P12  1  0.36979187  0.90662248  0.75077294  1
  P  P13  1  0.09337752  0.63020813  0.25077294  1
  P  P14  1  0.23027538  0.40017159  0.88919892  1
  P  P15  1  0.59982841  0.76972462  0.38919892  1
  P  P16  1  0.40017159  0.23027538  0.61080108  1
  P  P17  1  0.76972462  0.59982841  0.11080108  1
  P  P18  1  0.90662248  0.36979187  0.74922706  1
  P  P19  1  0.63020813  0.09337752  0.24922706  1
  P  P20  1  0.85166403  0.03543374  0.88579237  1
  P  P21  1  0.96456626  0.14833597  0.38579237  1
  O  O22  1  0.13426330  0.81425176  0.71442116  1
  O  O23  1  0.08382759  0.75266632  0.53430816  1
  O  O24  1  0.18574824  0.86573670  0.21442116  1
  O  O25  1  0.24733368  0.91617241  0.03430816  1
  O  O26  1  0.36987127  0.90148269  0.85748450  1
  O  O27  1  0.09851731  0.63012873  0.35748450  1
  O  O28  1  0.18858685  0.50394174  0.96947545  1
  O  O29  1  0.47665291  0.81130052  0.69727499  1
  O  O30  1  0.14002791  0.44955683  0.78833066  1
  O  O31  1  0.49605826  0.81141315  0.46947545  1
  O  O32  1  0.18869948  0.52334709  0.19727499  1
  O  O33  1  0.55044317  0.85997209  0.28833066  1
  O  O34  1  0.09605639  0.15690737  0.90064883  1
  O  O35  1  0.80830070  0.82131233  0.86659317  1
  O  O36  1  0.44210640  0.43336771  0.87075626  1
  O  O37  1  0.84309263  0.90394361  0.40064883  1
  O  O38  1  0.43336771  0.44210640  0.62924374  1
  O  O39  1  0.17868767  0.19169930  0.36659317  1
  O  O40  1  0.82131233  0.80830070  0.63340683  1
  O  O41  1  0.56663229  0.55789360  0.37075626  1
  O  O42  1  0.15690737  0.09605639  0.59935117  1
  O  O43  1  0.55789360  0.56663229  0.12924374  1
  O  O44  1  0.19169930  0.17868767  0.13340683  1
  O  O45  1  0.90394361  0.84309263  0.09935117  1
  O  O46  1  0.44955683  0.14002791  0.71166934  1
  O  O47  1  0.81130052  0.47665291  0.80272501  1
  O  O48  1  0.50394174  0.18858685  0.53052455  1
  O  O49  1  0.85997209  0.55044317  0.21166934  1
  O  O50  1  0.52334709  0.18869948  0.30272501  1
  O  O51  1  0.81141315  0.49605826  0.03052455  1
  O  O52  1  0.90148269  0.36987127  0.64251550  1
  O  O53  1  0.63012873  0.09851731  0.14251550  1
  O  O54  1  0.75266632  0.08382759  0.96569184  1
  O  O55  1  0.81425176  0.13426330  0.78557884  1
  O  O56  1  0.91617241  0.24733368  0.46569184  1
  O  O57  1  0.86573670  0.18574824  0.28557884  1
