# generated using pymatgen
data_LiMnPO4
_symmetry_space_group_name_H-M   'P 1'
_cell_length_a   5.01338881
_cell_length_b   5.51733934
_cell_length_c   6.71567792
_cell_angle_alpha   77.27541838
_cell_angle_beta   90.07620437
_cell_angle_gamma   63.15012917
_symmetry_Int_Tables_number   1
_chemical_formula_structural   LiMnPO4
_chemical_formula_sum   'Li2 Mn2 P2 O8'
_cell_volume   160.57457217
_cell_formula_units_Z   2
loop_
 _symmetry_equiv_pos_site_id
 _symmetry_equiv_pos_as_xyz
  1  'x, y, z'
loop_
 _atom_site_type_symbol
 _atom_site_label
 _atom_site_symmetry_multiplicity
 _atom_site_fract_x
 _atom_site_fract_y
 _atom_site_fract_z
 _atom_site_occupancy
  Li  Li0  1  0.93640655  0.00297784  0.50205797  1
  Li  Li1  1  0.96689536  0.00016695  0.99538253  1
  Mn  Mn2  1  0.64487879  0.71431098  0.72904548  1
  Mn  Mn3  1  0.35973597  0.28664550  0.27437660  1
  P  P4  1  0.68612414  0.64664205  0.23214483  1
  P  P5  1  0.32857795  0.35642240  0.77174098  1
  O  O6  1  0.24665135  0.67257253  0.68015820  1
  O  O7  1  0.69668184  0.83194899  0.37763736  1
  O  O8  1  0.78576545  0.73173113  0.02191264  1
  O  O9  1  0.36132466  0.68395807  0.21238193  1
  O  O10  1  0.04239069  0.31646105  0.79047952  1
  O  O11  1  0.51503221  0.27013687  0.98162913  1
  O  O12  1  0.52502515  0.17296841  0.62626337  1
  O  O13  1  0.92101189  0.33220921  0.32613948  1
