# generated using pymatgen
data_Li2Mn2Si4O11
_symmetry_space_group_name_H-M   'P 1'
_cell_length_a   9.76717346
_cell_length_b   7.69949493
_cell_length_c   7.07635055
_cell_angle_alpha   111.23231449
_cell_angle_beta   101.82890263
_cell_angle_gamma   97.82288058
_symmetry_Int_Tables_number   1
_chemical_formula_structural   Li2Mn2Si4O11
_chemical_formula_sum   'Li4 Mn4 Si8 O22'
_cell_volume   472.42043079
_cell_formula_units_Z   2
loop_
 _symmetry_equiv_pos_site_id
 _symmetry_equiv_pos_as_xyz
  1  'x, y, z'
loop_
 _atom_site_type_symbol
 _atom_site_label
 _atom_site_symmetry_multiplicity
 _atom_site_fract_x
 _atom_site_fract_y
 _atom_site_fract_z
 _atom_site_occupancy
  Li  Li0  1  0.44099564  0.59070487  0.90608949  1
  Li  Li1  1  0.44594018  0.61024726  0.38491981  1
  Li  Li2  1  0.55405982  0.38975274  0.61508019  1
  Li  Li3  1  0.55900436  0.40929513  0.09391051  1
  Mn  Mn4  1  0.24068776  0.78728030  0.66797758  1
  Mn  Mn5  1  0.21367864  0.65862822  0.10925953  1
  Mn  Mn6  1  0.78632136  0.34137178  0.89074047  1
  Mn  Mn7  1  0.75931224  0.21271970  0.33202242  1
  Si  Si8  1  0.05263594  0.37066527  0.24830876  1
  Si  Si9  1  0.23927009  0.23080398  0.95407610  1
  Si  Si10  1  0.23706640  0.22000429  0.52355739  1
  Si  Si11  1  0.59914904  0.97077239  0.78340983  1
  Si  Si12  1  0.40085096  0.02922761  0.21659017  1
  Si  Si13  1  0.76293360  0.77999571  0.47644261  1
  Si  Si14  1  0.76072991  0.76919602  0.04592390  1
  Si  Si15  1  0.94736406  0.62933473  0.75169124  1
  O  O16  1  0.12056848  0.64823083  0.81114182  1
  O  O17  1  0.08632095  0.25507688  0.40129541  1
  O  O18  1  0.14871735  0.59150858  0.34304450  1
  O  O19  1  0.08854673  0.25324618  0.02145395  1
  O  O20  1  0.19485237  0.13263923  0.69377845  1
  O  O21  1  0.28178487  0.03531828  0.35744335  1
  O  O22  1  0.45035301  0.81264145  0.65456136  1
  O  O23  1  0.36261976  0.40837099  0.61964677  1
  O  O24  1  0.41101023  0.80877520  0.12427138  1
  O  O25  1  0.30920011  0.06499340  0.00829612  1
  O  O26  1  0.34986821  0.43791403  0.06568555  1
  O  O27  1  0.65013179  0.56208597  0.93431445  1
  O  O28  1  0.69079989  0.93500660  0.99170388  1
  O  O29  1  0.58898977  0.19122480  0.87572862  1
  O  O30  1  0.63738024  0.59162901  0.38035323  1
  O  O31  1  0.54964699  0.18735855  0.34543864  1
  O  O32  1  0.71821513  0.96468172  0.64255665  1
  O  O33  1  0.80514763  0.86736077  0.30622155  1
  O  O34  1  0.91145327  0.74675382  0.97854605  1
  O  O35  1  0.85128265  0.40849142  0.65695550  1
  O  O36  1  0.91367905  0.74492312  0.59870459  1
  O  O37  1  0.87943152  0.35176917  0.18885818  1
