# generated using pymatgen
data_LiFeSi3O8
_symmetry_space_group_name_H-M   'P 1'
_cell_length_a   8.03904480
_cell_length_b   7.09449786
_cell_length_c   7.12342391
_cell_angle_alpha   82.03369695
_cell_angle_beta   109.61643842
_cell_angle_gamma   61.91578218
_symmetry_Int_Tables_number   1
_chemical_formula_structural   LiFeSi3O8
_chemical_formula_sum   'Li2 Fe2 Si6 O16'
_cell_volume   315.39029480
_cell_formula_units_Z   2
loop_
 _symmetry_equiv_pos_site_id
 _symmetry_equiv_pos_as_xyz
  1  'x, y, z'
loop_
 _atom_site_type_symbol
 _atom_site_label
 _atom_site_symmetry_multiplicity
 _atom_site_fract_x
 _atom_site_fract_y
 _atom_site_fract_z
 _atom_site_occupancy
  Li  Li0  1  0.82102456  0.82072901  0.80101224  1
  Li  Li1  1  0.17897544  0.17927099  0.19898776  1
  Fe  Fe2  1  0.20439092  0.72845895  0.14528455  1
  Fe  Fe3  1  0.79560908  0.27154105  0.85471545  1
  Si  Si4  1  0.21583793  0.55410019  0.73107288  1
  Si  Si5  1  0.45003465  0.73600312  0.62137646  1
  Si  Si6  1  0.17447671  0.14973362  0.74460472  1
  Si  Si7  1  0.82552329  0.85026638  0.25539528  1
  Si  Si8  1  0.54996535  0.26399688  0.37862354  1
  Si  Si9  1  0.78416207  0.44589981  0.26892712  1
  O  O10  1  0.12705048  0.69724111  0.87031757  1
  O  O11  1  0.35554587  0.93481281  0.72006298  1
  O  O12  1  0.03771828  0.69486606  0.48276643  1
  O  O13  1  0.31057702  0.84012495  0.36350953  1
  O  O14  1  0.10558508  0.08980340  0.92629891  1
  O  O15  1  0.43544980  0.52651859  0.74157970  1
  O  O16  1  0.27637763  0.29540783  0.81497209  1
  O  O17  1  0.70670005  0.59878962  0.71394219  1
  O  O18  1  0.29329995  0.40121038  0.28605781  1
  O  O19  1  0.72362237  0.70459217  0.18502791  1
  O  O20  1  0.56455020  0.47348141  0.25842030  1
  O  O21  1  0.89441492  0.91019660  0.07370109  1
  O  O22  1  0.68942298  0.15987505  0.63649047  1
  O  O23  1  0.96228172  0.30513394  0.51723357  1
  O  O24  1  0.64445513  0.06518719  0.27993702  1
  O  O25  1  0.87294952  0.30275889  0.12968243  1
