# generated using pymatgen
data_Li3Cr(PO4)2
_symmetry_space_group_name_H-M   'P 1'
_cell_length_a   8.78850684
_cell_length_b   8.78852967
_cell_length_c   6.75112308
_cell_angle_alpha   90.00236465
_cell_angle_beta   89.99956316
_cell_angle_gamma   120.00094809
_symmetry_Int_Tables_number   1
_chemical_formula_structural   Li3Cr(PO4)2
_chemical_formula_sum   'Li9 Cr3 P6 O24'
_cell_volume   451.57909222
_cell_formula_units_Z   3
loop_
 _symmetry_equiv_pos_site_id
 _symmetry_equiv_pos_as_xyz
  1  'x, y, z'
loop_
 _atom_site_type_symbol
 _atom_site_label
 _atom_site_symmetry_multiplicity
 _atom_site_fract_x
 _atom_site_fract_y
 _atom_site_fract_z
 _atom_site_occupancy
  Li  Li0  1  0.37275349  0.06976444  0.73277544  1
  Li  Li1  1  0.93033021  0.30299238  0.73266074  1
  Li  Li2  1  0.00002246  0.99993947  0.49989677  1
  Li  Li3  1  0.33339955  0.66669216  0.47686335  1
  Li  Li4  1  0.30298578  0.37269123  0.26730047  1
  Li  Li5  1  0.69699400  0.62723291  0.73279519  1
  Li  Li6  1  0.66666645  0.33326140  0.52319097  1
  Li  Li7  1  0.06973823  0.69703161  0.26735106  1
  Li  Li8  1  0.62731749  0.93032100  0.26733101  1
  Cr  Cr9  1  -0.00002494  -0.00004866  -0.00015732  1
  Cr  Cr10  1  0.33333771  0.66666491  0.04861428  1
  Cr  Cr11  1  0.66666503  0.33333919  0.95145328  1
  P  P12  1  0.02539296  0.68125680  0.75401907  1
  P  P13  1  0.31872262  0.34412861  0.75399085  1
  P  P14  1  0.65588882  0.97461710  0.75402365  1
  P  P15  1  0.34401812  0.02524200  0.24603117  1
  P  P16  1  0.68123335  0.65603862  0.24603446  1
  P  P17  1  0.97477154  0.31875263  0.24600965  1
  O  O18  1  0.14392899  0.95044682  0.20298656  1
  O  O19  1  0.11506448  0.71665059  0.55350691  1
  O  O20  1  0.15598780  0.70668644  0.92071352  1
  O  O21  1  0.37229600  0.86196764  0.24098753  1
  O  O22  1  0.13806610  0.51037384  0.24099832  1
  O  O23  1  0.04956532  0.19350998  0.20294314  1
  O  O24  1  0.55070379  0.84402755  0.92071854  1
  O  O25  1  0.29331549  0.44930089  0.92068341  1
  O  O26  1  0.19351742  0.14391793  0.79694145  1
  O  O27  1  0.28339338  0.39843302  0.55349374  1
  O  O28  1  0.60151349  0.88490496  0.55346706  1
  O  O29  1  0.48965102  0.62770138  0.24098922  1
  O  O30  1  0.51040161  0.37229062  0.75905538  1
  O  O31  1  0.39848752  0.11510341  0.44653471  1
  O  O32  1  0.71666030  0.60161804  0.44658824  1
  O  O33  1  0.80647863  0.85606648  0.20293739  1
  O  O34  1  0.70668392  0.55063111  0.07924453  1
  O  O35  1  0.44935134  0.15603350  0.07920608  1
  O  O36  1  0.95037635  0.80644795  0.79699293  1
  O  O37  1  0.86191052  0.48960067  0.75904565  1
  O  O38  1  0.62770564  0.13811223  0.75904929  1
  O  O39  1  0.84395939  0.29331205  0.07923036  1
  O  O40  1  0.88491105  0.28335856  0.44655123  1
  O  O41  1  0.85606057  0.04958454  0.79694870  1
