# generated using pymatgen
data_LiFeSiO4
_symmetry_space_group_name_H-M   'P 1'
_cell_length_a   10.76564565
_cell_length_b   10.88151610
_cell_length_c   12.14822243
_cell_angle_alpha   90.00000000
_cell_angle_beta   90.00000000
_cell_angle_gamma   119.79720997
_symmetry_Int_Tables_number   1
_chemical_formula_structural   LiFeSiO4
_chemical_formula_sum   'Li12 Fe12 Si12 O48'
_cell_volume   1234.97080929
_cell_formula_units_Z   12
loop_
 _symmetry_equiv_pos_site_id
 _symmetry_equiv_pos_as_xyz
  1  'x, y, z'
loop_
 _atom_site_type_symbol
 _atom_site_label
 _atom_site_symmetry_multiplicity
 _atom_site_fract_x
 _atom_site_fract_y
 _atom_site_fract_z
 _atom_site_occupancy
  Li  Li0  1  0.00000000  0.50000000  0.33604693  1
  Li  Li1  1  0.00000000  0.50000000  0.83547442  1
  Li  Li2  1  0.00000000  0.00000000  0.99986119  1
  Li  Li3  1  0.00000000  0.00000000  0.33363483  1
  Li  Li4  1  0.00000000  0.00000000  0.66685297  1
  Li  Li5  1  0.50000000  0.50000000  0.16740251  1
  Li  Li6  1  0.50000000  0.50000000  0.66234514  1
  Li  Li7  1  0.50000000  0.00000000  0.44256708  1
  Li  Li8  1  0.50000000  0.00000000  0.01603428  1
  Li  Li9  1  0.50000000  0.00000000  0.21179751  1
  Li  Li10  1  0.50000000  0.00000000  0.64794871  1
  Li  Li11  1  0.50000000  0.00000000  0.83167349  1
  Fe  Fe12  1  0.00170860  0.75217405  0.83453706  1
  Fe  Fe13  1  0.24171562  0.74492582  0.16561692  1
  Fe  Fe14  1  0.99829140  0.24782595  0.83453706  1
  Fe  Fe15  1  0.24947793  0.49878913  0.50082103  1
  Fe  Fe16  1  0.24872260  0.24990142  0.16507056  1
  Fe  Fe17  1  0.50511156  0.74940282  0.83527078  1
  Fe  Fe18  1  0.24833173  0.00216266  0.49945876  1
  Fe  Fe19  1  0.49488844  0.25059718  0.83527078  1
  Fe  Fe20  1  0.75127740  0.75009858  0.16507056  1
  Fe  Fe21  1  0.75052207  0.50121087  0.50082103  1
  Fe  Fe22  1  0.75828438  0.25507418  0.16561692  1
  Fe  Fe23  1  0.75166827  0.99783734  0.49945876  1
  Si  Si24  1  0.99798193  0.75090769  0.33507451  1
  Si  Si25  1  0.00201807  0.24909231  0.33507451  1
  Si  Si26  1  0.26046460  0.75500783  0.66951963  1
  Si  Si27  1  0.25124397  0.50409560  0.99911254  1
  Si  Si28  1  0.49366072  0.74688040  0.32949245  1
  Si  Si29  1  0.24670092  0.24835297  0.66592001  1
  Si  Si30  1  0.25444241  0.99963255  0.00266726  1
  Si  Si31  1  0.75329908  0.75164703  0.66592001  1
  Si  Si32  1  0.50633928  0.25311960  0.32949245  1
  Si  Si33  1  0.74875603  0.49590440  0.99911254  1
  Si  Si34  1  0.73953540  0.24499217  0.66951963  1
  Si  Si35  1  0.74555759  0.00036745  0.00266726  1
  O  O36  1  0.10495895  0.89682746  0.93771957  1
  O  O37  1  0.09703350  0.89872462  0.40386968  1
  O  O38  1  0.08479827  0.69710645  0.25598732  1
  O  O39  1  0.12454058  0.70913229  0.75324566  1
  O  O40  1  0.31643382  0.92572713  0.09049904  1
  O  O41  1  0.31004533  0.89336511  0.58355706  1
  O  O42  1  0.08482778  0.38770671  0.41455012  1
  O  O43  1  0.20516321  0.60124392  0.07151080  1
  O  O44  1  0.22935712  0.61596504  0.60184382  1
  O  O45  1  0.11558160  0.41384663  0.91360847  1
  O  O46  1  0.09759663  0.19506857  0.73614782  1
  O  O47  1  0.40713695  0.80937979  0.25626019  1
  O  O48  1  0.41147760  0.82727052  0.74475812  1
  O  O49  1  0.09699927  0.19520995  0.26461361  1
  O  O50  1  0.29750842  0.41484496  0.08410149  1
  O  O51  1  0.38979865  0.60829898  0.40000217  1
  O  O52  1  0.39318333  0.60244538  0.92499375  1
  O  O53  1  0.30212644  0.38718457  0.58730466  1
  O  O54  1  0.58866521  0.88598084  0.41152097  1
  O  O55  1  0.20710006  0.10434100  0.06279218  1
  O  O56  1  0.60431348  0.92583171  0.91893882  1
  O  O57  1  0.19729546  0.09978277  0.59811941  1
  O  O58  1  0.58351010  0.70133378  0.24505441  1
  O  O59  1  0.38823148  0.30020306  0.74411933  1
  O  O60  1  0.61176852  0.69979694  0.74411933  1
  O  O61  1  0.41648990  0.29866622  0.24505441  1
  O  O62  1  0.80270454  0.90021723  0.59811941  1
  O  O63  1  0.39568652  0.07416829  0.91893882  1
  O  O64  1  0.79289994  0.89565900  0.06279218  1
  O  O65  1  0.41133479  0.11401916  0.41152097  1
  O  O66  1  0.69787356  0.61281543  0.58730466  1
  O  O67  1  0.60681667  0.39755462  0.92499375  1
  O  O68  1  0.61020135  0.39170102  0.40000217  1
  O  O69  1  0.70249158  0.58515504  0.08410149  1
  O  O70  1  0.90300073  0.80479005  0.26461361  1
  O  O71  1  0.58852240  0.17272948  0.74475812  1
  O  O72  1  0.59286305  0.19062021  0.25626019  1
  O  O73  1  0.90240337  0.80493143  0.73614782  1
  O  O74  1  0.88441840  0.58615337  0.91360847  1
  O  O75  1  0.77064288  0.38403496  0.60184382  1
  O  O76  1  0.79483679  0.39875608  0.07151080  1
  O  O77  1  0.91517222  0.61229329  0.41455012  1
  O  O78  1  0.68995467  0.10663489  0.58355706  1
  O  O79  1  0.68356618  0.07427287  0.09049904  1
  O  O80  1  0.87545942  0.29086771  0.75324566  1
  O  O81  1  0.91520173  0.30289355  0.25598732  1
  O  O82  1  0.90296650  0.10127538  0.40386968  1
  O  O83  1  0.89504105  0.10317254  0.93771957  1
