# generated using pymatgen
data_LiNiPO4
_symmetry_space_group_name_H-M   'P 1'
_cell_length_a   5.17807648
_cell_length_b   7.53596370
_cell_length_c   8.03633701
_cell_angle_alpha   91.82152279
_cell_angle_beta   90.18521079
_cell_angle_gamma   78.18679402
_symmetry_Int_Tables_number   1
_chemical_formula_structural   LiNiPO4
_chemical_formula_sum   'Li4 Ni4 P4 O16'
_cell_volume   306.79366918
_cell_formula_units_Z   4
loop_
 _symmetry_equiv_pos_site_id
 _symmetry_equiv_pos_as_xyz
  1  'x, y, z'
loop_
 _atom_site_type_symbol
 _atom_site_label
 _atom_site_symmetry_multiplicity
 _atom_site_fract_x
 _atom_site_fract_y
 _atom_site_fract_z
 _atom_site_occupancy
  Li  Li0  1  0.30595807  0.18770096  0.90431044  1
  Li  Li1  1  0.32113532  0.66473632  0.57929382  1
  Li  Li2  1  0.67886468  0.33526368  0.42070618  1
  Li  Li3  1  0.69404193  0.81229904  0.09568956  1
  Ni  Ni4  1  0.13486137  0.94488066  0.31372339  1
  Ni  Ni5  1  0.19930192  0.47942031  0.21016339  1
  Ni  Ni6  1  0.80069808  0.52057969  0.78983661  1
  Ni  Ni7  1  0.86513863  0.05511934  0.68627661  1
  P  P8  1  0.24848384  0.27922918  0.56309939  1
  P  P9  1  0.21342927  0.77489017  0.91627682  1
  P  P10  1  0.78657073  0.22510983  0.08372318  1
  P  P11  1  0.75151616  0.72077082  0.43690161  1
  O  O12  1  0.05396058  0.16469088  0.48314980  1
  O  O13  1  0.05869562  0.28581681  0.08852318  1
  O  O14  1  0.13328804  0.34526355  0.73711751  1
  O  O15  1  0.26439063  0.44264008  0.45253120  1
  O  O16  1  0.18462335  0.95911232  0.82808111  1
  O  O17  1  0.42134627  0.63018810  0.82278473  1
  O  O18  1  0.30494716  0.79375284  0.10065723  1
  O  O19  1  0.53119586  0.17030374  0.57524835  1
  O  O20  1  0.46880414  0.82969626  0.42475165  1
  O  O21  1  0.69505284  0.20624716  0.89934277  1
  O  O22  1  0.57865373  0.36981190  0.17721527  1
  O  O23  1  0.81537665  0.04088768  0.17191889  1
  O  O24  1  0.73560937  0.55735992  0.54746880  1
  O  O25  1  0.86671196  0.65473645  0.26288249  1
  O  O26  1  0.94130438  0.71418319  0.91147682  1
  O  O27  1  0.94603942  0.83530912  0.51685020  1
