# generated using pymatgen
data_Li7Fe2P7O24
_symmetry_space_group_name_H-M   'P 1'
_cell_length_a   15.06291813
_cell_length_b   5.08712114
_cell_length_c   12.11112643
_cell_angle_alpha   90.00000000
_cell_angle_beta   96.26523269
_cell_angle_gamma   90.00000000
_symmetry_Int_Tables_number   1
_chemical_formula_structural   Li7Fe2P7O24
_chemical_formula_sum   'Li14 Fe4 P14 O48'
_cell_volume   922.49510680
_cell_formula_units_Z   2
loop_
 _symmetry_equiv_pos_site_id
 _symmetry_equiv_pos_as_xyz
  1  'x, y, z'
loop_
 _atom_site_type_symbol
 _atom_site_label
 _atom_site_symmetry_multiplicity
 _atom_site_fract_x
 _atom_site_fract_y
 _atom_site_fract_z
 _atom_site_occupancy
  Li  Li0  1  0.05295272  0.74457090  0.51658094  1
  Li  Li1  1  0.13698372  0.79786641  0.88515636  1
  Li  Li2  1  0.05295272  0.25542910  0.01658094  1
  Li  Li3  1  0.13698372  0.20213359  0.38515636  1
  Li  Li4  1  0.40692503  0.16891851  0.56924556  1
  Li  Li5  1  0.40692503  0.83108149  0.06924556  1
  Li  Li6  1  0.50000000  0.69986303  0.75000000  1
  Li  Li7  1  0.50000000  0.30013697  0.25000000  1
  Li  Li8  1  0.59307497  0.16891851  0.93075444  1
  Li  Li9  1  0.59307497  0.83108149  0.43075444  1
  Li  Li10  1  0.86301628  0.79786641  0.61484364  1
  Li  Li11  1  0.94704728  0.74457090  0.98341906  1
  Li  Li12  1  0.86301628  0.20213359  0.11484364  1
  Li  Li13  1  0.94704728  0.25542910  0.48341906  1
  Fe  Fe14  1  0.28219409  0.63127373  0.70395226  1
  Fe  Fe15  1  0.28219409  0.36872627  0.20395226  1
  Fe  Fe16  1  0.71780591  0.63127373  0.79604774  1
  Fe  Fe17  1  0.71780591  0.36872627  0.29604774  1
  P  P18  1  0.00000000  0.45153618  0.75000000  1
  P  P19  1  0.00000000  0.54846382  0.25000000  1
  P  P20  1  0.13997348  0.13137080  0.65911022  1
  P  P21  1  0.13997348  0.86862920  0.15911022  1
  P  P22  1  0.27375243  0.38235807  0.95316484  1
  P  P23  1  0.27375243  0.61764193  0.45316484  1
  P  P24  1  0.39391559  0.13370208  0.80893888  1
  P  P25  1  0.39391559  0.86629792  0.30893888  1
  P  P26  1  0.60608441  0.13370208  0.69106112  1
  P  P27  1  0.60608441  0.86629792  0.19106112  1
  P  P28  1  0.72624757  0.38235807  0.54683516  1
  P  P29  1  0.72624757  0.61764193  0.04683516  1
  P  P30  1  0.86002652  0.13137080  0.84088978  1
  P  P31  1  0.86002652  0.86862920  0.34088978  1
  O  O32  1  0.01543077  0.59968761  0.85848482  1
  O  O33  1  0.01543077  0.40031239  0.35848482  1
  O  O34  1  0.08203921  0.24996764  0.75377279  1
  O  O35  1  0.08031277  0.12593601  0.54921465  1
  O  O36  1  0.08203921  0.75003236  0.25377279  1
  O  O37  1  0.08031277  0.87406399  0.04921465  1
  O  O38  1  0.16798975  0.86344155  0.71006440  1
  O  O39  1  0.18899748  0.27563974  0.99074843  1
  O  O40  1  0.21936989  0.31469370  0.65704784  1
  O  O41  1  0.16798975  0.13655845  0.21006440  1
  O  O42  1  0.18899748  0.72436026  0.49074843  1
  O  O43  1  0.25659483  0.60179934  0.86525813  1
  O  O44  1  0.21936989  0.68530630  0.15704784  1
  O  O45  1  0.25659483  0.39820166  0.36525813  1
  O  O46  1  0.31823173  0.13344655  0.89378280  1
  O  O47  1  0.31823173  0.86655345  0.39378280  1
  O  O48  1  0.35890679  0.94804015  0.71170254  1
  O  O49  1  0.34396844  0.53349505  0.54935032  1
  O  O50  1  0.40124922  0.41679282  0.76519971  1
  O  O51  1  0.35890679  0.05195985  0.21170254  1
  O  O52  1  0.34396844  0.46650495  0.04935032  1
  O  O53  1  0.40124922  0.58320718  0.26519971  1
  O  O54  1  0.47763807  0.02100804  0.87175812  1
  O  O55  1  0.47763807  0.97899196  0.37175812  1
  O  O56  1  0.52236193  0.02100804  0.62824188  1
  O  O57  1  0.52236193  0.97899196  0.12824188  1
  O  O58  1  0.59875078  0.41679282  0.73480029  1
  O  O59  1  0.65603156  0.53349505  0.95064968  1
  O  O60  1  0.64109321  0.94804015  0.78829746  1
  O  O61  1  0.59875078  0.58320718  0.23480029  1
  O  O62  1  0.65603156  0.46650495  0.45064968  1
  O  O63  1  0.64109321  0.05195985  0.28829746  1
  O  O64  1  0.68176827  0.13344655  0.60621720  1
  O  O65  1  0.68176827  0.86655345  0.10621720  1
  O  O66  1  0.74340517  0.60179934  0.63474187  1
  O  O67  1  0.78063011  0.31469370  0.84295216  1
  O  O68  1  0.74340517  0.39820166  0.13474187  1
  O  O69  1  0.81100252  0.27563974  0.50925157  1
  O  O70  1  0.83201025  0.86344155  0.78993560  1
  O  O71  1  0.78063011  0.68530630  0.34295216  1
  O  O72  1  0.81100252  0.72436026  0.00925157  1
  O  O73  1  0.83201025  0.13655845  0.28993560  1
  O  O74  1  0.91968723  0.12593601  0.95078535  1
  O  O75  1  0.91796079  0.24996764  0.74622721  1
  O  O76  1  0.91968723  0.87406399  0.45078535  1
  O  O77  1  0.91796079  0.75003236  0.24622721  1
  O  O78  1  0.98456923  0.59968761  0.64151518  1
  O  O79  1  0.98456923  0.40031239  0.14151518  1
