# generated using pymatgen
data_Li2AgF4
_symmetry_space_group_name_H-M   'P 1'
_cell_length_a   5.32194535
_cell_length_b   3.15889772
_cell_length_c   10.42095713
_cell_angle_alpha   89.61594325
_cell_angle_beta   83.50046307
_cell_angle_gamma   89.78546597
_symmetry_Int_Tables_number   1
_chemical_formula_structural   Li2AgF4
_chemical_formula_sum   'Li4 Ag2 F8'
_cell_volume   174.06102954
_cell_formula_units_Z   2
loop_
 _symmetry_equiv_pos_site_id
 _symmetry_equiv_pos_as_xyz
  1  'x, y, z'
loop_
 _atom_site_type_symbol
 _atom_site_label
 _atom_site_symmetry_multiplicity
 _atom_site_fract_x
 _atom_site_fract_y
 _atom_site_fract_z
 _atom_site_occupancy
  Li  Li0  1  0.26170272  0.84371675  0.05703561  1
  Li  Li1  1  0.23577322  0.84597195  0.44140743  1
  Li  Li2  1  0.76181543  0.15608184  0.55717045  1
  Li  Li3  1  0.73587038  0.15410780  0.94154734  1
  Ag  Ag4  1  0.24773852  0.65134004  0.74976761  1
  Ag  Ag5  1  0.74816113  0.34866062  0.24959502  1
  F  F6  1  0.08406412  0.34103898  0.12402022  1
  F  F7  1  0.10150462  0.14853321  0.60416639  1
  F  F8  1  0.41180755  0.34304427  0.37372644  1
  F  F9  1  0.39499935  0.15404013  0.89567735  1
  F  F10  1  0.60137726  0.84755038  0.10420085  1
  F  F11  1  0.58423244  0.65836584  0.62387054  1
  F  F12  1  0.89482159  0.85003708  0.39574489  1
  F  F13  1  0.91192568  0.65751110  0.87358887  1
