# generated using pymatgen
data_LiFeSi3O8
_symmetry_space_group_name_H-M   'P 1'
_cell_length_a   8.67025939
_cell_length_b   8.50190133
_cell_length_c   9.25977587
_cell_angle_alpha   90.00000000
_cell_angle_beta   90.00000000
_cell_angle_gamma   90.00000000
_symmetry_Int_Tables_number   1
_chemical_formula_structural   LiFeSi3O8
_chemical_formula_sum   'Li4 Fe4 Si12 O32'
_cell_volume   682.57224646
_cell_formula_units_Z   4
loop_
 _symmetry_equiv_pos_site_id
 _symmetry_equiv_pos_as_xyz
  1  'x, y, z'
loop_
 _atom_site_type_symbol
 _atom_site_label
 _atom_site_symmetry_multiplicity
 _atom_site_fract_x
 _atom_site_fract_y
 _atom_site_fract_z
 _atom_site_occupancy
  Li  Li0  1  0.08728354  0.20629787  0.88480859  1
  Li  Li1  1  0.41271646  0.79370213  0.38480859  1
  Li  Li2  1  0.58728354  0.29370213  0.61519141  1
  Li  Li3  1  0.91271646  0.70629787  0.11519141  1
  Fe  Fe4  1  0.03168135  0.06345871  0.26584419  1
  Fe  Fe5  1  0.46831865  0.93654129  0.76584419  1
  Fe  Fe6  1  0.53168135  0.43654129  0.23415581  1
  Fe  Fe7  1  0.96831865  0.56345871  0.73415581  1
  Si  Si8  1  0.04313377  0.43889486  0.32715546  1
  Si  Si9  1  0.25465449  0.05392263  0.53725085  1
  Si  Si10  1  0.24890738  0.40141364  0.60165496  1
  Si  Si11  1  0.25109262  0.59858636  0.10165496  1
  Si  Si12  1  0.24534551  0.94607737  0.03724985  1
  Si  Si13  1  0.45686623  0.56110514  0.82715546  1
  Si  Si14  1  0.54313377  0.06110514  0.17284454  1
  Si  Si15  1  0.74890738  0.09858636  0.89834504  1
  Si  Si16  1  0.75465449  0.44607737  0.96274915  1
  Si  Si17  1  0.74534551  0.55392263  0.46274915  1
  Si  Si18  1  0.75109262  0.90141364  0.39834504  1
  Si  Si19  1  0.95686623  0.93889486  0.67284454  1
  O  O20  1  0.97553750  0.26213518  0.32971829  1
  O  O21  1  0.09843770  0.06163352  0.63931897  1
  O  O22  1  0.11365063  0.39196842  0.72377091  1
  O  O23  1  0.11333630  0.07614622  0.07705985  1
  O  O24  1  0.10943841  0.48843534  0.16532015  1
  O  O25  1  0.20681092  0.00885922  0.37348979  1
  O  O26  1  0.18078893  0.46998187  0.44815242  1
  O  O27  1  0.16628496  0.76918309  0.06557343  1
  O  O28  1  0.33371504  0.23081691  0.56557343  1
  O  O29  1  0.31921107  0.53001813  0.94815242  1
  O  O30  1  0.29318908  0.99114078  0.87348979  1
  O  O31  1  0.39056159  0.51156466  0.66532015  1
  O  O32  1  0.38666370  0.92385378  0.57705985  1
  O  O33  1  0.38634937  0.60803158  0.22377091  1
  O  O34  1  0.40156230  0.93836648  0.13931897  1
  O  O35  1  0.52446250  0.73786582  0.82971829  1
  O  O36  1  0.47553750  0.23786582  0.17028171  1
  O  O37  1  0.61365063  0.10803158  0.77622909  1
  O  O38  1  0.59843770  0.43836648  0.86068103  1
  O  O39  1  0.60943841  0.01156466  0.33467985  1
  O  O40  1  0.61333630  0.42385378  0.42294015  1
  O  O41  1  0.68078893  0.03001813  0.05184758  1
  O  O42  1  0.70681092  0.49114078  0.12651021  1
  O  O43  1  0.66628496  0.73081691  0.43442657  1
  O  O44  1  0.83371504  0.26918309  0.93442657  1
  O  O45  1  0.79318908  0.50885922  0.62651021  1
  O  O46  1  0.81921107  0.96998187  0.55184758  1
  O  O47  1  0.88666370  0.57614622  0.92294015  1
  O  O48  1  0.89056159  0.98843534  0.83467985  1
  O  O49  1  0.88634937  0.89196842  0.27622909  1
  O  O50  1  0.90156230  0.56163352  0.36068103  1
  O  O51  1  0.02446250  0.76213418  0.67028171  1
