# generated using pymatgen
data_Li4Ti2Nb3V3O16
_symmetry_space_group_name_H-M   'P 1'
_cell_length_a   6.05738043
_cell_length_b   5.98479330
_cell_length_c   9.82834884
_cell_angle_alpha   89.99956524
_cell_angle_beta   89.62675124
_cell_angle_gamma   119.59727935
_symmetry_Int_Tables_number   1
_chemical_formula_structural   Li4Ti2Nb3V3O16
_chemical_formula_sum   'Li4 Ti2 Nb3 V3 O16'
_cell_volume   309.79980031
_cell_formula_units_Z   1
loop_
 _symmetry_equiv_pos_site_id
 _symmetry_equiv_pos_as_xyz
  1  'x, y, z'
loop_
 _atom_site_type_symbol
 _atom_site_label
 _atom_site_symmetry_multiplicity
 _atom_site_fract_x
 _atom_site_fract_y
 _atom_site_fract_z
 _atom_site_occupancy
  Li  Li0  1  0.33536228  0.66767458  0.90124379  1
  Li  Li1  1  0.00876532  0.00436634  0.99109465  1
  Li  Li2  1  0.01689350  0.00834863  0.49200651  1
  Li  Li3  1  0.66968973  0.33486987  0.38848163  1
  Ti  Ti4  1  0.31557278  0.65773922  0.49517753  1
  Ti  Ti5  1  0.65447489  0.32719474  0.00032036  1
  Nb  Nb6  1  0.65345004  0.82675779  0.22301498  1
  Nb  Nb7  1  0.81776462  0.63535811  0.71582049  1
  Nb  Nb8  1  0.81783047  0.18239410  0.71578249  1
  V  V9  1  0.16849735  0.81881364  0.21166100  1
  V  V10  1  0.16852213  0.34989416  0.21165164  1
  V  V11  1  0.34498496  0.17241891  0.71164805  1
  O  O12  1  0.16164100  0.82136489  0.59475194  1
  O  O13  1  0.05011476  0.52522495  0.35116126  1
  O  O14  1  0.35333783  0.67681741  0.09783559  1
  O  O15  1  0.99763746  0.99891681  0.30645121  1
  O  O16  1  0.00249317  0.00116483  0.80620166  1
  O  O17  1  0.16158513  0.34013090  0.59471071  1
  O  O18  1  0.48792695  0.96482934  0.34299430  1
  O  O19  1  0.48794880  0.52325497  0.34304848  1
  O  O20  1  0.33909262  0.16959943  0.09271638  1
  O  O21  1  0.65913385  0.82958445  0.59309707  1
  O  O22  1  0.52958995  0.48850537  0.84706483  1
  O  O23  1  0.52970327  0.04110079  0.84710231  1
  O  O24  1  0.65563122  0.32783750  0.58124748  1
  O  O25  1  0.81915634  0.65692783  0.09723341  1
  O  O26  1  0.97399757  0.48693380  0.85710718  1
  O  O27  1  0.81920202  0.16227663  0.09721105  1
