# generated using pymatgen
data_LiNiPO4
_symmetry_space_group_name_H-M   'P 1'
_cell_length_a   8.42771512
_cell_length_b   5.35387125
_cell_length_c   7.94083675
_cell_angle_alpha   90.00000000
_cell_angle_beta   103.82273489
_cell_angle_gamma   90.00000000
_symmetry_Int_Tables_number   1
_chemical_formula_structural   LiNiPO4
_chemical_formula_sum   'Li4 Ni4 P4 O16'
_cell_volume   347.92125280
_cell_formula_units_Z   4
loop_
 _symmetry_equiv_pos_site_id
 _symmetry_equiv_pos_as_xyz
  1  'x, y, z'
loop_
 _atom_site_type_symbol
 _atom_site_label
 _atom_site_symmetry_multiplicity
 _atom_site_fract_x
 _atom_site_fract_y
 _atom_site_fract_z
 _atom_site_occupancy
  Li  Li0  1  0.07000231  0.84966932  0.96611108  1
  Li  Li1  1  0.28040348  0.34071767  0.50161856  1
  Li  Li2  1  0.57000231  0.15033068  0.96611108  1
  Li  Li3  1  0.78040348  0.65928233  0.50161856  1
  Ni  Ni4  1  0.20404494  0.33863282  0.87517464  1
  Ni  Ni5  1  0.38852563  0.83624286  0.36331772  1
  Ni  Ni6  1  0.70404494  0.66136718  0.87517464  1
  Ni  Ni7  1  0.88852563  0.16375714  0.36331772  1
  P  P8  1  0.01278560  0.66446739  0.24628539  1
  P  P9  1  0.32770154  0.83366717  0.74079697  1
  P  P10  1  0.51278560  0.33553261  0.24628539  1
  P  P11  1  0.82770154  0.16633283  0.74079697  1
  O  O12  1  0.99717407  0.17298327  0.87206257  1
  O  O13  1  0.05088038  0.39419917  0.31363512  1
  O  O14  1  0.20093235  0.69757522  0.82192333  1
  O  O15  1  0.27686490  0.11229019  0.70312367  1
  O  O16  1  0.17060563  0.78769275  0.21614189  1
  O  O17  1  0.33790748  0.69366943  0.57359242  1
  O  O18  1  0.49717407  0.82701673  0.87206257  1
  O  O19  1  0.43879395  0.19557477  0.38110768  1
  O  O20  1  0.39717675  0.31609446  0.06391096  1
  O  O21  1  0.55088038  0.60580083  0.31363512  1
  O  O22  1  0.70093235  0.30242478  0.82192333  1
  O  O23  1  0.77686490  0.88770981  0.70312367  1
  O  O24  1  0.67060563  0.21230725  0.21614189  1
  O  O25  1  0.83790748  0.30633057  0.57359242  1
  O  O26  1  0.93879395  0.80442523  0.38110768  1
  O  O27  1  0.89717675  0.68390554  0.06391096  1
