# generated using pymatgen
data_LiFeSiO4
_symmetry_space_group_name_H-M   'P 1'
_cell_length_a   11.39118093
_cell_length_b   6.06731749
_cell_length_c   5.07333124
_cell_angle_alpha   90.00000000
_cell_angle_beta   90.00000000
_cell_angle_gamma   90.00000000
_symmetry_Int_Tables_number   1
_chemical_formula_structural   LiFeSiO4
_chemical_formula_sum   'Li4 Fe4 Si4 O16'
_cell_volume   350.63776526
_cell_formula_units_Z   4
loop_
 _symmetry_equiv_pos_site_id
 _symmetry_equiv_pos_as_xyz
  1  'x, y, z'
loop_
 _atom_site_type_symbol
 _atom_site_label
 _atom_site_symmetry_multiplicity
 _atom_site_fract_x
 _atom_site_fract_y
 _atom_site_fract_z
 _atom_site_occupancy
  Li  Li0  1  0.08100249  0.75077445  0.74501767  1
  Li  Li1  1  0.41899751  0.25077445  0.24501767  1
  Li  Li2  1  0.58100249  0.74922555  0.74501767  1
  Li  Li3  1  0.91899751  0.24922555  0.24501767  1
  Fe  Fe4  1  0.17393065  0.01241754  0.24678538  1
  Fe  Fe5  1  0.32606935  0.51241754  0.74678538  1
  Fe  Fe6  1  0.67393065  0.48758246  0.24678538  1
  Fe  Fe7  1  0.82606935  0.98758246  0.74678538  1
  Si  Si8  1  0.16551329  0.50904027  0.24861299  1
  Si  Si9  1  0.33448671  0.00904027  0.74861299  1
  Si  Si10  1  0.66551329  0.99095973  0.24861299  1
  Si  Si11  1  0.83448671  0.49095973  0.74861299  1
  O  O12  1  0.08999748  0.28269074  0.18259773  1
  O  O13  1  0.10445043  0.73832376  0.13704551  1
  O  O14  1  0.18053867  0.52883686  0.56975772  1
  O  O15  1  0.20190005  0.98887249  0.61603201  1
  O  O16  1  0.29809995  0.48887249  0.11603201  1
  O  O17  1  0.31946133  0.02883686  0.06975772  1
  O  O18  1  0.39554957  0.23832376  0.63704551  1
  O  O19  1  0.41000252  0.78269074  0.68259773  1
  O  O20  1  0.58999748  0.21730926  0.18259773  1
  O  O21  1  0.60445043  0.76167624  0.13704551  1
  O  O22  1  0.68053867  0.97116314  0.56975772  1
  O  O23  1  0.70190005  0.51112751  0.61603201  1
  O  O24  1  0.79809995  0.01112751  0.11603201  1
  O  O25  1  0.81946133  0.47116314  0.06975772  1
  O  O26  1  0.89554957  0.26167624  0.63704551  1
  O  O27  1  0.91000252  0.71730926  0.68259773  1
