# generated using pymatgen
data_Li2V(Si2O5)3
_symmetry_space_group_name_H-M   'P 1'
_cell_length_a   7.38844794
_cell_length_b   7.41373832
_cell_length_c   6.73770266
_cell_angle_alpha   111.34946991
_cell_angle_beta   113.70765952
_cell_angle_gamma   97.00450189
_symmetry_Int_Tables_number   1
_chemical_formula_structural   Li2V(Si2O5)3
_chemical_formula_sum   'Li2 V1 Si6 O15'
_cell_volume   298.74439120
_cell_formula_units_Z   1
loop_
 _symmetry_equiv_pos_site_id
 _symmetry_equiv_pos_as_xyz
  1  'x, y, z'
loop_
 _atom_site_type_symbol
 _atom_site_label
 _atom_site_symmetry_multiplicity
 _atom_site_fract_x
 _atom_site_fract_y
 _atom_site_fract_z
 _atom_site_occupancy
  Li  Li0  1  0.18012989  0.15818897  0.71631212  1
  Li  Li1  1  0.81987011  0.84181103  0.28368788  1
  V  V2  1  0.00000000  0.00000000  0.00000000  1
  Si  Si3  1  0.17087455  0.60309992  0.86697683  1
  Si  Si4  1  0.19925391  0.78136539  0.35197275  1
  Si  Si5  1  0.51054184  0.69513261  0.72165955  1
  Si  Si6  1  0.48945816  0.30486739  0.27834045  1
  Si  Si7  1  0.80074609  0.21863461  0.64802725  1
  Si  Si8  1  0.82912545  0.39690008  0.13302317  1
  O  O9  1  0.05755935  0.77312681  0.83994220  1
  O  O10  1  0.98926398  0.63170171  0.31742555  1
  O  O11  1  0.13274807  0.97868451  0.33450672  1
  O  O12  1  0.36804230  0.60545830  0.81899495  1
  O  O13  1  0.39698790  0.84539951  0.61782468  1
  O  O14  1  0.25819815  0.64505618  0.14934352  1
  O  O15  1  0.25847340  0.17709217  0.05023396  1
  O  O16  1  0.50000000  0.50000000  0.50000000  1
  O  O17  1  0.74152660  0.82290783  0.94976604  1
  O  O18  1  0.74180185  0.35494382  0.85065648  1
  O  O19  1  0.60301210  0.15460049  0.38217532  1
  O  O20  1  0.63195770  0.39454170  0.18100505  1
  O  O21  1  0.86725193  0.02131549  0.66549328  1
  O  O22  1  0.01073602  0.36829829  0.68257445  1
  O  O23  1  0.94244065  0.22687319  0.16005780  1
