# generated using pymatgen
data_LiCoPO4
_symmetry_space_group_name_H-M   'P 1'
_cell_length_a   9.99400648
_cell_length_b   9.99400711
_cell_length_c   22.71320618
_cell_angle_alpha   90.00000000
_cell_angle_beta   90.00000000
_cell_angle_gamma   119.99999640
_symmetry_Int_Tables_number   1
_chemical_formula_structural   LiCoPO4
_chemical_formula_sum   'Li24 Co24 P24 O96'
_cell_volume   1964.66438026
_cell_formula_units_Z   24
loop_
 _symmetry_equiv_pos_site_id
 _symmetry_equiv_pos_as_xyz
  1  'x, y, z'
loop_
 _atom_site_type_symbol
 _atom_site_label
 _atom_site_symmetry_multiplicity
 _atom_site_fract_x
 _atom_site_fract_y
 _atom_site_fract_z
 _atom_site_occupancy
  Li  Li0  1  0.00774153  0.94772227  0.41872955  1
  Li  Li1  1  0.06213055  0.56170088  0.91698377  1
  Li  Li2  1  0.06125155  0.51547521  0.25637734  1
  Li  Li3  1  0.02442714  0.48080640  0.58719037  1
  Li  Li4  1  0.45637826  0.97557286  0.92052337  1
  Li  Li5  1  0.45422366  0.93874845  0.58971134  1
  Li  Li6  1  0.05227773  0.06001927  0.08539655  1
  Li  Li7  1  0.49957032  0.93786945  0.25031677  1
  Li  Li8  1  0.06001927  0.00774153  0.25206355  1
  Li  Li9  1  0.43829912  0.50042968  0.58365077  1
  Li  Li10  1  0.48452479  0.54577634  0.92304434  1
  Li  Li11  1  0.51919360  0.54362174  0.25385737  1
  Li  Li12  1  0.48080640  0.45637826  0.75385737  1
  Li  Li13  1  0.51547521  0.45422366  0.42304434  1
  Li  Li14  1  0.56170088  0.49957032  0.08365077  1
  Li  Li15  1  0.93998073  0.99225847  0.75206355  1
  Li  Li16  1  0.50042968  0.06213055  0.75031677  1
  Li  Li17  1  0.94772227  0.93998073  0.58539655  1
  Li  Li18  1  0.54577634  0.06125155  0.08971134  1
  Li  Li19  1  0.54362174  0.02442714  0.42052337  1
  Li  Li20  1  0.97557286  0.51919360  0.08719037  1
  Li  Li21  1  0.93874845  0.48452479  0.75637734  1
  Li  Li22  1  0.93786945  0.43829912  0.41698377  1
  Li  Li23  1  0.99225847  0.05227773  0.91872955  1
  Co  Co24  1  0.14693738  0.83432394  0.67948284  1
  Co  Co25  1  0.18938477  0.88496815  0.01069158  1
  Co  Co26  1  0.17672253  0.78933083  0.37595161  1
  Co  Co27  1  0.11503185  0.30441762  0.67735758  1
  Co  Co28  1  0.32973406  0.67330490  0.82001322  1
  Co  Co29  1  0.32669510  0.65642916  0.48668022  1
  Co  Co30  1  0.34357084  0.67026594  0.15334622  1
  Co  Co31  1  0.16567606  0.31261343  0.34614984  1
  Co  Co32  1  0.21066917  0.38739070  0.04261761  1
  Co  Co33  1  0.61260930  0.82327747  0.70928461  1
  Co  Co34  1  0.30441762  0.18938477  0.84402458  1
  Co  Co35  1  0.31261343  0.14693738  0.51281584  1
  Co  Co36  1  0.68738657  0.85306262  0.01281584  1
  Co  Co37  1  0.69558238  0.81061523  0.34402458  1
  Co  Co38  1  0.38739070  0.17672253  0.20928461  1
  Co  Co39  1  0.78933083  0.61260930  0.54261761  1
  Co  Co40  1  0.83432394  0.68738657  0.84614984  1
  Co  Co41  1  0.65642916  0.32973406  0.65334622  1
  Co  Co42  1  0.67330490  0.34357084  0.98668022  1
  Co  Co43  1  0.67026594  0.32669510  0.32001322  1
  Co  Co44  1  0.88496815  0.69558238  0.17735758  1
  Co  Co45  1  0.82327747  0.21066917  0.87595161  1
  Co  Co46  1  0.81061523  0.11503185  0.51069158  1
  Co  Co47  1  0.85306262  0.16567606  0.17948284  1
  P  P48  1  0.17193125  0.85627425  0.81304691  1
  P  P49  1  0.13195602  0.77892222  0.50903228  1
  P  P50  1  0.21797705  0.88135676  0.14633529  1
  P  P51  1  0.11864324  0.33662029  0.81300129  1
  P  P52  1  0.32820759  0.68739683  0.00959334  1
  P  P53  1  0.14372575  0.31565700  0.47971291  1
  P  P54  1  0.31260317  0.64081076  0.67626034  1
  P  P55  1  0.35918924  0.67179241  0.34292634  1
  P  P56  1  0.22107778  0.35303280  0.17569928  1
  P  P57  1  0.64696720  0.86804398  0.84236628  1
  P  P58  1  0.33662029  0.21797705  0.97966829  1
  P  P59  1  0.31565700  0.17193125  0.64637991  1
  P  P60  1  0.68434300  0.82806875  0.14637991  1
  P  P61  1  0.66337971  0.78202295  0.47966829  1
  P  P62  1  0.35303280  0.13195602  0.34236628  1
  P  P63  1  0.77892222  0.64696720  0.67569928  1
  P  P64  1  0.64081076  0.32820759  0.84292634  1
  P  P65  1  0.68739683  0.35918924  0.17626034  1
  P  P66  1  0.85627425  0.68434300  0.97971391  1
  P  P67  1  0.67179241  0.31260317  0.50959334  1
  P  P68  1  0.88135676  0.66337971  0.31300129  1
  P  P69  1  0.78202295  0.11864324  0.64633529  1
  P  P70  1  0.86804398  0.22107778  0.00903228  1
  P  P71  1  0.82806875  0.14372575  0.31304691  1
  O  O72  1  0.01552441  0.70731117  0.79851392  1
  O  O73  1  0.13437228  0.97397520  0.84276878  1
  O  O74  1  0.01239160  0.67872607  0.55697490  1
  O  O75  1  0.13299558  0.93379352  0.49835180  1
  O  O76  1  0.18052762  0.99029972  0.18303748  1
  O  O77  1  0.06620823  0.72805231  0.13193888  1
  O  O78  1  0.08425766  0.68007467  0.45158411  1
  O  O79  1  0.26056530  0.92333668  0.75413814  1
  O  O80  1  0.29350403  0.96107713  0.08711056  1
  O  O81  1  0.15736442  0.64028085  0.67431313  1
  O  O82  1  0.20617528  0.70967451  0.97562869  1
  O  O83  1  0.27704509  0.82387405  0.85412521  1
  O  O84  1  0.20874777  0.65657204  0.31665776  1
  O  O85  1  0.29519861  0.81281385  0.52836088  1
  O  O86  1  0.03892287  0.33242690  0.75377756  1
  O  O87  1  0.33475903  0.85286478  0.18166342  1
  O  O88  1  0.14713522  0.48189424  0.84832942  1
  O  O89  1  0.00970028  0.19022790  0.84970448  1
  O  O90  1  0.07666332  0.33722862  0.42080414  1
  O  O91  1  0.02602480  0.16039708  0.50943578  1
  O  O92  1  0.26192902  0.63066345  0.07264423  1
  O  O93  1  0.06620648  0.19920306  0.16501880  1
  O  O94  1  0.17612595  0.45317004  0.52079221  1
  O  O95  1  0.18718615  0.48238576  0.19502788  1
  O  O96  1  0.36873443  0.73807098  0.40597723  1
  O  O97  1  0.29032549  0.49650077  0.64229469  1
  O  O98  1  0.36933655  0.63126557  0.73931123  1
  O  O99  1  0.34342796  0.55217573  0.98332376  1
  O  O100  1  0.44782427  0.79125223  0.64999076  1
  O  O101  1  0.48291644  0.84263558  0.00764613  1
  O  O102  1  0.35971915  0.51708356  0.34097913  1
  O  O103  1  0.16039708  0.13437228  0.67610178  1
  O  O104  1  0.19022790  0.18052762  0.01637048  1
  O  O105  1  0.27194769  0.33815592  0.79860588  1
  O  O106  1  0.31992533  0.40418298  0.11825111  1
  O  O107  1  0.50349923  0.79382472  0.30896169  1
  O  O108  1  0.19920306  0.13299558  0.33168580  1
  O  O109  1  0.29268883  0.30821224  0.46518092  1
  O  O110  1  0.32127393  0.33366653  0.22364190  1
  O  O111  1  0.51761424  0.70480139  0.86169488  1
  O  O112  1  0.59581702  0.91574234  0.78491811  1
  O  O113  1  0.54682996  0.72295491  0.18745821  1
  O  O114  1  0.33242690  0.29350403  0.92044356  1
  O  O115  1  0.66633347  0.98760840  0.89030890  1
  O  O116  1  0.51810576  0.66524097  0.51499642  1
  O  O117  1  0.33722862  0.26056530  0.58747114  1
  O  O118  1  0.66184408  0.93379177  0.46527288  1
  O  O119  1  0.69178776  0.98447559  0.13184692  1
  O  O120  1  0.30821224  0.01552441  0.63184692  1
  O  O121  1  0.33815592  0.06620823  0.96527288  1
  O  O122  1  0.66277138  0.73943470  0.08747114  1
  O  O123  1  0.48189424  0.33475903  0.01499642  1
  O  O124  1  0.33366653  0.01239160  0.39030890  1
  O  O125  1  0.66757310  0.70649597  0.42044356  1
  O  O126  1  0.45317004  0.27704509  0.68745821  1
  O  O127  1  0.40418298  0.08425766  0.28491811  1
  O  O128  1  0.48238576  0.29519861  0.36169488  1
  O  O129  1  0.67872607  0.66633347  0.72364190  1
  O  O130  1  0.70731117  0.69178776  0.96518092  1
  O  O131  1  0.80079694  0.86700442  0.83168580  1
  O  O132  1  0.49650077  0.20617528  0.80896169  1
  O  O133  1  0.68007467  0.59581702  0.61825111  1
  O  O134  1  0.72805231  0.66184408  0.29860588  1
  O  O135  1  0.80977210  0.81947238  0.51637048  1
  O  O136  1  0.83960292  0.86562772  0.17610178  1
  O  O137  1  0.64028085  0.48291644  0.84097913  1
  O  O138  1  0.51708356  0.15736442  0.50764613  1
  O  O139  1  0.55217573  0.20874777  0.14999076  1
  O  O140  1  0.65657204  0.44782427  0.48332376  1
  O  O141  1  0.63066345  0.36873443  0.23931123  1
  O  O142  1  0.70967451  0.50349923  0.14229469  1
  O  O143  1  0.63126557  0.26192902  0.90597723  1
  O  O144  1  0.81281385  0.51761424  0.69502788  1
  O  O145  1  0.82387405  0.54682996  0.02079221  1
  O  O146  1  0.93379352  0.80079694  0.66501880  1
  O  O147  1  0.73807098  0.36933655  0.57264423  1
  O  O148  1  0.97397520  0.83960292  0.00943578  1
  O  O149  1  0.92333668  0.66277138  0.92080414  1
  O  O150  1  0.99029972  0.80977210  0.34970448  1
  O  O151  1  0.85286478  0.51810576  0.34832942  1
  O  O152  1  0.66524097  0.14713522  0.68166342  1
  O  O153  1  0.96107713  0.66757310  0.25377756  1
  O  O154  1  0.70480139  0.18718615  0.02836088  1
  O  O155  1  0.79125223  0.34342796  0.81665776  1
  O  O156  1  0.72295491  0.17612595  0.35412521  1
  O  O157  1  0.79382472  0.29032549  0.47562869  1
  O  O158  1  0.84263558  0.35971915  0.17431313  1
  O  O159  1  0.70649597  0.03892287  0.58711056  1
  O  O160  1  0.73943470  0.07666332  0.25413814  1
  O  O161  1  0.91574234  0.31992533  0.95158411  1
  O  O162  1  0.93379177  0.27194769  0.63193888  1
  O  O163  1  0.81947238  0.00970028  0.68303748  1
  O  O164  1  0.86700442  0.06620648  0.99835180  1
  O  O165  1  0.98760840  0.32127393  0.05697490  1
  O  O166  1  0.86562772  0.02602480  0.34276878  1
  O  O167  1  0.98447559  0.29268883  0.29851392  1
