# generated using pymatgen
data_LiNiP2O7
_symmetry_space_group_name_H-M   'P 1'
_cell_length_a   7.00695305
_cell_length_b   8.40817024
_cell_length_c   9.26479564
_cell_angle_alpha   90.00000000
_cell_angle_beta   112.42062519
_cell_angle_gamma   90.00000000
_symmetry_Int_Tables_number   1
_chemical_formula_structural   LiNiP2O7
_chemical_formula_sum   'Li4 Ni4 P8 O28'
_cell_volume   504.58067994
_cell_formula_units_Z   4
loop_
 _symmetry_equiv_pos_site_id
 _symmetry_equiv_pos_as_xyz
  1  'x, y, z'
loop_
 _atom_site_type_symbol
 _atom_site_label
 _atom_site_symmetry_multiplicity
 _atom_site_fract_x
 _atom_site_fract_y
 _atom_site_fract_z
 _atom_site_occupancy
  Li  Li0  1  0.12560280  0.57090772  0.89948650  1
  Li  Li1  1  0.37439720  0.07090772  0.60051350  1
  Li  Li2  1  0.62560280  0.92909228  0.39948650  1
  Li  Li3  1  0.87439720  0.42909228  0.10051350  1
  Ni  Ni4  1  0.12381959  0.93358623  0.81736181  1
  Ni  Ni5  1  0.37618041  0.43358623  0.68263819  1
  Ni  Ni6  1  0.62381959  0.56641377  0.31736181  1
  Ni  Ni7  1  0.87618041  0.06641377  0.18263819  1
  P  P8  1  0.06236522  0.72049359  0.53209179  1
  P  P9  1  0.43763478  0.22049359  0.96790821  1
  P  P10  1  0.18440254  0.73430164  0.24618469  1
  P  P11  1  0.31559746  0.23430164  0.25381531  1
  P  P12  1  0.68440254  0.76569836  0.74618469  1
  P  P13  1  0.81559746  0.26569836  0.75381531  1
  P  P14  1  0.56236522  0.77950641  0.03209179  1
  P  P15  1  0.93763478  0.27950641  0.46790821  1
  O  O16  1  0.14731775  0.58565084  0.65119102  1
  O  O17  1  0.14174845  0.88332743  0.60702576  1
  O  O18  1  0.32761501  0.77368238  0.95135941  1
  O  O19  1  0.17238499  0.27368238  0.54864059  1
  O  O20  1  0.35825155  0.38332743  0.89297424  1
  O  O21  1  0.15914526  0.68217044  0.40507127  1
  O  O22  1  0.35268225  0.08565084  0.84880898  1
  O  O23  1  0.08215149  0.24151046  0.20785652  1
  O  O24  1  0.08737303  0.89869959  0.19669148  1
  O  O25  1  0.08175132  0.60659691  0.12439561  1
  O  O26  1  0.65914526  0.81782956  0.90507127  1
  O  O27  1  0.41824868  0.10659691  0.37560439  1
  O  O28  1  0.58215149  0.25848954  0.70785652  1
  O  O29  1  0.58737303  0.60130041  0.69669148  1
  O  O30  1  0.41262697  0.39869959  0.30330852  1
  O  O31  1  0.41784851  0.74151046  0.29214348  1
  O  O32  1  0.58175132  0.89340309  0.62439561  1
  O  O33  1  0.34085474  0.18217044  0.09492873  1
  O  O34  1  0.91824868  0.39340309  0.87560439  1
  O  O35  1  0.91262697  0.10130041  0.80330852  1
  O  O36  1  0.91784851  0.75848954  0.79214348  1
  O  O37  1  0.64731775  0.91434916  0.15119102  1
  O  O38  1  0.84085474  0.31782956  0.59492873  1
  O  O39  1  0.64174845  0.61667257  0.10702576  1
  O  O40  1  0.82761501  0.72631762  0.45135941  1
  O  O41  1  0.67238499  0.22631762  0.04864059  1
  O  O42  1  0.85825155  0.11667257  0.39297424  1
  O  O43  1  0.85268225  0.41434916  0.34880898  1
