# generated using pymatgen
data_Li2CoP2O7
_symmetry_space_group_name_H-M   'P 1'
_cell_length_a   7.69325833
_cell_length_b   7.69184813
_cell_length_c   5.00097658
_cell_angle_alpha   89.98373397
_cell_angle_beta   89.98805097
_cell_angle_gamma   90.00714759
_symmetry_Int_Tables_number   1
_chemical_formula_structural   Li2CoP2O7
_chemical_formula_sum   'Li4 Co2 P4 O14'
_cell_volume   295.93464236
_cell_formula_units_Z   2
loop_
 _symmetry_equiv_pos_site_id
 _symmetry_equiv_pos_as_xyz
  1  'x, y, z'
loop_
 _atom_site_type_symbol
 _atom_site_label
 _atom_site_symmetry_multiplicity
 _atom_site_fract_x
 _atom_site_fract_y
 _atom_site_fract_z
 _atom_site_occupancy
  Li  Li0  1  0.21660009  0.71662503  0.53926871  1
  Li  Li1  1  0.28335745  0.21656833  0.46079181  1
  Li  Li2  1  0.71665301  0.78349453  0.46077860  1
  Li  Li3  1  0.78345442  0.28339378  0.53908441  1
  Co  Co4  1  0.00002137  0.99990135  0.00008912  1
  Co  Co5  1  0.49988098  0.50001595  0.99992057  1
  P  P6  1  0.14269591  0.35715360  0.90173795  1
  P  P7  1  0.35721313  0.85727418  0.09806718  1
  P  P8  1  0.64293829  0.14280089  0.09858899  1
  P  P9  1  0.85717575  0.64280513  0.90173942  1
  O  O10  1  0.99989768  0.49994167  0.81104954  1
  O  O11  1  0.08068609  0.19007944  0.75739406  1
  O  O12  1  0.15514327  0.34460726  0.20095471  1
  O  O13  1  0.19013657  0.91933521  0.24265344  1
  O  O14  1  0.30979771  0.41937346  0.75740750  1
  O  O15  1  0.34471384  0.84489814  0.79913224  1
  O  O16  1  0.41925815  0.69007300  0.24251194  1
  O  O17  1  0.50005733  0.00002615  0.18902641  1
  O  O18  1  0.58086596  0.30991524  0.24244404  1
  O  O19  1  0.65550775  0.15521629  0.79886777  1
  O  O20  1  0.69008095  0.58077641  0.75745484  1
  O  O21  1  0.80989914  0.08067693  0.24268880  1
  O  O22  1  0.84467609  0.65526956  0.20097606  1
  O  O23  1  0.91938907  0.80987947  0.75737490  1
