# generated using pymatgen
data_Ti5Fe11O24
_symmetry_space_group_name_H-M   'P 1'
_cell_length_a   5.53915766
_cell_length_b   9.16015669
_cell_length_c   9.14850015
_cell_angle_alpha   68.49942526
_cell_angle_beta   94.98645491
_cell_angle_gamma   94.71962627
_symmetry_Int_Tables_number   1
_chemical_formula_structural   Ti5Fe11O24
_chemical_formula_sum   'Ti5 Fe11 O24'
_cell_volume   429.61788005
_cell_formula_units_Z   1
loop_
 _symmetry_equiv_pos_site_id
 _symmetry_equiv_pos_as_xyz
  1  'x, y, z'
loop_
 _atom_site_type_symbol
 _atom_site_label
 _atom_site_symmetry_multiplicity
 _atom_site_fract_x
 _atom_site_fract_y
 _atom_site_fract_z
 _atom_site_occupancy
  Ti  Ti0  1  0.29105572  0.42413042  0.42633515  1
  Ti  Ti1  1  0.71066300  0.57092182  0.57002157  1
  Ti  Ti2  1  0.79476526  0.42600434  0.92988450  1
  Ti  Ti3  1  0.29479961  0.92688562  0.92990443  1
  Ti  Ti4  1  0.79165539  0.92821316  0.42202958  1
  Fe  Fe5  1  0.71229361  0.06902020  0.07373824  1
  Fe  Fe6  1  0.29087849  0.17830420  0.17819784  1
  Fe  Fe7  1  0.20633151  0.07502416  0.57257879  1
  Fe  Fe8  1  0.78747159  0.17483918  0.67584373  1
  Fe  Fe9  1  0.21071454  0.57559369  0.07273463  1
  Fe  Fe10  1  0.70797702  0.32477428  0.31960523  1
  Fe  Fe11  1  0.21068020  0.31991182  0.82316125  1
  Fe  Fe12  1  0.29031046  0.67661186  0.67923560  1
  Fe  Fe13  1  0.21327485  0.82231860  0.32163309  1
  Fe  Fe14  1  0.80548622  0.67549361  0.17380931  1
  Fe  Fe15  1  0.70691746  0.82476313  0.82401002  1
  O  O16  1  0.14031257  0.03320382  0.37488389  1
  O  O17  1  0.15456415  0.11004901  0.78282558  1
  O  O18  1  0.64045092  0.10653861  0.28410964  1
  O  O19  1  0.02167194  0.28523934  0.47661707  1
  O  O20  1  0.64499763  0.01709762  0.88201577  1
  O  O21  1  -0.00420151  0.22517743  0.03167820  1
  O  O22  1  0.49010548  0.22683138  0.52235884  1
  O  O23  1  0.33619768  0.37545834  0.22166326  1
  O  O24  1  0.15693279  0.60941736  0.28074634  1
  O  O25  1  0.52466763  0.28222436  0.98039154  1
  O  O26  1  0.84100985  0.47733606  0.10997107  1
  O  O27  1  0.35302364  0.48384027  0.61132156  1
  O  O28  1  0.14790325  0.53012882  0.87405427  1
  O  O29  1  0.65381631  0.53129719  0.38638950  1
  O  O30  1  0.49216443  0.72626670  0.02366415  1
  O  O31  1  0.83585546  0.38941660  0.71965812  1
  O  O32  1  0.65059743  0.61866988  0.78477648  1
  O  O33  1  0.51574709  0.78057580  0.48004717  1
  O  O34  1  0.00890113  0.78631241  0.96841628  1
  O  O35  1  0.34097515  0.98357136  0.10690635  1
  O  O36  1  0.98972005  0.71551364  0.53558098  1
  O  O37  1  0.35001218  0.87407226  0.72233074  1
  O  O38  1  0.84420974  0.87633039  0.22954096  1
  O  O39  1  0.84509008  0.96262124  0.61732927  1
