# generated using pymatgen
data_LiCoPO4
_symmetry_space_group_name_H-M   'P 1'
_cell_length_a   5.06662064
_cell_length_b   8.06923637
_cell_length_c   18.79184828
_cell_angle_alpha   90.00000000
_cell_angle_beta   90.00000000
_cell_angle_gamma   90.00000000
_symmetry_Int_Tables_number   1
_chemical_formula_structural   LiCoPO4
_chemical_formula_sum   'Li8 Co8 P8 O32'
_cell_volume   768.28140642
_cell_formula_units_Z   8
loop_
 _symmetry_equiv_pos_site_id
 _symmetry_equiv_pos_as_xyz
  1  'x, y, z'
loop_
 _atom_site_type_symbol
 _atom_site_label
 _atom_site_symmetry_multiplicity
 _atom_site_fract_x
 _atom_site_fract_y
 _atom_site_fract_z
 _atom_site_occupancy
  Li  Li0  1  0.43682025  0.43441060  0.55010866  1
  Li  Li1  1  0.43682025  0.93441060  0.94989134  1
  Li  Li2  1  0.25860008  0.86157599  0.73404247  1
  Li  Li3  1  0.25860008  0.36157599  0.76595753  1
  Li  Li4  1  0.93682025  0.56558940  0.44989134  1
  Li  Li5  1  0.93682025  0.06558940  0.05010866  1
  Li  Li6  1  0.75860008  0.13842401  0.26595753  1
  Li  Li7  1  0.75860008  0.63842401  0.23404247  1
  Co  Co8  1  0.25233982  0.50146392  0.06278042  1
  Co  Co9  1  0.25233982  0.00146392  0.43721958  1
  Co  Co10  1  0.24243384  0.32869119  0.33873611  1
  Co  Co11  1  0.24243384  0.82869119  0.16126389  1
  Co  Co12  1  0.75233982  0.99853608  0.56278042  1
  Co  Co13  1  0.75233982  0.49853608  0.93721958  1
  Co  Co14  1  0.74243384  0.17130881  0.83873611  1
  Co  Co15  1  0.74243384  0.67130881  0.66126389  1
  P  P16  1  0.25038999  0.20098351  0.18068256  1
  P  P17  1  0.25038999  0.70098351  0.31931744  1
  P  P18  1  0.22907602  0.26504377  0.92850094  1
  P  P19  1  0.22907602  0.76504377  0.57149906  1
  P  P20  1  0.75038999  0.79901649  0.81931744  1
  P  P21  1  0.75038999  0.29901649  0.68068256  1
  P  P22  1  0.72907602  0.23495623  0.42850094  1
  P  P23  1  0.72907602  0.73495623  0.07149906  1
  O  O24  1  0.04372738  0.32786555  0.68885287  1
  O  O25  1  0.04372738  0.82786555  0.81114713  1
  O  O26  1  0.03611502  0.70951574  0.07862747  1
  O  O27  1  0.03611502  0.20951574  0.42137253  1
  O  O28  1  0.11238027  0.92093398  0.53116332  1
  O  O29  1  0.11238027  0.42093398  0.96883668  1
  O  O30  1  0.10342533  0.26686736  0.85309054  1
  O  O31  1  0.10342533  0.76686736  0.64690946  1
  O  O32  1  0.11878220  0.05037004  0.14050468  1
  O  O33  1  0.11878220  0.55037004  0.35949532  1
  O  O34  1  0.11083045  0.71289970  0.24457319  1
  O  O35  1  0.11083045  0.21289970  0.25542681  1
  O  O36  1  0.17745940  0.36028525  0.13932172  1
  O  O37  1  0.17745940  0.86028525  0.36067828  1
  O  O38  1  0.16970694  0.60691374  0.53086916  1
  O  O39  1  0.16970694  0.10691374  0.96913084  1
  O  O40  1  0.54372738  0.17213445  0.18885287  1
  O  O41  1  0.54372738  0.67213445  0.31114713  1
  O  O42  1  0.53611502  0.29048426  0.92137253  1
  O  O43  1  0.53611502  0.79048426  0.57862747  1
  O  O44  1  0.61238027  0.07906602  0.46883668  1
  O  O45  1  0.61238027  0.57906602  0.03116332  1
  O  O46  1  0.60342533  0.23313264  0.35309054  1
  O  O47  1  0.60342533  0.73313264  0.14690946  1
  O  O48  1  0.61878220  0.94962996  0.85949532  1
  O  O49  1  0.61878220  0.44962996  0.64050468  1
  O  O50  1  0.61083045  0.78710030  0.74457319  1
  O  O51  1  0.61083045  0.28710030  0.75542681  1
  O  O52  1  0.67745940  0.63971475  0.86067828  1
  O  O53  1  0.67745940  0.13971475  0.63932172  1
  O  O54  1  0.66970694  0.39308626  0.46913084  1
  O  O55  1  0.66970694  0.89308626  0.03086916  1
