# generated using pymatgen
data_KCu2H2(SeO5)2
_symmetry_space_group_name_H-M   'P 1'
_cell_length_a   6.55691315
_cell_length_b   6.55691315
_cell_length_c   8.71842547
_cell_angle_alpha   58.42379340
_cell_angle_beta   121.57620660
_cell_angle_gamma   119.18769113
_symmetry_Int_Tables_number   1
_chemical_formula_structural   KCu2H2(SeO5)2
_chemical_formula_sum   'K1 Cu2 H2 Se2 O10'
_cell_volume   260.02251821
_cell_formula_units_Z   1
loop_
 _symmetry_equiv_pos_site_id
 _symmetry_equiv_pos_as_xyz
  1  'x, y, z'
loop_
 _atom_site_type_symbol
 _atom_site_label
 _atom_site_symmetry_multiplicity
 _atom_site_fract_x
 _atom_site_fract_y
 _atom_site_fract_z
 _atom_site_occupancy
  K  K0  1  0.50000000  0.50000000  0.50000000  1
  Cu  Cu1  1  -0.00000000  0.50000000  -0.00000000  1
  Cu  Cu2  1  0.50000000  0.00000000  -0.00000000  1
  H  H3  1  0.29618755  0.70381145  0.62540763  1
  H  H4  1  0.70381145  0.29618755  0.37459237  1
  Se  Se5  1  0.91928759  0.08071241  0.69373351  1
  Se  Se6  1  0.08071241  0.91928759  0.30626649  1
  O  O7  1  0.80572763  0.19427237  0.75264136  1
  O  O8  1  0.19427237  0.80572763  0.24735864  1
  O  O9  1  0.81100618  0.18899382  0.43523731  1
  O  O10  1  0.18899382  0.81100618  0.56476269  1
  O  O11  1  0.22973180  0.19500543  0.75193612  1
  O  O12  1  0.80499457  0.77026820  0.75193612  1
  O  O13  1  0.77026820  0.80499457  0.24806388  1
  O  O14  1  0.19500543  0.22973180  0.24806388  1
  O  O15  1  0.30145913  0.69854087  0.99135547  1
  O  O16  1  0.69854087  0.30145913  0.00864453  1
