# generated using pymatgen
data_LiFe(PO3)4
_symmetry_space_group_name_H-M   'P 1'
_cell_length_a   7.51649639
_cell_length_b   12.95656743
_cell_length_c   9.52167383
_cell_angle_alpha   90.00000000
_cell_angle_beta   85.51522088
_cell_angle_gamma   90.00000000
_symmetry_Int_Tables_number   1
_chemical_formula_structural   LiFe(PO3)4
_chemical_formula_sum   'Li4 Fe4 P16 O48'
_cell_volume   924.45744654
_cell_formula_units_Z   4
loop_
 _symmetry_equiv_pos_site_id
 _symmetry_equiv_pos_as_xyz
  1  'x, y, z'
loop_
 _atom_site_type_symbol
 _atom_site_label
 _atom_site_symmetry_multiplicity
 _atom_site_fract_x
 _atom_site_fract_y
 _atom_site_fract_z
 _atom_site_occupancy
  Li  Li0  1  0.96572895  0.27859237  0.46548375  1
  Li  Li1  1  0.53427105  0.77859237  0.03451625  1
  Li  Li2  1  0.46572895  0.22140763  0.96548375  1
  Li  Li3  1  0.03427105  0.72140763  0.53451625  1
  Fe  Fe4  1  0.96612752  0.23253443  0.02240167  1
  Fe  Fe5  1  0.53387248  0.73253443  0.47759833  1
  Fe  Fe6  1  0.46612752  0.26746557  0.52240167  1
  Fe  Fe7  1  0.03387148  0.76746557  0.97759833  1
  P  P8  1  0.08820684  0.60648617  0.25226373  1
  P  P9  1  0.09891375  0.13375283  0.71732643  1
  P  P10  1  0.19425861  0.90749808  0.72782040  1
  P  P11  1  0.30008524  0.88475874  0.26297345  1
  P  P12  1  0.19991476  0.38475874  0.23702655  1
  P  P13  1  0.30574139  0.40749808  0.77217960  1
  P  P14  1  0.40108625  0.63375283  0.78267357  1
  P  P15  1  0.41179316  0.10648617  0.24773627  1
  P  P16  1  0.58820684  0.89351383  0.75226373  1
  P  P17  1  0.59891375  0.36624717  0.21732643  1
  P  P18  1  0.69425861  0.59250192  0.22782040  1
  P  P19  1  0.80008524  0.61524126  0.76297345  1
  P  P20  1  0.69991476  0.11524126  0.73702655  1
  P  P21  1  0.80574139  0.09250292  0.27217960  1
  P  P22  1  0.90108625  0.86624717  0.28267357  1
  P  P23  1  0.91179316  0.39351383  0.74773627  1
  O  O24  1  0.10204065  0.86087827  0.32860833  1
  O  O25  1  0.06865555  0.88840016  0.85859532  1
  O  O26  1  0.11385660  0.43117975  0.71691376  1
  O  O27  1  0.07496688  0.32559932  0.14852075  1
  O  O28  1  0.09989749  0.67734103  0.12569403  1
  O  O29  1  0.09991987  0.14161452  0.87645516  1
  O  O30  1  0.15840225  0.64316848  0.38474564  1
  O  O31  1  0.32535910  0.86653132  0.10802885  1
  O  O32  1  0.18797704  0.50390071  0.19337066  1
  O  O33  1  0.15435160  0.02007874  0.66512734  1
  O  O34  1  0.19961534  0.21093397  0.62429984  1
  O  O35  1  0.30690609  0.33127346  0.88824158  1
  O  O36  1  0.19309391  0.83127346  0.61175842  1
  O  O37  1  0.31202296  0.00390071  0.30662934  1
  O  O38  1  0.30038466  0.71093397  0.87570016  1
  O  O39  1  0.17464090  0.36653132  0.39197115  1
  O  O40  1  0.34564840  0.52007874  0.83487266  1
  O  O41  1  0.34159775  0.14316848  0.11525436  1
  O  O42  1  0.40008013  0.64161452  0.62354484  1
  O  O43  1  0.40010251  0.17734103  0.37430597  1
  O  O44  1  0.42503312  0.82559932  0.35147925  1
  O  O45  1  0.38614340  0.93117975  0.78308624  1
  O  O46  1  0.39795935  0.36087827  0.17139167  1
  O  O47  1  0.43134445  0.38840016  0.64140468  1
  O  O48  1  0.56865555  0.61159984  0.35859532  1
  O  O49  1  0.60204065  0.63912173  0.82860833  1
  O  O50  1  0.61385660  0.06882025  0.21691376  1
  O  O51  1  0.57496688  0.17440068  0.64852075  1
  O  O52  1  0.59989749  0.82265897  0.62569403  1
  O  O53  1  0.59991987  0.35838548  0.37645516  1
  O  O54  1  0.65840225  0.85683152  0.88474564  1
  O  O55  1  0.65435160  0.47992126  0.16512734  1
  O  O56  1  0.82535910  0.63346868  0.60802885  1
  O  O57  1  0.69961534  0.28906603  0.12429984  1
  O  O58  1  0.68797704  0.99609929  0.69337066  1
  O  O59  1  0.80690609  0.16872654  0.38824158  1
  O  O60  1  0.69309391  0.66872654  0.11175842  1
  O  O61  1  0.80038466  0.78906603  0.37570016  1
  O  O62  1  0.84564840  0.97992126  0.33487266  1
  O  O63  1  0.81202296  0.49609929  0.80662934  1
  O  O64  1  0.67464090  0.13346868  0.89197115  1
  O  O65  1  0.84159775  0.35683152  0.61525436  1
  O  O66  1  0.90008013  0.85838548  0.12354484  1
  O  O67  1  0.90010251  0.32265897  0.87430597  1
  O  O68  1  0.92503312  0.67440068  0.85147925  1
  O  O69  1  0.88614340  0.56882025  0.28308624  1
  O  O70  1  0.93134445  0.11159984  0.14140468  1
  O  O71  1  0.89795935  0.13912173  0.67139167  1
