# generated using pymatgen
data_Li2Cr3O6
_symmetry_space_group_name_H-M   'P 1'
_cell_length_a   5.10640018
_cell_length_b   5.10647058
_cell_length_c   10.32817939
_cell_angle_alpha   75.64192036
_cell_angle_beta   75.95323298
_cell_angle_gamma   59.98628725
_symmetry_Int_Tables_number   1
_chemical_formula_structural   Li2Cr3O6
_chemical_formula_sum   'Li4 Cr6 O12'
_cell_volume   223.64466284
_cell_formula_units_Z   2
loop_
 _symmetry_equiv_pos_site_id
 _symmetry_equiv_pos_as_xyz
  1  'x, y, z'
loop_
 _atom_site_type_symbol
 _atom_site_label
 _atom_site_symmetry_multiplicity
 _atom_site_fract_x
 _atom_site_fract_y
 _atom_site_fract_z
 _atom_site_occupancy
  Li  Li0  1  0.24702425  0.59051776  0.25848853  1
  Li  Li1  1  0.42370153  0.07854501  0.75984799  1
  Li  Li2  1  0.74690634  0.40401913  0.75854254  1
  Li  Li3  1  0.92373041  0.23824288  0.25989364  1
  Cr  Cr4  1  -0.00003456  0.33927338  0.99547632  1
  Cr  Cr5  1  0.16369816  0.83078622  0.50983649  1
  Cr  Cr6  1  0.33161195  0.66858199  0.99537916  1
  Cr  Cr7  1  0.50012521  0.16515177  0.49540733  1
  Cr  Cr8  1  0.66374101  0.99570687  0.00984661  1
  Cr  Cr9  1  0.83171577  0.50430119  0.49534806  1
  O  O10  1  0.02690001  0.05400946  0.89459109  1
  O  O11  1  0.19986867  0.20433400  0.39360218  1
  O  O12  1  0.13975714  0.44422042  0.60464894  1
  O  O13  1  0.27857042  0.97308980  0.10520775  1
  O  O14  1  0.37334513  0.35603036  0.89410154  1
  O  O15  1  0.52685205  0.52434642  0.39469930  1
  O  O16  1  0.47646870  0.80624536  0.60572377  1
  O  O17  1  0.63968651  0.31095567  0.10470655  1
  O  O18  1  0.69987167  0.70234495  0.89374843  1
  O  O19  1  0.87335924  0.87707116  0.39406008  1
  O  O20  1  0.77857330  0.14277599  0.60523354  1
  O  O21  1  0.97659809  0.61152421  0.10580715  1
