# generated using pymatgen
data_Li2Fe3P5O18
_symmetry_space_group_name_H-M   'P 1'
_cell_length_a   4.94157089
_cell_length_b   13.07895316
_cell_length_c   12.56987868
_cell_angle_alpha   88.26057747
_cell_angle_beta   89.94983507
_cell_angle_gamma   78.93452025
_symmetry_Int_Tables_number   1
_chemical_formula_structural   Li2Fe3P5O18
_chemical_formula_sum   'Li4 Fe6 P10 O36'
_cell_volume   796.91722140
_cell_formula_units_Z   2
loop_
 _symmetry_equiv_pos_site_id
 _symmetry_equiv_pos_as_xyz
  1  'x, y, z'
loop_
 _atom_site_type_symbol
 _atom_site_label
 _atom_site_symmetry_multiplicity
 _atom_site_fract_x
 _atom_site_fract_y
 _atom_site_fract_z
 _atom_site_occupancy
  Li  Li0  1  0.51237456  0.67082518  0.86395808  1
  Li  Li1  1  0.81462580  0.67314081  0.36524100  1
  Li  Li2  1  0.18234240  0.32541433  0.63619534  1
  Li  Li3  1  0.49316136  0.32691383  0.13637465  1
  Fe  Fe4  1  0.12056358  0.60334099  0.62071286  1
  Fe  Fe5  1  0.27433151  0.60296727  0.12045919  1
  Fe  Fe6  1  0.72550301  0.39672018  0.87992096  1
  Fe  Fe7  1  0.87932520  0.39694531  0.37975610  1
  Fe  Fe8  1  0.49994993  0.00034963  0.49957971  1
  Fe  Fe9  1  0.49877318  0.99939429  0.00010258  1
  P  P10  1  0.06615871  0.86343726  0.59228006  1
  P  P11  1  0.07047368  0.86247504  0.09244523  1
  P  P12  1  0.15156728  0.54863670  0.87171140  1
  P  P13  1  0.29928192  0.54830141  0.37213794  1
  P  P14  1  0.70102026  0.45140322  0.62832773  1
  P  P15  1  0.84879904  0.45123892  0.12826243  1
  P  P16  1  0.92564231  0.13686772  0.90793217  1
  P  P17  1  0.93236139  0.13743892  0.40774405  1
  P  P18  1  0.72981595  0.00030599  0.74979091  1
  P  P19  1  0.26423423  0.99982991  0.24999639  1
  O  O20  1  0.60165355  0.95082777  0.84287637  1
  O  O21  1  0.22713078  0.91011306  0.00575746  1
  O  O22  1  0.44179235  0.95141044  0.34304136  1
  O  O23  1  0.98187582  0.91636672  0.70569980  1
  O  O24  1  0.86310276  0.91138718  0.50541860  1
  O  O25  1  0.09774397  0.91601128  0.20573727  1
  O  O26  1  0.35980940  0.87486210  0.56851736  1
  O  O27  1  0.76593614  0.87375652  0.06827997  1
  O  O28  1  0.04167748  0.74954096  0.61620064  1
  O  O29  1  0.21022951  0.74889083  0.11718515  1
  O  O30  1  0.23798442  0.61213966  0.96345571  1
  O  O31  1  0.22456341  0.61139170  0.77247942  1
  O  O32  1  0.14846332  0.61119393  0.46448606  1
  O  O33  1  0.16178707  0.61126109  0.27316900  1
  O  O34  1  0.76058340  0.56396011  0.62833180  1
  O  O35  1  0.84104401  0.54291564  0.87651645  1
  O  O36  1  0.67465037  0.56368332  0.12627856  1
  O  O37  1  0.61514159  0.54332560  0.37783175  1
  O  O38  1  0.38519544  0.45675519  0.62272741  1
  O  O39  1  0.32525633  0.43612798  0.87353053  1
  O  O40  1  0.15934033  0.45693487  0.12343949  1
  O  O41  1  0.24017851  0.43577070  0.37244471  1
  O  O42  1  0.83806237  0.38837489  0.72747510  1
  O  O43  1  0.85240156  0.38820923  0.53630986  1
  O  O44  1  0.77536197  0.38883871  0.22755787  1
  O  O45  1  0.76287028  0.38727838  0.03664519  1
  O  O46  1  0.78616137  0.25076525  0.88432751  1
  O  O47  1  0.95821254  0.25088232  0.38237139  1
  O  O48  1  0.23043380  0.12535072  0.93252788  1
  O  O49  1  0.63931428  0.12670534  0.43269029  1
  O  O50  1  0.89592781  0.08418125  0.79452899  1
  O  O51  1  0.13651365  0.08911653  0.49428741  1
  O  O52  1  0.01372237  0.08434908  0.29401585  1
  O  O53  1  0.55301440  0.04994502  0.65692057  1
  O  O54  1  0.77038404  0.08849078  0.99435035  1
  O  O55  1  0.39332834  0.04801392  0.15631308  1
