# generated using pymatgen
data_Li14Cu9(P2O7)8
_symmetry_space_group_name_H-M   'P 1'
_cell_length_a   11.07044666
_cell_length_b   9.48872462
_cell_length_c   12.39608396
_cell_angle_alpha   67.91263874
_cell_angle_beta   115.88833588
_cell_angle_gamma   105.49348380
_symmetry_Int_Tables_number   1
_chemical_formula_structural   Li14Cu9(P2O7)8
_chemical_formula_sum   'Li14 Cu9 P16 O56'
_cell_volume   1077.18369653
_cell_formula_units_Z   1
loop_
 _symmetry_equiv_pos_site_id
 _symmetry_equiv_pos_as_xyz
  1  'x, y, z'
loop_
 _atom_site_type_symbol
 _atom_site_label
 _atom_site_symmetry_multiplicity
 _atom_site_fract_x
 _atom_site_fract_y
 _atom_site_fract_z
 _atom_site_occupancy
  Li  Li0  1  0.12603511  0.92972977  0.58626089  1
  Li  Li1  1  0.02871835  0.64326089  0.41107859  1
  Li  Li2  1  0.37279929  0.03911581  0.91830266  1
  Li  Li3  1  0.11754055  0.42549568  0.07925338  1
  Li  Li4  1  0.36821663  0.52959489  0.42896604  1
  Li  Li5  1  0.51437465  0.34675449  0.82637223  1
  Li  Li6  1  0.50678519  0.85122384  0.32016289  1
  Li  Li7  1  0.49321481  0.14877616  0.67983711  1
  Li  Li8  1  0.48562535  0.65324551  0.17362777  1
  Li  Li9  1  0.63178337  0.47040511  0.57103396  1
  Li  Li10  1  0.88245945  0.57450432  0.92074662  1
  Li  Li11  1  0.62720071  0.96088419  0.08169734  1
  Li  Li12  1  0.97128165  0.35673911  0.58892141  1
  Li  Li13  1  0.87396489  0.07027023  0.41373911  1
  Cu  Cu14  1  0.21521526  0.70091348  0.91664058  1
  Cu  Cu15  1  0.25622152  0.56916407  0.70115009  1
  Cu  Cu16  1  0.21780099  0.19818333  0.41808606  1
  Cu  Cu17  1  0.00000000  0.00000000  0.00000000  1
  Cu  Cu18  1  0.72924875  0.92374853  0.79423686  1
  Cu  Cu19  1  0.27075125  0.07625147  0.20576314  1
  Cu  Cu20  1  0.78219901  0.80181667  0.58191394  1
  Cu  Cu21  1  0.74377848  0.43083593  0.29884991  1
  Cu  Cu22  1  0.78478474  0.29908652  0.08335942  1
  P  P23  1  0.05904113  0.98042598  0.77569926  1
  P  P24  1  0.30975854  0.37254306  0.99314675  1
  P  P25  1  0.05785052  0.47531156  0.27670834  1
  P  P26  1  0.45852069  0.80584543  0.86931963  1
  P  P27  1  0.21322561  0.24044720  0.65754366  1
  P  P28  1  0.30809222  0.87000083  0.49137484  1
  P  P29  1  0.20145417  0.74274577  0.15168510  1
  P  P30  1  0.53998546  0.68806481  0.63005058  1
  P  P31  1  0.46001454  0.31193519  0.36994942  1
  P  P32  1  0.79854583  0.25725423  0.84831490  1
  P  P33  1  0.69190778  0.12999917  0.50862516  1
  P  P34  1  0.78677439  0.75955280  0.34245634  1
  P  P35  1  0.54147931  0.19415457  0.13068037  1
  P  P36  1  0.94214948  0.52468844  0.72329166  1
  P  P37  1  0.69024146  0.62745694  0.00685325  1
  P  P38  1  0.94095887  0.01957402  0.22430074  1
  O  O39  1  0.01001089  0.58235491  0.83777205  1
  O  O40  1  0.19646413  0.91924863  0.86101005  1
  O  O41  1  0.02874735  0.53685745  0.65283521  1
  O  O42  1  0.10273388  0.16562705  0.72759904  1
  O  O43  1  0.30891148  0.74498992  0.79397506  1
  O  O44  1  0.46503266  0.84029958  0.98392454  1
  O  O45  1  0.21028192  0.72600112  0.52692289  1
  O  O46  1  0.29094534  0.00142459  0.52539500  1
  O  O47  1  0.29605133  0.40478798  0.85895892  1
  O  O48  1  0.19270559  0.40940912  0.60621893  1
  O  O49  1  0.10487490  0.66097268  0.23217129  1
  O  O50  1  0.01176890  0.07760785  0.33858615  1
  O  O51  1  0.15377701  0.16188006  0.55349070  1
  O  O52  1  0.29967283  0.90676441  0.35827791  1
  O  O53  1  0.19638386  0.41407520  0.36130724  1
  O  O54  1  0.17758232  0.91323704  0.10054424  1
  O  O55  1  0.52429620  0.93885457  0.79007870  1
  O  O56  1  0.53421615  0.65723805  0.91950436  1
  O  O57  1  0.35486751  0.19982351  0.74898253  1
  O  O58  1  0.03264421  0.03965964  0.15485741  1
  O  O59  1  0.14138985  0.66479810  0.04694825  1
  O  O60  1  0.45969885  0.83262287  0.58316978  1
  O  O61  1  0.47994936  0.55225774  0.71100406  1
  O  O62  1  0.34810185  0.71663271  0.23520093  1
  O  O63  1  0.71076572  0.49479096  0.97607274  1
  O  O64  1  0.77936499  0.77357757  0.96168904  1
  O  O65  1  0.31185822  0.24499989  0.29793722  1
  O  O66  1  0.46870192  0.34056621  0.48796879  1
  O  O67  1  0.53129808  0.65943379  0.51203121  1
  O  O68  1  0.68814178  0.75500011  0.70206278  1
  O  O69  1  0.22063501  0.22642243  0.03831096  1
  O  O70  1  0.28923428  0.50520904  0.02392726  1
  O  O71  1  0.65189815  0.28336729  0.76479907  1
  O  O72  1  0.52005064  0.44774226  0.28899594  1
  O  O73  1  0.54030115  0.16737713  0.41683022  1
  O  O74  1  0.85861015  0.33520190  0.95305175  1
  O  O75  1  0.96735579  0.96034036  0.84514259  1
  O  O76  1  0.64513249  0.80017649  0.25101747  1
  O  O77  1  0.46578385  0.34276195  0.08049564  1
  O  O78  1  0.47570380  0.06114543  0.20992130  1
  O  O79  1  0.82241768  0.08676296  0.89945576  1
  O  O80  1  0.80361614  0.58592480  0.63869276  1
  O  O81  1  0.70032717  0.09323559  0.64172209  1
  O  O82  1  0.84622299  0.83811994  0.44650930  1
  O  O83  1  0.98823110  0.92239215  0.66141385  1
  O  O84  1  0.89512510  0.33902732  0.76782871  1
  O  O85  1  0.80729441  0.59059088  0.39378107  1
  O  O86  1  0.70394867  0.59521202  0.14104108  1
  O  O87  1  0.70905466  0.99857541  0.47460500  1
  O  O88  1  0.78971808  0.27399888  0.47307711  1
  O  O89  1  0.53496734  0.15970042  0.01607546  1
  O  O90  1  0.69108852  0.25501008  0.20602494  1
  O  O91  1  0.89726612  0.83437295  0.27240096  1
  O  O92  1  0.97125265  0.46314255  0.34716479  1
  O  O93  1  0.80353587  0.08075137  0.13898995  1
  O  O94  1  0.98998911  0.41764509  0.16222795  1
