# generated using pymatgen
data_LiFe4(PO4)3
_symmetry_space_group_name_H-M   'P 1'
_cell_length_a   9.54416685
_cell_length_b   9.55986414
_cell_length_c   6.09371120
_cell_angle_alpha   90.39746437
_cell_angle_beta   89.39774251
_cell_angle_gamma   119.88910998
_symmetry_Int_Tables_number   1
_chemical_formula_structural   LiFe4(PO4)3
_chemical_formula_sum   'Li2 Fe8 P6 O24'
_cell_volume   482.01617676
_cell_formula_units_Z   2
loop_
 _symmetry_equiv_pos_site_id
 _symmetry_equiv_pos_as_xyz
  1  'x, y, z'
loop_
 _atom_site_type_symbol
 _atom_site_label
 _atom_site_symmetry_multiplicity
 _atom_site_fract_x
 _atom_site_fract_y
 _atom_site_fract_z
 _atom_site_occupancy
  Li  Li0  1  0.33221871  0.66311391  0.47159667  1
  Li  Li1  1  0.66964317  0.33333971  0.97256202  1
  Fe  Fe2  1  0.96221633  0.69577021  0.25364150  1
  Fe  Fe3  1  0.32939094  0.66733014  0.00455601  1
  Fe  Fe4  1  0.30342475  0.26846391  0.25119331  1
  Fe  Fe5  1  0.73247420  0.03333091  0.24869972  1
  Fe  Fe6  1  0.26656853  0.96285096  0.75071946  1
  Fe  Fe7  1  0.69724720  0.73285085  0.75222676  1
  Fe  Fe8  1  0.66344579  0.33050088  0.50572774  1
  Fe  Fe9  1  0.03324241  0.30201564  0.75012300  1
  P  P10  1  0.01742267  0.62996951  0.74947746  1
  P  P11  1  0.61500434  0.98409863  0.75119917  1
  P  P12  1  0.36910492  0.38745848  0.75076279  1
  P  P13  1  0.63036289  0.61418201  0.25128731  1
  P  P14  1  0.38741016  0.01770453  0.24730154  1
  P  P15  1  0.98180535  0.36856340  0.25253136  1
  O  O16  1  0.07200475  0.74995063  0.55170284  1
  O  O17  1  0.06549177  0.74845201  0.94986253  1
  O  O18  1  0.13116124  0.55409566  0.75630083  1
  O  O19  1  0.34033452  0.83970888  0.24145420  1
  O  O20  1  0.15907082  0.50084327  0.24801595  1
  O  O21  1  0.42613982  0.87155965  0.76989977  1
  O  O22  1  0.24926806  0.31357756  0.94914075  1
  O  O23  1  0.25089970  0.32345187  0.55177380  1
  O  O24  1  0.49899087  0.65999688  0.24596441  1
  O  O25  1  0.44375185  0.57635838  0.76561313  1
  O  O26  1  0.69297852  0.93762653  0.94245704  1
  O  O27  1  0.67520678  0.92891998  0.54688928  1
  O  O28  1  0.31655214  0.06545224  0.44833783  1
  O  O29  1  0.32139544  0.07118832  0.05052774  1
  O  O30  1  0.55459177  0.42551601  0.26773345  1
  O  O31  1  0.50145726  0.34259704  0.74177908  1
  O  O32  1  0.74755887  0.67463820  0.04873099  1
  O  O33  1  0.75285746  0.69125570  0.44537333  1
  O  O34  1  0.57648104  0.12979305  0.25503279  1
  O  O35  1  0.84078907  0.49962406  0.74434449  1
  O  O36  1  0.66084723  0.16099831  0.74873840  1
  O  O37  1  0.86733397  0.44335237  0.26873834  1
  O  O38  1  0.92916619  0.25235538  0.05074895  1
  O  O39  1  0.93478849  0.24714339  0.44723623  1
