# generated using pymatgen
data_Li2V3O6
_symmetry_space_group_name_H-M   'P 1'
_cell_length_a   5.21154832
_cell_length_b   5.11566571
_cell_length_c   5.17116202
_cell_angle_alpha   59.64049524
_cell_angle_beta   71.89883109
_cell_angle_gamma   80.96526745
_symmetry_Int_Tables_number   1
_chemical_formula_structural   Li2V3O6
_chemical_formula_sum   'Li2 V3 O6'
_cell_volume   113.07312898
_cell_formula_units_Z   1
loop_
 _symmetry_equiv_pos_site_id
 _symmetry_equiv_pos_as_xyz
  1  'x, y, z'
loop_
 _atom_site_type_symbol
 _atom_site_label
 _atom_site_symmetry_multiplicity
 _atom_site_fract_x
 _atom_site_fract_y
 _atom_site_fract_z
 _atom_site_occupancy
  Li  Li0  1  1.00000000  0.33659685  0.33170208  1
  Li  Li1  1  0.00000000  0.66340315  0.66829792  1
  V  V2  1  0.50000000  0.68139482  0.15930259  1
  V  V3  1  0.50000000  0.00000000  0.50000000  1
  V  V4  1  0.50000000  0.31860518  0.84069741  1
  O  O5  1  0.27469443  0.00000000  0.24656100  1
  O  O6  1  0.28521940  0.34642200  0.55966292  1
  O  O7  1  0.28521940  0.65357800  0.90608492  1
  O  O8  1  0.71478060  0.34642200  0.09391508  1
  O  O9  1  0.71478060  0.65357800  0.44033708  1
  O  O10  1  0.72530557  1.00000000  0.75343900  1
