# generated using pymatgen
data_LiFe(PO3)4
_symmetry_space_group_name_H-M   'P 1'
_cell_length_a   6.84593559
_cell_length_b   7.19514710
_cell_length_c   9.17080497
_cell_angle_alpha   90.00000000
_cell_angle_beta   90.00000000
_cell_angle_gamma   95.02666819
_symmetry_Int_Tables_number   1
_chemical_formula_structural   LiFe(PO3)4
_chemical_formula_sum   'Li2 Fe2 P8 O24'
_cell_volume   449.99370389
_cell_formula_units_Z   2
loop_
 _symmetry_equiv_pos_site_id
 _symmetry_equiv_pos_as_xyz
  1  'x, y, z'
loop_
 _atom_site_type_symbol
 _atom_site_label
 _atom_site_symmetry_multiplicity
 _atom_site_fract_x
 _atom_site_fract_y
 _atom_site_fract_z
 _atom_site_occupancy
  Li  Li0  1  0.26283882  0.71820798  0.25647467  1
  Li  Li1  1  0.73716118  0.28179202  0.75647467  1
  Fe  Fe2  1  0.26989816  0.25512969  0.96998240  1
  Fe  Fe3  1  0.73010184  0.74487031  0.46998240  1
  P  P4  1  0.96972327  0.40581499  0.36338733  1
  P  P5  1  0.06032116  0.08912617  0.56918319  1
  P  P6  1  0.42157957  0.58752507  0.74807311  1
  P  P7  1  0.42933762  0.06338514  0.39901179  1
  P  P8  1  0.57066238  0.93661486  0.89901179  1
  P  P9  1  0.57842043  0.41247493  0.24807311  1
  P  P10  1  0.93967884  0.91087383  0.06918319  1
  P  P11  1  0.03027673  0.59418501  0.86338733  1
  O  O12  1  0.01627649  0.79735181  0.93091846  1
  O  O13  1  0.96187968  0.89303623  0.55125933  1
  O  O14  1  0.12238872  0.47475168  0.97718794  1
  O  O15  1  0.04460380  0.19254902  0.70880949  1
  O  O16  1  0.19688011  0.63690386  0.73703662  1
  O  O17  1  0.15913479  0.47413605  0.29769255  1
  O  O18  1  0.29243676  0.07567771  0.53977080  1
  O  O19  1  0.32499617  0.97862593  0.27009364  1
  O  O20  1  0.43046351  0.38612899  0.79633703  1
  O  O21  1  0.50654536  0.71709620  0.87898221  1
  O  O22  1  0.38797851  0.02303650  0.94734319  1
  O  O23  1  0.51789450  0.64211621  0.60516724  1
  O  O24  1  0.48210550  0.35788379  0.10516724  1
  O  O25  1  0.61202149  0.97696350  0.44734319  1
  O  O26  1  0.49345464  0.28290380  0.37898221  1
  O  O27  1  0.56953649  0.61387101  0.29633703  1
  O  O28  1  0.67500383  0.02137407  0.77009364  1
  O  O29  1  0.70756324  0.92432229  0.03977080  1
  O  O30  1  0.84086521  0.52586395  0.79769255  1
  O  O31  1  0.80311989  0.36309614  0.23703662  1
  O  O32  1  0.95539620  0.80745098  0.20880949  1
  O  O33  1  0.87761128  0.52524832  0.47718794  1
  O  O34  1  0.03812032  0.10696377  0.05125933  1
  O  O35  1  0.98372351  0.20264819  0.43091846  1
