# generated using pymatgen
data_LiNiPO4
_symmetry_space_group_name_H-M   'P 1'
_cell_length_a   10.99197050
_cell_length_b   6.29224895
_cell_length_c   5.01663692
_cell_angle_alpha   89.99535058
_cell_angle_beta   89.99402886
_cell_angle_gamma   89.97159256
_symmetry_Int_Tables_number   1
_chemical_formula_structural   LiNiPO4
_chemical_formula_sum   'Li4 Ni4 P4 O16'
_cell_volume   346.97170787
_cell_formula_units_Z   4
loop_
 _symmetry_equiv_pos_site_id
 _symmetry_equiv_pos_as_xyz
  1  'x, y, z'
loop_
 _atom_site_type_symbol
 _atom_site_label
 _atom_site_symmetry_multiplicity
 _atom_site_fract_x
 _atom_site_fract_y
 _atom_site_fract_z
 _atom_site_occupancy
  Li  Li0  1  0.16674904  0.51423757  0.24777877  1
  Li  Li1  1  0.33320320  0.01432304  0.74771980  1
  Li  Li2  1  0.66677260  0.98576002  0.24779068  1
  Li  Li3  1  0.83326967  0.48575367  0.74774273  1
  Ni  Ni4  1  0.08099859  0.77982087  0.74050472  1
  Ni  Ni5  1  0.41910853  0.27945606  0.24023267  1
  Ni  Ni6  1  0.58094765  0.72031385  0.74046021  1
  Ni  Ni7  1  0.91894879  0.22014847  0.24043877  1
  P  P8  1  0.17524779  0.01582168  0.25083377  1
  P  P9  1  0.32477806  0.51574107  0.75077031  1
  P  P10  1  0.67526867  0.48427141  0.25084206  1
  P  P11  1  0.82469927  0.98420874  0.75083235  1
  O  O12  1  0.09420416  0.21390530  0.18820013  1
  O  O13  1  0.11889159  0.81242110  0.12417361  1
  O  O14  1  0.19485222  0.55024649  0.63847701  1
  O  O15  1  0.18161734  0.98749527  0.55612352  1
  O  O16  1  0.31843729  0.48733075  0.05606673  1
  O  O17  1  0.30515576  0.05016698  0.13840813  1
  O  O18  1  0.38117190  0.31231371  0.62395358  1
  O  O19  1  0.40573645  0.71381107  0.68818423  1
  O  O20  1  0.59434015  0.28620575  0.18814592  1
  O  O21  1  0.61884171  0.68773537  0.12419380  1
  O  O22  1  0.69479113  0.94983038  0.63848015  1
  O  O23  1  0.68161233  0.51253474  0.55614245  1
  O  O24  1  0.81833167  0.01252078  0.05612405  1
  O  O25  1  0.80519120  0.44986314  0.13842891  1
  O  O26  1  0.88107767  0.18762063  0.62416887  1
  O  O27  1  0.90575556  0.78614206  0.68818607  1
