# generated using pymatgen
data_Li2Mn3O6
_symmetry_space_group_name_H-M   'P 1'
_cell_length_a   5.21421339
_cell_length_b   5.02231422
_cell_length_c   10.39534348
_cell_angle_alpha   76.01029887
_cell_angle_beta   80.49394968
_cell_angle_gamma   61.22169023
_symmetry_Int_Tables_number   1
_chemical_formula_structural   Li2Mn3O6
_chemical_formula_sum   'Li4 Mn6 O12'
_cell_volume   231.14599701
_cell_formula_units_Z   2
loop_
 _symmetry_equiv_pos_site_id
 _symmetry_equiv_pos_as_xyz
  1  'x, y, z'
loop_
 _atom_site_type_symbol
 _atom_site_label
 _atom_site_symmetry_multiplicity
 _atom_site_fract_x
 _atom_site_fract_y
 _atom_site_fract_z
 _atom_site_occupancy
  Li  Li0  1  0.61789761  0.90661059  0.24166200  1
  Li  Li1  1  0.95786799  0.22199268  0.24004187  1
  Li  Li2  1  0.11820264  0.73346736  0.74159304  1
  Li  Li3  1  0.45786331  0.07982791  0.73998872  1
  Mn  Mn4  1  0.98809127  0.67786505  0.00295600  1
  Mn  Mn5  1  0.48800827  0.83119124  0.50286300  1
  Mn  Mn6  1  0.65978748  0.34841164  0.98921261  1
  Mn  Mn7  1  0.81398974  0.16597595  0.50581796  1
  Mn  Mn8  1  0.15965936  0.50278028  0.48909335  1
  Mn  Mn9  1  0.31408922  0.01423968  0.00581506  1
  O  O10  1  0.92873891  0.98085791  0.10756020  1
  O  O11  1  0.77039806  0.82142083  0.61227397  1
  O  O12  1  0.82461604  0.54190679  0.40250130  1
  O  O13  1  0.32476708  0.73103451  0.90254090  1
  O  O14  1  0.65987367  0.62629674  0.09930548  1
  O  O15  1  0.70268079  0.04103831  0.89148270  1
  O  O16  1  0.42835849  0.48311189  0.60751485  1
  O  O17  1  0.20295670  0.86481412  0.39127841  1
  O  O18  1  0.54349235  0.16404213  0.39025449  1
  O  O19  1  0.04327548  0.40258809  0.89025425  1
  O  O20  1  0.27061481  0.29575265  0.11228212  1
  O  O21  1  0.15966971  0.11460262  0.59914772  1
