# generated using pymatgen
data_Li3TiMn2O6
_symmetry_space_group_name_H-M   'P 1'
_cell_length_a   15.96022172
_cell_length_b   10.03627756
_cell_length_c   10.03627765
_cell_angle_alpha   17.02221364
_cell_angle_beta   16.81210909
_cell_angle_gamma   16.81210595
_symmetry_Int_Tables_number   1
_chemical_formula_structural   Li3TiMn2O6
_chemical_formula_sum   'Li3 Ti1 Mn2 O6'
_cell_volume   118.25101360
_cell_formula_units_Z   1
loop_
 _symmetry_equiv_pos_site_id
 _symmetry_equiv_pos_as_xyz
  1  'x, y, z'
loop_
 _atom_site_type_symbol
 _atom_site_label
 _atom_site_symmetry_multiplicity
 _atom_site_fract_x
 _atom_site_fract_y
 _atom_site_fract_z
 _atom_site_occupancy
  Li  Li0  1  0.16666700  0.50000000  0.50000000  1
  Li  Li1  1  0.51920908  0.48611261  0.48611261  1
  Li  Li2  1  0.81412392  0.51388739  0.51388739  1
  Ti  Ti3  1  0.66666700  0.00000000  0.00000000  1
  Mn  Mn4  1  0.99221755  0.00703310  0.00703310  1
  Mn  Mn5  1  0.34111645  0.99296690  0.99296690  1
  O  O6  1  0.27996601  0.23732257  0.23732257  1
  O  O7  1  0.57016583  0.26201216  0.26201216  1
  O  O8  1  0.05336799  0.76267743  0.76267743  1
  O  O9  1  0.87913629  0.28288506  0.28288506  1
  O  O10  1  0.45419671  0.71711494  0.71711494  1
  O  O11  1  0.76316817  0.73798784  0.73798784  1
