# generated using pymatgen
data_LiMn(PO3)4
_symmetry_space_group_name_H-M   'P 1'
_cell_length_a   6.89757817
_cell_length_b   9.45134687
_cell_length_c   14.41976679
_cell_angle_alpha   90.00000000
_cell_angle_beta   92.28395782
_cell_angle_gamma   90.00000000
_symmetry_Int_Tables_number   1
_chemical_formula_structural   LiMn(PO3)4
_chemical_formula_sum   'Li4 Mn4 P16 O48'
_cell_volume   939.29806151
_cell_formula_units_Z   4
loop_
 _symmetry_equiv_pos_site_id
 _symmetry_equiv_pos_as_xyz
  1  'x, y, z'
loop_
 _atom_site_type_symbol
 _atom_site_label
 _atom_site_symmetry_multiplicity
 _atom_site_fract_x
 _atom_site_fract_y
 _atom_site_fract_z
 _atom_site_occupancy
  Li  Li0  1  0.02610418  0.56510837  0.37964720  1
  Li  Li1  1  0.52610418  0.93489163  0.87964720  1
  Li  Li2  1  0.47389582  0.06510837  0.12035280  1
  Li  Li3  1  0.97389582  0.43489163  0.62035280  1
  Mn  Mn4  1  0.11224073  0.66978662  0.89219865  1
  Mn  Mn5  1  0.38775927  0.16978662  0.60780135  1
  Mn  Mn6  1  0.61224073  0.83021338  0.39219865  1
  Mn  Mn7  1  0.88775927  0.33021338  0.10780135  1
  P  P8  1  0.08217843  0.22266397  0.43423305  1
  P  P9  1  0.13618696  0.05288524  0.79125403  1
  P  P10  1  0.19009733  0.22764773  0.96517680  1
  P  P11  1  0.27064780  0.02342458  0.29444862  1
  P  P12  1  0.30990267  0.72764773  0.53482320  1
  P  P13  1  0.36381304  0.55288524  0.70874597  1
  P  P14  1  0.22935220  0.52342458  0.20555138  1
  P  P15  1  0.58217843  0.27733603  0.93423305  1
  P  P16  1  0.41782157  0.72266397  0.06576695  1
  P  P17  1  0.77064780  0.47657542  0.79444862  1
  P  P18  1  0.63618696  0.44711476  0.29125403  1
  P  P19  1  0.69009733  0.27235227  0.46517680  1
  P  P20  1  0.72935220  0.97657542  0.70555138  1
  P  P21  1  0.80990267  0.77235227  0.03482320  1
  P  P22  1  0.86381304  0.94711476  0.20874597  1
  P  P23  1  0.91782157  0.77733603  0.56576695  1
  O  O24  1  0.02487321  0.32423697  0.99490179  1
  O  O25  1  0.11393768  0.17869718  0.86437968  1
  O  O26  1  0.08570442  0.96442889  0.23856051  1
  O  O27  1  0.15819382  0.22045019  0.53573568  1
  O  O28  1  0.23646519  0.11261858  0.70852785  1
  O  O29  1  0.13913624  0.83722271  0.56002917  1
  O  O30  1  0.08274855  0.35735877  0.38284687  1
  O  O31  1  0.28250797  0.42296002  0.66309619  1
  O  O32  1  0.17852354  0.09147629  0.38522721  1
  O  O33  1  0.12341721  0.62650315  0.26111412  1
  O  O34  1  0.21749203  0.92296002  0.83690381  1
  O  O35  1  0.37612845  0.89139951  0.33129187  1
  O  O36  1  0.24024066  0.61429737  0.47145213  1
  O  O37  1  0.36086376  0.33722271  0.93997083  1
  O  O38  1  0.26353481  0.61261858  0.79147215  1
  O  O39  1  0.34180618  0.72045019  0.96426432  1
  O  O40  1  0.25975934  0.11429737  0.02854787  1
  O  O41  1  0.12387155  0.39139951  0.16870813  1
  O  O42  1  0.38606232  0.67869718  0.63562032  1
  O  O43  1  0.37658279  0.12650315  0.23888588  1
  O  O44  1  0.47512679  0.82423697  0.50509821  1
  O  O45  1  0.32147646  0.59147629  0.11477279  1
  O  O46  1  0.58570442  0.53557111  0.73856051  1
  O  O47  1  0.41725145  0.85735877  0.11715313  1
  O  O48  1  0.58274855  0.14264123  0.88284687  1
  O  O49  1  0.41429558  0.46442889  0.26143949  1
  O  O50  1  0.67852354  0.40852371  0.88522721  1
  O  O51  1  0.52487321  0.17576303  0.49490179  1
  O  O52  1  0.62341721  0.87349685  0.76111412  1
  O  O53  1  0.61393768  0.32130282  0.36437968  1
  O  O54  1  0.87612845  0.60860049  0.83129187  1
  O  O55  1  0.74024066  0.88570263  0.97145213  1
  O  O56  1  0.65819382  0.27954981  0.03573568  1
  O  O57  1  0.73646519  0.38738142  0.20852785  1
  O  O58  1  0.63913624  0.66277729  0.06002917  1
  O  O59  1  0.75975934  0.38570263  0.52854787  1
  O  O60  1  0.62387155  0.10860049  0.66870813  1
  O  O61  1  0.78250797  0.07703998  0.16309619  1
  O  O62  1  0.87658279  0.37349685  0.73888588  1
  O  O63  1  0.82147646  0.90852371  0.61477279  1
  O  O64  1  0.71749203  0.57703998  0.33690381  1
  O  O65  1  0.91725145  0.64264123  0.61715313  1
  O  O66  1  0.86086376  0.16277729  0.43997083  1
  O  O67  1  0.76353481  0.88738142  0.29147215  1
  O  O68  1  0.84180618  0.77954981  0.46426432  1
  O  O69  1  0.91429558  0.03557111  0.76143949  1
  O  O70  1  0.88606232  0.82130282  0.13562032  1
  O  O71  1  0.97512679  0.67576303  0.00509821  1
