# generated using pymatgen
data_Fe4OF7
_symmetry_space_group_name_H-M   'P 1'
_cell_length_a   4.85432080
_cell_length_b   4.85432080
_cell_length_c   6.36789495
_cell_angle_alpha   90.00000000
_cell_angle_beta   90.00000000
_cell_angle_gamma   89.37460935
_symmetry_Int_Tables_number   1
_chemical_formula_structural   Fe4OF7
_chemical_formula_sum   'Fe4 O1 F7'
_cell_volume   150.04687897
_cell_formula_units_Z   1
loop_
 _symmetry_equiv_pos_site_id
 _symmetry_equiv_pos_as_xyz
  1  'x, y, z'
loop_
 _atom_site_type_symbol
 _atom_site_label
 _atom_site_symmetry_multiplicity
 _atom_site_fract_x
 _atom_site_fract_y
 _atom_site_fract_z
 _atom_site_occupancy
  Fe  Fe0  1  0.00919480  0.99080520  0.01953023  1
  Fe  Fe1  1  0.00919480  0.99080520  0.48046977  1
  Fe  Fe2  1  0.48024908  0.51975092  0.25000000  1
  Fe  Fe3  1  0.50653461  0.49346539  0.75000000  1
  O  O4  1  0.19462605  0.80537395  0.25000000  1
  F  F5  1  0.19916700  0.80083300  0.75000000  1
  F  F6  1  0.29397742  0.29235731  0.99445290  1
  F  F7  1  0.29397742  0.29235731  0.50554710  1
  F  F8  1  0.70764269  0.70602258  0.99445290  1
  F  F9  1  0.70764269  0.70602258  0.50554710  1
  F  F10  1  0.78520163  0.21479837  0.25000000  1
  F  F11  1  0.81259280  0.18740720  0.75000000  1
