# generated using pymatgen
data_Fe4O3F5
_symmetry_space_group_name_H-M   'P 1'
_cell_length_a   4.78850050
_cell_length_b   4.78850050
_cell_length_c   12.37619764
_cell_angle_alpha   90.00000000
_cell_angle_beta   90.00000000
_cell_angle_gamma   94.17688731
_symmetry_Int_Tables_number   1
_chemical_formula_structural   Fe4O3F5
_chemical_formula_sum   'Fe8 O6 F10'
_cell_volume   283.02921313
_cell_formula_units_Z   2
loop_
 _symmetry_equiv_pos_site_id
 _symmetry_equiv_pos_as_xyz
  1  'x, y, z'
loop_
 _atom_site_type_symbol
 _atom_site_label
 _atom_site_symmetry_multiplicity
 _atom_site_fract_x
 _atom_site_fract_y
 _atom_site_fract_z
 _atom_site_occupancy
  Fe  Fe0  1  0.00000000  0.00000000  0.00000000  1
  Fe  Fe1  1  0.97364800  0.97364800  0.25000000  1
  Fe  Fe2  1  0.00000000  0.00000000  0.50000000  1
  Fe  Fe3  1  0.02635200  0.02635200  0.75000000  1
  Fe  Fe4  1  0.50952270  0.50952270  0.11902780  1
  Fe  Fe5  1  0.49047730  0.49047730  0.61902780  1
  Fe  Fe6  1  0.49047730  0.49047730  0.88097220  1
  Fe  Fe7  1  0.50952270  0.50952270  0.38097220  1
  O  O8  1  0.29818889  0.29818889  0.00258364  1
  O  O9  1  0.29818889  0.29818889  0.49741636  1
  O  O10  1  0.32873370  0.32873370  0.75000000  1
  O  O11  1  0.70181111  0.70181111  0.99741636  1
  O  O12  1  0.67126630  0.67126630  0.25000000  1
  O  O13  1  0.70181111  0.70181111  0.50258364  1
  F  F14  1  0.19713554  0.79581449  0.11962055  1
  F  F15  1  0.20418551  0.80286446  0.88037945  1
  F  F16  1  0.19713554  0.79581449  0.38037945  1
  F  F17  1  0.20418551  0.80286446  0.61962055  1
  F  F18  1  0.28755150  0.28755150  0.25000000  1
  F  F19  1  0.71244850  0.71244850  0.75000000  1
  F  F20  1  0.79581449  0.19713554  0.38037945  1
  F  F21  1  0.80286446  0.20418551  0.61962055  1
  F  F22  1  0.79581449  0.19713554  0.11962055  1
  F  F23  1  0.80286446  0.20418551  0.88037945  1
