# generated using pymatgen
data_Li7MnP4O14F
_symmetry_space_group_name_H-M   'P 1'
_cell_length_a   6.39248216
_cell_length_b   6.39248216
_cell_length_c   14.67585382
_cell_angle_alpha   83.81733539
_cell_angle_beta   96.18266461
_cell_angle_gamma   101.07571623
_symmetry_Int_Tables_number   1
_chemical_formula_structural   Li7MnP4O14F
_chemical_formula_sum   'Li14 Mn2 P8 O28 F2'
_cell_volume   582.78690768
_cell_formula_units_Z   2
loop_
 _symmetry_equiv_pos_site_id
 _symmetry_equiv_pos_as_xyz
  1  'x, y, z'
loop_
 _atom_site_type_symbol
 _atom_site_label
 _atom_site_symmetry_multiplicity
 _atom_site_fract_x
 _atom_site_fract_y
 _atom_site_fract_z
 _atom_site_occupancy
  Li  Li0  1  0.01189455  0.39439851  0.82400241  1
  Li  Li1  1  0.63334685  0.82547612  0.83499151  1
  Li  Li2  1  0.60560149  0.98810545  0.32400241  1
  Li  Li3  1  0.17452388  0.36665315  0.33499151  1
  Li  Li4  1  0.89578085  0.94914488  0.49366820  1
  Li  Li5  1  0.52329426  0.32616593  0.82097637  1
  Li  Li6  1  0.05085512  0.10421915  0.99366820  1
  Li  Li7  1  0.87782781  0.58144615  0.97398540  1
  Li  Li8  1  0.67383407  0.47670574  0.32097637  1
  Li  Li9  1  0.41855385  0.12217219  0.47398540  1
  Li  Li10  1  0.52584017  0.03637684  0.98621592  1
  Li  Li11  1  0.96362316  0.47415983  0.48621592  1
  Li  Li12  1  0.69752884  0.13307623  0.65938239  1
  Li  Li13  1  0.86692377  0.30247116  0.15938239  1
  Mn  Mn14  1  0.27924674  0.72083128  0.65704413  1
  Mn  Mn15  1  0.27916872  0.72075326  0.15704413  1
  P  P16  1  0.13786931  0.91347061  0.83139531  1
  P  P17  1  0.08652939  0.86213069  0.33139531  1
  P  P18  1  0.38016099  0.52930701  0.98174850  1
  P  P19  1  0.47069299  0.61983901  0.48174850  1
  P  P20  1  0.16034383  0.19108967  0.65625303  1
  P  P21  1  0.80891033  0.83965617  0.15625303  1
  P  P22  1  0.74909974  0.61940731  0.65464359  1
  P  P23  1  0.38059269  0.25090026  0.15464359  1
  O  O24  1  0.29503860  0.79174214  0.79787856  1
  O  O25  1  0.20825786  0.70496140  0.29787856  1
  O  O26  1  0.14510162  0.42035706  0.96061966  1
  O  O27  1  0.25608964  0.61324942  0.51887560  1
  O  O28  1  0.57964294  0.85489838  0.46061966  1
  O  O29  1  0.38675058  0.74391036  0.01887560  1
  O  O30  1  0.62740668  0.78438582  0.68368881  1
  O  O31  1  0.26185487  0.38817739  0.70815878  1
  O  O32  1  0.54196393  0.53743893  0.91102219  1
  O  O33  1  0.03596848  0.03747801  0.73797522  1
  O  O34  1  0.21561418  0.37259332  0.18368881  1
  O  O35  1  0.61182261  0.73814513  0.20815878  1
  O  O36  1  0.46256107  0.45803607  0.41102219  1
  O  O37  1  0.96252199  0.96403152  0.23797522  1
  O  O38  1  0.94002729  0.76993751  0.86795819  1
  O  O39  1  0.24751750  0.08558959  0.89388903  1
  O  O40  1  0.61354447  0.50769384  0.56649751  1
  O  O41  1  0.95585633  0.72712536  0.61296362  1
  O  O42  1  0.23006249  0.05997271  0.36795819  1
  O  O43  1  0.33202018  0.08534166  0.62106938  1
  O  O44  1  0.91441041  0.75248250  0.39388903  1
  O  O45  1  0.49230616  0.38645553  0.06649751  1
  O  O46  1  0.76477804  0.42797511  0.72608129  1
  O  O47  1  0.27287464  0.04414367  0.11296362  1
  O  O48  1  0.91465834  0.66797982  0.12106938  1
  O  O49  1  0.57202489  0.23522196  0.22608129  1
  O  O50  1  0.97143942  0.21106076  0.58372460  1
  O  O51  1  0.78893924  0.02856058  0.08372460  1
  F  F52  1  0.70825378  0.12642166  0.88272382  1
  F  F53  1  0.87357834  0.29174622  0.38272382  1
