# generated using pymatgen
data_Li3VF5
_symmetry_space_group_name_H-M   'P 1'
_cell_length_a   8.35083991
_cell_length_b   7.56735686
_cell_length_c   6.80653456
_cell_angle_alpha   89.99996081
_cell_angle_beta   90.00000230
_cell_angle_gamma   90.00006632
_symmetry_Int_Tables_number   1
_chemical_formula_structural   Li3VF5
_chemical_formula_sum   'Li12 V4 F20'
_cell_volume   430.13068621
_cell_formula_units_Z   4
loop_
 _symmetry_equiv_pos_site_id
 _symmetry_equiv_pos_as_xyz
  1  'x, y, z'
loop_
 _atom_site_type_symbol
 _atom_site_label
 _atom_site_symmetry_multiplicity
 _atom_site_fract_x
 _atom_site_fract_y
 _atom_site_fract_z
 _atom_site_occupancy
  Li  Li0  1  0.12305216  0.24999918  0.85451978  1
  Li  Li1  1  0.12411928  0.55388951  0.26288337  1
  Li  Li2  1  0.12411968  0.94610976  0.26288351  1
  Li  Li3  1  0.37588100  0.05388950  0.76288383  1
  Li  Li4  1  0.37588221  0.44610897  0.76288407  1
  Li  Li5  1  0.37694756  0.75000058  0.35451938  1
  Li  Li6  1  0.62305257  0.25000039  0.64548066  1
  Li  Li7  1  0.62411919  0.55389031  0.23711653  1
  Li  Li8  1  0.62411907  0.94610962  0.23711627  1
  Li  Li9  1  0.87588173  0.05389011  0.73711705  1
  Li  Li10  1  0.87588096  0.44610911  0.73711716  1
  Li  Li11  1  0.87694842  0.74999953  0.14548057  1
  V  V12  1  0.12510071  0.74999795  0.75099688  1
  V  V13  1  0.37490326  0.25000676  0.25100523  1
  V  V14  1  0.62509325  0.75000076  0.74899614  1
  V  V15  1  0.87490523  0.24999706  0.24900343  1
  F  F16  1  0.09121783  0.74999689  0.06135184  1
  F  F17  1  0.12419743  0.02703408  0.73848560  1
  F  F18  1  0.12419776  0.47296188  0.73848511  1
  F  F19  1  0.12489340  0.25000087  0.27947952  1
  F  F20  1  0.16252269  0.74999985  0.44296960  1
  F  F21  1  0.33747820  0.24999838  0.94297186  1
  F  F22  1  0.37510755  0.75000181  0.77947686  1
  F  F23  1  0.37579880  0.52703950  0.23848569  1
  F  F24  1  0.37579797  0.97296746  0.23848624  1
  F  F25  1  0.40878207  0.24999963  0.56135345  1
  F  F26  1  0.59121610  0.74999959  0.43864573  1
  F  F27  1  0.62420354  0.02703872  0.76151636  1
  F  F28  1  0.62419909  0.47296621  0.76151357  1
  F  F29  1  0.62489462  0.24999862  0.22052161  1
  F  F30  1  0.66252267  0.74999888  0.05702740  1
  F  F31  1  0.83747587  0.25000230  0.55703006  1
  F  F32  1  0.87510666  0.74999816  0.72052379  1
  F  F33  1  0.87580102  0.52703436  0.26151322  1
  F  F34  1  0.87579927  0.97296295  0.26151172  1
  F  F35  1  0.90878114  0.25000077  0.93864690  1
