# generated using pymatgen
data_Fe4OF7
_symmetry_space_group_name_H-M   'P 1'
_cell_length_a   4.85683321
_cell_length_b   4.85683321
_cell_length_c   12.71144049
_cell_angle_alpha   90.00000000
_cell_angle_beta   90.00000000
_cell_angle_gamma   90.53860765
_symmetry_Int_Tables_number   1
_chemical_formula_structural   Fe4OF7
_chemical_formula_sum   'Fe8 O2 F14'
_cell_volume   299.83474525
_cell_formula_units_Z   2
loop_
 _symmetry_equiv_pos_site_id
 _symmetry_equiv_pos_as_xyz
  1  'x, y, z'
loop_
 _atom_site_type_symbol
 _atom_site_label
 _atom_site_symmetry_multiplicity
 _atom_site_fract_x
 _atom_site_fract_y
 _atom_site_fract_z
 _atom_site_occupancy
  Fe  Fe0  1  0.97986137  0.97986137  0.00000000  1
  Fe  Fe1  1  0.00000000  0.00000000  0.25000000  1
  Fe  Fe2  1  0.02013863  0.02013863  0.50000000  1
  Fe  Fe3  1  0.00000000  0.00000000  0.75000000  1
  Fe  Fe4  1  0.50858913  0.50858913  0.11522511  1
  Fe  Fe5  1  0.49141087  0.49141087  0.61522511  1
  Fe  Fe6  1  0.50858913  0.50858913  0.88477489  1
  Fe  Fe7  1  0.49141087  0.49141087  0.38477489  1
  O  O8  1  0.30565760  0.30565760  0.50000000  1
  O  O9  1  0.69434240  0.69434240  0.00000000  1
  F  F10  1  0.20555634  0.79239996  0.12775742  1
  F  F11  1  0.20760004  0.79444366  0.37224258  1
  F  F12  1  0.20760004  0.79444366  0.62775742  1
  F  F13  1  0.20555634  0.79239996  0.87224258  1
  F  F14  1  0.28469270  0.28469270  0.00000000  1
  F  F15  1  0.30716594  0.30716594  0.24825769  1
  F  F16  1  0.30716594  0.30716594  0.75174231  1
  F  F17  1  0.69283406  0.69283406  0.25174231  1
  F  F18  1  0.71530730  0.71530730  0.50000000  1
  F  F19  1  0.69283406  0.69283406  0.74825769  1
  F  F20  1  0.79239996  0.20555634  0.12775742  1
  F  F21  1  0.79444366  0.20760004  0.37224258  1
  F  F22  1  0.79444366  0.20760004  0.62775742  1
  F  F23  1  0.79239996  0.20555634  0.87224258  1
