# generated using pymatgen
data_Li3NbNi3O8
_symmetry_space_group_name_H-M   'P 1'
_cell_length_a   6.00115559
_cell_length_b   5.95697455
_cell_length_c   5.87267158
_cell_angle_alpha   60.46602505
_cell_angle_beta   60.69948190
_cell_angle_gamma   91.95569611
_symmetry_Int_Tables_number   1
_chemical_formula_structural   Li3NbNi3O8
_chemical_formula_sum   'Li3 Nb1 Ni3 O8'
_cell_volume   148.43221989
_cell_formula_units_Z   1
loop_
 _symmetry_equiv_pos_site_id
 _symmetry_equiv_pos_as_xyz
  1  'x, y, z'
loop_
 _atom_site_type_symbol
 _atom_site_label
 _atom_site_symmetry_multiplicity
 _atom_site_fract_x
 _atom_site_fract_y
 _atom_site_fract_z
 _atom_site_occupancy
  Li  Li0  1  0.50000070  0.00001518  0.99998292  1
  Li  Li1  1  0.50000382  0.00001553  0.49999967  1
  Li  Li2  1  0.49999531  0.49999277  0.00000590  1
  Nb  Nb3  1  0.99998452  0.99998758  0.00001298  1
  Ni  Ni4  1  -0.00000105  -0.00000137  0.50000077  1
  Ni  Ni5  1  0.00000608  0.50000386  0.99999562  1
  Ni  Ni6  1  0.00000392  0.50000107  0.49999861  1
  O  O7  1  0.22435608  0.22742521  0.03872974  1
  O  O8  1  0.22440337  0.22731778  0.50946348  1
  O  O9  1  0.23564152  0.76884577  0.99777964  1
  O  O10  1  0.20647258  0.76581549  0.51381091  1
  O  O11  1  0.79352062  0.23419166  0.48618630  1
  O  O12  1  0.76436214  0.23115706  0.00221839  1
  O  O13  1  0.77558611  0.77267659  0.49054602  1
  O  O14  1  0.77563128  0.77256781  0.96127906  1
