# generated using pymatgen
data_LiFeSiO4
_symmetry_space_group_name_H-M   'P 1'
_cell_length_a   5.78300460
_cell_length_b   10.43839954
_cell_length_c   10.36396935
_cell_angle_alpha   90.00000000
_cell_angle_beta   90.72215819
_cell_angle_gamma   90.00000000
_symmetry_Int_Tables_number   1
_chemical_formula_structural   LiFeSiO4
_chemical_formula_sum   'Li8 Fe8 Si8 O32'
_cell_volume   625.57455612
_cell_formula_units_Z   8
loop_
 _symmetry_equiv_pos_site_id
 _symmetry_equiv_pos_as_xyz
  1  'x, y, z'
loop_
 _atom_site_type_symbol
 _atom_site_label
 _atom_site_symmetry_multiplicity
 _atom_site_fract_x
 _atom_site_fract_y
 _atom_site_fract_z
 _atom_site_occupancy
  Li  Li0  1  0.14864705  0.83024862  0.83736420  1
  Li  Li1  1  0.14864705  0.66975138  0.33736420  1
  Li  Li2  1  0.33477301  0.35050890  0.61024158  1
  Li  Li3  1  0.33477301  0.14949110  0.11024158  1
  Li  Li4  1  0.66522699  0.85050890  0.88975842  1
  Li  Li5  1  0.66522699  0.64949110  0.38975842  1
  Li  Li6  1  0.85135295  0.33024862  0.66263580  1
  Li  Li7  1  0.85135295  0.16975138  0.16263580  1
  Fe  Fe8  1  0.14218613  0.12647554  0.50912985  1
  Fe  Fe9  1  0.14218613  0.37352446  0.00912985  1
  Fe  Fe10  1  0.37829194  0.58382908  0.76501295  1
  Fe  Fe11  1  0.37829194  0.91617092  0.26501295  1
  Fe  Fe12  1  0.62170806  0.08382908  0.73498705  1
  Fe  Fe13  1  0.62170806  0.41617092  0.23498705  1
  Fe  Fe14  1  0.85781387  0.62647554  0.99087015  1
  Fe  Fe15  1  0.85781387  0.87352446  0.49087015  1
  Si  Si16  1  0.11836332  0.10512609  0.82471359  1
  Si  Si17  1  0.11836332  0.39487391  0.32471359  1
  Si  Si18  1  0.37598917  0.84831947  0.57453293  1
  Si  Si19  1  0.37598917  0.65168053  0.07453293  1
  Si  Si20  1  0.62401083  0.34831947  0.92546707  1
  Si  Si21  1  0.62401083  0.15168053  0.42546707  1
  Si  Si22  1  0.88163668  0.60512609  0.67528641  1
  Si  Si23  1  0.88163668  0.89487391  0.17528641  1
  O  O24  1  0.12692825  0.19749074  0.95360420  1
  O  O25  1  0.10775346  0.50719447  0.67511603  1
  O  O26  1  0.12692825  0.30250926  0.45360420  1
  O  O27  1  0.10775346  0.99280553  0.17511603  1
  O  O28  1  0.11233269  0.19092208  0.68831468  1
  O  O29  1  0.14237752  0.94009067  0.57198299  1
  O  O30  1  0.11233269  0.30907792  0.18831468  1
  O  O31  1  0.14237752  0.55990933  0.07198299  1
  O  O32  1  0.33309972  0.74657109  0.68835651  1
  O  O33  1  0.35733445  0.01586446  0.82762790  1
  O  O34  1  0.33309972  0.75342891  0.18835651  1
  O  O35  1  0.35733445  0.48413554  0.32762790  1
  O  O36  1  0.38929858  0.43290347  0.88860204  1
  O  O37  1  0.41794752  0.70768080  0.92887274  1
  O  O38  1  0.38929858  0.06709653  0.38860204  1
  O  O39  1  0.41794752  0.79231920  0.42887274  1
  O  O40  1  0.58205248  0.20768080  0.57112726  1
  O  O41  1  0.61070142  0.93290347  0.61139796  1
  O  O42  1  0.58205248  0.29231920  0.07112726  1
  O  O43  1  0.61070142  0.56709653  0.11139796  1
  O  O44  1  0.64266555  0.51586446  0.67237210  1
  O  O45  1  0.66690028  0.24657109  0.81164349  1
  O  O46  1  0.64266555  0.98413554  0.17237210  1
  O  O47  1  0.66690028  0.25342891  0.31164349  1
  O  O48  1  0.85762248  0.44009067  0.92801701  1
  O  O49  1  0.88766731  0.69092208  0.81168532  1
  O  O50  1  0.85762248  0.05990933  0.42801701  1
  O  O51  1  0.88766731  0.80907792  0.31168532  1
  O  O52  1  0.89224654  0.00719447  0.82488397  1
  O  O53  1  0.87307175  0.69749074  0.54639580  1
  O  O54  1  0.89224654  0.49280553  0.32488397  1
  O  O55  1  0.87307175  0.80250926  0.04639580  1
