# generated using pymatgen
data_Li2Ti2Fe3O10
_symmetry_space_group_name_H-M   'P 1'
_cell_length_a   5.21587779
_cell_length_b   5.11913158
_cell_length_c   7.80852074
_cell_angle_alpha   76.38870869
_cell_angle_beta   104.33037091
_cell_angle_gamma   102.68724791
_symmetry_Int_Tables_number   1
_chemical_formula_structural   Li2Ti2Fe3O10
_chemical_formula_sum   'Li2 Ti2 Fe3 O10'
_cell_volume   193.42808063
_cell_formula_units_Z   1
loop_
 _symmetry_equiv_pos_site_id
 _symmetry_equiv_pos_as_xyz
  1  'x, y, z'
loop_
 _atom_site_type_symbol
 _atom_site_label
 _atom_site_symmetry_multiplicity
 _atom_site_fract_x
 _atom_site_fract_y
 _atom_site_fract_z
 _atom_site_occupancy
  Li  Li0  1  0.21787601  0.54119616  0.39419559  1
  Li  Li1  1  0.78212399  0.45880384  0.60580441  1
  Ti  Ti2  1  0.12846266  0.01027421  0.68232272  1
  Ti  Ti3  1  0.87153734  0.98972579  0.31767728  1
  Fe  Fe4  1  0.00000000  0.50000000  0.00000000  1
  Fe  Fe5  1  0.68889493  0.96827203  0.89247008  1
  Fe  Fe6  1  0.31110507  0.03172797  0.10752992  1
  O  O7  1  0.03923261  0.21777569  0.85797695  1
  O  O8  1  0.06853688  0.77399823  0.51356459  1
  O  O9  1  0.32115342  0.78400006  0.93594171  1
  O  O10  1  0.18598949  0.28537055  0.21097602  1
  O  O11  1  0.47456346  0.17595886  0.68062731  1
  O  O12  1  0.52543654  0.82404114  0.31937269  1
  O  O13  1  0.81401051  0.71462945  0.78902398  1
  O  O14  1  0.67884658  0.21599994  0.06405829  1
  O  O15  1  0.93146312  0.22600177  0.48643541  1
  O  O16  1  0.96076739  0.78222431  0.14202305  1
