# generated using pymatgen
data_OsC4ClO4
_symmetry_space_group_name_H-M   'P 1'
_cell_length_a   9.48153719
_cell_length_b   9.94221466
_cell_length_c   16.06322670
_cell_angle_alpha   90.00000000
_cell_angle_beta   90.00000000
_cell_angle_gamma   90.00000000
_symmetry_Int_Tables_number   1
_chemical_formula_structural   OsC4ClO4
_chemical_formula_sum   'Os8 C32 Cl8 O32'
_cell_volume   1514.23987035
_cell_formula_units_Z   8
loop_
 _symmetry_equiv_pos_site_id
 _symmetry_equiv_pos_as_xyz
  1  'x, y, z'
loop_
 _atom_site_type_symbol
 _atom_site_label
 _atom_site_symmetry_multiplicity
 _atom_site_fract_x
 _atom_site_fract_y
 _atom_site_fract_z
 _atom_site_occupancy
  Os  Os0  1  0.02742514  0.52501854  0.36241465  1
  Os  Os1  1  0.52742514  0.97498146  0.63758535  1
  Os  Os2  1  0.31515778  0.50358063  0.43636392  1
  Os  Os3  1  0.68484222  0.00358063  0.06363608  1
  Os  Os4  1  0.18484222  0.49641937  0.93636392  1
  Os  Os5  1  0.81515778  0.99641937  0.56363608  1
  Os  Os6  1  0.47257486  0.47498146  0.86241465  1
  Os  Os7  1  0.97257486  0.02501854  0.13758535  1
  C  C8  1  0.44220248  0.28530580  0.85952585  1
  C  C9  1  0.27490791  0.62121270  0.01579392  1
  C  C10  1  0.87171191  0.85625866  0.64368689  1
  C  C11  1  0.03631301  0.02681751  0.02030481  1
  C  C12  1  0.62828809  0.14374134  0.14368689  1
  C  C13  1  0.16247147  0.03493403  0.18177031  1
  C  C14  1  0.46368699  0.97318249  0.52030481  1
  C  C15  1  0.35171574  0.36026849  0.36065074  1
  C  C16  1  0.37508215  0.49304496  0.75504482  1
  C  C17  1  0.66247147  0.46506597  0.81822969  1
  C  C18  1  0.87508215  0.00695504  0.24495518  1
  C  C19  1  0.33752853  0.96506597  0.68177031  1
  C  C20  1  0.94220248  0.21469420  0.14047415  1
  C  C21  1  0.50121973  0.48881837  0.48503737  1
  C  C22  1  0.99878027  0.51118163  0.98503737  1
  C  C23  1  0.55779752  0.78530580  0.64047415  1
  C  C24  1  0.14828426  0.63973151  0.86065074  1
  C  C25  1  0.53631301  0.47318249  0.97969519  1
  C  C26  1  0.05779752  0.71469420  0.35952585  1
  C  C27  1  0.22509209  0.37878730  0.51579392  1
  C  C28  1  0.77490791  0.87878730  0.98420608  1
  C  C29  1  0.72509209  0.12121270  0.48420608  1
  C  C30  1  0.00121973  0.01118163  0.51496263  1
  C  C31  1  0.83752853  0.53493403  0.31822969  1
  C  C32  1  0.12491785  0.50695504  0.25504482  1
  C  C33  1  0.64828426  0.86026849  0.13934926  1
  C  C34  1  0.12828809  0.35625866  0.85631311  1
  C  C35  1  0.49878027  0.98881837  0.01496263  1
  C  C36  1  0.96368699  0.52681751  0.47969519  1
  C  C37  1  0.37171191  0.64374134  0.35631311  1
  C  C38  1  0.85171574  0.13973151  0.63934926  1
  C  C39  1  0.62491785  0.99304496  0.74495518  1
  Cl  Cl40  1  0.99146195  0.77744840  0.13406968  1
  Cl  Cl41  1  0.74733458  0.19176728  0.97058173  1
  Cl  Cl42  1  0.00853805  0.27744840  0.36593032  1
  Cl  Cl43  1  0.75266542  0.80823272  0.47058173  1
  Cl  Cl44  1  0.49146195  0.72255160  0.86593032  1
  Cl  Cl45  1  0.50853805  0.22255160  0.63406968  1
  Cl  Cl46  1  0.24733458  0.30823272  0.02941827  1
  Cl  Cl47  1  0.25266542  0.69176728  0.52941827  1
  O  O48  1  0.07401557  0.02395539  0.95220420  1
  O  O49  1  0.67418785  0.19331731  0.43675389  1
  O  O50  1  0.09698148  0.27092656  0.81137468  1
  O  O51  1  0.57843156  0.67082304  0.64710947  1
  O  O52  1  0.62257112  0.77181205  0.18367845  1
  O  O53  1  0.42598443  0.97604461  0.45220420  1
  O  O54  1  0.31470123  0.50221176  0.69298113  1
  O  O55  1  0.88518840  0.52432472  0.00943042  1
  O  O56  1  0.32581215  0.69331731  0.06324611  1
  O  O57  1  0.61481160  0.47567528  0.50943042  1
  O  O58  1  0.77676588  0.45629460  0.79344285  1
  O  O59  1  0.92598443  0.52395539  0.54779580  1
  O  O60  1  0.42156844  0.17082304  0.85289053  1
  O  O61  1  0.68529877  0.00221176  0.80701887  1
  O  O62  1  0.57401557  0.47604461  0.04779580  1
  O  O63  1  0.59698148  0.22907344  0.18862532  1
  O  O64  1  0.22323412  0.95629460  0.70655715  1
  O  O65  1  0.11481160  0.02432472  0.49056958  1
  O  O66  1  0.82581215  0.80668269  0.93675389  1
  O  O67  1  0.18529877  0.49778824  0.19298113  1
  O  O68  1  0.37742888  0.27181205  0.31632155  1
  O  O69  1  0.27676588  0.04370540  0.20655715  1
  O  O70  1  0.17418785  0.30668269  0.56324611  1
  O  O71  1  0.87742888  0.22818795  0.68367845  1
  O  O72  1  0.38518840  0.97567528  0.99056958  1
  O  O73  1  0.81470123  0.99778824  0.30701887  1
  O  O74  1  0.12257112  0.72818795  0.81632155  1
  O  O75  1  0.72323412  0.54370540  0.29344285  1
  O  O76  1  0.92156844  0.32917696  0.14710947  1
  O  O77  1  0.07843156  0.82917696  0.35289053  1
  O  O78  1  0.90301852  0.77092656  0.68862532  1
  O  O79  1  0.40301852  0.72907344  0.31137468  1
