# generated using pymatgen
data_Rb2NaMn(CN)6
_symmetry_space_group_name_H-M   'P 1'
_cell_length_a   7.33279210
_cell_length_b   7.86750740
_cell_length_c   10.75914010
_cell_angle_alpha   90.00000000
_cell_angle_beta   90.76607057
_cell_angle_gamma   90.00000000
_symmetry_Int_Tables_number   1
_chemical_formula_structural   Rb2NaMn(CN)6
_chemical_formula_sum   'Rb4 Na2 Mn2 C12 N12'
_cell_volume   620.64787771
_cell_formula_units_Z   2
loop_
 _symmetry_equiv_pos_site_id
 _symmetry_equiv_pos_as_xyz
  1  'x, y, z'
loop_
 _atom_site_type_symbol
 _atom_site_label
 _atom_site_symmetry_multiplicity
 _atom_site_fract_x
 _atom_site_fract_y
 _atom_site_fract_z
 _atom_site_occupancy
  Rb  Rb0  1  0.52390871  0.92703804  0.24865657  1
  Rb  Rb1  1  0.97609129  0.42703804  0.25134343  1
  Rb  Rb2  1  0.47609129  0.07296196  0.75134343  1
  Rb  Rb3  1  0.02390871  0.57296196  0.74865657  1
  Na  Na4  1  0.00000000  0.00000000  0.50000000  1
  Na  Na5  1  0.50000000  0.50000000  0.00000000  1
  Mn  Mn6  1  0.00000000  0.00000000  0.00000000  1
  Mn  Mn7  1  0.50000000  0.50000000  0.50000000  1
  C  C8  1  0.07244132  0.02063041  0.17572648  1
  C  C9  1  0.42755868  0.52063041  0.32427352  1
  C  C10  1  0.92755868  0.97936959  0.82427352  1
  C  C11  1  0.57244132  0.47936959  0.67572648  1
  N  N12  1  0.11467209  0.03522126  0.28118495  1
  N  N13  1  0.38532791  0.53522126  0.21881505  1
  N  N14  1  0.88532791  0.96477874  0.71881505  1
  N  N15  1  0.61467209  0.46477874  0.78118495  1
  C  C16  1  0.78265981  0.13727097  0.03427921  1
  C  C17  1  0.71734019  0.63727097  0.46572079  1
  C  C18  1  0.21734019  0.86272903  0.96572079  1
  C  C19  1  0.28265981  0.36272903  0.53427921  1
  N  N20  1  0.65288739  0.21995315  0.05572993  1
  N  N21  1  0.84711261  0.71995315  0.44427007  1
  N  N22  1  0.34711261  0.78004685  0.94427007  1
  N  N23  1  0.15288739  0.28004685  0.55572993  1
  C  C24  1  0.13301044  0.20928869  0.95822787  1
  C  C25  1  0.36698956  0.70928869  0.54177213  1
  C  C26  1  0.86698956  0.79071131  0.04177213  1
  C  C27  1  0.63301044  0.29071131  0.45822787  1
  N  N28  1  0.21467519  0.33313568  0.93284658  1
  N  N29  1  0.28532481  0.83313568  0.56715342  1
  N  N30  1  0.78532481  0.66686432  0.06715342  1
  N  N31  1  0.71467519  0.16686432  0.43284658  1
