# generated using pymatgen
data_Li4Mn5Cr(PO4)6
_symmetry_space_group_name_H-M   'P 1'
_cell_length_a   8.50744081
_cell_length_b   8.98385944
_cell_length_c   9.00992387
_cell_angle_alpha   59.75196876
_cell_angle_beta   59.34999724
_cell_angle_gamma   58.99173799
_symmetry_Int_Tables_number   1
_chemical_formula_structural   Li4Mn5Cr(PO4)6
_chemical_formula_sum   'Li4 Mn5 Cr1 P6 O24'
_cell_volume   479.84590658
_cell_formula_units_Z   1
loop_
 _symmetry_equiv_pos_site_id
 _symmetry_equiv_pos_as_xyz
  1  'x, y, z'
loop_
 _atom_site_type_symbol
 _atom_site_label
 _atom_site_symmetry_multiplicity
 _atom_site_fract_x
 _atom_site_fract_y
 _atom_site_fract_z
 _atom_site_occupancy
  Li  Li0  1  0.25328431  0.85073761  0.63800554  1
  Li  Li1  1  0.76944509  0.15111071  0.34877733  1
  Li  Li2  1  0.76772964  0.73724048  0.14289474  1
  Li  Li3  1  0.77283773  0.34833872  0.73029703  1
  Mn  Mn4  1  0.00958120  0.99855158  0.00756633  1
  Mn  Mn5  1  0.05345359  0.64758603  0.64902671  1
  Mn  Mn6  1  0.49399039  0.49807121  0.49870699  1
  Mn  Mn7  1  0.44395722  0.84918127  0.85178129  1
  Mn  Mn8  1  0.96520272  0.34943648  0.34177750  1
  Cr  Cr9  1  0.55455704  0.14999279  0.14778673  1
  P  P10  1  0.25404952  0.24764462  0.55431061  1
  P  P11  1  0.24374339  0.95103752  0.25116721  1
  P  P12  1  0.25109909  0.55596898  0.94575216  1
  P  P13  1  0.74614141  0.45135850  0.04882706  1
  P  P14  1  0.75779974  0.04643212  0.75383066  1
  P  P15  1  0.73248121  0.75498292  0.44857772  1
  O  O16  1  0.04886437  0.09934047  0.31590569  1
  O  O17  1  0.05381831  0.54318686  0.09103262  1
  O  O18  1  0.05413560  0.31073238  0.54060421  1
  O  O19  1  0.24563766  0.07739509  0.73861877  1
  O  O20  1  0.42652886  0.18962145  0.38979522  1
  O  O21  1  0.28147434  0.39380546  0.57156826  1
  O  O22  1  0.23002529  0.92604884  0.10072427  1
  O  O23  1  0.27646356  0.76737049  0.41192988  1
  O  O24  1  0.56510900  0.60952821  0.00516774  1
  O  O25  1  0.28158226  0.57650309  0.75212199  1
  O  O26  1  0.75816839  0.25530450  0.07671330  1
  O  O27  1  0.59296024  0.98375237  0.81128142  1
  O  O28  1  0.42230210  0.00437723  0.18024101  1
  O  O29  1  0.23919108  0.74870218  0.92308048  1
  O  O30  1  0.72268457  0.42979443  0.24220373  1
  O  O31  1  0.42685158  0.39317897  0.99564925  1
  O  O32  1  0.72487722  0.24106385  0.60444829  1
  O  O33  1  0.75764852  0.07902376  0.91293568  1
  O  O34  1  0.72892323  0.60043686  0.41642870  1
  O  O35  1  0.53864482  0.81372248  0.59497644  1
  O  O36  1  0.75590025  0.91206449  0.25246946  1
  O  O37  1  0.90743745  0.70153593  0.49291691  1
  O  O38  1  0.93334149  0.47572749  0.89939012  1
  O  O39  1  0.95807452  0.90311458  0.69771296  1
