# generated using pymatgen
data_FeOF
_symmetry_space_group_name_H-M   'P 1'
_cell_length_a   9.46212200
_cell_length_b   9.45679095
_cell_length_c   6.25934936
_cell_angle_alpha   89.98124581
_cell_angle_beta   89.78025989
_cell_angle_gamma   90.38816099
_symmetry_Int_Tables_number   1
_chemical_formula_structural   FeOF
_chemical_formula_sum   'Fe16 O16 F16'
_cell_volume   560.07777128
_cell_formula_units_Z   16
loop_
 _symmetry_equiv_pos_site_id
 _symmetry_equiv_pos_as_xyz
  1  'x, y, z'
loop_
 _atom_site_type_symbol
 _atom_site_label
 _atom_site_symmetry_multiplicity
 _atom_site_fract_x
 _atom_site_fract_y
 _atom_site_fract_z
 _atom_site_occupancy
  Fe  Fe0  1  0.99150876  0.99160216  0.01962339  1
  Fe  Fe1  1  0.00850126  0.00837079  0.48285485  1
  Fe  Fe2  1  0.99919813  0.50066126  0.01891125  1
  Fe  Fe3  1  0.00037859  0.49968585  0.48175112  1
  Fe  Fe4  1  0.23995671  0.25812704  0.26978871  1
  Fe  Fe5  1  0.26004287  0.24187239  0.73021001  1
  Fe  Fe6  1  0.23968474  0.75888368  0.22534189  1
  Fe  Fe7  1  0.26031636  0.74111728  0.77465701  1
  Fe  Fe8  1  0.50848911  0.50839610  0.98038377  1
  Fe  Fe9  1  0.49148940  0.49162175  0.51715213  1
  Fe  Fe10  1  0.50080222  0.99934021  0.98108749  1
  Fe  Fe11  1  0.49962105  0.00031452  0.51824587  1
  Fe  Fe12  1  0.76043164  0.24111819  0.22539306  1
  Fe  Fe13  1  0.73956940  0.25888171  0.77460803  1
  Fe  Fe14  1  0.75959992  0.74189567  0.23179368  1
  Fe  Fe15  1  0.74040114  0.75810428  0.76820602  1
  O  O16  1  0.09644714  0.40286223  0.25338689  1
  O  O17  1  0.09655920  0.90306471  0.25185575  1
  O  O18  1  0.15303303  0.15256810  0.50402338  1
  O  O19  1  0.14956150  0.65054557  0.99697017  1
  O  O20  1  0.34696717  0.34743203  0.49597650  1
  O  O21  1  0.35043915  0.84945488  0.00302950  1
  O  O22  1  0.40344141  0.59693614  0.74814398  1
  O  O23  1  0.40355371  0.09713825  0.74661322  1
  O  O24  1  0.59611426  0.40262204  0.74743718  1
  O  O25  1  0.59720149  0.90233893  0.74011736  1
  O  O26  1  0.65046931  0.14977750  0.00368605  1
  O  O27  1  0.65304201  0.65281548  0.00364172  1
  O  O28  1  0.84953161  0.35022276  0.99631235  1
  O  O29  1  0.84695843  0.84718442  0.99635705  1
  O  O30  1  0.90388613  0.09737854  0.25256273  1
  O  O31  1  0.90279859  0.59766160  0.25988217  1
  F  F32  1  0.09688500  0.40381767  0.74498366  1
  F  F33  1  0.09720193  0.90327998  0.74675899  1
  F  F34  1  0.15337531  0.15392905  0.99651467  1
  F  F35  1  0.15439510  0.65467455  0.50370171  1
  F  F36  1  0.34662553  0.34607175  0.00348491  1
  F  F37  1  0.34560533  0.84532592  0.49629746  1
  F  F38  1  0.40311565  0.09618248  0.25501584  1
  F  F39  1  0.40279872  0.59672040  0.25324030  1
  F  F40  1  0.59731563  0.40353931  0.25368723  1
  F  F41  1  0.59779037  0.90301394  0.26146725  1
  F  F42  1  0.65415960  0.15483977  0.49604245  1
  F  F43  1  0.65296228  0.65350372  0.49671224  1
  F  F44  1  0.84584095  0.34516063  0.50395722  1
  F  F45  1  0.84703827  0.84649683  0.50328703  1
  F  F46  1  0.90268480  0.09646169  0.74631240  1
  F  F47  1  0.90221012  0.59698625  0.73853233  1
