# generated using pymatgen
data_RhC2ClO2
_symmetry_space_group_name_H-M   'P 1'
_cell_length_a   9.43772116
_cell_length_b   11.21322018
_cell_length_c   11.21322019
_cell_angle_alpha   79.79922905
_cell_angle_beta   65.11299220
_cell_angle_gamma   65.11299368
_symmetry_Int_Tables_number   1
_chemical_formula_structural   RhC2ClO2
_chemical_formula_sum   'Rh8 C16 Cl8 O16'
_cell_volume   976.50836607
_cell_formula_units_Z   8
loop_
 _symmetry_equiv_pos_site_id
 _symmetry_equiv_pos_as_xyz
  1  'x, y, z'
loop_
 _atom_site_type_symbol
 _atom_site_label
 _atom_site_symmetry_multiplicity
 _atom_site_fract_x
 _atom_site_fract_y
 _atom_site_fract_z
 _atom_site_occupancy
  Rh  Rh0  1  0.60830064  0.08034957  0.62361774  1
  Rh  Rh1  1  0.93865021  0.41965043  0.12361774  1
  Rh  Rh2  1  0.48191838  0.58034957  0.87638226  1
  Rh  Rh3  1  0.31226795  0.91965043  0.37638226  1
  Rh  Rh4  1  0.76808162  0.62361774  0.91965043  1
  Rh  Rh5  1  0.64169936  0.87638226  0.41965043  1
  Rh  Rh6  1  0.93773205  0.12361774  0.58034957  1
  Rh  Rh7  1  0.31134979  0.37638226  0.08034957  1
  C  C8  1  0.83492722  0.89423227  0.29120732  1
  C  C9  1  0.47668923  0.01349564  0.77001466  1
  C  C10  1  0.26019953  0.98650436  0.22998534  1
  C  C11  1  0.87386546  0.29120732  0.10576773  1
  C  C12  1  0.27084051  0.70879268  0.89423227  1
  C  C13  1  0.98980047  0.27001466  0.51349564  1
  C  C14  1  0.37613454  0.39423227  0.20879268  1
  C  C15  1  0.22963318  0.79120732  0.39423227  1
  C  C16  1  0.50981514  0.22998534  0.01349564  1
  C  C17  1  0.41507278  0.20879268  0.60576773  1
  C  C18  1  0.97915949  0.60576773  0.79120732  1
  C  C19  1  0.75329611  0.77001466  0.98650436  1
  C  C20  1  0.02036682  0.10576773  0.70879268  1
  C  C21  1  0.77331077  0.72998534  0.48650436  1
  C  C22  1  0.74018486  0.48650436  0.27001466  1
  C  C23  1  0.49670389  0.51349564  0.72998534  1
  Cl  Cl24  1  0.04710663  0.56443991  0.15793810  1
  Cl  Cl25  1  0.79495527  0.15793810  0.43556009  1
  Cl  Cl26  1  0.86154654  0.93556009  0.65793810  1
  Cl  Cl27  1  0.76948464  0.43556009  0.84206190  1
  Cl  Cl28  1  0.38845346  0.84206190  0.56443991  1
  Cl  Cl29  1  0.20289337  0.34206190  0.93556009  1
  Cl  Cl30  1  0.45504473  0.06443991  0.34206190  1
  Cl  Cl31  1  0.48051536  0.65793810  0.06443991  1
  O  O32  1  0.95718324  0.90107558  0.20917280  1
  O  O33  1  0.22632881  0.03265019  0.13984367  1
  O  O34  1  0.02367119  0.36015633  0.46734981  1
  O  O35  1  0.61617247  0.53265019  0.36015633  1
  O  O36  1  0.14174119  0.79082720  0.90107558  1
  O  O37  1  0.18256838  0.70917280  0.40107558  1
  O  O38  1  0.83364396  0.20917280  0.09892442  1
  O  O39  1  0.41635604  0.40107558  0.29082720  1
  O  O40  1  0.63382753  0.13984367  0.96734981  1
  O  O41  1  0.39882267  0.96734981  0.86015633  1
  O  O42  1  0.85117733  0.63984367  0.53265019  1
  O  O43  1  0.74102100  0.86015633  0.03265019  1
  O  O44  1  0.50897900  0.46734981  0.63984367  1
  O  O45  1  0.29281676  0.29082720  0.59892442  1
  O  O46  1  0.06743162  0.09892442  0.79082720  1
  O  O47  1  0.10825881  0.59892442  0.70917280  1
