# generated using pymatgen
data_FeOF
_symmetry_space_group_name_H-M   'P 1'
_cell_length_a   14.26940974
_cell_length_b   9.59339097
_cell_length_c   3.09183512
_cell_angle_alpha   90.00000000
_cell_angle_beta   90.00000000
_cell_angle_gamma   90.62845915
_symmetry_Int_Tables_number   1
_chemical_formula_structural   FeOF
_chemical_formula_sum   'Fe12 O12 F12'
_cell_volume   423.22211460
_cell_formula_units_Z   12
loop_
 _symmetry_equiv_pos_site_id
 _symmetry_equiv_pos_as_xyz
  1  'x, y, z'
loop_
 _atom_site_type_symbol
 _atom_site_label
 _atom_site_symmetry_multiplicity
 _atom_site_fract_x
 _atom_site_fract_y
 _atom_site_fract_z
 _atom_site_occupancy
  Fe  Fe0  1  0.01382111  0.99844216  0.00000000  1
  Fe  Fe1  1  0.00685370  0.50099729  0.00000000  1
  Fe  Fe2  1  0.15026936  0.25324697  0.50000000  1
  Fe  Fe3  1  0.17250937  0.78060686  0.50000000  1
  Fe  Fe4  1  0.34068982  0.99438898  0.00000000  1
  Fe  Fe5  1  0.34290240  0.49986439  0.00000000  1
  Fe  Fe6  1  0.48245845  0.75007018  0.50000000  1
  Fe  Fe7  1  0.47847220  0.25133117  0.50000000  1
  Fe  Fe8  1  0.67100679  0.00393374  0.00000000  1
  Fe  Fe9  1  0.67922602  0.49803783  0.00000000  1
  Fe  Fe10  1  0.81883763  0.24601263  0.50000000  1
  Fe  Fe11  1  0.84121380  0.71622947  0.50000000  1
  O  O12  1  0.06540816  0.40637377  0.50000000  1
  O  O13  1  0.06266420  0.90173324  0.50000000  1
  O  O14  1  0.09967752  0.15568991  0.00000000  1
  O  O15  1  0.23595470  0.85576737  0.00000000  1
  O  O16  1  0.39510678  0.40708779  0.50000000  1
  O  O17  1  0.40250944  0.90810118  0.50000000  1
  O  O18  1  0.43421469  0.15219203  0.00000000  1
  O  O19  1  0.43505483  0.65378090  0.00000000  1
  O  O20  1  0.73096626  0.39873300  0.50000000  1
  O  O21  1  0.76381327  0.14465666  0.00000000  1
  O  O22  1  0.76850148  0.65293071  0.00000000  1
  O  O23  1  0.94169933  0.59170516  0.50000000  1
  F  F24  1  0.10965565  0.65871052  0.00000000  1
  F  F25  1  0.23089004  0.35245098  0.00000000  1
  F  F26  1  0.26875202  0.10430084  0.50000000  1
  F  F27  1  0.26733523  0.59770660  0.50000000  1
  F  F28  1  0.56418832  0.34521835  0.00000000  1
  F  F29  1  0.57101001  0.85083763  0.00000000  1
  F  F30  1  0.60121078  0.09118353  0.50000000  1
  F  F31  1  0.60277392  0.59508709  0.50000000  1
  F  F32  1  0.72868099  0.90245161  0.50000000  1
  F  F33  1  0.89471962  0.33589009  0.00000000  1
  F  F34  1  0.89576850  0.84841947  0.00000000  1
  F  F35  1  0.93118462  0.09582589  0.50000000  1
