# generated using pymatgen
data_Li2MnF4
_symmetry_space_group_name_H-M   'P 1'
_cell_length_a   8.75286690
_cell_length_b   8.76855311
_cell_length_c   3.28623634
_cell_angle_alpha   90.00000000
_cell_angle_beta   90.00000000
_cell_angle_gamma   90.00000000
_symmetry_Int_Tables_number   1
_chemical_formula_structural   Li2MnF4
_chemical_formula_sum   'Li4 Mn2 F8'
_cell_volume   252.21856771
_cell_formula_units_Z   2
loop_
 _symmetry_equiv_pos_site_id
 _symmetry_equiv_pos_as_xyz
  1  'x, y, z'
loop_
 _atom_site_type_symbol
 _atom_site_label
 _atom_site_symmetry_multiplicity
 _atom_site_fract_x
 _atom_site_fract_y
 _atom_site_fract_z
 _atom_site_occupancy
  Li  Li0  1  0.25419890  0.76872093  0.00000000  1
  Li  Li1  1  0.23106847  0.25442635  0.00000000  1
  Li  Li2  1  0.75419890  0.73127907  0.00000000  1
  Li  Li3  1  0.73106847  0.24557365  0.00000000  1
  Mn  Mn4  1  0.99980542  0.50069435  0.50000000  1
  Mn  Mn5  1  0.49980542  0.99930565  0.50000000  1
  F  F6  1  0.11131173  0.61548835  0.00000000  1
  F  F7  1  0.16898973  0.32552679  0.50000000  1
  F  F8  1  0.32454455  0.83012229  0.50000000  1
  F  F9  1  0.38423120  0.11132661  0.00000000  1
  F  F10  1  0.61131173  0.88451165  0.00000000  1
  F  F11  1  0.66898973  0.17447321  0.50000000  1
  F  F12  1  0.82454455  0.66987771  0.50000000  1
  F  F13  1  0.88423120  0.38867339  0.00000000  1
