# generated using pymatgen
data_LiMnF3
_symmetry_space_group_name_H-M   'P 1'
_cell_length_a   7.00625957
_cell_length_b   7.99902840
_cell_length_c   16.63921149
_cell_angle_alpha   88.72612875
_cell_angle_beta   83.13856406
_cell_angle_gamma   91.53134070
_symmetry_Int_Tables_number   1
_chemical_formula_structural   LiMnF3
_chemical_formula_sum   'Li14 Mn14 F42'
_cell_volume   925.20274106
_cell_formula_units_Z   14
loop_
 _symmetry_equiv_pos_site_id
 _symmetry_equiv_pos_as_xyz
  1  'x, y, z'
loop_
 _atom_site_type_symbol
 _atom_site_label
 _atom_site_symmetry_multiplicity
 _atom_site_fract_x
 _atom_site_fract_y
 _atom_site_fract_z
 _atom_site_occupancy
  Li  Li0  1  0.21886424  0.83742158  0.03198544  1
  Li  Li1  1  0.11841095  0.21825837  0.75563505  1
  Li  Li2  1  0.25412970  0.28906370  0.56730650  1
  Li  Li3  1  0.32384767  0.45002451  0.30872853  1
  Li  Li4  1  0.43199488  0.53566654  0.11953778  1
  Li  Li5  1  0.32243077  0.92076736  0.83733563  1
  Li  Li6  1  0.49196811  0.84209338  0.59908469  1
  Li  Li7  1  0.50803189  0.15790662  0.40091531  1
  Li  Li8  1  0.67756923  0.07923264  0.16266437  1
  Li  Li9  1  0.56800512  0.46433346  0.88046222  1
  Li  Li10  1  0.67615233  0.54997549  0.69127147  1
  Li  Li11  1  0.74587030  0.71093630  0.43269350  1
  Li  Li12  1  0.88158905  0.78174163  0.24436495  1
  Li  Li13  1  0.78113576  0.16257842  0.96801456  1
  Mn  Mn14  1  0.05435635  0.04300808  0.39157763  1
  Mn  Mn15  1  0.17146683  0.13940211  0.18633093  1
  Mn  Mn16  1  0.04839383  0.54345155  0.90072226  1
  Mn  Mn17  1  0.23599562  0.70040323  0.48783527  1
  Mn  Mn18  1  0.16583158  0.61927439  0.69373577  1
  Mn  Mn19  1  0.42621505  0.81753165  0.28353983  1
  Mn  Mn20  1  0.29823199  0.18789470  0.95959162  1
  Mn  Mn21  1  0.70176801  0.81210530  0.04040838  1
  Mn  Mn22  1  0.57378495  0.18246835  0.71646017  1
  Mn  Mn23  1  0.83416842  0.38072561  0.30626423  1
  Mn  Mn24  1  0.76400438  0.29959677  0.51216473  1
  Mn  Mn25  1  0.95160617  0.45654845  0.09927774  1
  Mn  Mn26  1  0.82853317  0.86059789  0.81366907  1
  Mn  Mn27  1  0.94564365  0.95699192  0.60842237  1
  F  F28  1  0.01223517  0.68020967  0.01854288  1
  F  F29  1  0.07463531  0.93383275  0.27449047  1
  F  F30  1  0.03739999  0.16563803  0.52030778  1
  F  F31  1  0.15469087  0.05407953  0.07156801  1
  F  F32  1  0.12173046  0.27354805  0.31150280  1
  F  F33  1  0.05930879  0.43868656  0.77953872  1
  F  F34  1  0.22820958  0.37193700  0.11964403  1
  F  F35  1  0.15544156  0.51055659  0.57580750  1
  F  F36  1  0.12995869  0.76604036  0.80752818  1
  F  F37  1  0.25016739  0.64013271  0.37035553  1
  F  F38  1  0.21496864  0.85407161  0.59815667  1
  F  F39  1  0.41622545  0.74719434  0.07667683  1
  F  F40  1  0.42129607  0.59707331  0.22600006  1
  F  F41  1  0.31360861  0.21024746  0.66782980  1
  F  F42  1  0.24132051  0.14435744  0.83859674  1
  F  F43  1  0.33457388  0.97499912  0.39664312  1
  F  F44  1  0.35986250  0.92984522  0.94206489  1
  F  F45  1  0.43192809  0.05377834  0.22377198  1
  F  F46  1  0.31391815  0.48029468  0.92619178  1
  F  F47  1  0.47680617  0.27348209  0.49794306  1
  F  F48  1  0.54374708  0.33966069  0.32750309  1
  F  F49  1  0.45625292  0.66033931  0.67249691  1
  F  F50  1  0.52319383  0.72651791  0.50205694  1
  F  F51  1  0.68608185  0.51970532  0.07380822  1
  F  F52  1  0.56807191  0.94622166  0.77622802  1
  F  F53  1  0.64013750  0.07015478  0.05793511  1
  F  F54  1  0.66542612  0.02500088  0.60335688  1
  F  F55  1  0.75867949  0.85564256  0.16140326  1
  F  F56  1  0.68639139  0.78975254  0.33217020  1
  F  F57  1  0.57870393  0.40292669  0.77399994  1
  F  F58  1  0.58377455  0.25280566  0.92332317  1
  F  F59  1  0.78503136  0.14592839  0.40184333  1
  F  F60  1  0.74983261  0.35986729  0.62964447  1
  F  F61  1  0.87004131  0.23395964  0.19247182  1
  F  F62  1  0.84455844  0.48944341  0.42419250  1
  F  F63  1  0.77179042  0.62806300  0.88035597  1
  F  F64  1  0.94069121  0.56131344  0.22046128  1
  F  F65  1  0.87826954  0.72645195  0.68849720  1
  F  F66  1  0.84530913  0.94592047  0.92843199  1
  F  F67  1  0.96260001  0.83436197  0.47969222  1
  F  F68  1  0.92536469  0.06616725  0.72550953  1
  F  F69  1  0.98776483  0.31979033  0.98145712  1
