# generated using pymatgen
data_FeOF
_symmetry_space_group_name_H-M   'P 1'
_cell_length_a   4.77832786
_cell_length_b   14.33523562
_cell_length_c   3.08052509
_cell_angle_alpha   90.00000000
_cell_angle_beta   90.00000000
_cell_angle_gamma   90.76135431
_symmetry_Int_Tables_number   1
_chemical_formula_structural   FeOF
_chemical_formula_sum   'Fe6 O6 F6'
_cell_volume   210.99258220
_cell_formula_units_Z   6
loop_
 _symmetry_equiv_pos_site_id
 _symmetry_equiv_pos_as_xyz
  1  'x, y, z'
loop_
 _atom_site_type_symbol
 _atom_site_label
 _atom_site_symmetry_multiplicity
 _atom_site_fract_x
 _atom_site_fract_y
 _atom_site_fract_z
 _atom_site_occupancy
  Fe  Fe0  1  0.00915842  0.99929683  0.00000000  1
  Fe  Fe1  1  0.00597303  0.33260551  0.00000000  1
  Fe  Fe2  1  0.02302528  0.66663010  0.00000000  1
  Fe  Fe3  1  0.57832464  0.16544491  0.50000000  1
  Fe  Fe4  1  0.43780293  0.49956830  0.50000000  1
  Fe  Fe5  1  0.44228535  0.83471797  0.50000000  1
  O  O6  1  0.17393689  0.59955992  0.50000000  1
  O  O7  1  0.19951787  0.93932037  0.50000000  1
  O  O8  1  0.28967514  0.76834659  0.00000000  1
  O  O9  1  0.29820354  0.42912252  0.00000000  1
  O  O10  1  0.71755973  0.23822902  0.00000000  1
  O  O11  1  0.82358110  0.06377762  0.50000000  1
  F  F12  1  0.20432525  0.26804346  0.50000000  1
  F  F13  1  0.32824902  0.10971659  0.00000000  1
  F  F14  1  0.67688837  0.56275577  0.00000000  1
  F  F15  1  0.69283118  0.89312735  0.00000000  1
  F  F16  1  0.81077378  0.40134195  0.50000000  1
  F  F17  1  0.78788846  0.72839820  0.50000000  1
