# generated using pymatgen
data_FeOF
_symmetry_space_group_name_H-M   'P 1'
_cell_length_a   9.47776003
_cell_length_b   9.47954418
_cell_length_c   6.20982199
_cell_angle_alpha   89.69574607
_cell_angle_beta   90.11216223
_cell_angle_gamma   90.37365094
_symmetry_Int_Tables_number   1
_chemical_formula_structural   FeOF
_chemical_formula_sum   'Fe16 O16 F16'
_cell_volume   557.89973275
_cell_formula_units_Z   16
loop_
 _symmetry_equiv_pos_site_id
 _symmetry_equiv_pos_as_xyz
  1  'x, y, z'
loop_
 _atom_site_type_symbol
 _atom_site_label
 _atom_site_symmetry_multiplicity
 _atom_site_fract_x
 _atom_site_fract_y
 _atom_site_fract_z
 _atom_site_occupancy
  Fe  Fe0  1  0.98935421  0.99072948  0.01816316  1
  Fe  Fe1  1  0.00974299  0.00951283  0.48391690  1
  Fe  Fe2  1  0.99862335  0.50151630  0.99925862  1
  Fe  Fe3  1  0.00047064  0.49973917  0.49856340  1
  Fe  Fe4  1  0.26633625  0.23029109  0.26897374  1
  Fe  Fe5  1  0.23366375  0.26970891  0.73102626  1
  Fe  Fe6  1  0.23930932  0.76050069  0.22584443  1
  Fe  Fe7  1  0.26069068  0.73949931  0.77415557  1
  Fe  Fe8  1  0.51064579  0.50927052  0.98183684  1
  Fe  Fe9  1  0.49025701  0.49048717  0.51608310  1
  Fe  Fe10  1  0.50137665  0.99848370  0.00074138  1
  Fe  Fe11  1  0.49952936  0.00026083  0.50143660  1
  Fe  Fe12  1  0.75962494  0.24049318  0.22610772  1
  Fe  Fe13  1  0.74037506  0.25950682  0.77389228  1
  Fe  Fe14  1  0.76840825  0.73422707  0.23330228  1
  Fe  Fe15  1  0.73159175  0.76577293  0.76669772  1
  O  O16  1  0.08926484  0.41207115  0.74394306  1
  O  O17  1  0.09660153  0.90402398  0.25263737  1
  O  O18  1  0.15345083  0.15355416  0.50517333  1
  O  O19  1  0.14916926  0.65097642  0.00001270  1
  O  O20  1  0.34654917  0.34644584  0.49482667  1
  O  O21  1  0.35083074  0.84902358  -0.00001270  1
  O  O22  1  0.40339847  0.59597602  0.74736263  1
  O  O23  1  0.41073516  0.08792885  0.25605694  1
  O  O24  1  0.59673292  0.40279701  0.74828103  1
  O  O25  1  0.58964318  0.90996677  0.74042975  1
  O  O26  1  0.65071122  0.14916859  0.00074039  1
  O  O27  1  0.65376038  0.65360634  0.00412966  1
  O  O28  1  0.84928878  0.35083141  0.99925961  1
  O  O29  1  0.84623962  0.84639366  0.99587034  1
  O  O30  1  0.90326708  0.09720299  0.25171897  1
  O  O31  1  0.91035682  0.59003323  0.25957025  1
  F  F32  1  0.10261220  0.39622167  0.25055427  1
  F  F33  1  0.09703135  0.90279022  0.74763115  1
  F  F34  1  0.15453497  0.15415455  0.99541504  1
  F  F35  1  0.15529098  0.65492614  0.49958206  1
  F  F36  1  0.34546503  0.34584545  0.00458496  1
  F  F37  1  0.34470902  0.84507386  0.50041794  1
  F  F38  1  0.39738780  0.10377833  0.74944573  1
  F  F39  1  0.40296865  0.59720978  0.25236885  1
  F  F40  1  0.59670529  0.40346375  0.25265075  1
  F  F41  1  0.60513114  0.89556537  0.26282413  1
  F  F42  1  0.65521387  0.15500527  0.50060812  1
  F  F43  1  0.65312168  0.65335947  0.49588316  1
  F  F44  1  0.84478613  0.34499473  0.49939188  1
  F  F45  1  0.84687832  0.84664053  0.50411684  1
  F  F46  1  0.90329471  0.09653625  0.74734925  1
  F  F47  1  0.89486886  0.60443463  0.73717587  1
