# generated using pymatgen
data_Ni3OF5
_symmetry_space_group_name_H-M   'P 1'
_cell_length_a   4.68460518
_cell_length_b   4.68460825
_cell_length_c   9.28178117
_cell_angle_alpha   90.00000000
_cell_angle_beta   90.00000000
_cell_angle_gamma   90.00000000
_symmetry_Int_Tables_number   1
_chemical_formula_structural   Ni3OF5
_chemical_formula_sum   'Ni6 O2 F10'
_cell_volume   203.69370063
_cell_formula_units_Z   2
loop_
 _symmetry_equiv_pos_site_id
 _symmetry_equiv_pos_as_xyz
  1  'x, y, z'
loop_
 _atom_site_type_symbol
 _atom_site_label
 _atom_site_symmetry_multiplicity
 _atom_site_fract_x
 _atom_site_fract_y
 _atom_site_fract_z
 _atom_site_occupancy
  Ni  Ni0  1  0.00357490  0.99204236  0.66244933  1
  Ni  Ni1  1  0.00357490  0.99204236  0.33755067  1
  Ni  Ni2  1  0.01251137  0.01310401  0.00000000  1
  Ni  Ni3  1  0.49642510  0.49204236  0.16244933  1
  Ni  Ni4  1  0.49642510  0.49204236  0.83755067  1
  Ni  Ni5  1  0.48748863  0.51310401  0.50000000  1
  O  O6  1  0.19261088  0.80548692  0.50000000  1
  O  O7  1  0.30738912  0.30548692  0.00000000  1
  F  F8  1  0.19828065  0.80283317  0.16675189  1
  F  F9  1  0.19828065  0.80283317  0.83324811  1
  F  F10  1  0.30171935  0.30283317  0.33324811  1
  F  F11  1  0.30171935  0.30283317  0.66675189  1
  F  F12  1  0.70531610  0.70393252  0.00000000  1
  F  F13  1  0.69272473  0.69386375  0.33051304  1
  F  F14  1  0.69272473  0.69386375  0.66948696  1
  F  F15  1  0.80727527  0.19386375  0.83051304  1
  F  F16  1  0.80727527  0.19386375  0.16948696  1
  F  F17  1  0.79468390  0.20393252  0.50000000  1
