# generated using pymatgen
data_MnOF
_symmetry_space_group_name_H-M   'P 1'
_cell_length_a   4.53874659
_cell_length_b   5.67656321
_cell_length_c   5.17161793
_cell_angle_alpha   90.00000000
_cell_angle_beta   90.00000000
_cell_angle_gamma   90.00000000
_symmetry_Int_Tables_number   1
_chemical_formula_structural   MnOF
_chemical_formula_sum   'Mn4 O4 F4'
_cell_volume   133.24405661
_cell_formula_units_Z   4
loop_
 _symmetry_equiv_pos_site_id
 _symmetry_equiv_pos_as_xyz
  1  'x, y, z'
loop_
 _atom_site_type_symbol
 _atom_site_label
 _atom_site_symmetry_multiplicity
 _atom_site_fract_x
 _atom_site_fract_y
 _atom_site_fract_z
 _atom_site_occupancy
  Mn  Mn0  1  0.01458843  0.84842623  0.72331740  1
  Mn  Mn1  1  0.01458843  0.15157377  0.22331740  1
  Mn  Mn2  1  0.51458843  0.34842623  0.77668260  1
  Mn  Mn3  1  0.51458843  0.65157377  0.27668260  1
  O  O4  1  0.22632144  0.11585652  0.90216143  1
  O  O5  1  0.22632144  0.88414348  0.40216143  1
  O  O6  1  0.72632144  0.38414348  0.09783857  1
  O  O7  1  0.72632144  0.61585652  0.59783857  1
  F  F8  1  0.25909014  0.38149299  0.46135091  1
  F  F9  1  0.25909014  0.61850701  0.96135091  1
  F  F10  1  0.75909014  0.11850701  0.53864909  1
  F  F11  1  0.75909014  0.88149299  0.03864909  1
