# generated using pymatgen
data_LiNi(CO3)2
_symmetry_space_group_name_H-M   'P 1'
_cell_length_a   6.46711048
_cell_length_b   7.65313996
_cell_length_c   5.20611393
_cell_angle_alpha   90.00000000
_cell_angle_beta   113.64976218
_cell_angle_gamma   90.00000000
_symmetry_Int_Tables_number   1
_chemical_formula_structural   LiNi(CO3)2
_chemical_formula_sum   'Li2 Ni2 C4 O12'
_cell_volume   236.02936371
_cell_formula_units_Z   2
loop_
 _symmetry_equiv_pos_site_id
 _symmetry_equiv_pos_as_xyz
  1  'x, y, z'
loop_
 _atom_site_type_symbol
 _atom_site_label
 _atom_site_symmetry_multiplicity
 _atom_site_fract_x
 _atom_site_fract_y
 _atom_site_fract_z
 _atom_site_occupancy
  Li  Li0  1  0.67364130  0.05793193  0.37891860  1
  Li  Li1  1  0.82635870  0.55793193  0.62108140  1
  Ni  Ni2  1  0.00860287  0.99729152  0.00686609  1
  Ni  Ni3  1  0.49139713  0.49729152  0.99313391  1
  C  C4  1  0.11496378  0.26106581  0.86970256  1
  C  C5  1  0.62581903  0.24134889  0.85637514  1
  C  C6  1  0.38503622  0.76106581  0.13029744  1
  C  C7  1  0.87418097  0.74134889  0.14362486  1
  O  O8  1  0.07156892  0.12013005  0.71662423  1
  O  O9  1  0.15216076  0.40887750  0.78649799  1
  O  O10  1  0.39305954  0.73460780  0.88752179  1
  O  O11  1  0.10694046  0.23460780  0.11247821  1
  O  O12  1  0.34783924  0.90887750  0.21350201  1
  O  O13  1  0.42843108  0.62013005  0.28337577  1
  O  O14  1  0.59351329  0.38964629  0.72080931  1
  O  O15  1  0.67776757  0.10109170  0.76821637  1
  O  O16  1  0.90526667  0.75278652  0.91003111  1
  O  O17  1  0.59473333  0.25278652  0.08996889  1
  O  O18  1  0.82223243  0.60109170  0.23178363  1
  O  O19  1  0.90648671  0.88964629  0.27919069  1
