# generated using pymatgen
data_Li2Co2(SiO3)3
_symmetry_space_group_name_H-M   'P 1'
_cell_length_a   10.56842828
_cell_length_b   7.23080758
_cell_length_c   12.18872933
_cell_angle_alpha   90.00000000
_cell_angle_beta   110.42951881
_cell_angle_gamma   90.00000000
_symmetry_Int_Tables_number   1
_chemical_formula_structural   Li2Co2(SiO3)3
_chemical_formula_sum   'Li8 Co8 Si12 O36'
_cell_volume   872.85607103
_cell_formula_units_Z   4
loop_
 _symmetry_equiv_pos_site_id
 _symmetry_equiv_pos_as_xyz
  1  'x, y, z'
loop_
 _atom_site_type_symbol
 _atom_site_label
 _atom_site_symmetry_multiplicity
 _atom_site_fract_x
 _atom_site_fract_y
 _atom_site_fract_z
 _atom_site_occupancy
  Li  Li0  1  0.05221428  0.96250975  0.63248569  1
  Li  Li1  1  0.05221428  0.53749025  0.13248569  1
  Li  Li2  1  0.45703719  0.06419412  0.65899814  1
  Li  Li3  1  0.54296281  0.56419312  0.84100186  1
  Li  Li4  1  0.45703719  0.43580688  0.15899814  1
  Li  Li5  1  0.54296281  0.93580688  0.34100186  1
  Li  Li6  1  0.94778572  0.46250975  0.86751431  1
  Li  Li7  1  0.94778572  0.03749025  0.36751431  1
  Co  Co8  1  0.05558473  0.89643664  0.92421418  1
  Co  Co9  1  0.05558473  0.60356336  0.42421418  1
  Co  Co10  1  0.43476450  0.63339326  0.56047343  1
  Co  Co11  1  0.56523550  0.13339326  0.93952657  1
  Co  Co12  1  0.43476450  0.86660674  0.06047343  1
  Co  Co13  1  0.56523550  0.36660674  0.43952657  1
  Co  Co14  1  0.94441527  0.39643664  0.57578582  1
  Co  Co15  1  0.94441527  0.10356336  0.07578582  1
  Si  Si16  1  0.22914575  0.54675605  0.93775272  1
  Si  Si17  1  0.23966879  0.15295014  0.85501567  1
  Si  Si18  1  0.25752342  0.47400346  0.70298485  1
  Si  Si19  1  0.22914575  0.95324395  0.43775272  1
  Si  Si20  1  0.23966879  0.34704986  0.35501567  1
  Si  Si21  1  0.25752342  0.02599654  0.20298485  1
  Si  Si22  1  0.74247658  0.97400346  0.79701515  1
  Si  Si23  1  0.76033121  0.65295014  0.64498433  1
  Si  Si24  1  0.77085425  0.04675605  0.56224728  1
  Si  Si25  1  0.74247658  0.52599654  0.29701515  1
  Si  Si26  1  0.76033121  0.84704986  0.14498433  1
  Si  Si27  1  0.77085425  0.45324395  0.06224728  1
  O  O28  1  0.09472930  0.63120361  0.95672333  1
  O  O29  1  0.11324486  0.01174607  0.80388013  1
  O  O30  1  0.12566534  0.49496902  0.58539310  1
  O  O31  1  0.20520175  0.31954070  0.93435539  1
  O  O32  1  0.09472930  0.86879639  0.45672333  1
  O  O33  1  0.23617652  0.59953637  0.80852050  1
  O  O34  1  0.26764551  0.25194166  0.74269436  1
  O  O35  1  0.11324486  0.48825393  0.30388013  1
  O  O36  1  0.37066955  0.60730576  0.03895923  1
  O  O37  1  0.12566534  0.00503098  0.08539310  1
  O  O38  1  0.38026421  0.05459811  0.93295947  1
  O  O39  1  0.20520175  0.18045930  0.43435539  1
  O  O40  1  0.23617652  0.90046363  0.30852050  1
  O  O41  1  0.40233611  0.53234937  0.69547394  1
  O  O42  1  0.26764551  0.24805834  0.24269436  1
  O  O43  1  0.37066955  0.89269424  0.53895923  1
  O  O44  1  0.38026421  0.44540189  0.43295947  1
  O  O45  1  0.40233611  0.96765063  0.19547394  1
  O  O46  1  0.59766389  0.03234937  0.80452606  1
  O  O47  1  0.61973579  0.55459811  0.56704053  1
  O  O48  1  0.62933045  0.10730576  0.46104077  1
  O  O49  1  0.73235449  0.75194166  0.75730564  1
  O  O50  1  0.59766389  0.46765063  0.30452606  1
  O  O51  1  0.76382348  0.09953637  0.69147950  1
  O  O52  1  0.79479725  0.81954070  0.56564461  1
  O  O53  1  0.61973579  0.94540189  0.06704053  1
  O  O54  1  0.87433466  0.99496902  0.91460690  1
  O  O55  1  0.62933045  0.39269424  0.96104077  1
  O  O56  1  0.88675514  0.51174607  0.69611987  1
  O  O57  1  0.73235449  0.74805834  0.25730564  1
  O  O58  1  0.76382348  0.40046363  0.19147950  1
  O  O59  1  0.90527070  0.13120361  0.54327667  1
  O  O60  1  0.79479725  0.68045930  0.06564461  1
  O  O61  1  0.87433466  0.50503098  0.41460590  1
  O  O62  1  0.88675514  0.98825393  0.19611987  1
  O  O63  1  0.90527070  0.36879639  0.04327667  1
