# generated using pymatgen
data_Li3V3(PO4)4
_symmetry_space_group_name_H-M   'P 1'
_cell_length_a   8.72359732
_cell_length_b   11.28740163
_cell_length_c   6.18860456
_cell_angle_alpha   89.99999221
_cell_angle_beta   100.84398626
_cell_angle_gamma   89.99998655
_symmetry_Int_Tables_number   1
_chemical_formula_structural   Li3V3(PO4)4
_chemical_formula_sum   'Li6 V6 P8 O32'
_cell_volume   598.49027077
_cell_formula_units_Z   2
loop_
 _symmetry_equiv_pos_site_id
 _symmetry_equiv_pos_as_xyz
  1  'x, y, z'
loop_
 _atom_site_type_symbol
 _atom_site_label
 _atom_site_symmetry_multiplicity
 _atom_site_fract_x
 _atom_site_fract_y
 _atom_site_fract_z
 _atom_site_occupancy
  Li  Li0  1  0.06480255  0.61002590  0.59974146  1
  Li  Li1  1  0.07190471  0.88922718  0.08884806  1
  Li  Li2  1  0.34672482  0.19302897  0.15882909  1
  Li  Li3  1  0.65327538  0.69302916  0.34117089  1
  Li  Li4  1  0.93519725  0.11002591  0.90025867  1
  Li  Li5  1  0.92809528  0.38922713  0.41115187  1
  V  V6  1  0.26320381  0.90981086  0.65247658  1
  V  V7  1  0.27457653  0.58882357  0.17075762  1
  V  V8  1  0.33663894  0.31017127  0.63645245  1
  V  V9  1  0.66336095  0.81017118  0.86354750  1
  V  V10  1  0.73679627  0.40981103  0.84752326  1
  V  V11  1  0.72542162  0.08882465  0.32924244  1
  P  P12  1  0.10245075  0.36730094  0.88499678  1
  P  P13  1  0.08525262  0.13113158  0.38155681  1
  P  P14  1  0.39867896  0.59180486  0.70695568  1
  P  P15  1  0.41140495  0.90954076  0.18493096  1
  P  P16  1  0.60132108  0.09180503  0.79304513  1
  P  P17  1  0.58859503  0.40954069  0.31506876  1
  P  P18  1  0.89754943  0.86730090  0.61500313  1
  P  P19  1  0.91474709  0.63113163  0.11844301  1
  O  O20  1  0.10544621  0.43040464  0.66334043  1
  O  O21  1  0.05941244  0.81363199  0.60054164  1
  O  O22  1  0.07977785  0.06241659  0.16904802  1
  O  O23  1  0.07265384  0.68843232  0.09753260  1
  O  O24  1  0.14791810  0.05379854  0.58978295  1
  O  O25  1  0.22650297  0.26709348  0.88690270  1
  O  O26  1  0.15701687  0.44663493  0.08901350  1
  O  O27  1  0.30026955  0.62843705  0.87817345  1
  O  O28  1  0.27942398  0.91057335  0.97379260  1
  O  O29  1  0.20559884  0.23426562  0.38580480  1
  O  O30  1  0.32524686  0.86653483  0.37209032  1
  O  O31  1  0.28195283  0.60352897  0.48640144  1
  O  O32  1  0.46856780  0.18095970  0.78588330  1
  O  O33  1  0.46559318  0.46208876  0.73995360  1
  O  O34  1  0.46789315  0.31656421  0.35496362  1
  O  O35  1  0.53440689  0.96208884  0.76004629  1
  O  O36  1  0.48476072  0.03376867  0.23854796  1
  O  O37  1  0.53143218  0.68095970  0.71411685  1
  O  O38  1  0.51523909  0.53376873  0.26145190  1
  O  O39  1  0.53210705  0.81656428  0.14503621  1
  O  O40  1  0.72057571  0.41057315  0.52620708  1
  O  O41  1  0.69973101  0.12843733  0.62182742  1
  O  O42  1  0.77349713  0.76709359  0.61309708  1
  O  O43  1  0.71804774  0.10352916  0.01359864  1
  O  O44  1  0.67475303  0.36653475  0.12790980  1
  O  O45  1  0.85208224  0.55379843  0.91021684  1
  O  O46  1  0.79440140  0.73426564  0.11419551  1
  O  O47  1  0.84298270  0.94663554  0.41098617  1
  O  O48  1  0.94058761  0.31363201  0.89945817  1
  O  O49  1  0.89455367  0.93040470  0.83665930  1
  O  O50  1  0.92734704  0.18843266  0.40246744  1
  O  O51  1  0.92022230  0.56241665  0.33095218  1
