# generated using pymatgen
data_Li2VO2F
_symmetry_space_group_name_H-M   'P 1'
_cell_length_a   4.03393605
_cell_length_b   4.06125522
_cell_length_c   7.13729360
_cell_angle_alpha   90.00000000
_cell_angle_beta   73.58481421
_cell_angle_gamma   90.00000000
_symmetry_Int_Tables_number   1
_chemical_formula_structural   Li2VO2F
_chemical_formula_sum   'Li4 V2 O4 F2'
_cell_volume   112.16302942
_cell_formula_units_Z   2
loop_
 _symmetry_equiv_pos_site_id
 _symmetry_equiv_pos_as_xyz
  1  'x, y, z'
loop_
 _atom_site_type_symbol
 _atom_site_label
 _atom_site_symmetry_multiplicity
 _atom_site_fract_x
 _atom_site_fract_y
 _atom_site_fract_z
 _atom_site_occupancy
  Li  Li0  1  0.48870404  0.50000000  0.02259292  1
  Li  Li1  1  0.34462996  0.00000000  0.31074108  1
  Li  Li2  1  0.65565766  0.00000000  0.68868569  1
  Li  Li3  1  0.17767634  0.50000000  0.64464731  1
  V  V4  1  0.99919116  0.00000000  0.00161768  1
  V  V5  1  0.83414184  0.50000000  0.33171532  1
  O  O6  1  0.50799790  0.00000000  0.98400420  1
  O  O7  1  0.98799311  0.50000000  0.02401377  1
  O  O8  1  0.84533989  0.00000000  0.30931923  1
  O  O9  1  0.32533510  0.50000000  0.34932980  1
  F  F10  1  0.15586762  0.00000000  0.68826477  1
  F  F11  1  0.67746538  0.50000000  0.64506923  1
