# generated using pymatgen
data_LiV(PO3)3
_symmetry_space_group_name_H-M   'P 1'
_cell_length_a   6.49146057
_cell_length_b   6.49165886
_cell_length_c   9.70472783
_cell_angle_alpha   89.99995995
_cell_angle_beta   90.00056025
_cell_angle_gamma   120.00112150
_symmetry_Int_Tables_number   1
_chemical_formula_structural   LiV(PO3)3
_chemical_formula_sum   'Li2 V2 P6 O18'
_cell_volume   354.16626926
_cell_formula_units_Z   2
loop_
 _symmetry_equiv_pos_site_id
 _symmetry_equiv_pos_as_xyz
  1  'x, y, z'
loop_
 _atom_site_type_symbol
 _atom_site_label
 _atom_site_symmetry_multiplicity
 _atom_site_fract_x
 _atom_site_fract_y
 _atom_site_fract_z
 _atom_site_occupancy
  Li  Li0  1  0.66674904  0.33350225  0.49999993  1
  Li  Li1  1  0.66674934  0.33324723  0.00000051  1
  V  V2  1  0.33331225  0.66667598  0.99999237  1
  V  V3  1  0.33330784  0.66663191  0.50000101  1
  P  P4  1  0.02163241  0.74689935  0.74999915  1
  P  P5  1  0.25309952  0.97837969  0.25001471  1
  P  P6  1  0.02163379  0.27473507  0.25000038  1
  P  P7  1  0.25309958  0.27471894  0.75001285  1
  P  P8  1  0.72526137  0.97833996  0.74998415  1
  P  P9  1  0.72526063  0.74692032  0.24998673  1
  O  O10  1  0.02700165  0.63312189  0.88372155  1
  O  O11  1  0.02699232  0.63312835  0.61626503  1
  O  O12  1  0.36683148  0.97295816  0.38371742  1
  O  O13  1  0.36688980  0.97302634  0.11625765  1
  O  O14  1  0.02699379  0.39386784  0.11626412  1
  O  O15  1  0.02700056  0.39388138  0.38372075  1
  O  O16  1  0.36683479  0.39387412  0.88371886  1
  O  O17  1  0.36689042  0.39386255  0.61625867  1
  O  O18  1  0.60607566  0.97291130  0.61629658  1
  O  O19  1  0.60614711  0.97299609  0.88375628  1
  O  O20  1  0.23281592  0.21403507  0.25000889  1
  O  O21  1  0.23281586  0.01877984  0.75000912  1
  O  O22  1  0.60614866  0.63315422  0.38375421  1
  O  O23  1  0.60607628  0.63316325  0.11629479  1
  O  O24  1  0.78597904  0.76718430  0.75000616  1
  O  O25  1  0.98120896  0.76721281  0.24997698  1
  O  O26  1  0.78598121  0.01879514  0.25000525  1
  O  O27  1  0.98120871  0.21399467  0.74997690  1
