# generated using pymatgen
data_Li2Co2Si2O7
_symmetry_space_group_name_H-M   'P 1'
_cell_length_a   4.98825145
_cell_length_b   5.26032295
_cell_length_c   13.41795568
_cell_angle_alpha   90.00000000
_cell_angle_beta   90.00000000
_cell_angle_gamma   118.30332939
_symmetry_Int_Tables_number   1
_chemical_formula_structural   Li2Co2Si2O7
_chemical_formula_sum   'Li4 Co4 Si4 O14'
_cell_volume   309.99286609
_cell_formula_units_Z   2
loop_
 _symmetry_equiv_pos_site_id
 _symmetry_equiv_pos_as_xyz
  1  'x, y, z'
loop_
 _atom_site_type_symbol
 _atom_site_label
 _atom_site_symmetry_multiplicity
 _atom_site_fract_x
 _atom_site_fract_y
 _atom_site_fract_z
 _atom_site_occupancy
  Li  Li0  1  0.01108249  0.00000000  0.00000000  1
  Li  Li1  1  0.01108249  0.00000000  0.50000000  1
  Li  Li2  1  0.01438570  0.03958467  0.25000000  1
  Li  Li3  1  0.97480103  0.96041533  0.75000000  1
  Co  Co4  1  0.34645427  0.56694652  0.58194129  1
  Co  Co5  1  0.34645427  0.56694652  0.91805871  1
  Co  Co6  1  0.77950775  0.43305348  0.08194129  1
  Co  Co7  1  0.77950775  0.43305348  0.41805871  1
  Si  Si8  1  0.43327893  0.76947837  0.13955831  1
  Si  Si9  1  0.43327893  0.76947837  0.36044169  1
  Si  Si10  1  0.66380056  0.23052163  0.63955831  1
  Si  Si11  1  0.66380056  0.23052163  0.86044169  1
  O  O12  1  0.13020331  0.80831540  0.12448290  1
  O  O13  1  0.13020331  0.80831540  0.37551710  1
  O  O14  1  0.42975125  0.62277628  0.25000000  1
  O  O15  1  0.67246784  0.92478039  0.86881200  1
  O  O16  1  0.67246784  0.92478039  0.63118800  1
  O  O17  1  0.44378047  0.53278245  0.06126896  1
  O  O18  1  0.44378047  0.53278245  0.43873104  1
  O  O19  1  0.32188691  0.19168460  0.87551710  1
  O  O20  1  0.32188691  0.19168460  0.62448290  1
  O  O21  1  0.80697597  0.37722372  0.75000000  1
  O  O22  1  0.74768745  0.07521961  0.36881200  1
  O  O23  1  0.74768745  0.07521961  0.13118800  1
  O  O24  1  0.91099702  0.46721755  0.56126896  1
  O  O25  1  0.91099702  0.46721755  0.93873104  1
