# generated using pymatgen
data_K3TiCl6
_symmetry_space_group_name_H-M   'P 1'
_cell_length_a   6.61351179
_cell_length_b   14.47555463
_cell_length_c   16.38472881
_cell_angle_alpha   122.93059586
_cell_angle_beta   90.00000000
_cell_angle_gamma   90.00000000
_symmetry_Int_Tables_number   1
_chemical_formula_structural   K3TiCl6
_chemical_formula_sum   'K12 Ti4 Cl24'
_cell_volume   1316.55555022
_cell_formula_units_Z   4
loop_
 _symmetry_equiv_pos_site_id
 _symmetry_equiv_pos_as_xyz
  1  'x, y, z'
loop_
 _atom_site_type_symbol
 _atom_site_label
 _atom_site_symmetry_multiplicity
 _atom_site_fract_x
 _atom_site_fract_y
 _atom_site_fract_z
 _atom_site_occupancy
  K  K0  1  0.01396118  0.19049557  0.25756858  1
  K  K1  1  0.51684822  0.93949223  0.62454488  1
  K  K2  1  0.95602135  0.83657527  0.14547084  1
  K  K3  1  0.01684822  0.56050777  0.37545512  1
  K  K4  1  0.51396118  0.30950443  0.74243142  1
  K  K5  1  0.45602135  0.66342473  0.85452916  1
  K  K6  1  0.54397865  0.33657527  0.14547084  1
  K  K7  1  0.98603882  0.80950443  0.74243142  1
  K  K8  1  0.04397865  0.16342473  0.85452916  1
  K  K9  1  0.48315178  0.06050777  0.37545512  1
  K  K10  1  0.48603882  0.69049557  0.25756858  1
  K  K11  1  0.98315178  0.43949223  0.62454488  1
  Ti  Ti12  1  0.00000000  0.50000000  0.00000000  1
  Ti  Ti13  1  0.50000000  0.00000000  0.00000000  1
  Ti  Ti14  1  0.50000000  0.50000000  0.50000000  1
  Ti  Ti15  1  0.00000000  0.00000000  0.50000000  1
  Cl  Cl16  1  0.65948517  0.03094992  0.14134525  1
  Cl  Cl17  1  0.93255230  0.66805689  0.81683908  1
  Cl  Cl18  1  0.51891396  0.53210542  0.36463281  1
  Cl  Cl19  1  0.32943672  0.67473167  0.59368259  1
  Cl  Cl20  1  0.01891396  0.96789458  0.63536719  1
  Cl  Cl21  1  0.17056328  0.17473167  0.59368259  1
  Cl  Cl22  1  0.30671029  0.90218478  0.43842980  1
  Cl  Cl23  1  0.84051483  0.53094992  0.14134525  1
  Cl  Cl24  1  0.74339265  0.59581740  0.98186411  1
  Cl  Cl25  1  0.34051483  0.96905008  0.85865475  1
  Cl  Cl26  1  0.82943672  0.82526833  0.40631741  1
  Cl  Cl27  1  0.48108604  0.46789458  0.63536719  1
  Cl  Cl28  1  0.69328971  0.09781522  0.56157020  1
  Cl  Cl29  1  0.80671029  0.59781522  0.56157020  1
  Cl  Cl30  1  0.75660735  0.09581740  0.98186411  1
  Cl  Cl31  1  0.98108604  0.03210542  0.36463281  1
  Cl  Cl32  1  0.15948517  0.46905008  0.85865475  1
  Cl  Cl33  1  0.25660735  0.40418260  0.01813589  1
  Cl  Cl34  1  0.56744770  0.16805689  0.81683908  1
  Cl  Cl35  1  0.43255230  0.83194311  0.18316092  1
  Cl  Cl36  1  0.67056328  0.32526833  0.40631741  1
  Cl  Cl37  1  0.19328971  0.40218478  0.43842980  1
  Cl  Cl38  1  0.06744770  0.33194311  0.18316092  1
  Cl  Cl39  1  0.24339265  0.90418260  0.01813589  1
