# generated using pymatgen
data_Mn2VO4
_symmetry_space_group_name_H-M   'P 1'
_cell_length_a   6.14394782
_cell_length_b   6.14394782
_cell_length_c   6.18119235
_cell_angle_alpha   60.19911371
_cell_angle_beta   90.00000000
_cell_angle_gamma   120.00000000
_symmetry_Int_Tables_number   1
_chemical_formula_structural   Mn2VO4
_chemical_formula_sum   'Mn4 V2 O8'
_cell_volume   165.48278351
_cell_formula_units_Z   2
loop_
 _symmetry_equiv_pos_site_id
 _symmetry_equiv_pos_as_xyz
  1  'x, y, z'
loop_
 _atom_site_type_symbol
 _atom_site_label
 _atom_site_symmetry_multiplicity
 _atom_site_fract_x
 _atom_site_fract_y
 _atom_site_fract_z
 _atom_site_occupancy
  Mn  Mn0  1  0.62329120  0.24658240  0.62675362  1
  Mn  Mn1  1  0.25490797  0.50981593  0.23527610  1
  Mn  Mn2  1  0.62329120  0.74995518  0.62675362  1
  Mn  Mn3  1  0.12666398  0.74995518  0.62675362  1
  V  V4  1  0.62127807  0.24255513  0.13616680  1
  V  V5  1  0.99420707  0.98841414  0.01737979  1
  O  O6  1  0.84627014  0.24526825  0.35573263  1
  O  O7  1  0.39899811  0.24526825  0.35573263  1
  O  O8  1  0.86683213  0.73366527  0.39950260  1
  O  O9  1  0.86147790  0.24576149  0.89276061  1
  O  O10  1  0.86147790  0.72295481  0.89276061  1
  O  O11  1  0.38428358  0.24576149  0.89276061  1
  O  O12  1  0.39899811  0.79799723  0.35573263  1
  O  O13  1  0.38802263  0.77604526  0.83593211  1
