# generated using pymatgen
data_Li3Mn8(OF3)4
_symmetry_space_group_name_H-M   'P 1'
_cell_length_a   6.40387777
_cell_length_b   10.35959345
_cell_length_c   6.20121372
_cell_angle_alpha   107.41544835
_cell_angle_beta   118.95852958
_cell_angle_gamma   89.03070106
_symmetry_Int_Tables_number   1
_chemical_formula_structural   Li3Mn8(OF3)4
_chemical_formula_sum   'Li3 Mn8 O4 F12'
_cell_volume   339.39995740
_cell_formula_units_Z   1
loop_
 _symmetry_equiv_pos_site_id
 _symmetry_equiv_pos_as_xyz
  1  'x, y, z'
loop_
 _atom_site_type_symbol
 _atom_site_label
 _atom_site_symmetry_multiplicity
 _atom_site_fract_x
 _atom_site_fract_y
 _atom_site_fract_z
 _atom_site_occupancy
  Li  Li0  1  0.00000000  0.00000000  0.00000000  1
  Li  Li1  1  0.80549220  0.42109070  0.61329145  1
  Li  Li2  1  0.19450780  0.57890930  0.38670855  1
  Mn  Mn3  1  0.50000000  0.00000000  0.50000000  1
  Mn  Mn4  1  0.50000000  0.00000000  0.00000000  1
  Mn  Mn5  1  0.25907203  0.24780213  0.50384098  1
  Mn  Mn6  1  0.25907203  0.24780213  0.00303318  1
  Mn  Mn7  1  0.75377716  0.27658291  0.01517954  1
  Mn  Mn8  1  0.24622284  0.72341709  0.98482046  1
  Mn  Mn9  1  0.74092797  0.75219787  0.49615902  1
  Mn  Mn10  1  0.74092797  0.75219787  0.99696682  1
  O  O11  1  0.35932431  0.11236678  0.23584555  1
  O  O12  1  0.41414391  0.13150793  0.77282642  1
  O  O13  1  0.58585609  0.86849207  0.22717358  1
  O  O14  1  0.64067569  0.88763322  0.76415445  1
  F  F15  1  0.89129692  0.13380287  0.23336027  1
  F  F16  1  0.89129692  0.13380287  0.79173952  1
  F  F17  1  0.11693253  0.35841361  0.73767307  1
  F  F18  1  0.12644750  0.37615116  0.25129983  1
  F  F19  1  0.61170876  0.37008814  0.73138200  1
  F  F20  1  0.61170876  0.37008814  0.25041489  1
  F  F21  1  0.38829124  0.62991186  0.26861800  1
  F  F22  1  0.38829124  0.62991186  0.74958511  1
  F  F23  1  0.87355250  0.62384884  0.74870017  1
  F  F24  1  0.88306747  0.64158639  0.26232693  1
  F  F25  1  0.10870308  0.86619713  0.76663973  1
  F  F26  1  0.10870308  0.86619713  0.20826048  1
