# generated using pymatgen
data_LiVP2O7
_symmetry_space_group_name_H-M   'P 1'
_cell_length_a   7.04215250
_cell_length_b   8.48319043
_cell_length_c   9.26368378
_cell_angle_alpha   90.00000000
_cell_angle_beta   112.27086003
_cell_angle_gamma   90.00000000
_symmetry_Int_Tables_number   1
_chemical_formula_structural   LiVP2O7
_chemical_formula_sum   'Li4 V4 P8 O28'
_cell_volume   512.12864977
_cell_formula_units_Z   4
loop_
 _symmetry_equiv_pos_site_id
 _symmetry_equiv_pos_as_xyz
  1  'x, y, z'
loop_
 _atom_site_type_symbol
 _atom_site_label
 _atom_site_symmetry_multiplicity
 _atom_site_fract_x
 _atom_site_fract_y
 _atom_site_fract_z
 _atom_site_occupancy
  Li  Li0  1  0.10084273  0.57149858  0.90304314  1
  Li  Li1  1  0.39915727  0.07149858  0.59695686  1
  Li  Li2  1  0.60084273  0.92850142  0.40304314  1
  Li  Li3  1  0.89915727  0.42850142  0.09695686  1
  V  V4  1  0.11627350  0.92891480  0.81111875  1
  V  V5  1  0.38372650  0.42891480  0.68888125  1
  V  V6  1  0.61627350  0.57108520  0.31111875  1
  V  V7  1  0.88372650  0.07108520  0.18888125  1
  P  P8  1  0.05822271  0.71543099  0.53297094  1
  P  P9  1  0.44177729  0.21543099  0.96702906  1
  P  P10  1  0.17367831  0.73688290  0.24027423  1
  P  P11  1  0.32632169  0.23688290  0.25972577  1
  P  P12  1  0.67367831  0.76311710  0.74027423  1
  P  P13  1  0.82632169  0.26311710  0.75972577  1
  P  P14  1  0.55822271  0.78456901  0.03297094  1
  P  P15  1  0.94177729  0.28456901  0.46702906  1
  O  O16  1  0.14477668  0.58455673  0.65153894  1
  O  O17  1  0.12849163  0.88053110  0.60846543  1
  O  O18  1  0.32081796  0.78376991  0.95321625  1
  O  O19  1  0.17918204  0.28376991  0.54678375  1
  O  O20  1  0.37150837  0.38053110  0.89153457  1
  O  O21  1  0.15181093  0.68963068  0.40418134  1
  O  O22  1  0.35522332  0.08455673  0.84846106  1
  O  O23  1  0.09205144  0.24800786  0.20924643  1
  O  O24  1  0.07276251  0.90035770  0.19381277  1
  O  O25  1  0.07827836  0.60973667  0.12255196  1
  O  O26  1  0.65181093  0.81036932  0.90418134  1
  O  O27  1  0.42172164  0.10973667  0.37744804  1
  O  O28  1  0.59205144  0.25199214  0.70924643  1
  O  O29  1  0.57276251  0.59964230  0.69381277  1
  O  O30  1  0.42723749  0.40035770  0.30618723  1
  O  O31  1  0.40794856  0.74800786  0.29075357  1
  O  O32  1  0.57827836  0.89026333  0.62255196  1
  O  O33  1  0.34818907  0.18963068  0.09581866  1
  O  O34  1  0.92172164  0.39026333  0.87744804  1
  O  O35  1  0.92723749  0.09964230  0.80618723  1
  O  O36  1  0.90794856  0.75199214  0.79075357  1
  O  O37  1  0.64477668  0.91544327  0.15153894  1
  O  O38  1  0.84818907  0.31036932  0.59581866  1
  O  O39  1  0.62849163  0.61946890  0.10846543  1
  O  O40  1  0.82081796  0.71623009  0.45321625  1
  O  O41  1  0.67918204  0.21623009  0.04678375  1
  O  O42  1  0.87150837  0.11946890  0.39153457  1
  O  O43  1  0.85522332  0.41544327  0.34846106  1
