# generated using pymatgen
data_Li5V(P2O7)2
_symmetry_space_group_name_H-M   'P 1'
_cell_length_a   8.82705667
_cell_length_b   9.14088169
_cell_length_c   7.08615038
_cell_angle_alpha   77.47006985
_cell_angle_beta   110.31702632
_cell_angle_gamma   103.03680700
_symmetry_Int_Tables_number   1
_chemical_formula_structural   Li5V(P2O7)2
_chemical_formula_sum   'Li10 V2 P8 O28'
_cell_volume   516.32077250
_cell_formula_units_Z   2
loop_
 _symmetry_equiv_pos_site_id
 _symmetry_equiv_pos_as_xyz
  1  'x, y, z'
loop_
 _atom_site_type_symbol
 _atom_site_label
 _atom_site_symmetry_multiplicity
 _atom_site_fract_x
 _atom_site_fract_y
 _atom_site_fract_z
 _atom_site_occupancy
  Li  Li0  1  0.18363019  0.72245643  0.69418257  1
  Li  Li1  1  0.24426496  0.40745292  0.76651975  1
  Li  Li2  1  0.25900302  0.88389712  0.24202801  1
  Li  Li3  1  0.52518895  0.86545569  0.96369782  1
  Li  Li4  1  0.47800432  0.65046292  0.58271863  1
  Li  Li5  1  0.52199568  0.34953708  0.41728137  1
  Li  Li6  1  0.47481105  0.13454431  0.03630218  1
  Li  Li7  1  0.74099698  0.11610288  0.75797199  1
  Li  Li8  1  0.75573504  0.59254708  0.23348025  1
  Li  Li9  1  0.81636981  0.27754357  0.30581743  1
  V  V10  1  0.12545473  0.23609354  0.12938666  1
  V  V11  1  0.87454527  0.76390646  0.87061334  1
  P  P12  1  0.11871697  0.01660326  0.83122202  1
  P  P13  1  0.10861632  0.54906370  0.30555604  1
  P  P14  1  0.33793388  0.04883471  0.58602977  1
  P  P15  1  0.38253942  0.57106088  0.13183359  1
  P  P16  1  0.61746058  0.42893912  0.86816641  1
  P  P17  1  0.66206612  0.95116529  0.41397023  1
  P  P18  1  0.89138368  0.45093630  0.69444396  1
  P  P19  1  0.88128303  0.98339674  0.16877798  1
  O  O20  1  0.02053498  0.35046856  0.82458925  1
  O  O21  1  0.14133390  0.85059411  0.92072472  1
  O  O22  1  0.06563736  0.99011133  0.22256919  1
  O  O23  1  0.06075608  0.38289950  0.26762804  1
  O  O24  1  0.22898290  0.13374595  0.97047050  1
  O  O25  1  0.16940409  0.56702758  0.52892581  1
  O  O26  1  0.17074448  0.06669045  0.62998941  1
  O  O27  1  0.37841596  0.67293603  0.93160333  1
  O  O28  1  0.31221582  0.88839863  0.53944046  1
  O  O29  1  0.27067688  0.62780333  0.23438656  1
  O  O30  1  0.33815093  0.17746711  0.40487378  1
  O  O31  1  0.30793921  0.40566719  0.09606971  1
  O  O32  1  0.48384437  0.07162643  0.78086524  1
  O  O33  1  0.45086694  0.42501027  0.70378395  1
  O  O34  1  0.54913306  0.57498973  0.29621605  1
  O  O35  1  0.51615563  0.92837357  0.21913476  1
  O  O36  1  0.69206079  0.59433281  0.90393029  1
  O  O37  1  0.66184907  0.82253289  0.59512522  1
  O  O38  1  0.72932412  0.37219667  0.76561344  1
  O  O39  1  0.68778418  0.11160137  0.46055954  1
  O  O40  1  0.62158404  0.32706397  0.06839667  1
  O  O41  1  0.82925552  0.93330955  0.37001059  1
  O  O42  1  0.83059591  0.43297242  0.47107419  1
  O  O43  1  0.77101710  0.86625405  0.02952950  1
  O  O44  1  0.93924392  0.61710050  0.73237196  1
  O  O45  1  0.93436264  0.00988867  0.77743081  1
  O  O46  1  0.85866610  0.14940589  0.07927528  1
  O  O47  1  0.97946502  0.64953144  0.17541075  1
