# generated using pymatgen
data_LiV2P5O16
_symmetry_space_group_name_H-M   'P 1'
_cell_length_a   7.59029222
_cell_length_b   9.51643120
_cell_length_c   10.35468710
_cell_angle_alpha   90.00000000
_cell_angle_beta   111.43136575
_cell_angle_gamma   90.00000000
_symmetry_Int_Tables_number   1
_chemical_formula_structural   LiV2P5O16
_chemical_formula_sum   'Li2 V4 P10 O32'
_cell_volume   696.22891787
_cell_formula_units_Z   2
loop_
 _symmetry_equiv_pos_site_id
 _symmetry_equiv_pos_as_xyz
  1  'x, y, z'
loop_
 _atom_site_type_symbol
 _atom_site_label
 _atom_site_symmetry_multiplicity
 _atom_site_fract_x
 _atom_site_fract_y
 _atom_site_fract_z
 _atom_site_occupancy
  Li  Li0  1  0.24868863  0.80228865  0.24773834  1
  Li  Li1  1  0.74868863  0.19771135  0.74773834  1
  V  V2  1  0.15469196  0.14250126  0.53227199  1
  V  V3  1  0.21047400  0.36957180  0.13734880  1
  V  V4  1  0.71047400  0.63042820  0.63734880  1
  V  V5  1  0.65469196  0.85749874  0.03227199  1
  P  P6  1  0.01341484  0.86163489  0.62805780  1
  P  P7  1  0.29948306  0.29275544  0.87120921  1
  P  P8  1  0.42016720  0.87410635  0.69706334  1
  P  P9  1  0.35096283  0.41793862  0.47508686  1
  P  P10  1  0.85096283  0.58206138  0.97508686  1
  P  P11  1  0.51341484  0.13836511  0.12805780  1
  P  P12  1  0.49144366  0.54057225  0.00731180  1
  P  P13  1  0.79948306  0.70724456  0.37120921  1
  P  P14  1  0.99144366  0.45942775  0.50731180  1
  P  P15  1  0.92016720  0.12589365  0.19706334  1
  O  O16  1  0.14527416  0.29577912  0.93068532  1
  O  O17  1  0.22493216  0.81982654  0.71683648  1
  O  O18  1  0.04540289  0.06593440  0.33892777  1
  O  O19  1  0.25493144  0.22918658  0.73169410  1
  O  O20  1  0.99921473  0.25502091  0.15149631  1
  O  O21  1  0.20964337  0.49552791  0.54198639  1
  O  O22  1  0.38300667  0.44868741  0.86752161  1
  O  O23  1  0.45661938  0.69391757  0.97478386  1
  O  O24  1  0.48277460  0.21248949  0.97957443  1
  O  O25  1  0.04801072  0.53418416  0.06509264  1
  O  O26  1  0.35960801  0.98726137  0.58554279  1
  O  O27  1  0.34244252  0.25853671  0.49502888  1
  O  O28  1  0.28087296  0.46431759  0.32493683  1
  O  O29  1  0.54540289  0.93406560  0.83892777  1
  O  O30  1  0.49921473  0.74497909  0.65149531  1
  O  O31  1  0.54801072  0.46581584  0.56509264  1
  O  O32  1  0.38778485  0.20063430  0.19585631  1
  O  O33  1  0.84244252  0.74146329  0.99502888  1
  O  O34  1  0.43596107  0.48021668  0.12169776  1
  O  O35  1  0.78087296  0.53568241  0.82493683  1
  O  O36  1  0.64527416  0.70422088  0.43068532  1
  O  O37  1  0.48952230  0.98056487  0.10482038  1
  O  O38  1  0.88778485  0.79936570  0.69585631  1
  O  O39  1  0.72493216  0.18017346  0.21683648  1
  O  O40  1  0.93596107  0.51978332  0.62169776  1
  O  O41  1  0.75493144  0.77081342  0.23169410  1
  O  O42  1  0.70964337  0.50447209  0.04198639  1
  O  O43  1  0.98952230  0.01943513  0.60482038  1
  O  O44  1  0.88300667  0.55131259  0.36752161  1
  O  O45  1  0.95661938  0.30608243  0.47478386  1
  O  O46  1  0.98277460  0.78751051  0.47957443  1
  O  O47  1  0.85960801  0.01273863  0.08554279  1
