# generated using pymatgen
data_Li4Ti3Mn3(SbO8)2
_symmetry_space_group_name_H-M   'P 1'
_cell_length_a   6.11036624
_cell_length_b   6.00581163
_cell_length_c   9.90833059
_cell_angle_alpha   89.96260401
_cell_angle_beta   91.56266402
_cell_angle_gamma   119.44857293
_symmetry_Int_Tables_number   1
_chemical_formula_structural   Li4Ti3Mn3(SbO8)2
_chemical_formula_sum   'Li4 Ti3 Mn3 Sb2 O16'
_cell_volume   316.48151999
_cell_formula_units_Z   1
loop_
 _symmetry_equiv_pos_site_id
 _symmetry_equiv_pos_as_xyz
  1  'x, y, z'
loop_
 _atom_site_type_symbol
 _atom_site_label
 _atom_site_symmetry_multiplicity
 _atom_site_fract_x
 _atom_site_fract_y
 _atom_site_fract_z
 _atom_site_occupancy
  Li  Li0  1  0.31139286  0.65571619  0.90395502  1
  Li  Li1  1  0.99010793  0.99508506  0.98813892  1
  Li  Li2  1  0.01746166  0.00881777  0.49056231  1
  Li  Li3  1  0.66829937  0.33429005  0.39779114  1
  Ti  Ti4  1  0.18071720  0.83371683  0.21603208  1
  Ti  Ti5  1  0.17995360  0.34706062  0.21641031  1
  Ti  Ti6  1  0.34106475  0.17015241  0.71647769  1
  Mn  Mn7  1  0.66364497  0.83156864  0.20650051  1
  Mn  Mn8  1  0.83418385  0.66198107  0.71576956  1
  Mn  Mn9  1  0.83492855  0.17289893  0.71574869  1
  Sb  Sb10  1  0.35430376  0.67691965  0.49606288  1
  Sb  Sb11  1  0.66388214  0.33209895  0.98743259  1
  O  O12  1  0.18922414  0.85357563  0.60538619  1
  O  O13  1  0.03958073  0.51956158  0.32946773  1
  O  O14  1  0.29871303  0.64930342  0.10559340  1
  O  O15  1  0.02262978  0.01107636  0.29979760  1
  O  O16  1  0.00534007  0.00172549  0.80338192  1
  O  O17  1  0.18900586  0.33558016  0.60550178  1
  O  O18  1  0.46258639  0.96971430  0.33489578  1
  O  O19  1  0.46231926  0.49266303  0.33503893  1
  O  O20  1  0.33121990  0.16544387  0.09692137  1
  O  O21  1  0.69742592  0.84846102  0.59432505  1
  O  O22  1  0.49374021  0.46228107  0.85229993  1
  O  O23  1  0.49417762  0.03178597  0.85231697  1
  O  O24  1  0.65008138  0.32604599  0.61174956  1
  O  O25  1  0.83863568  0.66462437  0.09013292  1
  O  O26  1  0.94675428  0.47429578  0.85018343  1
  O  O27  1  0.83862613  0.17385677  0.08996376  1
