# generated using pymatgen
data_LiMn10(PO4)7
_symmetry_space_group_name_H-M   'P 1'
_cell_length_a   10.24870506
_cell_length_b   13.10836302
_cell_length_c   10.24870493
_cell_angle_alpha   113.01190633
_cell_angle_beta   59.99999959
_cell_angle_gamma   113.01190504
_symmetry_Int_Tables_number   1
_chemical_formula_structural   LiMn10(PO4)7
_chemical_formula_sum   'Li2 Mn20 P14 O56'
_cell_volume   1063.99345044
_cell_formula_units_Z   2
loop_
 _symmetry_equiv_pos_site_id
 _symmetry_equiv_pos_as_xyz
  1  'x, y, z'
loop_
 _atom_site_type_symbol
 _atom_site_label
 _atom_site_symmetry_multiplicity
 _atom_site_fract_x
 _atom_site_fract_y
 _atom_site_fract_z
 _atom_site_occupancy
  Li  Li0  1  0.18411569  0.55234806  0.18411569  1
  Li  Li1  1  0.68411569  0.05234806  0.68411569  1
  Mn  Mn2  1  0.06592151  0.79798205  0.07401469  1
  Mn  Mn3  1  0.06564692  0.98333015  0.47302931  1
  Mn  Mn4  1  0.44465291  0.98333015  0.06564692  1
  Mn  Mn5  1  0.00254800  0.00764400  0.00254800  1
  Mn  Mn6  1  0.07401469  0.79798205  0.65804585  1
  Mn  Mn7  1  0.47302931  0.98333015  0.44465291  1
  Mn  Mn8  1  0.40933474  0.70770023  0.44620026  1
  Mn  Mn9  1  0.65804585  0.79798205  0.06592151  1
  Mn  Mn10  1  0.15804585  0.29798205  0.57401469  1
  Mn  Mn11  1  0.56592151  0.29798205  0.15804585  1
  Mn  Mn12  1  0.50254800  0.50764400  0.50254800  1
  Mn  Mn13  1  0.44620026  0.70770023  0.85216523  1
  Mn  Mn14  1  0.85216523  0.70770023  0.40933474  1
  Mn  Mn15  1  0.57401469  0.29798205  0.56592151  1
  Mn  Mn16  1  0.35216523  0.20770023  0.94620026  1
  Mn  Mn17  1  0.56564692  0.48333015  0.94465291  1
  Mn  Mn18  1  0.90933474  0.20770023  0.35216523  1
  Mn  Mn19  1  0.97302931  0.48333015  0.56564692  1
  Mn  Mn20  1  0.94465291  0.48333015  0.97302931  1
  Mn  Mn21  1  0.94620026  0.20770023  0.90933474  1
  P  P22  1  0.26843843  0.80531528  0.26843843  1
  P  P23  1  0.27001405  0.41183143  0.31145659  1
  P  P24  1  0.18453742  0.10016885  0.23064123  1
  P  P25  1  0.18498920  0.60016885  0.73064123  1
  P  P26  1  0.33036079  0.91183143  0.81145659  1
  P  P27  1  0.68453742  0.60016885  0.18498920  1
  P  P28  1  0.77001405  0.91183143  0.33036079  1
  P  P29  1  0.31145659  0.41183143  0.83036079  1
  P  P30  1  0.23064123  0.10016885  0.68498920  1
  P  P31  1  0.68498920  0.10016885  0.18453742  1
  P  P32  1  0.81145659  0.91183143  0.77001405  1
  P  P33  1  0.83036079  0.41183143  0.27001405  1
  P  P34  1  0.73064123  0.60016885  0.68453742  1
  P  P35  1  0.76843843  0.30531528  0.76843843  1
  O  O36  1  0.16417114  0.96934164  0.18466963  1
  O  O37  1  0.10880869  0.76256266  0.25686626  1
  O  O38  1  0.31326100  0.93978399  0.31326100  1
  O  O39  1  0.18466963  0.96934164  0.62050086  1
  O  O40  1  0.39688771  0.76256266  0.10880869  1
  O  O41  1  0.25686626  0.76256266  0.39688771  1
  O  O42  1  0.09924694  0.34715194  0.40364744  1
  O  O43  1  0.11931505  0.13517305  0.15000029  1
  O  O44  1  0.11849878  0.65626277  0.67757108  1
  O  O45  1  0.14956352  0.88981729  0.87147599  1
  O  O46  1  0.26640763  0.53872261  0.35608420  1
  O  O47  1  0.62050086  0.96934164  0.16417114  1
  O  O48  1  0.09025602  0.13402263  0.40945443  1
  O  O49  1  0.33448595  0.36808960  0.13338100  1
  O  O50  1  0.12050086  0.46934164  0.68466963  1
  O  O51  1  0.40022265  0.86808960  0.63338100  1
  O  O52  1  0.13431218  0.63402263  0.90945443  1
  O  O53  1  0.59025602  0.63402263  0.13431218  1
  O  O54  1  0.59924694  0.84715194  0.34425756  1
  O  O55  1  0.36877778  0.38981729  0.37147599  1
  O  O56  1  0.36019291  0.15626277  0.17757108  1
  O  O57  1  0.36585672  0.63517305  0.65000029  1
  O  O58  1  0.34425756  0.84715194  0.90364744  1
  O  O59  1  0.13338100  0.36808960  0.90022265  1
  O  O60  1  0.17757108  0.15626277  0.61849878  1
  O  O61  1  0.66417114  0.46934164  0.12050086  1
  O  O62  1  0.61931505  0.63517305  0.36585672  1
  O  O63  1  0.86877778  0.88981729  0.14956352  1
  O  O64  1  0.37147599  0.38981729  0.64956352  1
  O  O65  1  0.15000029  0.13517305  0.86585672  1
  O  O66  1  0.35608420  0.53872261  0.91623178  1
  O  O67  1  0.86019291  0.65626277  0.11849878  1
  O  O68  1  0.83448595  0.86808960  0.40022265  1
  O  O69  1  0.63431218  0.13402263  0.09025602  1
  O  O70  1  0.63338100  0.86808960  0.83448595  1
  O  O71  1  0.65000029  0.63517305  0.61931505  1
  O  O72  1  0.64956352  0.38981729  0.36877778  1
  O  O73  1  0.40364744  0.34715194  0.84425756  1
  O  O74  1  0.40945443  0.13402263  0.63431218  1
  O  O75  1  0.84425756  0.34715194  0.09924694  1
  O  O76  1  0.61849878  0.15626277  0.36019291  1
  O  O77  1  0.91623178  0.53872261  0.26640763  1
  O  O78  1  0.67757108  0.65626277  0.86019291  1
  O  O79  1  0.90364744  0.84715194  0.59924694  1
  O  O80  1  0.68466963  0.46934164  0.66417114  1
  O  O81  1  0.41623178  0.03872261  0.85608420  1
  O  O82  1  0.87147599  0.88981729  0.86877778  1
  O  O83  1  0.86585672  0.13517305  0.11931505  1
  O  O84  1  0.90022265  0.36808960  0.33448595  1
  O  O85  1  0.90945443  0.63402263  0.59025602  1
  O  O86  1  0.60880869  0.26256266  0.89688771  1
  O  O87  1  0.75686626  0.26256266  0.60880869  1
  O  O88  1  0.76640663  0.03872261  0.41623178  1
  O  O89  1  0.81326100  0.43978399  0.81326100  1
  O  O90  1  0.89688771  0.26256266  0.75686626  1
  O  O91  1  0.85608420  0.03872261  0.76640663  1
