# generated using pymatgen
data_Mn(PO3)4
_symmetry_space_group_name_H-M   'P 1'
_cell_length_a   7.13229738
_cell_length_b   8.77397889
_cell_length_c   7.56639733
_cell_angle_alpha   90.00000000
_cell_angle_beta   109.87290644
_cell_angle_gamma   90.00000000
_symmetry_Int_Tables_number   1
_chemical_formula_structural   Mn(PO3)4
_chemical_formula_sum   'Mn2 P8 O24'
_cell_volume   445.29765719
_cell_formula_units_Z   2
loop_
 _symmetry_equiv_pos_site_id
 _symmetry_equiv_pos_as_xyz
  1  'x, y, z'
loop_
 _atom_site_type_symbol
 _atom_site_label
 _atom_site_symmetry_multiplicity
 _atom_site_fract_x
 _atom_site_fract_y
 _atom_site_fract_z
 _atom_site_occupancy
  Mn  Mn0  1  0.00000000  0.00000000  0.00000000  1
  Mn  Mn1  1  0.50000000  0.50000000  0.50000000  1
  P  P2  1  0.19291481  0.57087283  0.72657463  1
  P  P3  1  0.15945137  0.20943119  0.38245161  1
  P  P4  1  0.30708519  0.07087283  0.77342537  1
  P  P5  1  0.34054863  0.70943119  0.11754839  1
  P  P6  1  0.65945137  0.29056881  0.88245161  1
  P  P7  1  0.69291481  0.92912717  0.22657463  1
  P  P8  1  0.84054863  0.79056881  0.61754839  1
  P  P9  1  0.80708519  0.42912717  0.27342537  1
  O  O10  1  0.05639295  0.72163996  0.67563714  1
  O  O11  1  0.08179492  0.42870763  0.71616896  1
  O  O12  1  0.16400397  0.09418852  0.88208421  1
  O  O13  1  0.16890510  0.11113243  0.55955614  1
  O  O14  1  0.33109490  0.61113243  0.94044386  1
  O  O15  1  0.33599603  0.59418852  0.61791579  1
  O  O16  1  0.16167142  0.09786543  0.22963036  1
  O  O17  1  0.41820508  0.92870763  0.78383104  1
  O  O18  1  0.17436256  0.82397450  0.07060379  1
  O  O19  1  0.44360705  0.22163996  0.82436286  1
  O  O20  1  0.32563744  0.32397450  0.42939621  1
  O  O21  1  0.33832858  0.59786543  0.27036964  1
  O  O22  1  0.66167142  0.40213457  0.72963036  1
  O  O23  1  0.67436256  0.67602550  0.57060379  1
  O  O24  1  0.55639295  0.77836004  0.17563714  1
  O  O25  1  0.82563744  0.17602550  0.92939621  1
  O  O26  1  0.58179492  0.07129237  0.21616896  1
  O  O27  1  0.83832858  0.90213457  0.77036964  1
  O  O28  1  0.66400397  0.40581148  0.38208421  1
  O  O29  1  0.66890510  0.38886757  0.05955614  1
  O  O30  1  0.83109490  0.88886757  0.44044386  1
  O  O31  1  0.83599603  0.90581148  0.11791579  1
  O  O32  1  0.91820508  0.57129237  0.28383104  1
  O  O33  1  0.94360705  0.27836004  0.32436286  1
