# generated using pymatgen
data_Ni3OF5
_symmetry_space_group_name_H-M   'P 1'
_cell_length_a   4.69481448
_cell_length_b   7.75943472
_cell_length_c   5.62311170
_cell_angle_alpha   93.84613916
_cell_angle_beta   90.00000000
_cell_angle_gamma   90.00000000
_symmetry_Int_Tables_number   1
_chemical_formula_structural   Ni3OF5
_chemical_formula_sum   'Ni6 O2 F10'
_cell_volume   204.38357822
_cell_formula_units_Z   2
loop_
 _symmetry_equiv_pos_site_id
 _symmetry_equiv_pos_as_xyz
  1  'x, y, z'
loop_
 _atom_site_type_symbol
 _atom_site_label
 _atom_site_symmetry_multiplicity
 _atom_site_fract_x
 _atom_site_fract_y
 _atom_site_fract_z
 _atom_site_occupancy
  Ni  Ni0  1  0.49050285  0.00762613  0.49812885  1
  Ni  Ni1  1  0.51322171  0.66791747  0.16225112  1
  Ni  Ni2  1  0.49138693  0.33029403  0.82676274  1
  Ni  Ni3  1  0.99138693  0.66970597  0.67323726  1
  Ni  Ni4  1  0.01322171  0.33208253  0.33774888  1
  Ni  Ni5  1  0.99050285  0.99237387  0.00187115  1
  O  O6  1  0.80497649  0.76620985  0.96361124  1
  O  O7  1  0.30497649  0.23379015  0.53638876  1
  F  F8  1  0.80314620  0.43482669  0.62983031  1
  F  F9  1  0.80468869  0.10222215  0.29968032  1
  F  F10  1  0.69410769  0.77365694  0.46512932  1
  F  F11  1  0.70008495  0.10159657  0.79549626  1
  F  F12  1  0.69788450  0.42911333  0.13160463  1
  F  F13  1  0.30314620  0.56517331  0.87016969  1
  F  F14  1  0.30468869  0.89777785  0.20031968  1
  F  F15  1  0.19410769  0.22634306  0.03487068  1
  F  F16  1  0.19788450  0.57088667  0.36839537  1
  F  F17  1  0.20008495  0.89840343  0.70450374  1
