# generated using pymatgen
data_LiMn7O12
_symmetry_space_group_name_H-M   'P 1'
_cell_length_a   5.17499429
_cell_length_b   5.17499459
_cell_length_c   9.98316722
_cell_angle_alpha   83.90583958
_cell_angle_beta   96.09416099
_cell_angle_gamma   60.57229747
_symmetry_Int_Tables_number   1
_chemical_formula_structural   LiMn7O12
_chemical_formula_sum   'Li1 Mn7 O12'
_cell_volume   227.64193390
_cell_formula_units_Z   1
loop_
 _symmetry_equiv_pos_site_id
 _symmetry_equiv_pos_as_xyz
  1  'x, y, z'
loop_
 _atom_site_type_symbol
 _atom_site_label
 _atom_site_symmetry_multiplicity
 _atom_site_fract_x
 _atom_site_fract_y
 _atom_site_fract_z
 _atom_site_occupancy
  Li  Li0  1  0.92381913  0.92381913  0.75000000  1
  Mn  Mn1  1  0.07838543  0.07838543  0.25000000  1
  Mn  Mn2  1  0.25373532  0.25373532  0.75000000  1
  Mn  Mn3  1  0.41421647  0.41421647  0.25000000  1
  Mn  Mn4  1  0.57743379  0.57743379  0.75000000  1
  Mn  Mn5  1  0.51808773  0.00127979  0.51456281  1
  Mn  Mn6  1  0.74502467  0.74502467  0.25000000  1
  Mn  Mn7  1  0.00127979  0.51808773  0.98543719  1
  O  O8  1  0.18064652  0.33778122  0.36790268  1
  O  O9  1  0.03889750  0.75813449  0.14419530  1
  O  O10  1  0.29109407  0.53110746  0.85107011  1
  O  O11  1  0.33778122  0.18064652  0.13209732  1
  O  O12  1  0.53110746  0.29109407  0.64892989  1
  O  O13  1  0.25454051  0.95920874  0.63930709  1
  O  O14  1  0.75813449  0.03889750  0.35580470  1
  O  O15  1  0.44691490  0.72182536  0.34612845  1
  O  O16  1  0.64009815  0.82808376  0.86710016  1
  O  O17  1  0.72182536  0.44691490  0.15387155  1
  O  O18  1  0.95920874  0.25454051  0.86069291  1
  O  O19  1  0.82808376  0.64009815  0.63289984  1
