# generated using pymatgen
data_Li4Co3OF8
_symmetry_space_group_name_H-M   'P 1'
_cell_length_a   2.86592895
_cell_length_b   5.09619698
_cell_length_c   11.51812747
_cell_angle_alpha   78.64196177
_cell_angle_beta   90.10093065
_cell_angle_gamma   73.67783313
_symmetry_Int_Tables_number   1
_chemical_formula_structural   Li4Co3OF8
_chemical_formula_sum   'Li4 Co3 O1 F8'
_cell_volume   157.99242742
_cell_formula_units_Z   1
loop_
 _symmetry_equiv_pos_site_id
 _symmetry_equiv_pos_as_xyz
  1  'x, y, z'
loop_
 _atom_site_type_symbol
 _atom_site_label
 _atom_site_symmetry_multiplicity
 _atom_site_fract_x
 _atom_site_fract_y
 _atom_site_fract_z
 _atom_site_occupancy
  Li  Li0  1  0.13501826  0.72787292  0.55812190  1
  Li  Li1  1  0.23230992  0.53625901  0.87343934  1
  Li  Li2  1  0.85690137  0.29105624  0.44491331  1
  Li  Li3  1  0.00981692  0.98195851  0.99391198  1
  Co  Co4  1  0.58063114  0.84283641  0.27034790  1
  Co  Co5  1  0.76514157  0.47408045  0.12281144  1
  Co  Co6  1  0.43304993  0.13491299  0.70169950  1
  O  O7  1  0.13992059  0.72487219  0.16489209  1
  F  F8  1  0.63541587  0.73096821  0.94827405  1
  F  F9  1  0.08984942  0.82276339  0.72558065  1
  F  F10  1  0.19029701  0.61638391  0.40071274  1
  F  F11  1  0.79361886  0.41506316  0.60679335  1
  F  F12  1  0.86831964  0.25242010  0.83096317  1
  F  F13  1  0.92174219  0.16149008  0.28687537  1
  F  F14  1  0.37923533  0.24399272  0.04786576  1
  F  F15  1  0.48925698  0.02237370  0.52327745  1
