# generated using pymatgen
data_Li4Ti3Fe2Ni3O16
_symmetry_space_group_name_H-M   'P 1'
_cell_length_a   5.87831595
_cell_length_b   5.78861340
_cell_length_c   9.54771753
_cell_angle_alpha   90.00879058
_cell_angle_beta   92.67663780
_cell_angle_gamma   119.54334253
_symmetry_Int_Tables_number   1
_chemical_formula_structural   Li4Ti3Fe2Ni3O16
_chemical_formula_sum   'Li4 Ti3 Fe2 Ni3 O16'
_cell_volume   282.23388233
_cell_formula_units_Z   1
loop_
 _symmetry_equiv_pos_site_id
 _symmetry_equiv_pos_as_xyz
  1  'x, y, z'
loop_
 _atom_site_type_symbol
 _atom_site_label
 _atom_site_symmetry_multiplicity
 _atom_site_fract_x
 _atom_site_fract_y
 _atom_site_fract_z
 _atom_site_occupancy
  Li  Li0  1  0.33825003  0.66921626  0.89582142  1
  Li  Li1  1  0.96727544  0.98355864  0.99157479  1
  Li  Li2  1  0.98500248  0.99213667  0.49557175  1
  Li  Li3  1  0.68071399  0.34014085  0.39887577  1
  Ti  Ti4  1  0.17885161  0.83804566  0.21740620  1
  Ti  Ti5  1  0.17868758  0.34089053  0.21782614  1
  Ti  Ti6  1  0.33547563  0.16817655  0.70999212  1
  Fe  Fe7  1  0.33876003  0.66928674  0.49474232  1
  Fe  Fe8  1  0.66830578  0.33398518  0.98347196  1
  Ni  Ni9  1  0.65417751  0.82708793  0.20808297  1
  Ni  Ni10  1  0.83366705  0.66373910  0.71401693  1
  Ni  Ni11  1  0.83322828  0.16999654  0.71425534  1
  O  O12  1  0.18783561  0.85246982  0.59838320  1
  O  O13  1  0.03859933  0.51882949  0.33503028  1
  O  O14  1  0.31564295  0.65771295  0.10341338  1
  O  O15  1  0.99106217  0.99527498  0.30594762  1
  O  O16  1  0.00295798  0.00171068  0.80718970  1
  O  O17  1  0.18763493  0.33582112  0.59784227  1
  O  O18  1  0.47317743  0.96624860  0.34091927  1
  O  O19  1  0.47454663  0.50829893  0.34055579  1
  O  O20  1  0.31336343  0.15678747  0.10319141  1
  O  O21  1  0.68473846  0.84235643  0.60327297  1
  O  O22  1  0.51603158  0.47365357  0.84905470  1
  O  O23  1  0.51584617  0.04272706  0.84921521  1
  O  O24  1  0.67350892  0.33683814  0.61206965  1
  O  O25  1  0.83279844  0.65967347  0.09441469  1
  O  O26  1  0.96784395  0.48398947  0.83116269  1
  O  O27  1  0.83201860  0.17164914  0.09454146  1
