# generated using pymatgen
data_LiMn3OF5
_symmetry_space_group_name_H-M   'P 1'
_cell_length_a   8.86170147
_cell_length_b   8.86170147
_cell_length_c   8.73846949
_cell_angle_alpha   109.43569137
_cell_angle_beta   109.64094954
_cell_angle_gamma   109.90295435
_symmetry_Int_Tables_number   1
_chemical_formula_structural   LiMn3OF5
_chemical_formula_sum   'Li4 Mn12 O4 F20'
_cell_volume   524.53142466
_cell_formula_units_Z   4
loop_
 _symmetry_equiv_pos_site_id
 _symmetry_equiv_pos_as_xyz
  1  'x, y, z'
loop_
 _atom_site_type_symbol
 _atom_site_label
 _atom_site_symmetry_multiplicity
 _atom_site_fract_x
 _atom_site_fract_y
 _atom_site_fract_z
 _atom_site_occupancy
  Li  Li0  1  0.49464786  0.02406888  0.98717758  1
  Li  Li1  1  0.97925273  0.52309029  0.99942753  1
  Li  Li2  1  0.46310870  0.49252971  0.48717758  1
  Li  Li3  1  0.97633624  0.02017480  0.49942753  1
  Mn  Mn4  1  0.97995769  0.25718391  0.22473088  1
  Mn  Mn5  1  0.79396521  0.04430165  0.74548032  1
  Mn  Mn6  1  0.70370314  0.45231176  0.23125174  1
  Mn  Mn7  1  0.74886672  0.26914349  0.52707917  1
  Mn  Mn8  1  0.75793568  0.77821345  0.02707917  1
  Mn  Mn9  1  0.46754697  0.24477319  0.72473088  1
  Mn  Mn10  1  0.55145346  0.76809466  0.29827561  1
  Mn  Mn11  1  0.24733244  0.70079224  0.46411998  1
  Mn  Mn12  1  0.26332774  0.21678754  0.96411998  1
  Mn  Mn13  1  0.20117867  0.95151511  0.24548032  1
  Mn  Mn14  1  0.27894098  0.52754860  0.73125174  1
  Mn  Mn15  1  0.03018095  0.74682215  0.79827561  1
  O  O16  1  0.96039199  0.73852702  0.99667833  1
  O  O17  1  0.75815130  0.03628634  0.49667833  1
  O  O18  1  0.22162459  0.46183196  0.46341327  1
  O  O19  1  0.50158031  0.24178868  0.96341327  1
  F  F20  1  0.00563147  0.04708356  0.28990159  1
  F  F21  1  0.95576828  0.50781998  0.21855875  1
  F  F22  1  0.74067303  0.22222570  0.26308847  1
  F  F23  1  0.45693261  0.47910054  0.24204106  1
  F  F24  1  0.46052581  0.21528889  0.45801902  1
  F  F25  1  0.74273013  0.99749321  0.95801902  1
  F  F26  1  0.77484281  0.72282630  0.26287038  1
  F  F27  1  0.74281804  0.28427012  0.78990159  1
  F  F28  1  0.77997431  0.52926025  0.52461130  1
  F  F29  1  0.49535105  0.74463699  0.02461130  1
  F  F30  1  0.28122190  0.73415047  0.23205728  1
  F  F31  1  0.28848112  0.02041211  0.06221774  1
  F  F32  1  0.54180563  0.77373661  0.56221774  1
  F  F33  1  0.21073877  0.26278947  0.71855875  1
  F  F34  1  0.54086277  0.52241544  0.76308847  1
  F  F35  1  0.26294052  0.78510746  0.74204106  1
  F  F36  1  0.24490081  0.95263435  0.50900200  1
  F  F37  1  0.05636765  0.26410120  0.00900200  1
  F  F38  1  0.04004308  0.48802657  0.76287038  1
  F  F39  1  0.99790582  0.95083539  0.73205728  1
