# generated using pymatgen
data_Li4Cr2Ni3Sb3O16
_symmetry_space_group_name_H-M   'P 1'
_cell_length_a   6.05075559
_cell_length_b   6.04760095
_cell_length_c   9.62392673
_cell_angle_alpha   89.99765032
_cell_angle_beta   91.32519480
_cell_angle_gamma   119.97910155
_symmetry_Int_Tables_number   1
_chemical_formula_structural   Li4Cr2Ni3Sb3O16
_chemical_formula_sum   'Li4 Cr2 Ni3 Sb3 O16'
_cell_volume   304.93868447
_cell_formula_units_Z   1
loop_
 _symmetry_equiv_pos_site_id
 _symmetry_equiv_pos_as_xyz
  1  'x, y, z'
loop_
 _atom_site_type_symbol
 _atom_site_label
 _atom_site_symmetry_multiplicity
 _atom_site_fract_x
 _atom_site_fract_y
 _atom_site_fract_z
 _atom_site_occupancy
  Li  Li0  1  0.33229841  0.66619254  0.87969161  1
  Li  Li1  1  0.96103455  0.98052570  0.98399309  1
  Li  Li2  1  0.97733938  0.98867600  0.50621796  1
  Li  Li3  1  0.65652470  0.32827756  0.40413624  1
  Cr  Cr4  1  0.34918161  0.67455509  0.49512843  1
  Cr  Cr5  1  0.69190601  0.34597033  0.97466967  1
  Ni  Ni6  1  0.66334015  0.83168121  0.21522630  1
  Ni  Ni7  1  0.83295791  0.66063190  0.71236386  1
  Ni  Ni8  1  0.83305006  0.17241443  0.71234388  1
  Sb  Sb9  1  0.17016914  0.83228496  0.21473833  1
  Sb  Sb10  1  0.17017648  0.33791099  0.21473321  1
  Sb  Sb11  1  0.34323218  0.17158781  0.71373746  1
  O  O12  1  0.18079675  0.84648105  0.59659370  1
  O  O13  1  0.03172029  0.51588818  0.33904729  1
  O  O14  1  0.32510130  0.66254529  0.10145585  1
  O  O15  1  0.00813137  0.00410314  0.31775197  1
  O  O16  1  0.00362680  0.00169922  0.80184222  1
  O  O17  1  0.18073081  0.33428637  0.59661175  1
  O  O18  1  0.47170216  0.96133129  0.34148633  1
  O  O19  1  0.47170729  0.51036818  0.34147149  1
  O  O20  1  0.32045028  0.16021586  0.10317562  1
  O  O21  1  0.66650240  0.83316906  0.59857967  1
  O  O22  1  0.51309305  0.47333826  0.84779163  1
  O  O23  1  0.51323042  0.03983746  0.84777603  1
  O  O24  1  0.66444921  0.33236213  0.60616428  1
  O  O25  1  0.85263394  0.67950801  0.09950264  1
  O  O26  1  0.96226687  0.48126712  0.84211572  1
  O  O27  1  0.85264550  0.17318889  0.09949278  1
