# generated using pymatgen
data_RbHgC3(SN)3
_symmetry_space_group_name_H-M   'P 1'
_cell_length_a   4.24464607
_cell_length_b   11.34841741
_cell_length_c   11.63861869
_cell_angle_alpha   115.61736064
_cell_angle_beta   90.00000000
_cell_angle_gamma   90.00000000
_symmetry_Int_Tables_number   1
_chemical_formula_structural   RbHgC3(SN)3
_chemical_formula_sum   'Rb2 Hg2 C6 S6 N6'
_cell_volume   505.52314822
_cell_formula_units_Z   2
loop_
 _symmetry_equiv_pos_site_id
 _symmetry_equiv_pos_as_xyz
  1  'x, y, z'
loop_
 _atom_site_type_symbol
 _atom_site_label
 _atom_site_symmetry_multiplicity
 _atom_site_fract_x
 _atom_site_fract_y
 _atom_site_fract_z
 _atom_site_occupancy
  Rb  Rb0  1  0.25000000  0.28013679  0.40458365  1
  Rb  Rb1  1  0.75000000  0.71986321  0.59541635  1
  Hg  Hg2  1  0.75000000  0.27761313  0.85391357  1
  Hg  Hg3  1  0.25000000  0.72238687  0.14608643  1
  C  C4  1  0.75000000  0.19899725  0.08938642  1
  C  C5  1  0.75000000  0.96262616  0.36015227  1
  C  C6  1  0.25000000  0.52692314  0.27594436  1
  C  C7  1  0.25000000  0.03737384  0.63984773  1
  C  C8  1  0.75000000  0.47307686  0.72405564  1
  C  C9  1  0.25000000  0.80100275  0.91061358  1
  S  S10  1  0.75000000  0.80477110  0.32401783  1
  S  S11  1  0.25000000  0.49026248  0.12179244  1
  S  S12  1  0.25000000  0.89379517  0.06665275  1
  S  S13  1  0.75000000  0.50973752  0.87820756  1
  S  S14  1  0.25000000  0.19522890  0.67598217  1
  S  S15  1  0.75000000  0.10620483  0.93334725  1
  N  N16  1  0.25000000  0.92429091  0.61305930  1
  N  N17  1  0.75000000  0.44853759  0.61459443  1
  N  N18  1  0.75000000  0.25673757  0.20146426  1
  N  N19  1  0.75000000  0.07570909  0.38694070  1
  N  N20  1  0.25000000  0.74326243  0.79853574  1
  N  N21  1  0.25000000  0.55146241  0.38540557  1
