# generated using pymatgen
data_Mn6O5F7
_symmetry_space_group_name_H-M   'P 1'
_cell_length_a   4.74222060
_cell_length_b   5.74097927
_cell_length_c   15.63151875
_cell_angle_alpha   90.00000000
_cell_angle_beta   90.49471363
_cell_angle_gamma   90.00000000
_symmetry_Int_Tables_number   1
_chemical_formula_structural   Mn6O5F7
_chemical_formula_sum   'Mn12 O10 F14'
_cell_volume   425.55208116
_cell_formula_units_Z   2
loop_
 _symmetry_equiv_pos_site_id
 _symmetry_equiv_pos_as_xyz
  1  'x, y, z'
loop_
 _atom_site_type_symbol
 _atom_site_label
 _atom_site_symmetry_multiplicity
 _atom_site_fract_x
 _atom_site_fract_y
 _atom_site_fract_z
 _atom_site_occupancy
  Mn  Mn0  1  0.03865374  0.15568455  0.41929901  1
  Mn  Mn1  1  0.01029571  0.81486779  0.24559665  1
  Mn  Mn2  1  0.00781103  0.13618699  0.08155936  1
  Mn  Mn3  1  0.01029571  0.18513221  0.74559665  1
  Mn  Mn4  1  0.00781103  0.86381301  0.58155936  1
  Mn  Mn5  1  0.03865374  0.84431545  0.91929901  1
  Mn  Mn6  1  0.47535980  0.33409428  0.58527603  1
  Mn  Mn7  1  0.46694348  0.34583497  0.91984529  1
  Mn  Mn8  1  0.51104578  0.37491289  0.25053301  1
  Mn  Mn9  1  0.47535980  0.66590572  0.08527603  1
  Mn  Mn10  1  0.46694348  0.65416403  0.41984529  1
  Mn  Mn11  1  0.51104578  0.62508711  0.75053301  1
  O  O12  1  0.20384946  0.11752016  0.63759260  1
  O  O13  1  0.21676423  0.10458535  0.97416582  1
  O  O14  1  0.20384946  0.88247984  0.13759260  1
  O  O15  1  0.21676423  0.89541465  0.47416582  1
  O  O16  1  0.28832811  0.60926026  0.30978893  1
  O  O17  1  0.27927213  0.37907470  0.47618087  1
  O  O18  1  0.28832811  0.39073974  0.80978893  1
  O  O19  1  0.27927213  0.62092530  0.97618087  1
  O  O20  1  0.70093839  0.62203175  0.18984067  1
  O  O21  1  0.70093839  0.37796825  0.68984067  1
  F  F22  1  0.25889070  0.12164334  0.29926827  1
  F  F23  1  0.25889070  0.87835666  0.79926827  1
  F  F24  1  0.25021002  0.38756679  0.13893059  1
  F  F25  1  0.25021002  0.61243321  0.63893059  1
  F  F26  1  0.71965073  0.36820811  0.02863795  1
  F  F27  1  0.76981115  0.38643468  0.36669416  1
  F  F28  1  0.71965073  0.63179189  0.52863795  1
  F  F29  1  0.76981115  0.61356532  0.86669416  1
  F  F30  1  0.76474148  0.13592765  0.19361226  1
  F  F31  1  0.74956786  0.12053462  0.52460363  1
  F  F32  1  0.78786521  0.89486915  0.35857390  1
  F  F33  1  0.74956786  0.87946538  0.02460363  1
  F  F34  1  0.78786521  0.10513085  0.85857390  1
  F  F35  1  0.76474148  0.86407235  0.69361226  1
