# generated using pymatgen
data_Mn2OF2
_symmetry_space_group_name_H-M   'P 1'
_cell_length_a   5.49509853
_cell_length_b   5.85937838
_cell_length_c   5.86205759
_cell_angle_alpha   120.01512925
_cell_angle_beta   57.76522729
_cell_angle_gamma   117.09729520
_symmetry_Int_Tables_number   1
_chemical_formula_structural   Mn2OF2
_chemical_formula_sum   'Mn4 O2 F4'
_cell_volume   133.57750342
_cell_formula_units_Z   2
loop_
 _symmetry_equiv_pos_site_id
 _symmetry_equiv_pos_as_xyz
  1  'x, y, z'
loop_
 _atom_site_type_symbol
 _atom_site_label
 _atom_site_symmetry_multiplicity
 _atom_site_fract_x
 _atom_site_fract_y
 _atom_site_fract_z
 _atom_site_occupancy
  Mn  Mn0  1  0.15387313  0.41652364  0.19235566  1
  Mn  Mn1  1  0.65387313  0.91652364  0.57029485  1
  Mn  Mn2  1  0.36303424  0.05939004  0.33707191  1
  Mn  Mn3  1  0.86303424  0.55939004  0.85928389  1
  O  O4  1  0.03720981  0.24295350  0.48089553  1
  O  O5  1  0.53720981  0.74295350  0.22484816  1
  F  F6  1  0.27399492  0.79486836  0.92535714  1
  F  F7  1  0.77399492  0.29486836  0.09551630  1
  F  F8  1  0.42188790  0.23626345  0.75134642  1
  F  F9  1  0.92188790  0.73626345  0.56302913  1
