# generated using pymatgen
data_Li3VFe3O8
_symmetry_space_group_name_H-M   'P 1'
_cell_length_a   5.89905944
_cell_length_b   5.90788505
_cell_length_c   9.62183099
_cell_angle_alpha   89.93489727
_cell_angle_beta   89.94543293
_cell_angle_gamma   59.99358018
_symmetry_Int_Tables_number   1
_chemical_formula_structural   Li3VFe3O8
_chemical_formula_sum   'Li6 V2 Fe6 O16'
_cell_volume   290.38537780
_cell_formula_units_Z   2
loop_
 _symmetry_equiv_pos_site_id
 _symmetry_equiv_pos_as_xyz
  1  'x, y, z'
loop_
 _atom_site_type_symbol
 _atom_site_label
 _atom_site_symmetry_multiplicity
 _atom_site_fract_x
 _atom_site_fract_y
 _atom_site_fract_z
 _atom_site_occupancy
  Li  Li0  1  0.82503908  0.82512601  0.94322170  1
  Li  Li1  1  0.35064490  0.82405772  0.94279015  1
  Li  Li2  1  0.82388580  0.35097277  0.94288949  1
  Li  Li3  1  0.17500981  0.64965606  0.44301593  1
  Li  Li4  1  0.64959503  0.17491937  0.44287849  1
  Li  Li5  1  0.17554946  0.17502600  0.44251741  1
  V  V6  1  0.66694890  0.66576857  0.49061241  1
  V  V7  1  0.33241689  0.33173162  0.99058912  1
  Fe  Fe8  1  0.83269323  0.83138458  0.21253640  1
  Fe  Fe9  1  0.33792371  0.82832346  0.21326672  1
  Fe  Fe10  1  0.82913694  0.33761958  0.21372462  1
  Fe  Fe11  1  0.16723731  0.66314288  0.71278006  1
  Fe  Fe12  1  0.66277937  0.16683671  0.71327700  1
  Fe  Fe13  1  0.16931258  0.16826952  0.71346980  1
  O  O14  1  0.00121974  0.00076082  0.32137329  1
  O  O15  1  0.83330688  0.83312449  0.59117194  1
  O  O16  1  0.52098682  0.96005132  0.34813868  1
  O  O17  1  0.96173514  0.52014519  0.34768341  1
  O  O18  1  0.33772246  0.83073349  0.59095600  1
  O  O19  1  0.66739992  0.66619419  0.09648119  1
  O  O20  1  0.51847851  0.51869685  0.34680289  1
  O  O21  1  0.82955281  0.33882747  0.59056461  1
  O  O22  1  0.16757666  0.66714524  0.09093187  1
  O  O23  1  0.47889065  0.47985367  0.84875594  1
  O  O24  1  0.03702035  0.48262157  0.84734074  1
  O  O25  1  0.00037991  0.00075280  0.82103882  1
  O  O26  1  0.33314582  0.33299286  0.59637208  1
  O  O27  1  0.66443915  0.16850412  0.09200748  1
  O  O28  1  0.48132679  0.03769828  0.84687759  1
  O  O29  1  0.17160439  0.16905282  0.08954016  1
