# generated using pymatgen
data_Mn12O17F7
_symmetry_space_group_name_H-M   'P 1'
_cell_length_a   4.56980837
_cell_length_b   5.57819119
_cell_length_c   15.10623642
_cell_angle_alpha   90.01769791
_cell_angle_beta   88.81868998
_cell_angle_gamma   89.21421200
_symmetry_Int_Tables_number   1
_chemical_formula_structural   Mn12O17F7
_chemical_formula_sum   'Mn12 O17 F7'
_cell_volume   384.95895533
_cell_formula_units_Z   1
loop_
 _symmetry_equiv_pos_site_id
 _symmetry_equiv_pos_as_xyz
  1  'x, y, z'
loop_
 _atom_site_type_symbol
 _atom_site_label
 _atom_site_symmetry_multiplicity
 _atom_site_fract_x
 _atom_site_fract_y
 _atom_site_fract_z
 _atom_site_occupancy
  Mn  Mn0  1  0.02147969  0.16486432  0.41057506  1
  Mn  Mn1  1  0.01615129  0.83229345  0.24573190  1
  Mn  Mn2  1  0.01402734  0.16510374  0.08221053  1
  Mn  Mn3  1  0.02552383  0.16515157  0.74345846  1
  Mn  Mn4  1  0.01643716  0.83713298  0.57667813  1
  Mn  Mn5  1  0.04177221  0.84456836  0.91549862  1
  Mn  Mn6  1  0.49412088  0.36103752  0.58656852  1
  Mn  Mn7  1  0.48655930  0.35363853  0.92432912  1
  Mn  Mn8  1  0.49128865  0.36383123  0.25505781  1
  Mn  Mn9  1  0.49464455  0.63448386  0.08874834  1
  Mn  Mn10  1  0.49394471  0.63406014  0.42071218  1
  Mn  Mn11  1  0.48268020  0.63659127  0.74878778  1
  O  O12  1  0.22810734  0.10937574  0.30052190  1
  O  O13  1  0.22897376  0.10971530  0.63158940  1
  O  O14  1  0.22250211  0.10994825  0.97225300  1
  O  O15  1  0.22697513  0.88614731  0.13632767  1
  O  O16  1  0.22989350  0.88838842  0.46678858  1
  O  O17  1  0.23803890  0.89360573  0.79862115  1
  O  O18  1  0.27548722  0.40021617  0.14852488  1
  O  O19  1  0.27376959  0.59835981  0.31554143  1
  O  O20  1  0.27608861  0.40017365  0.48053681  1
  O  O21  1  0.26938407  0.59960256  0.64519116  1
  O  O22  1  0.27557369  0.40592555  0.81443746  1
  O  O23  1  0.27765927  0.60491794  0.98171877  1
  O  O24  1  0.72749487  0.38689762  0.02795561  1
  O  O25  1  0.72566642  0.61098957  0.19487780  1
  O  O26  1  0.72666847  0.38405941  0.36056489  1
  O  O27  1  0.72570662  0.61321996  0.52682615  1
  O  O28  1  0.72088153  0.38355144  0.69332932  1
  F  F29  1  0.73943264  0.62900704  0.85729237  1
  F  F30  1  0.75074079  0.12545420  0.19244388  1
  F  F31  1  0.75535029  0.12731455  0.52310541  1
  F  F32  1  0.75549963  0.87026266  0.35797361  1
  F  F33  1  0.74869297  0.87267032  0.02670891  1
  F  F34  1  0.76486163  0.12631162  0.85918318  1
  F  F35  1  0.75792115  0.87112720  0.68933024  1
