# generated using pymatgen
data_Pu5Pt3
_symmetry_space_group_name_H-M   'P 1'
_cell_length_a   8.53436560
_cell_length_b   8.50559083
_cell_length_c   6.02231069
_cell_angle_alpha   89.90647662
_cell_angle_beta   89.95063140
_cell_angle_gamma   120.04928717
_symmetry_Int_Tables_number   1
_chemical_formula_structural   Pu5Pt3
_chemical_formula_sum   'Pu10 Pt6'
_cell_volume   378.40094880
_cell_formula_units_Z   2
loop_
 _symmetry_equiv_pos_site_id
 _symmetry_equiv_pos_as_xyz
  1  'x, y, z'
loop_
 _atom_site_type_symbol
 _atom_site_label
 _atom_site_symmetry_multiplicity
 _atom_site_fract_x
 _atom_site_fract_y
 _atom_site_fract_z
 _atom_site_occupancy
  Pu  Pu0  1  0.25472187  0.25560542  0.75414856  1
  Pu  Pu1  1  0.74385965  0.99853169  0.75428061  1
  Pu  Pu2  1  0.00100916  0.25602481  0.24577702  1
  Pu  Pu3  1  0.33362286  0.66691155  0.99952136  1
  Pu  Pu4  1  0.00083883  0.74504918  0.75425734  1
  Pu  Pu5  1  0.66663152  0.33361827  0.99984531  1
  Pu  Pu6  1  0.25492004  0.99875857  0.24567324  1
  Pu  Pu7  1  0.74420839  0.74526658  0.24589629  1
  Pu  Pu8  1  0.33333170  0.66711252  0.50029710  1
  Pu  Pu9  1  0.66663230  0.33344147  0.50019719  1
  Pt  Pt10  1  0.00081325  0.39026971  0.74947230  1
  Pt  Pt11  1  0.38957909  0.99891725  0.74941540  1
  Pt  Pt12  1  0.00102911  0.61047285  0.25052405  1
  Pt  Pt13  1  0.60982784  0.61078813  0.74934038  1
  Pt  Pt14  1  0.38950573  0.39037993  0.25076209  1
  Pt  Pt15  1  0.60946868  0.99885208  0.25059178  1
