# generated using pymatgen
data_Li3V2(O2F)2
_symmetry_space_group_name_H-M   'P 1'
_cell_length_a   5.93713019
_cell_length_b   7.87132707
_cell_length_c   7.90849696
_cell_angle_alpha   85.99911852
_cell_angle_beta   68.70460035
_cell_angle_gamma   79.72677208
_symmetry_Int_Tables_number   1
_chemical_formula_structural   Li3V2(O2F)2
_chemical_formula_sum   'Li9 V6 O12 F6'
_cell_volume   338.82761904
_cell_formula_units_Z   3
loop_
 _symmetry_equiv_pos_site_id
 _symmetry_equiv_pos_as_xyz
  1  'x, y, z'
loop_
 _atom_site_type_symbol
 _atom_site_label
 _atom_site_symmetry_multiplicity
 _atom_site_fract_x
 _atom_site_fract_y
 _atom_site_fract_z
 _atom_site_occupancy
  Li  Li0  1  0.13531320  0.21196993  0.62767669  1
  Li  Li1  1  0.20201396  0.45045873  0.37238391  1
  Li  Li2  1  0.53754485  0.08586176  0.36775604  1
  Li  Li3  1  0.37342945  0.77555321  0.39281961  1
  Li  Li4  1  0.63316035  0.21328228  0.63245636  1
  Li  Li5  1  0.71302686  0.43361975  0.36061687  1
  Li  Li6  1  0.77235939  0.57820788  0.64013782  1
  Li  Li7  1  0.86410015  0.79843747  0.36234849  1
  Li  Li8  1  0.95611595  0.89889735  0.63615954  1
  V  V9  1  0.99670896  0.00499331  0.00259703  1
  V  V10  1  0.16971261  0.33474408  0.99712528  1
  V  V11  1  0.49343062  0.00036762  0.00209169  1
  V  V12  1  0.33898233  0.66316906  0.98811369  1
  V  V13  1  0.66994940  0.33205580  0.99806843  1
  V  V14  1  0.83007695  0.66460409  0.00148662  1
  O  O15  1  0.04410199  0.54254957  0.14414120  1
  O  O16  1  0.22406651  0.88783293  0.13280892  1
  O  O17  1  0.37725192  0.22014220  0.13779935  1
  O  O18  1  0.54718892  0.56224781  0.14421189  1
  O  O19  1  0.09858519  0.77682425  0.87060890  1
  O  O20  1  0.29483359  0.12835404  0.85421272  1
  O  O21  1  0.69396919  0.88978303  0.14953045  1
  O  O22  1  0.87827442  0.22695223  0.13977281  1
  O  O23  1  0.46441798  0.44066425  0.85426665  1
  O  O24  1  0.78468203  0.10020837  0.85408619  1
  O  O25  1  0.63829230  0.77768982  0.85568381  1
  O  O26  1  0.95948857  0.44731964  0.85949037  1
  F  F27  1  0.07281535  0.67901988  0.48762063  1
  F  F28  1  0.24625403  0.99594308  0.50555142  1
  F  F29  1  0.43005622  0.31347440  0.48003148  1
  F  F30  1  0.75073684  0.00261689  0.49987165  1
  F  F31  1  0.62121626  0.65564639  0.46802468  1
  F  F32  1  0.90637768  0.35095189  0.52115981  1
