# generated using pymatgen
data_LiFe4(BO3)4
_symmetry_space_group_name_H-M   'P 1'
_cell_length_a   5.31654630
_cell_length_b   9.01030492
_cell_length_c   11.43948696
_cell_angle_alpha   113.47291466
_cell_angle_beta   77.23557896
_cell_angle_gamma   89.79004657
_symmetry_Int_Tables_number   1
_chemical_formula_structural   LiFe4(BO3)4
_chemical_formula_sum   'Li2 Fe8 B8 O24'
_cell_volume   487.64384181
_cell_formula_units_Z   2
loop_
 _symmetry_equiv_pos_site_id
 _symmetry_equiv_pos_as_xyz
  1  'x, y, z'
loop_
 _atom_site_type_symbol
 _atom_site_label
 _atom_site_symmetry_multiplicity
 _atom_site_fract_x
 _atom_site_fract_y
 _atom_site_fract_z
 _atom_site_occupancy
  Li  Li0  1  0.60146100  0.05613535  0.11194432  1
  Li  Li1  1  0.42325663  0.92991631  0.84646327  1
  Fe  Fe2  1  0.39886472  0.27533729  0.86951229  1
  Fe  Fe3  1  0.09768174  0.23244806  0.12067797  1
  Fe  Fe4  1  0.84728666  0.14448475  0.62148251  1
  Fe  Fe5  1  0.65634515  0.35531860  0.37054194  1
  Fe  Fe6  1  0.33920524  0.64033459  0.62194473  1
  Fe  Fe7  1  0.15158918  0.85274610  0.37116171  1
  Fe  Fe8  1  0.91113073  0.76905915  0.87427711  1
  Fe  Fe9  1  0.60031385  0.72450214  0.12513754  1
  B  B10  1  0.64968250  0.01368793  0.36735687  1
  B  B11  1  0.88949184  0.10320748  0.87156081  1
  B  B12  1  0.14242696  0.51885044  0.37448594  1
  B  B13  1  0.40563892  0.60798391  0.87361417  1
  B  B14  1  0.85264360  0.47933548  0.61992871  1
  B  B15  1  0.59851605  0.38999710  0.11999353  1
  B  B16  1  0.34752533  0.98519870  0.62723618  1
  B  B17  1  0.11272235  0.89392465  0.12366302  1
  O  O18  1  0.13239248  0.13075972  0.90036072  1
  O  O19  1  0.46777084  0.12861653  0.66807156  1
  O  O20  1  0.24691853  0.01264166  0.10354564  1
  O  O21  1  0.57429767  0.14275944  0.34682041  1
  O  O22  1  0.85418713  0.01686603  0.42699949  1
  O  O23  1  0.78434604  0.19953059  0.82006345  1
  O  O24  1  0.30048995  0.46806800  0.86126125  1
  O  O25  1  0.02754352  0.37535254  0.32878602  1
  O  O26  1  0.69181446  0.28497675  0.16870093  1
  O  O27  1  0.63807392  0.47929474  0.56696161  1
  O  O28  1  0.94266464  0.34280868  0.62519955  1
  O  O29  1  0.39567908  0.34034021  0.05875960  1
  O  O30  1  0.60423001  0.65892777  0.93664006  1
  O  O31  1  0.35982787  0.51816327  0.42577114  1
  O  O32  1  0.31414565  0.70909523  0.82092266  1
  O  O33  1  0.96898807  0.62274347  0.66589715  1
  O  O34  1  0.69982238  0.53110430  0.13358088  1
  O  O35  1  0.21335500  0.79379088  0.17427500  1
  O  O36  1  0.14438600  0.98104276  0.56744057  1
  O  O37  1  0.42175213  0.85664690  0.65003207  1
  O  O38  1  0.05189136  0.65637848  0.37108398  1
  O  O39  1  0.75410596  0.98528697  0.89599145  1
  O  O40  1  0.53074509  0.86961661  0.32669611  1
  O  O41  1  0.87163275  0.86453943  0.09122909  1
