# generated using pymatgen
data_LiFe4(BO3)4
_symmetry_space_group_name_H-M   'P 1'
_cell_length_a   5.33475856
_cell_length_b   9.02247455
_cell_length_c   10.10864926
_cell_angle_alpha   90.66640938
_cell_angle_beta   90.57737661
_cell_angle_gamma   89.63779936
_symmetry_Int_Tables_number   1
_chemical_formula_structural   LiFe4(BO3)4
_chemical_formula_sum   'Li2 Fe8 B8 O24'
_cell_volume   486.48983889
_cell_formula_units_Z   2
loop_
 _symmetry_equiv_pos_site_id
 _symmetry_equiv_pos_as_xyz
  1  'x, y, z'
loop_
 _atom_site_type_symbol
 _atom_site_label
 _atom_site_symmetry_multiplicity
 _atom_site_fract_x
 _atom_site_fract_y
 _atom_site_fract_z
 _atom_site_occupancy
  Li  Li0  1  0.64666183  0.00647960  0.10194143  1
  Li  Li1  1  0.85080272  0.51017438  0.84073667  1
  Fe  Fe2  1  0.15532503  0.16849702  0.12347703  1
  Fe  Fe3  1  0.84221840  0.16553163  0.37143687  1
  Fe  Fe4  1  0.34001306  0.32961567  0.87574159  1
  Fe  Fe5  1  0.64735504  0.33017782  0.61910464  1
  Fe  Fe6  1  0.33913840  0.66842976  0.36756978  1
  Fe  Fe7  1  0.16103081  0.83110920  0.62595491  1
  Fe  Fe8  1  0.66356498  0.66217605  0.12026372  1
  Fe  Fe9  1  0.84072095  0.84868707  0.86968114  1
  B  B10  1  0.16179332  0.16732331  0.62338393  1
  B  B11  1  0.32963671  0.33199991  0.37397382  1
  B  B12  1  0.82628443  0.17769239  0.87777366  1
  B  B13  1  0.66325119  0.33242540  0.12236869  1
  B  B14  1  0.33964950  0.66204809  0.87109174  1
  B  B15  1  0.66354118  0.67125878  0.62304057  1
  B  B16  1  0.17078861  0.83309130  0.12279260  1
  B  B17  1  0.83358600  0.82748859  0.36701132  1
  O  O18  1  0.25753386  0.02949333  0.62563050  1
  O  O19  1  0.07248792  0.19773969  0.91564627  1
  O  O20  1  0.70580857  0.04946939  0.89921141  1
  O  O21  1  0.18957879  0.21062270  0.33296551  1
  O  O22  1  0.30045806  0.28871443  0.67212201  1
  O  O23  1  0.77745682  0.20359034  0.17434036  1
  O  O24  1  0.92114259  0.19572475  0.57207227  1
  O  O25  1  0.42853561  0.31293529  0.06544590  1
  O  O26  1  0.24310883  0.47132542  0.36483737  1
  O  O27  1  0.57162912  0.30392910  0.42653893  1
  O  O28  1  0.70242230  0.30438567  0.82419831  1
  O  O29  1  0.21568728  0.52834586  0.87073322  1
  O  O30  1  0.77942017  0.46492985  0.12265033  1
  O  O31  1  0.30288307  0.70477710  0.16444641  1
  O  O32  1  0.42913017  0.69629335  0.56472054  1
  O  O33  1  0.74363279  0.52993727  0.64856975  1
  O  O34  1  0.58901789  0.67126936  0.91863570  1
  O  O35  1  0.06931593  0.80138044  0.42362572  1
  O  O36  1  0.21604474  0.78588217  0.82242091  1
  O  O37  1  0.69501361  0.70449961  0.32245614  1
  O  O38  1  0.80769506  0.79136988  0.66219972  1
  O  O39  1  0.29008658  0.96256401  0.11634984  1
  O  O40  1  0.91392266  0.81848231  0.08708575  1
  O  O41  1  0.74250439  0.96691573  0.35182603  1
