# generated using pymatgen
data_Li4Fe3(OF3)2
_symmetry_space_group_name_H-M   'P 1'
_cell_length_a   5.31404676
_cell_length_b   6.08996097
_cell_length_c   5.29769333
_cell_angle_alpha   88.73062717
_cell_angle_beta   79.07725849
_cell_angle_gamma   73.18734429
_symmetry_Int_Tables_number   1
_chemical_formula_structural   Li4Fe3(OF3)2
_chemical_formula_sum   'Li4 Fe3 O2 F6'
_cell_volume   161.04689921
_cell_formula_units_Z   1
loop_
 _symmetry_equiv_pos_site_id
 _symmetry_equiv_pos_as_xyz
  1  'x, y, z'
loop_
 _atom_site_type_symbol
 _atom_site_label
 _atom_site_symmetry_multiplicity
 _atom_site_fract_x
 _atom_site_fract_y
 _atom_site_fract_z
 _atom_site_occupancy
  Li  Li0  1  0.98137740  0.00038792  0.98308683  1
  Li  Li1  1  0.00113753  0.23414953  0.48009818  1
  Li  Li2  1  0.99886247  0.51585047  0.01990182  1
  Li  Li3  1  0.01862260  0.74961208  0.51691317  1
  Fe  Fe4  1  0.48847701  0.11621273  0.74746129  1
  Fe  Fe5  1  0.51152299  0.63378727  0.75253871  1
  Fe  Fe6  1  0.50000000  0.87500000  0.25000000  1
  O  O7  1  0.26925150  0.93994957  0.60268888  1
  O  O8  1  0.73074850  0.81005043  0.89731112  1
  F  F9  1  0.20770842  0.19038259  0.11016358  1
  F  F10  1  0.77190318  0.04706588  0.37893473  1
  F  F11  1  0.24936878  0.45422716  0.66121560  1
  F  F12  1  0.75063122  0.29577284  0.83878440  1
  F  F13  1  0.22809682  0.70293412  0.12106527  1
  F  F14  1  0.79229158  0.55961741  0.38983642  1
