# generated using pymatgen
data_Li3V2(O2F)2
_symmetry_space_group_name_H-M   'P 1'
_cell_length_a   5.94032042
_cell_length_b   7.84390193
_cell_length_c   7.95708138
_cell_angle_alpha   73.87672370
_cell_angle_beta   101.25146127
_cell_angle_gamma   79.95068290
_symmetry_Int_Tables_number   1
_chemical_formula_structural   Li3V2(O2F)2
_chemical_formula_sum   'Li9 V6 O12 F6'
_cell_volume   338.88815216
_cell_formula_units_Z   3
loop_
 _symmetry_equiv_pos_site_id
 _symmetry_equiv_pos_as_xyz
  1  'x, y, z'
loop_
 _atom_site_type_symbol
 _atom_site_label
 _atom_site_symmetry_multiplicity
 _atom_site_fract_x
 _atom_site_fract_y
 _atom_site_fract_z
 _atom_site_occupancy
  Li  Li0  1  0.16045524  0.00976385  0.63251189  1
  Li  Li1  1  0.01026122  0.31471364  0.35623903  1
  Li  Li2  1  0.29813294  0.36194878  0.63885550  1
  Li  Li3  1  0.16771790  0.67589731  0.36223045  1
  Li  Li4  1  0.49076917  0.68901326  0.63083249  1
  Li  Li5  1  0.65434357  0.00344285  0.63666072  1
  Li  Li6  1  0.51165442  0.32216546  0.36643184  1
  Li  Li7  1  0.70079358  0.64373740  0.39368408  1
  Li  Li8  1  0.84902155  0.96078556  0.37579903  1
  V  V9  1  0.00484570  0.00165598  0.00305067  1
  V  V10  1  0.16044208  0.33804373  0.99137348  1
  V  V11  1  0.49869058  0.99830989  0.01018027  1
  V  V12  1  0.33135120  0.66663451  0.99136060  1
  V  V13  1  0.66347483  0.33342649  0.99463174  1
  V  V14  1  0.83333817  0.66717525  0.99915587  1
  O  O15  1  0.00265103  0.82752361  0.86126298  1
  O  O16  1  0.18864853  0.15926862  0.85685592  1
  O  O17  1  0.15416640  0.50724630  0.13768221  1
  O  O18  1  0.32926228  0.48190404  0.85054186  1
  O  O19  1  0.34057739  0.84219930  0.14026112  1
  O  O20  1  0.48369204  0.17736502  0.13956538  1
  O  O21  1  0.51448885  0.82683714  0.85407036  1
  O  O22  1  0.66819797  0.14226423  0.86642818  1
  O  O23  1  0.65782042  0.50997324  0.14117512  1
  O  O24  1  0.83590269  0.50583706  0.85845361  1
  O  O25  1  0.99950703  0.18777812  0.13599520  1
  O  O26  1  0.82884409  0.83160924  0.15278737  1
  F  F27  1  0.00906855  0.49958577  0.46562706  1
  F  F28  1  0.17084438  0.83549791  0.50450340  1
  F  F29  1  0.33730644  0.17907099  0.51626906  1
  F  F30  1  0.47974608  0.51432644  0.48834140  1
  F  F31  1  0.66825419  0.82971180  0.50457778  1
  F  F32  1  0.83152050  0.15282619  0.48331534  1
