# generated using pymatgen
data_Li3V2(O2F)2
_symmetry_space_group_name_H-M   'P 1'
_cell_length_a   8.95202640
_cell_length_b   5.13998018
_cell_length_c   7.37529049
_cell_angle_alpha   88.49295248
_cell_angle_beta   90.00000000
_cell_angle_gamma   90.00000000
_symmetry_Int_Tables_number   1
_chemical_formula_structural   Li3V2(O2F)2
_chemical_formula_sum   'Li9 V6 O12 F6'
_cell_volume   339.24361269
_cell_formula_units_Z   3
loop_
 _symmetry_equiv_pos_site_id
 _symmetry_equiv_pos_as_xyz
  1  'x, y, z'
loop_
 _atom_site_type_symbol
 _atom_site_label
 _atom_site_symmetry_multiplicity
 _atom_site_fract_x
 _atom_site_fract_y
 _atom_site_fract_z
 _atom_site_occupancy
  Li  Li0  1  0.00049199  0.31733519  0.63082966  1
  Li  Li1  1  0.00000112  0.68901421  0.37513652  1
  Li  Li2  1  0.16666700  0.86247310  0.63863236  1
  Li  Li3  1  0.33284201  0.31733519  0.63082966  1
  Li  Li4  1  0.33333188  0.68901421  0.37513652  1
  Li  Li5  1  0.48887937  0.14900778  0.35450494  1
  Li  Li6  1  0.66666700  0.28871818  0.63487215  1
  Li  Li7  1  0.66666700  0.68305376  0.40066714  1
  Li  Li8  1  0.84445363  0.14900778  0.35450494  1
  V  V9  1  0.00020445  0.99622234  0.99836654  1
  V  V10  1  0.16666700  0.49207078  0.00925094  1
  V  V11  1  0.33312955  0.99622234  0.99836654  1
  V  V12  1  0.49955768  0.50497242  0.99672530  1
  V  V13  1  0.66666700  0.00230405  0.99084643  1
  V  V14  1  0.83377532  0.50497242  0.99672530  1
  O  O15  1  0.99505808  0.31235878  0.13839101  1
  O  O16  1  0.00578556  0.68217357  0.86318053  1
  O  O17  1  0.16666700  0.83290525  0.14563972  1
  O  O18  1  0.16666700  0.15878885  0.85083982  1
  O  O19  1  0.33827492  0.31235878  0.13839101  1
  O  O20  1  0.32754844  0.68217357  0.86318053  1
  O  O21  1  0.49868715  0.84385152  0.14536820  1
  O  O22  1  0.49927967  0.16961230  0.85187764  1
  O  O23  1  0.66666700  0.31781074  0.13410055  1
  O  O24  1  0.66666700  0.68788837  0.86369844  1
  O  O25  1  0.83464585  0.84385152  0.14536820  1
  O  O26  1  0.83405333  0.16961230  0.85187764  1
  F  F27  1  0.00042048  0.00256010  0.50199617  1
  F  F28  1  0.16666700  0.52815080  0.51760258  1
  F  F29  1  0.33291252  0.00256010  0.50199617  1
  F  F30  1  0.49824692  0.47776266  0.48708107  1
  F  F31  1  0.66666700  0.02276041  0.46764664  1
  F  F32  1  0.83508608  0.47776266  0.48708107  1
