# generated using pymatgen
data_LiFe2(BO3)2
_symmetry_space_group_name_H-M   'P 1'
_cell_length_a   5.21721929
_cell_length_b   5.23453052
_cell_length_c   10.29807855
_cell_angle_alpha   89.65933975
_cell_angle_beta   91.45892156
_cell_angle_gamma   60.81647681
_symmetry_Int_Tables_number   1
_chemical_formula_structural   LiFe2(BO3)2
_chemical_formula_sum   'Li2 Fe4 B4 O12'
_cell_volume   245.40384307
_cell_formula_units_Z   2
loop_
 _symmetry_equiv_pos_site_id
 _symmetry_equiv_pos_as_xyz
  1  'x, y, z'
loop_
 _atom_site_type_symbol
 _atom_site_label
 _atom_site_symmetry_multiplicity
 _atom_site_fract_x
 _atom_site_fract_y
 _atom_site_fract_z
 _atom_site_occupancy
  Li  Li0  1  0.33204534  0.65058885  0.34844686  1
  Li  Li1  1  0.65350208  0.35224578  0.08387650  1
  Fe  Fe2  1  0.00077533  0.66436304  0.63388622  1
  Fe  Fe3  1  0.68022872  0.00580187  0.86411004  1
  Fe  Fe4  1  0.32000632  0.99892202  0.10788195  1
  Fe  Fe5  1  0.00018501  0.32743116  0.37172585  1
  B  B6  1  0.00151034  0.33661138  0.87487681  1
  B  B7  1  0.33759185  0.00152618  0.61010173  1
  B  B8  1  0.66169322  0.99682135  0.37218663  1
  B  B9  1  0.99162443  0.66811854  0.13628521  1
  O  O10  1  0.10484237  0.27842505  0.56591815  1
  O  O11  1  0.26841861  0.10001519  0.91149159  1
  O  O12  1  0.99897444  0.58473998  0.81798998  1
  O  O13  1  0.60147713  0.98500967  0.64571710  1
  O  O14  1  0.26220592  0.65380165  0.15009990  1
  O  O15  1  0.29399838  0.76658325  0.60875875  1
  O  O16  1  0.67528731  0.25259479  0.36573409  1
  O  O17  1  0.74287301  0.34207698  0.89792659  1
  O  O18  1  0.39873092  0.99620333  0.34446465  1
  O  O19  1  0.97092580  0.41567221  0.17467994  1
  O  O20  1  0.74659323  0.91619944  0.09076690  1
  O  O21  1  0.91540722  0.73229328  0.40383257  1
