# generated using pymatgen
data_Li3V2(O2F)2
_symmetry_space_group_name_H-M   'P 1'
_cell_length_a   5.93486320
_cell_length_b   7.89195892
_cell_length_c   7.37887315
_cell_angle_alpha   89.10242065
_cell_angle_beta   90.37673552
_cell_angle_gamma   79.62204072
_symmetry_Int_Tables_number   1
_chemical_formula_structural   Li3V2(O2F)2
_chemical_formula_sum   'Li9 V6 O12 F6'
_cell_volume   339.89831211
_cell_formula_units_Z   3
loop_
 _symmetry_equiv_pos_site_id
 _symmetry_equiv_pos_as_xyz
  1  'x, y, z'
loop_
 _atom_site_type_symbol
 _atom_site_label
 _atom_site_symmetry_multiplicity
 _atom_site_fract_x
 _atom_site_fract_y
 _atom_site_fract_z
 _atom_site_occupancy
  Li  Li0  1  0.08552109  0.57317880  0.64165396  1
  Li  Li1  1  0.04858222  0.80127202  0.35817824  1
  Li  Li2  1  0.44836543  0.20934411  0.63138120  1
  Li  Li3  1  0.27685005  0.89706125  0.62910926  1
  Li  Li4  1  0.38913354  0.44749278  0.37411282  1
  Li  Li5  1  0.57326162  0.77571614  0.40037922  1
  Li  Li6  1  0.72257429  0.09215285  0.36614902  1
  Li  Li7  1  0.95040019  0.21214984  0.62996940  1
  Li  Li8  1  0.88973698  0.43650334  0.35623143  1
  V  V9  1  0.99133589  0.00266886  0.00004905  1
  V  V10  1  0.16644057  0.32786135  0.00533732  1
  V  V11  1  0.49345275  0.00245124  0.00547065  1
  V  V12  1  0.34210617  0.66284631  0.00261037  1
  V  V13  1  0.66512842  0.33859616  0.99058867  1
  V  V14  1  0.83474677  0.67168002  0.98985002  1
  O  O15  1  0.11901958  0.53774031  0.13934619  1
  O  O16  1  0.21025547  0.12737547  0.85254550  1
  O  O17  1  0.04859756  0.76563025  0.85597642  1
  O  O18  1  0.26864138  0.88289709  0.13741191  1
  O  O19  1  0.44867879  0.22756889  0.14186869  1
  O  O20  1  0.39324195  0.43678514  0.86043621  1
  O  O21  1  0.63733563  0.55212253  0.14242285  1
  O  O22  1  0.71391284  0.12358719  0.85706789  1
  O  O23  1  0.55491855  0.78162913  0.86406620  1
  O  O24  1  0.92809108  0.23295442  0.14155459  1
  O  O25  1  0.78177787  0.88305157  0.14661999  1
  O  O26  1  0.89277317  0.44641390  0.85685852  1
  F  F27  1  0.00135579  0.00209564  0.50164524  1
  F  F28  1  0.16619843  0.35062887  0.51885368  1
  F  F29  1  0.31809761  0.67734428  0.48985155  1
  F  F30  1  0.49994637  0.99671052  0.50352346  1
  F  F31  1  0.67011743  0.31405195  0.48420052  1
  F  F32  1  0.85829153  0.65488179  0.46539298  1
