# generated using pymatgen
data_Li3Fe8(BO3)8
_symmetry_space_group_name_H-M   'P 1'
_cell_length_a   5.23494053
_cell_length_b   9.12902570
_cell_length_c   11.36948476
_cell_angle_alpha   66.74180011
_cell_angle_beta   76.74327081
_cell_angle_gamma   89.40916275
_symmetry_Int_Tables_number   1
_chemical_formula_structural   Li3Fe8(BO3)8
_chemical_formula_sum   'Li3 Fe8 B8 O24'
_cell_volume   483.92921109
_cell_formula_units_Z   1
loop_
 _symmetry_equiv_pos_site_id
 _symmetry_equiv_pos_as_xyz
  1  'x, y, z'
loop_
 _atom_site_type_symbol
 _atom_site_label
 _atom_site_symmetry_multiplicity
 _atom_site_fract_x
 _atom_site_fract_y
 _atom_site_fract_z
 _atom_site_occupancy
  Li  Li0  1  0.71823517  0.72385947  0.89888897  1
  Li  Li1  1  0.73372486  0.74788608  0.16205690  1
  Li  Li2  1  0.02964395  0.01511834  0.63144591  1
  Fe  Fe3  1  0.98611887  0.65140684  0.38085620  1
  Fe  Fe4  1  0.74308246  0.07178676  0.87636520  1
  Fe  Fe5  1  0.53337226  0.83570747  0.62765384  1
  Fe  Fe6  1  0.74707986  0.42707516  0.13246340  1
  Fe  Fe7  1  0.22758701  0.55549613  0.88085341  1
  Fe  Fe8  1  0.48080497  0.14546488  0.37785019  1
  Fe  Fe9  1  0.01708037  0.35635404  0.63189562  1
  Fe  Fe10  1  0.26567036  0.94522475  0.12094544  1
  B  B11  1  0.96800188  0.30802145  0.38770160  1
  B  B12  1  0.72654847  0.40351400  0.87361968  1
  B  B13  1  0.51715321  0.18287960  0.62727447  1
  B  B14  1  0.76295868  0.09559031  0.13412408  1
  B  B15  1  0.48206645  0.82037581  0.36894747  1
  B  B16  1  0.23175758  0.88524807  0.88033109  1
  B  B17  1  0.03625868  0.68550327  0.63373828  1
  B  B18  1  0.26574049  0.61587583  0.11941980  1
  O  O19  1  0.97829208  0.89829137  0.86607649  1
  O  O20  1  0.87767607  0.30490045  0.82445349  1
  O  O21  1  0.84575745  0.50324729  0.91761981  1
  O  O22  1  0.90110092  0.81147958  0.63944545  1
  O  O23  1  0.95703512  0.58845485  0.57485053  1
  O  O24  1  0.76383321  0.17077107  0.66070327  1
  O  O25  1  0.74298621  0.31845158  0.34135411  1
  O  O26  1  0.46437025  0.40334771  0.88161921  1
  O  O27  1  0.38607076  0.77450315  0.84507401  1
  O  O28  1  0.53931648  0.92060991  0.42479760  1
  O  O29  1  0.65099020  0.71094389  0.35139929  1
  O  O30  1  0.34792584  0.97737960  0.93047638  1
  O  O31  1  0.64844515  0.99267776  0.09018088  1
  O  O32  1  0.36074623  0.30012579  0.63628381  1
  O  O33  1  0.43373775  0.06954392  0.58611470  1
  O  O34  1  0.60623681  0.19445371  0.18030514  1
  O  O35  1  0.53209828  0.62016495  0.10958872  1
  O  O36  1  0.25497883  0.64756718  0.68463449  1
  O  O37  1  0.24944558  0.83206823  0.32539491  1
  O  O38  1  0.03505794  0.42699156  0.42853381  1
  O  O39  1  0.12220479  0.18381521  0.39922516  1
  O  O40  1  0.13738396  0.52251621  0.07670135  1
  O  O41  1  0.10948955  0.71624422  0.17134737  1
  O  O42  1  0.02549696  0.09387558  0.12878945  1
