# generated using pymatgen
data_Na8TiO6
_symmetry_space_group_name_H-M   'P 1'
_cell_length_a   11.64820893
_cell_length_b   11.64831739
_cell_length_c   11.67493527
_cell_angle_alpha   89.99899974
_cell_angle_beta   90.00067120
_cell_angle_gamma   119.99969803
_symmetry_Int_Tables_number   1
_chemical_formula_structural   Na8TiO6
_chemical_formula_sum   'Na48 Ti6 O36'
_cell_volume   1371.85680583
_cell_formula_units_Z   6
loop_
 _symmetry_equiv_pos_site_id
 _symmetry_equiv_pos_as_xyz
  1  'x, y, z'
loop_
 _atom_site_type_symbol
 _atom_site_label
 _atom_site_symmetry_multiplicity
 _atom_site_fract_x
 _atom_site_fract_y
 _atom_site_fract_z
 _atom_site_occupancy
  Na  Na0  1  0.00000700  0.83606113  0.96259666  1
  Na  Na1  1  0.99999080  0.52123316  0.18676231  1
  Na  Na2  1  0.14238778  0.80544454  0.30485201  1
  Na  Na3  1  0.15993293  0.77538345  0.57541725  1
  Na  Na4  1  0.19452596  0.85760276  0.80486929  1
  Na  Na5  1  0.99998878  0.47877979  0.68678377  1
  Na  Na6  1  0.22462171  0.84003398  0.07540240  1
  Na  Na7  1  0.13488339  0.58895855  0.93515826  1
  Na  Na8  1  0.13487028  0.54593262  0.43517315  1
  Na  Na9  1  0.99998518  0.16400019  0.46259667  1
  Na  Na10  1  0.41103840  0.86515447  0.43517094  1
  Na  Na11  1  0.14239582  0.33695117  0.80486075  1
  Na  Na12  1  0.15994657  0.38456256  0.07541915  1
  Na  Na13  1  0.22462291  0.38455936  0.57542252  1
  Na  Na14  1  0.19458125  0.33695865  0.30487123  1
  Na  Na15  1  0.45407209  0.86511428  0.93517549  1
  Na  Na16  1  0.16394344  0.16396476  0.96258299  1
  Na  Na17  1  0.41103016  0.54591072  0.93514921  1
  Na  Na18  1  0.16399506  0.00002387  0.46260640  1
  Na  Na19  1  0.45408012  0.58896256  0.43519722  1
  Na  Na20  1  0.61541183  0.84006414  0.57542780  1
  Na  Na21  1  0.47875931  0.47874754  0.18677273  1
  Na  Na22  1  0.66303127  0.85761126  0.30486222  1
  Na  Na23  1  0.33695803  0.19456030  0.30487133  1
  Na  Na24  1  0.61540662  0.77536431  0.07540910  1
  Na  Na25  1  0.38459366  0.22463160  0.57543917  1
  Na  Na26  1  0.66304881  0.80546349  0.80487028  1
  Na  Na27  1  0.33691684  0.14238082  0.80487575  1
  Na  Na28  1  0.52121496  0.52120890  0.68678693  1
  Na  Na29  1  0.38455258  0.15993617  0.07541399  1
  Na  Na30  1  0.54590809  0.41103093  0.93518525  1
  Na  Na31  1  0.58897227  0.45407885  0.43518220  1
  Na  Na32  1  0.83598612  0.83599683  0.46260604  1
  Na  Na33  1  0.54593834  0.13489812  0.43518775  1
  Na  Na34  1  0.47878914  0.00002637  0.68678871  1
  Na  Na35  1  0.80544658  0.66308467  0.80487885  1
  Na  Na36  1  0.77536716  0.61540657  0.07538788  1
  Na  Na37  1  0.84004144  0.61541456  0.57544136  1
  Na  Na38  1  0.85759130  0.66306401  0.30484545  1
  Na  Na39  1  0.52122578  0.99998386  0.18677521  1
  Na  Na40  1  0.58894302  0.13485044  0.93518146  1
  Na  Na41  1  0.86513339  0.45408348  0.93518581  1
  Na  Na42  1  0.86511803  0.41104506  0.43517061  1
  Na  Na43  1  0.77537663  0.15996240  0.57543616  1
  Na  Na44  1  0.80544233  0.14237380  0.30484792  1
  Na  Na45  1  0.84005085  0.22462399  0.07540847  1
  Na  Na46  1  0.85764487  0.19455835  0.80488419  1
  Na  Na47  1  0.83603271  0.99998456  0.96260401  1
  Ti  Ti48  1  0.33332373  0.66664206  0.19376443  1
  Ti  Ti49  1  0.00001515  0.00002465  0.21007384  1
  Ti  Ti50  1  0.99998795  0.00001030  0.71054381  1
  Ti  Ti51  1  0.33332004  0.66668454  0.69383518  1
  Ti  Ti52  1  0.66668749  0.33333919  0.69391086  1
  Ti  Ti53  1  0.66666089  0.33329980  0.19375438  1
  O  O54  1  0.99999147  0.84995246  0.76200054  1
  O  O55  1  0.99999677  0.65948279  0.04593906  1
  O  O56  1  0.99997708  0.65036370  0.43513026  1
  O  O57  1  0.00001584  0.34964211  0.93515658  1
  O  O58  1  0.18581476  0.67075115  0.74354144  1
  O  O59  1  0.00000037  0.34053492  0.54596900  1
  O  O60  1  0.32924643  0.81415067  0.24357062  1
  O  O61  1  0.00002475  0.15015366  0.26207649  1
  O  O62  1  0.18581195  0.51505359  0.24357210  1
  O  O63  1  0.33334829  0.66664749  0.03619894  1
  O  O64  1  0.33333419  0.66670037  0.53612469  1
  O  O65  1  0.00001008  0.00001435  0.05361734  1
  O  O66  1  0.99997803  0.99999786  0.55323851  1
  O  O67  1  0.32924321  0.51509673  0.74353900  1
  O  O68  1  0.15004361  0.15006081  0.76198751  1
  O  O69  1  0.48489456  0.81417536  0.74355878  1
  O  O70  1  0.34051916  0.34051095  0.04594919  1
  O  O71  1  0.48494640  0.67071760  0.24359714  1
  O  O72  1  0.34965708  0.34964327  0.43514898  1
  O  O73  1  0.15013960  0.00001669  0.26208374  1
  O  O74  1  0.65034982  0.65036269  0.93514556  1
  O  O75  1  0.51510282  0.32924675  0.74359615  1
  O  O76  1  0.65946948  0.65946900  0.54597563  1
  O  O77  1  0.34052901  0.00001512  0.54596417  1
  O  O78  1  0.34962370  0.99998917  0.93514836  1
  O  O79  1  0.51504845  0.18578010  0.24359096  1
  O  O80  1  0.84988067  0.84990767  0.26208839  1
  O  O81  1  0.67074655  0.48490134  0.24356858  1
  O  O82  1  0.66669322  0.33333592  0.53618738  1
  O  O83  1  0.66665932  0.33329139  0.03619590  1
  O  O84  1  0.81418120  0.48493217  0.74359987  1
  O  O85  1  0.67077939  0.18584454  0.74360138  1
  O  O86  1  0.65035911  0.00001189  0.43514258  1
  O  O87  1  0.65947543  0.99998549  0.04597206  1
  O  O88  1  0.81417670  0.32922838  0.24358139  1
  O  O89  1  0.84993467  0.00000042  0.76200594  1
