# generated using pymatgen
data_Li3Fe8(BO3)8
_symmetry_space_group_name_H-M   'P 1'
_cell_length_a   5.30433379
_cell_length_b   9.03189160
_cell_length_c   11.38136108
_cell_angle_alpha   113.18123771
_cell_angle_beta   77.38323125
_cell_angle_gamma   90.61089752
_symmetry_Int_Tables_number   1
_chemical_formula_structural   Li3Fe8(BO3)8
_chemical_formula_sum   'Li3 Fe8 B8 O24'
_cell_volume   487.40752714
_cell_formula_units_Z   1
loop_
 _symmetry_equiv_pos_site_id
 _symmetry_equiv_pos_as_xyz
  1  'x, y, z'
loop_
 _atom_site_type_symbol
 _atom_site_label
 _atom_site_symmetry_multiplicity
 _atom_site_fract_x
 _atom_site_fract_y
 _atom_site_fract_z
 _atom_site_occupancy
  Li  Li0  1  0.16520048  0.16174243  0.34709954  1
  Li  Li1  1  0.60241408  0.04969039  0.08618530  1
  Li  Li2  1  0.67390606  0.66451830  0.34542069  1
  Fe  Fe3  1  0.40312068  0.26883508  0.86637253  1
  Fe  Fe4  1  0.09144954  0.22545560  0.11361211  1
  Fe  Fe5  1  0.85251945  0.14477958  0.62246078  1
  Fe  Fe6  1  0.65037291  0.35055492  0.37616626  1
  Fe  Fe7  1  0.34929221  0.65121576  0.63299222  1
  Fe  Fe8  1  0.14914227  0.84197500  0.37408287  1
  Fe  Fe9  1  0.91077914  0.77398652  0.86798904  1
  Fe  Fe10  1  0.59494176  0.72493040  0.12000801  1
  B  B11  1  0.65505946  0.01604796  0.36808423  1
  B  B12  1  0.88555340  0.10799055  0.87268358  1
  B  B13  1  0.14036019  0.51102715  0.37543740  1
  B  B14  1  0.40321776  0.60268944  0.87242749  1
  B  B15  1  0.86044961  0.47728368  0.61580623  1
  B  B16  1  0.59104086  0.39392109  0.12780932  1
  B  B17  1  0.35509488  0.98051840  0.61949047  1
  B  B18  1  0.10496875  0.89662458  0.12937421  1
  O  O19  1  0.11931200  0.14832665  0.90844210  1
  O  O20  1  0.47656629  0.12438591  0.66066192  1
  O  O21  1  0.22033528  0.03704583  0.13990743  1
  O  O22  1  0.52718652  0.14499081  0.36174057  1
  O  O23  1  0.88222349  0.03802360  0.41321520  1
  O  O24  1  0.78191436  0.20262144  0.81901630  1
  O  O25  1  0.29957177  0.46158385  0.86068971  1
  O  O26  1  0.03396448  0.35998505  0.33987155  1
  O  O27  1  0.69111940  0.28963870  0.17629826  1
  O  O28  1  0.63285466  0.47821413  0.56973652  1
  O  O29  1  0.95951161  0.33842103  0.61270713  1
  O  O30  1  0.40201241  0.34105856  0.05936356  1
  O  O31  1  0.61282567  0.65184095  0.93103513  1
  O  O32  1  0.38063592  0.52276778  0.41199515  1
  O  O33  1  0.30529238  0.70417300  0.82313511  1
  O  O34  1  0.97986795  0.61989724  0.65756175  1
  O  O35  1  0.68194461  0.54312245  0.15442205  1
  O  O36  1  0.22159488  0.78614082  0.16289124  1
  O  O37  1  0.12883455  0.98261615  0.57746223  1
  O  O38  1  0.45952735  0.84032651  0.61385793  1
  O  O39  1  0.01496940  0.63774770  0.37251827  1
  O  O40  1  0.75889403  0.98857416  0.89817599  1
  O  O41  1  0.55718953  0.86475059  0.32836073  1
  O  O42  1  0.86826095  0.86857624  0.09202791  1
