# generated using pymatgen
data_Li3Fe8(BO3)8
_symmetry_space_group_name_H-M   'P 1'
_cell_length_a   5.22810498
_cell_length_b   9.15960278
_cell_length_c   11.41790213
_cell_angle_alpha   66.99037303
_cell_angle_beta   76.41679825
_cell_angle_gamma   89.37902528
_symmetry_Int_Tables_number   1
_chemical_formula_structural   Li3Fe8(BO3)8
_chemical_formula_sum   'Li3 Fe8 B8 O24'
_cell_volume   487.18780111
_cell_formula_units_Z   1
loop_
 _symmetry_equiv_pos_site_id
 _symmetry_equiv_pos_as_xyz
  1  'x, y, z'
loop_
 _atom_site_type_symbol
 _atom_site_label
 _atom_site_symmetry_multiplicity
 _atom_site_fract_x
 _atom_site_fract_y
 _atom_site_fract_z
 _atom_site_occupancy
  Li  Li0  1  0.97106445  0.97236146  0.39230413  1
  Li  Li1  1  0.73444356  0.73714361  0.16498784  1
  Li  Li2  1  0.02416943  0.00139152  0.64957738  1
  Fe  Fe3  1  0.97848659  0.64573130  0.38297814  1
  Fe  Fe4  1  0.72803083  0.07223627  0.87541831  1
  Fe  Fe5  1  0.53288154  0.83839559  0.62922658  1
  Fe  Fe6  1  0.76312433  0.42342731  0.13059499  1
  Fe  Fe7  1  0.23306863  0.56570441  0.87783518  1
  Fe  Fe8  1  0.46580087  0.15557780  0.38162730  1
  Fe  Fe9  1  0.02127681  0.35651160  0.62545754  1
  Fe  Fe10  1  0.26615002  0.93514560  0.13088766  1
  B  B11  1  0.96448075  0.30520435  0.38337744  1
  B  B12  1  0.72928174  0.39410788  0.88015062  1
  B  B13  1  0.50863750  0.18019163  0.63411820  1
  B  B14  1  0.76457171  0.09920989  0.13072533  1
  B  B15  1  0.49092160  0.82705708  0.36623949  1
  B  B16  1  0.23732887  0.89754144  0.87685912  1
  B  B17  1  0.03583139  0.68882940  0.62720029  1
  B  B18  1  0.26834018  0.60791618  0.12274948  1
  O  O19  1  0.99261516  0.93448750  0.85456459  1
  O  O20  1  0.86538674  0.28782622  0.83111354  1
  O  O21  1  0.86570508  0.47245736  0.93343774  1
  O  O22  1  0.92238124  0.83023619  0.60343817  1
  O  O23  1  0.95146839  0.57739444  0.58600128  1
  O  O24  1  0.75262531  0.16145272  0.67451110  1
  O  O25  1  0.75855155  0.34191157  0.32001285  1
  O  O26  1  0.47764121  0.41659450  0.87635149  1
  O  O27  1  0.36801320  0.78226374  0.84499351  1
  O  O28  1  0.57321796  0.92499397  0.41909849  1
  O  O29  1  0.63571725  0.71252223  0.34390580  1
  O  O30  1  0.36102117  0.98279338  0.93137867  1
  O  O31  1  0.65065041  0.00229730  0.08017034  1
  O  O32  1  0.36396084  0.30238567  0.63847657  1
  O  O33  1  0.42686652  0.06902371  0.59364698  1
  O  O34  1  0.62060384  0.21088643  0.16216519  1
  O  O35  1  0.52430799  0.58862676  0.13001005  1
  O  O36  1  0.24317051  0.65764911  0.68697519  1
  O  O37  1  0.24762692  0.85072056  0.32742552  1
  O  O38  1  0.03755443  0.40830325  0.43554168  1
  O  O39  1  0.08226451  0.16782539  0.39828355  1
  O  O40  1  0.13329233  0.51860006  0.07815923  1
  O  O41  1  0.12671607  0.72046835  0.16105556  1
  O  O42  1  0.01119056  0.07378425  0.14837189  1
