# generated using pymatgen
data_Li5FeNi3O8
_symmetry_space_group_name_H-M   'P 1'
_cell_length_a   5.92076289
_cell_length_b   5.91521644
_cell_length_c   9.74323355
_cell_angle_alpha   89.44368733
_cell_angle_beta   89.36770063
_cell_angle_gamma   119.17633697
_symmetry_Int_Tables_number   1
_chemical_formula_structural   Li5FeNi3O8
_chemical_formula_sum   'Li10 Fe2 Ni6 O16'
_cell_volume   297.87618072
_cell_formula_units_Z   2
loop_
 _symmetry_equiv_pos_site_id
 _symmetry_equiv_pos_as_xyz
  1  'x, y, z'
loop_
 _atom_site_type_symbol
 _atom_site_label
 _atom_site_symmetry_multiplicity
 _atom_site_fract_x
 _atom_site_fract_y
 _atom_site_fract_z
 _atom_site_occupancy
  Li  Li0  1  0.81369267  0.19722897  0.44316301  1
  Li  Li1  1  0.68356894  0.35943776  0.22464537  1
  Li  Li2  1  0.41433441  0.21582783  0.45006301  1
  Li  Li3  1  0.02248892  0.01541446  0.51529689  1
  Li  Li4  1  0.01462100  0.02252559  0.01569027  1
  Li  Li5  1  0.81431806  0.62297656  0.44885907  1
  Li  Li6  1  0.35954506  0.68384664  0.72563412  1
  Li  Li7  1  0.62328235  0.81455119  0.94917484  1
  Li  Li8  1  0.21552967  0.41396824  0.95001388  1
  Li  Li9  1  0.19690725  0.81341888  0.94354217  1
  Fe  Fe10  1  0.67756830  0.34589627  0.96721259  1
  Fe  Fe11  1  0.34591038  0.67720044  0.46781284  1
  Ni  Ni12  1  0.84837086  0.17908650  0.71339792  1
  Ni  Ni13  1  0.35478892  0.18139135  0.71434541  1
  Ni  Ni14  1  0.84817234  0.67393431  0.71258240  1
  Ni  Ni15  1  0.18133305  0.35463084  0.21427998  1
  Ni  Ni16  1  0.67376653  0.84787496  0.21269681  1
  Ni  Ni17  1  0.17903139  0.84817222  0.21361233  1
  O  O18  1  0.83763370  0.18386878  0.08739168  1
  O  O19  1  0.51825354  0.02971862  0.83987737  1
  O  O20  1  0.34621300  0.19464966  0.08964789  1
  O  O21  1  0.67996838  0.34297257  0.60147956  1
  O  O22  1  0.99182985  0.49951245  0.83992914  1
  O  O23  1  0.52596264  0.50567180  0.83977502  1
  O  O24  1  0.19479304  0.34737484  0.58929678  1
  O  O25  1  0.84338353  0.68581463  0.08642764  1
  O  O26  1  0.50596699  0.52599391  0.34006376  1
  O  O27  1  0.68649739  0.84412520  0.58667524  1
  O  O28  1  0.34257257  0.67834486  0.10154176  1
  O  O29  1  0.01059607  0.02272320  0.31909951  1
  O  O30  1  0.02139053  0.01053806  0.81915928  1
  O  O31  1  0.03008146  0.51782664  0.33937681  1
  O  O32  1  0.49921417  0.99066376  0.34052523  1
  O  O33  1  0.18443005  0.83885702  0.58733441  1
