# generated using pymatgen
data_Li3Fe8(BO3)8
_symmetry_space_group_name_H-M   'P 1'
_cell_length_a   5.24270890
_cell_length_b   9.10460356
_cell_length_c   10.21524805
_cell_angle_alpha   90.81904261
_cell_angle_beta   90.25084505
_cell_angle_gamma   89.12005106
_symmetry_Int_Tables_number   1
_chemical_formula_structural   Li3Fe8(BO3)8
_chemical_formula_sum   'Li3 Fe8 B8 O24'
_cell_volume   487.49071564
_cell_formula_units_Z   1
loop_
 _symmetry_equiv_pos_site_id
 _symmetry_equiv_pos_as_xyz
  1  'x, y, z'
loop_
 _atom_site_type_symbol
 _atom_site_label
 _atom_site_symmetry_multiplicity
 _atom_site_fract_x
 _atom_site_fract_y
 _atom_site_fract_z
 _atom_site_occupancy
  Li  Li0  1  0.67659146  0.66910266  0.40721266  1
  Li  Li1  1  0.33884171  0.32163208  0.66770492  1
  Li  Li2  1  0.31398101  0.32713688  0.16881179  1
  Fe  Fe3  1  0.83563233  0.15455717  0.62670145  1
  Fe  Fe4  1  0.82792201  0.50336253  0.12583197  1
  Fe  Fe5  1  0.67283889  0.00643613  0.88068026  1
  Fe  Fe6  1  0.68855958  0.33306977  0.38097162  1
  Fe  Fe7  1  0.32629589  0.66904814  0.62918437  1
  Fe  Fe8  1  0.32740190  0.99169973  0.12828706  1
  Fe  Fe9  1  0.15870422  0.84834085  0.37565952  1
  Fe  Fe10  1  0.17689704  0.50678990  0.88130759  1
  B  B11  1  0.83249104  0.49468736  0.62498887  1
  B  B12  1  0.82921092  0.17390967  0.12421824  1
  B  B13  1  0.65791901  0.99455273  0.37868021  1
  B  B14  1  0.67854287  0.33160618  0.87454889  1
  B  B15  1  0.34111190  0.00262835  0.63024722  1
  B  B16  1  0.32804367  0.66533890  0.13303676  1
  B  B17  1  0.17113040  0.50802798  0.37437890  1
  B  B18  1  0.17246089  0.83708199  0.87454378  1
  O  O19  1  0.90874684  0.51373048  0.33763722  1
  O  O20  1  0.91537799  0.85727652  0.87308109  1
  O  O21  1  0.80760375  0.20175480  0.83105908  1
  O  O22  1  0.75391844  0.12274189  0.43664485  1
  O  O23  1  0.78707420  0.86495281  0.38525407  1
  O  O24  1  0.82057951  0.44111758  0.93644973  1
  O  O25  1  0.68401284  0.61819334  0.61413321  1
  O  O26  1  0.67232992  0.06363228  0.07446458  1
  O  O27  1  0.72019143  0.35790909  0.59719627  1
  O  O28  1  0.70436375  0.30326742  0.16724973  1
  O  O29  1  0.58708033  0.65378943  0.14209621  1
  O  O30  1  0.58897657  0.00697760  0.68150535  1
  O  O31  1  0.42005099  0.00430260  0.31654682  1
  O  O32  1  0.42492589  0.34574043  0.85374852  1
  O  O33  1  0.28346794  0.71087435  0.82052260  1
  O  O34  1  0.28133231  0.63554080  0.42814440  1
  O  O35  1  0.31020084  0.38343194  0.35282745  1
  O  O36  1  0.33100737  0.94369348  0.93103889  1
  O  O37  1  0.18941903  0.54007712  0.09460057  1
  O  O38  1  0.19607274  0.12960255  0.62860402  1
  O  O39  1  0.24972216  0.87196750  0.58205666  1
  O  O40  1  0.20029590  0.79525448  0.16213479  1
  O  O41  1  0.08768946  0.15782487  0.13059597  1
  O  O42  1  0.09212205  0.49722563  0.65681482  1
