# generated using pymatgen
data_Sc3Re2Si3
_symmetry_space_group_name_H-M   'P 1'
_cell_length_a   5.29977966
_cell_length_b   10.10995479
_cell_length_c   11.16445992
_cell_angle_alpha   80.70205924
_cell_angle_beta   76.26977776
_cell_angle_gamma   74.80488082
_symmetry_Int_Tables_number   1
_chemical_formula_structural   Sc3Re2Si3
_chemical_formula_sum   'Sc12 Re8 Si12'
_cell_volume   557.62906050
_cell_formula_units_Z   4
loop_
 _symmetry_equiv_pos_site_id
 _symmetry_equiv_pos_as_xyz
  1  'x, y, z'
loop_
 _atom_site_type_symbol
 _atom_site_label
 _atom_site_symmetry_multiplicity
 _atom_site_fract_x
 _atom_site_fract_y
 _atom_site_fract_z
 _atom_site_occupancy
  Sc  Sc0  1  0.11243701  0.03368304  0.21016873  1
  Sc  Sc1  1  0.32106467  0.71712352  0.61267960  1
  Sc  Sc2  1  0.35628777  0.96631696  0.78983127  1
  Sc  Sc3  1  0.03848208  0.25277740  0.61320993  1
  Sc  Sc4  1  0.31004887  0.73476773  0.08043223  1
  Sc  Sc5  1  0.65086779  0.28287648  0.38732040  1
  Sc  Sc6  1  0.88137244  0.53994829  0.74070197  1
  Sc  Sc7  1  0.56305819  0.20981248  0.11067153  1
  Sc  Sc8  1  0.16202270  0.46005171  0.25929803  1
  Sc  Sc9  1  0.12524983  0.26523227  0.91956777  1
  Sc  Sc10  1  0.88354220  0.79018752  0.88932847  1
  Sc  Sc11  1  0.90446841  0.74722260  0.38679007  1
  Re  Re12  1  0.44469389  0.39695504  0.68171763  1
  Re  Re13  1  0.52336656  0.60304496  0.31828237  1
  Re  Re14  1  0.72504588  0.12451685  0.83609779  1
  Re  Re15  1  0.19146353  0.52397923  0.95476091  1
  Re  Re16  1  0.95025972  0.00577507  0.46615066  1
  Re  Re17  1  0.68566151  0.87548315  0.16390221  1
  Re  Re18  1  0.42218544  0.99422493  0.53384934  1
  Re  Re19  1  0.67020368  0.47602077  0.04523909  1
  Si  Si20  1  0.46677153  0.00000000  1.00000000  1
  Si  Si21  1  0.64006234  0.02567276  0.31911457  1
  Si  Si22  1  0.97070342  1.00000000  0.00000000  1
  Si  Si23  1  0.76845582  0.81097079  0.62947042  1
  Si  Si24  1  0.84818649  0.63949694  0.12136027  1
  Si  Si25  1  0.60904470  0.36050306  0.87863973  1
  Si  Si26  1  0.20889703  0.18902921  0.37052958  1
  Si  Si27  1  0.36692825  0.84270194  0.36715621  1
  Si  Si28  1  0.73425624  0.50000000  0.50000000  1
  Si  Si29  1  0.23707392  0.50000000  0.50000000  1
  Si  Si30  1  0.57678640  0.15729806  0.63284379  1
  Si  Si31  1  0.98484967  0.97432724  0.68088543  1
