# generated using pymatgen
data_Li3Fe8(BO3)8
_symmetry_space_group_name_H-M   'P 1'
_cell_length_a   5.29696228
_cell_length_b   9.04792795
_cell_length_c   11.37743259
_cell_angle_alpha   113.75087296
_cell_angle_beta   77.20513359
_cell_angle_gamma   90.31478233
_symmetry_Int_Tables_number   1
_chemical_formula_structural   Li3Fe8(BO3)8
_chemical_formula_sum   'Li3 Fe8 B8 O24'
_cell_volume   484.56077535
_cell_formula_units_Z   1
loop_
 _symmetry_equiv_pos_site_id
 _symmetry_equiv_pos_as_xyz
  1  'x, y, z'
loop_
 _atom_site_type_symbol
 _atom_site_label
 _atom_site_symmetry_multiplicity
 _atom_site_fract_x
 _atom_site_fract_y
 _atom_site_fract_z
 _atom_site_occupancy
  Li  Li0  1  0.17455593  0.15738814  0.33995519  1
  Li  Li1  1  0.60044768  0.05527847  0.09168399  1
  Li  Li2  1  0.93420394  0.43166175  0.83678148  1
  Fe  Fe3  1  0.40638877  0.26411771  0.87079890  1
  Fe  Fe4  1  0.08976996  0.22842587  0.11966741  1
  Fe  Fe5  1  0.84500243  0.13788394  0.61303691  1
  Fe  Fe6  1  0.65588406  0.36185047  0.37494033  1
  Fe  Fe7  1  0.34982059  0.64740032  0.62896148  1
  Fe  Fe8  1  0.14739035  0.83299708  0.36745962  1
  Fe  Fe9  1  0.90470189  0.78509603  0.86945097  1
  Fe  Fe10  1  0.60178197  0.72512212  0.12502388  1
  B  B11  1  0.64905546  0.02316901  0.36577896  1
  B  B12  1  0.88548744  0.11499493  0.87522699  1
  B  B13  1  0.14207001  0.50900351  0.37654063  1
  B  B14  1  0.40753230  0.59587865  0.87136867  1
  B  B15  1  0.85436419  0.48261278  0.62394624  1
  B  B16  1  0.59900280  0.39438524  0.12282647  1
  B  B17  1  0.34641096  0.98059571  0.62385697  1
  B  B18  1  0.10786685  0.89227210  0.12378756  1
  O  O19  1  0.11839928  0.14761658  0.91210200  1
  O  O20  1  0.47152113  0.12394521  0.66711855  1
  O  O21  1  0.22057545  0.03446375  0.13896164  1
  O  O22  1  0.53044470  0.15612411  0.36178205  1
  O  O23  1  0.87717691  0.03994966  0.41300765  1
  O  O24  1  0.79418614  0.21714258  0.82335018  1
  O  O25  1  0.28526337  0.45932671  0.86676216  1
  O  O26  1  0.03892664  0.35519001  0.33776396  1
  O  O27  1  0.69038904  0.29387056  0.17619552  1
  O  O28  1  0.63845318  0.47672859  0.57138755  1
  O  O29  1  0.93820606  0.35123327  0.64072215  1
  O  O30  1  0.39591904  0.34156966  0.06276389  1
  O  O31  1  0.63798476  0.62757629  0.91664751  1
  O  O32  1  0.36290946  0.51972633  0.42799243  1
  O  O33  1  0.30271323  0.69798520  0.82638852  1
  O  O34  1  0.97502291  0.62436878  0.66365827  1
  O  O35  1  0.71476176  0.52880651  0.12512860  1
  O  O36  1  0.22639537  0.77682867  0.15057847  1
  O  O37  1  0.12906310  0.98341679  0.57538094  1
  O  O38  1  0.44163452  0.84569770  0.62903170  1
  O  O39  1  0.03272526  0.63034261  0.36327445  1
  O  O40  1  0.74646067  0.99895540  0.89870244  1
  O  O41  1  0.54582401  0.87544195  0.32183869  1
  O  O42  1  0.86860239  0.86848323  0.08696805  1
