# generated using pymatgen
data_Li8Fe(O2F)2
_symmetry_space_group_name_H-M   'P 1'
_cell_length_a   5.41637014
_cell_length_b   6.76890551
_cell_length_c   5.41835963
_cell_angle_alpha   112.19704759
_cell_angle_beta   65.00520610
_cell_angle_gamma   122.10307737
_symmetry_Int_Tables_number   1
_chemical_formula_structural   Li8Fe(O2F)2
_chemical_formula_sum   'Li8 Fe1 O4 F2'
_cell_volume   149.44881815
_cell_formula_units_Z   1
loop_
 _symmetry_equiv_pos_site_id
 _symmetry_equiv_pos_as_xyz
  1  'x, y, z'
loop_
 _atom_site_type_symbol
 _atom_site_label
 _atom_site_symmetry_multiplicity
 _atom_site_fract_x
 _atom_site_fract_y
 _atom_site_fract_z
 _atom_site_occupancy
  Li  Li0  1  0.07827559  0.34997358  0.48484478  1
  Li  Li1  1  0.56119365  0.62293787  0.20096539  1
  Li  Li2  1  0.24842649  0.67989486  0.92889959  1
  Li  Li3  1  0.27691157  0.08504349  0.37941708  1
  Li  Li4  1  0.72308843  0.91495651  0.62058292  1
  Li  Li5  1  0.75157351  0.32010514  0.07110041  1
  Li  Li6  1  0.43880635  0.37706213  0.79903461  1
  Li  Li7  1  0.92172441  0.65002642  0.51515522  1
  Fe  Fe8  1  0.00000000  0.00000000  0.00000000  1
  O  O9  1  0.35422787  0.27284638  0.12902765  1
  O  O10  1  0.03297446  0.21649737  0.76465996  1
  O  O11  1  0.96702554  0.78350263  0.23534004  1
  O  O12  1  0.64577213  0.72715362  0.87097235  1
  F  F13  1  0.29036044  0.70105426  0.55977612  1
  F  F14  1  0.70963956  0.29894574  0.44022388  1
