# generated using pymatgen
data_Na4FeO5
_symmetry_space_group_name_H-M   'P 1'
_cell_length_a   4.57159194
_cell_length_b   5.72460211
_cell_length_c   5.72460211
_cell_angle_alpha   99.17411257
_cell_angle_beta   113.53400859
_cell_angle_gamma   66.46599141
_symmetry_Int_Tables_number   1
_chemical_formula_structural   Na4FeO5
_chemical_formula_sum   'Na4 Fe1 O5'
_cell_volume   125.93002476
_cell_formula_units_Z   1
loop_
 _symmetry_equiv_pos_site_id
 _symmetry_equiv_pos_as_xyz
  1  'x, y, z'
loop_
 _atom_site_type_symbol
 _atom_site_label
 _atom_site_symmetry_multiplicity
 _atom_site_fract_x
 _atom_site_fract_y
 _atom_site_fract_z
 _atom_site_occupancy
  Na  Na0  1  0.59985291  0.19319101  0.39289682  1
  Na  Na1  1  0.79304391  0.60710318  0.19319101  1
  Na  Na2  1  0.20695609  0.39289682  0.80680899  1
  Na  Na3  1  0.40014709  0.80680899  0.60710318  1
  Fe  Fe4  1  0.00000000  0.00000000  0.00000000  1
  O  O5  1  0.50000000  0.00000000  0.00000000  1
  O  O6  1  0.06836924  0.17169107  0.30842955  1
  O  O7  1  0.24006031  0.69157045  0.17169107  1
  O  O8  1  0.75993969  0.30842955  0.82830893  1
  O  O9  1  0.93163076  0.82830893  0.69157045  1
