# generated using pymatgen
data_V3(O2F)2
_symmetry_space_group_name_H-M   'P 1'
_cell_length_a   5.11601175
_cell_length_b   5.57731483
_cell_length_c   5.09452425
_cell_angle_alpha   91.83989078
_cell_angle_beta   61.48636013
_cell_angle_gamma   63.53558954
_symmetry_Int_Tables_number   1
_chemical_formula_structural   V3(O2F)2
_chemical_formula_sum   'V3 O4 F2'
_cell_volume   108.66781486
_cell_formula_units_Z   1
loop_
 _symmetry_equiv_pos_site_id
 _symmetry_equiv_pos_as_xyz
  1  'x, y, z'
loop_
 _atom_site_type_symbol
 _atom_site_label
 _atom_site_symmetry_multiplicity
 _atom_site_fract_x
 _atom_site_fract_y
 _atom_site_fract_z
 _atom_site_occupancy
  V  V0  1  0.31425175  0.06029040  0.34696107  1
  V  V1  1  0.73205900  0.43485484  0.13675079  1
  V  V2  1  0.68176861  0.99061764  0.64430249  1
  O  O3  1  0.53622747  0.21375159  0.06817972  1
  O  O4  1  0.18052502  0.24284201  0.75102138  1
  O  O5  1  0.88056861  0.19992869  0.39993724  1
  O  O6  1  0.72216297  0.76630165  0.31104550  1
  F  F7  1  0.18677903  0.74079271  0.51947030  1
  F  F8  1  0.53389254  0.75483948  0.92933652  1
