# generated using pymatgen
data_LiTi(PO3)4
_symmetry_space_group_name_H-M   'P 1'
_cell_length_a   7.05844706
_cell_length_b   12.40804221
_cell_length_c   7.05844706
_cell_angle_alpha   69.20959735
_cell_angle_beta   70.75545810
_cell_angle_gamma   110.79040265
_symmetry_Int_Tables_number   1
_chemical_formula_structural   LiTi(PO3)4
_chemical_formula_sum   'Li2 Ti2 P8 O24'
_cell_volume   461.09275536
_cell_formula_units_Z   2
loop_
 _symmetry_equiv_pos_site_id
 _symmetry_equiv_pos_as_xyz
  1  'x, y, z'
loop_
 _atom_site_type_symbol
 _atom_site_label
 _atom_site_symmetry_multiplicity
 _atom_site_fract_x
 _atom_site_fract_y
 _atom_site_fract_z
 _atom_site_occupancy
  Li  Li0  1  0.90642007  0.75000000  0.90642007  1
  Li  Li1  1  0.09357993  0.25000000  0.09357993  1
  Ti  Ti2  1  0.63666907  0.75000000  0.63666907  1
  Ti  Ti3  1  0.36333093  0.25000000  0.36333093  1
  P  P4  1  0.30109790  0.02421568  0.82836015  1
  P  P5  1  0.17163985  0.52421568  0.69890210  1
  P  P6  1  0.23881033  0.96107424  0.32703598  1
  P  P7  1  0.32703598  0.53892576  0.23881033  1
  P  P8  1  0.67296402  0.46107424  0.76118967  1
  P  P9  1  0.76118967  0.03892576  0.67296402  1
  P  P10  1  0.82836015  0.47578432  0.30109790  1
  P  P11  1  0.69890210  0.97578432  0.17163985  1
  O  O12  1  0.17462012  0.89291055  0.84924220  1
  O  O13  1  0.29028159  0.63804272  0.73290272  1
  O  O14  1  0.99886531  0.83868782  0.53257356  1
  O  O15  1  0.15075780  0.39291055  0.82537988  1
  O  O16  1  0.67124189  0.91300142  0.66127161  1
  O  O17  1  0.26709728  0.13804272  0.70971841  1
  O  O18  1  0.08170105  0.49536366  0.24934894  1
  O  O19  1  0.41400343  0.90752248  0.31405496  1
  O  O20  1  0.31405496  0.59247752  0.41400343  1
  O  O21  1  0.24934894  0.00463634  0.08170105  1
  O  O22  1  0.46742644  0.33868782  0.00113469  1
  O  O23  1  0.66127161  0.58699858  0.67124189  1
  O  O24  1  0.33872839  0.41300142  0.32875811  1
  O  O25  1  0.53257356  0.66131218  0.99886531  1
  O  O26  1  0.75065106  0.99536366  0.91829895  1
  O  O27  1  0.68594504  0.40752248  0.58599657  1
  O  O28  1  0.58599657  0.09247752  0.68594504  1
  O  O29  1  0.91829895  0.50463634  0.75065106  1
  O  O30  1  0.73290272  0.86195728  0.29028159  1
  O  O31  1  0.32875811  0.08699858  0.33872839  1
  O  O32  1  0.84924220  0.60708945  0.17462012  1
  O  O33  1  0.00113469  0.16131218  0.46742644  1
  O  O34  1  0.70971841  0.36195728  0.26709728  1
  O  O35  1  0.82537988  0.10708945  0.15075780  1
