# generated using pymatgen
data_Li13Mn3(SbO8)2
_symmetry_space_group_name_H-M   'P 1'
_cell_length_a   6.08951952
_cell_length_b   6.01933444
_cell_length_c   10.01915791
_cell_angle_alpha   91.04271067
_cell_angle_beta   89.99108738
_cell_angle_gamma   59.60715409
_symmetry_Int_Tables_number   1
_chemical_formula_structural   Li13Mn3(SbO8)2
_chemical_formula_sum   'Li13 Mn3 Sb2 O16'
_cell_volume   316.71089673
_cell_formula_units_Z   1
loop_
 _symmetry_equiv_pos_site_id
 _symmetry_equiv_pos_as_xyz
  1  'x, y, z'
loop_
 _atom_site_type_symbol
 _atom_site_label
 _atom_site_symmetry_multiplicity
 _atom_site_fract_x
 _atom_site_fract_y
 _atom_site_fract_z
 _atom_site_occupancy
  Li  Li0  1  0.73778104  0.91954512  0.22452248  1
  Li  Li1  1  0.81990496  0.76656639  0.98414383  1
  Li  Li2  1  0.34275020  0.91941003  0.22448126  1
  Li  Li3  1  0.11360658  0.77308181  0.49239583  1
  Li  Li4  1  0.41344593  0.76659023  0.98417247  1
  Li  Li5  1  0.00463685  0.99057145  0.01059044  1
  Li  Li6  1  0.66748995  0.66435795  0.75366262  1
  Li  Li7  1  0.17236172  0.65536702  0.25667951  1
  Li  Li8  1  0.16955964  0.66091598  0.73539773  1
  Li  Li9  1  0.81731839  0.36518320  0.94756398  1
  Li  Li10  1  0.32323986  0.35376771  0.43162612  1
  Li  Li11  1  0.71862173  0.16260134  0.44830271  1
  Li  Li12  1  0.11887398  0.16272520  0.44816354  1
  Mn  Mn13  1  0.66266033  0.17007091  0.71743237  1
  Mn  Mn14  1  0.16717176  0.17013636  0.71739779  1
  Mn  Mn15  1  0.82336694  0.35329432  0.21607875  1
  Sb  Sb16  1  0.65018935  0.69993980  0.48079408  1
  Sb  Sb17  1  0.34042246  0.31902308  0.98223038  1
  O  O18  1  0.81597008  0.85503878  0.59836170  1
  O  O19  1  0.49426257  0.01133213  0.37067979  1
  O  O20  1  0.32939185  0.85475636  0.59848555  1
  O  O21  1  0.97356343  0.52972986  0.36533824  1
  O  O22  1  0.67382665  0.65229253  0.11489700  1
  O  O23  1  0.17011659  0.65976698  0.06953931  1
  O  O24  1  0.49733964  0.52949257  0.36521926  1
  O  O25  1  0.81395629  0.37228062  0.58896293  1
  O  O26  1  0.50097170  0.46572124  0.85074026  1
  O  O27  1  0.98592500  0.02819585  0.31650710  1
  O  O28  1  0.66702141  0.17197116  0.08516588  1
  O  O29  1  0.98259761  0.03478727  0.81399395  1
  O  O30  1  0.34168594  0.31663155  0.62388964  1
  O  O31  1  0.03319251  0.46574190  0.85078611  1
  O  O32  1  0.16073697  0.17205100  0.08521947  1
  O  O33  1  0.50401908  0.99190529  0.86740394  1
