# generated using pymatgen
data_Ni3OF5
_symmetry_space_group_name_H-M   'P 1'
_cell_length_a   4.69570447
_cell_length_b   14.08702610
_cell_length_c   3.09385671
_cell_angle_alpha   90.00000000
_cell_angle_beta   90.00000000
_cell_angle_gamma   90.00000000
_symmetry_Int_Tables_number   1
_chemical_formula_structural   Ni3OF5
_chemical_formula_sum   'Ni6 O2 F10'
_cell_volume   204.65401593
_cell_formula_units_Z   2
loop_
 _symmetry_equiv_pos_site_id
 _symmetry_equiv_pos_as_xyz
  1  'x, y, z'
loop_
 _atom_site_type_symbol
 _atom_site_label
 _atom_site_symmetry_multiplicity
 _atom_site_fract_x
 _atom_site_fract_y
 _atom_site_fract_z
 _atom_site_occupancy
  Ni  Ni0  1  0.01324857  0.00270444  0.00000000  1
  Ni  Ni1  1  0.98864757  0.33388474  0.00000000  1
  Ni  Ni2  1  0.01520635  0.66276274  0.00000000  1
  Ni  Ni3  1  0.48479365  0.16276274  0.50000000  1
  Ni  Ni4  1  0.48675143  0.50270444  0.50000000  1
  Ni  Ni5  1  0.51135243  0.83388474  0.50000000  1
  O  O6  1  0.19849580  0.60069231  0.50000000  1
  O  O7  1  0.30150420  0.10069231  0.00000000  1
  F  F8  1  0.19259743  0.26938359  0.50000000  1
  F  F9  1  0.19891915  0.93320978  0.50000000  1
  F  F10  1  0.30740257  0.76938359  0.00000000  1
  F  F11  1  0.30108085  0.43320978  0.00000000  1
  F  F12  1  0.69176130  0.23027191  0.00000000  1
  F  F13  1  0.69664648  0.56515946  0.00000000  1
  F  F14  1  0.70377726  0.90193202  0.00000000  1
  F  F15  1  0.80335352  0.06515946  0.50000000  1
  F  F16  1  0.79622274  0.40193202  0.50000000  1
  F  F17  1  0.80823870  0.73027191  0.50000000  1
