# generated using pymatgen
data_Li4Ti3Cr3(TeO8)2
_symmetry_space_group_name_H-M   'P 1'
_cell_length_a   6.07843388
_cell_length_b   5.98715680
_cell_length_c   10.14246602
_cell_angle_alpha   90.00435957
_cell_angle_beta   90.19081209
_cell_angle_gamma   119.49607290
_symmetry_Int_Tables_number   1
_chemical_formula_structural   Li4Ti3Cr3(TeO8)2
_chemical_formula_sum   'Li4 Ti3 Cr3 Te2 O16'
_cell_volume   321.26710034
_cell_formula_units_Z   1
loop_
 _symmetry_equiv_pos_site_id
 _symmetry_equiv_pos_as_xyz
  1  'x, y, z'
loop_
 _atom_site_type_symbol
 _atom_site_label
 _atom_site_symmetry_multiplicity
 _atom_site_fract_x
 _atom_site_fract_y
 _atom_site_fract_z
 _atom_site_occupancy
  Li  Li0  1  0.32991146  0.66500804  0.90052193  1
  Li  Li1  1  0.00912135  0.00461208  0.99076761  1
  Li  Li2  1  0.99734101  0.99868333  0.49201455  1
  Li  Li3  1  0.66932737  0.33456921  0.40262907  1
  Ti  Ti4  1  0.18717427  0.84473243  0.22286649  1
  Ti  Ti5  1  0.18709107  0.34229982  0.22295895  1
  Ti  Ti6  1  0.35202832  0.17607942  0.72536837  1
  Cr  Cr7  1  0.66281466  0.83131754  0.21209418  1
  Cr  Cr8  1  0.82724137  0.66211971  0.71267070  1
  Cr  Cr9  1  0.82724610  0.16520489  0.71267034  1
  Te  Te10  1  0.32355846  0.66178409  0.50105029  1
  Te  Te11  1  0.70435305  0.35222566  0.99509021  1
  O  O12  1  0.15291268  0.83264035  0.60007483  1
  O  O13  1  0.03217315  0.51611921  0.33524824  1
  O  O14  1  0.31999420  0.65996176  0.11389478  1
  O  O15  1  0.99660931  0.99830523  0.30902893  1
  O  O16  1  0.00885469  0.00445931  0.80516016  1
  O  O17  1  0.15287897  0.32031791  0.60007120  1
  O  O18  1  0.46613710  0.97912405  0.33222381  1
  O  O19  1  0.46589531  0.48662419  0.33233970  1
  O  O20  1  0.29880539  0.14937057  0.11278199  1
  O  O21  1  0.68737190  0.84373272  0.60063455  1
  O  O22  1  0.50243008  0.48324429  0.82117292  1
  O  O23  1  0.50247770  0.01937435  0.82122856  1
  O  O24  1  0.65379453  0.32691265  0.61061837  1
  O  O25  1  0.86143070  0.67913438  0.09166056  1
  O  O26  1  0.95956866  0.47984025  0.83941307  1
  O  O27  1  0.86145915  0.18250060  0.09158464  1
