# generated using pymatgen
data_FeOF
_symmetry_space_group_name_H-M   'P 1'
_cell_length_a   14.14238297
_cell_length_b   14.17154025
_cell_length_c   3.11061159
_cell_angle_alpha   90.00000000
_cell_angle_beta   90.00000000
_cell_angle_gamma   89.90743354
_symmetry_Int_Tables_number   1
_chemical_formula_structural   FeOF
_chemical_formula_sum   'Fe18 O18 F18'
_cell_volume   623.42593768
_cell_formula_units_Z   18
loop_
 _symmetry_equiv_pos_site_id
 _symmetry_equiv_pos_as_xyz
  1  'x, y, z'
loop_
 _atom_site_type_symbol
 _atom_site_label
 _atom_site_symmetry_multiplicity
 _atom_site_fract_x
 _atom_site_fract_y
 _atom_site_fract_z
 _atom_site_occupancy
  Fe  Fe0  1  0.01204603  0.99790587  0.00000000  1
  Fe  Fe1  1  0.00798120  0.32830908  0.00000000  1
  Fe  Fe2  1  0.00521686  0.66988284  0.00000000  1
  Fe  Fe3  1  0.15348514  0.16530968  0.50000000  1
  Fe  Fe4  1  0.14869273  0.49813318  0.50000000  1
  Fe  Fe5  1  0.15327296  0.82991210  0.50000000  1
  Fe  Fe6  1  0.34559792  0.99728466  0.00000000  1
  Fe  Fe7  1  0.34360463  0.33346309  0.00000000  1
  Fe  Fe8  1  0.34365865  0.66275803  0.00000000  1
  Fe  Fe9  1  0.48791705  0.49758998  0.50000000  1
  Fe  Fe10  1  0.48548385  0.16589267  0.50000000  1
  Fe  Fe11  1  0.48589481  0.82874445  0.50000000  1
  Fe  Fe12  1  0.66985922  0.00118456  0.00000000  1
  Fe  Fe13  1  0.68021557  0.33000500  0.00000000  1
  Fe  Fe14  1  0.68026381  0.66509901  0.00000000  1
  Fe  Fe15  1  0.84158267  0.18394973  0.50000000  1
  Fe  Fe16  1  0.82121804  0.49726746  0.50000000  1
  Fe  Fe17  1  0.83565037  0.81743397  0.50000000  1
  O  O18  1  0.06807292  0.27174474  0.50000000  1
  O  O19  1  0.06214584  0.60292795  0.50000000  1
  O  O20  1  0.06412576  0.93552962  0.50000000  1
  O  O21  1  0.09988403  0.10320328  0.00000000  1
  O  O22  1  0.09742180  0.43577822  0.00000000  1
  O  O23  1  0.10435992  0.76728530  0.00000000  1
  O  O24  1  0.39613932  0.27022645  0.50000000  1
  O  O25  1  0.39709560  0.60114919  0.50000000  1
  O  O26  1  0.39942431  0.93530289  0.50000000  1
  O  O27  1  0.43496284  0.10154149  0.00000000  1
  O  O28  1  0.43473166  0.43587413  0.00000000  1
  O  O29  1  0.43399183  0.76734566  0.00000000  1
  O  O30  1  0.72979511  0.26429842  0.50000000  1
  O  O31  1  0.73184522  0.60284919  0.50000000  1
  O  O32  1  0.76783944  0.43419594  0.00000000  1
  O  O33  1  0.76878666  0.77031603  0.00000000  1
  O  O34  1  0.90325427  0.23557609  0.00000000  1
  O  O35  1  0.93876123  0.72852416  0.50000000  1
  F  F36  1  0.23211228  0.23309784  0.00000000  1
  F  F37  1  0.22907930  0.56611452  0.00000000  1
  F  F38  1  0.23285158  0.89973408  0.00000000  1
  F  F39  1  0.26730856  0.06636536  0.50000000  1
  F  F40  1  0.26762819  0.73253665  0.50000000  1
  F  F41  1  0.26464003  0.40109392  0.50000000  1
  F  F42  1  0.56437527  0.23337843  0.00000000  1
  F  F43  1  0.56587931  0.56692368  0.00000000  1
  F  F44  1  0.56750953  0.89792053  0.00000000  1
  F  F45  1  0.60064505  0.07077074  0.50000000  1
  F  F46  1  0.60086768  0.39887859  0.50000000  1
  F  F47  1  0.60097962  0.73414930  0.50000000  1
  F  F48  1  0.73846492  0.93300228  0.50000000  1
  F  F49  1  0.77246293  0.10225292  0.00000000  1
  F  F50  1  0.89816603  0.56303572  0.00000000  1
  F  F51  1  0.89816048  0.90050871  0.00000000  1
  F  F52  1  0.93053996  0.06393884  0.50000000  1
  F  F53  1  0.93405096  0.40250277  0.50000000  1
