# generated using pymatgen
data_Li2V(CO3)2
_symmetry_space_group_name_H-M   'P 1'
_cell_length_a   8.98384519
_cell_length_b   9.04893707
_cell_length_c   8.98385186
_cell_angle_alpha   106.89672256
_cell_angle_beta   65.50837201
_cell_angle_gamma   73.10681128
_symmetry_Int_Tables_number   1
_chemical_formula_structural   Li2V(CO3)2
_chemical_formula_sum   'Li8 V4 C8 O24'
_cell_volume   560.59882106
_cell_formula_units_Z   4
loop_
 _symmetry_equiv_pos_site_id
 _symmetry_equiv_pos_as_xyz
  1  'x, y, z'
loop_
 _atom_site_type_symbol
 _atom_site_label
 _atom_site_symmetry_multiplicity
 _atom_site_fract_x
 _atom_site_fract_y
 _atom_site_fract_z
 _atom_site_occupancy
  Li  Li0  1  0.62177473  0.82428164  0.69694813  1
  Li  Li1  1  0.69606177  0.67573374  0.12267030  1
  Li  Li2  1  0.55306477  0.32426500  0.62820336  1
  Li  Li3  1  0.66881846  0.22180315  0.12810895  1
  Li  Li4  1  0.12189434  0.72180609  0.58118193  1
  Li  Li5  1  0.12733499  0.17571659  0.55394312  1
  Li  Li6  1  0.09369664  0.77819403  0.10937904  1
  Li  Li7  1  0.14062628  0.27819281  0.15629809  1
  V  V8  1  0.84206952  0.03237462  0.62570019  1
  V  V9  1  0.62433000  0.53234192  0.40792630  1
  V  V10  1  0.40666277  0.96763092  0.12556672  1
  V  V11  1  0.12442226  0.46764462  0.84332234  1
  C  C12  1  0.84765513  0.75402792  0.81504379  1
  C  C13  1  0.82296599  0.33172524  0.93755307  1
  C  C14  1  0.85170189  0.74597173  0.31102343  1
  C  C15  1  0.93898369  0.24597152  0.39831764  1
  C  C16  1  0.39416719  0.66827831  0.84531478  1
  C  C17  1  0.40463280  0.16829625  0.85583881  1
  C  C18  1  0.31245698  0.83170249  0.42707202  1
  C  C19  1  0.43494901  0.25402776  0.40232668  1
  O  O20  1  0.94881472  0.35089192  0.81861760  1
  O  O21  1  0.83823064  0.82678805  0.71028176  1
  O  O22  1  0.91994832  0.84309224  0.36346310  1
  O  O23  1  0.70054147  0.77482690  0.95087336  1
  O  O24  1  0.78530714  0.20485031  0.88646378  1
  O  O25  1  0.91502472  0.67324456  0.13352179  1
  O  O26  1  0.88656929  0.34307874  0.33008390  1
  O  O27  1  0.82395496  0.22517364  0.52462907  1
  O  O28  1  0.72537258  0.72519137  0.42606429  1
  O  O29  1  0.53227165  0.64910839  0.70029328  1
  O  O30  1  0.72728544  0.44092486  0.11393299  1
  O  O31  1  0.54966667  0.14914003  0.71773475  1
  O  O32  1  0.32699027  0.55907816  0.83179425  1
  O  O33  1  0.41818379  0.05910209  0.92300092  1
  O  O34  1  0.53972358  0.32675571  0.41172944  1
  O  O35  1  0.43140449  0.85085806  0.30119328  1
  O  O36  1  0.36355660  0.70482793  0.46470968  1
  O  O37  1  0.24011705  0.29517247  0.93161570  1
  O  O38  1  0.47963202  0.15690755  0.23695954  1
  O  O39  1  0.13610000  0.94090038  0.52271727  1
  O  O40  1  0.29912865  0.27481071  0.54943688  1
  O  O41  1  0.31838540  0.79515063  0.00984253  1
  O  O42  1  0.01299419  0.65692024  0.77035329  1
  O  O43  1  0.11650815  0.17321168  0.33497983  1
