# generated using pymatgen
data_Li4Mn5Co(PO4)6
_symmetry_space_group_name_H-M   'P 1'
_cell_length_a   8.61754305
_cell_length_b   9.00461999
_cell_length_c   9.00792028
_cell_angle_alpha   59.13988915
_cell_angle_beta   57.86323323
_cell_angle_gamma   57.90989142
_symmetry_Int_Tables_number   1
_chemical_formula_structural   Li4Mn5Co(PO4)6
_chemical_formula_sum   'Li4 Mn5 Co1 P6 O24'
_cell_volume   474.90885422
_cell_formula_units_Z   1
loop_
 _symmetry_equiv_pos_site_id
 _symmetry_equiv_pos_as_xyz
  1  'x, y, z'
loop_
 _atom_site_type_symbol
 _atom_site_label
 _atom_site_symmetry_multiplicity
 _atom_site_fract_x
 _atom_site_fract_y
 _atom_site_fract_z
 _atom_site_occupancy
  Li  Li0  1  0.25467058  0.85031986  0.64717570  1
  Li  Li1  1  0.74389132  0.15812623  0.33970443  1
  Li  Li2  1  0.74747357  0.75310075  0.15091153  1
  Li  Li3  1  0.74216140  0.34641768  0.76331867  1
  Mn  Mn4  1  0.00105650  0.99530159  0.01215138  1
  Mn  Mn5  1  0.06148805  0.64909343  0.64290801  1
  Mn  Mn6  1  0.50188187  0.48833972  0.50276499  1
  Mn  Mn7  1  0.43960083  0.85683266  0.85013263  1
  Mn  Mn8  1  0.96877055  0.34250984  0.34609477  1
  Co  Co9  1  0.54641094  0.15061624  0.15092340  1
  P  P10  1  0.25395931  0.25186219  0.55852549  1
  P  P11  1  0.24787646  0.94047808  0.24839588  1
  P  P12  1  0.25107640  0.55613275  0.94337877  1
  P  P13  1  0.74971850  0.46225237  0.03648766  1
  P  P14  1  0.76233577  0.04336084  0.75014747  1
  P  P15  1  0.73520234  0.75309233  0.45569221  1
  O  O16  1  0.05423749  0.09591767  0.30659368  1
  O  O17  1  0.06037641  0.52647698  0.09332720  1
  O  O18  1  0.06237580  0.30634596  0.53872471  1
  O  O19  1  0.24259210  0.08440772  0.74812656  1
  O  O20  1  0.44079923  0.19595587  0.39749962  1
  O  O21  1  0.26477819  0.40603827  0.58110986  1
  O  O22  1  0.23995911  0.91630060  0.09369598  1
  O  O23  1  0.26146145  0.75072568  0.41545535  1
  O  O24  1  0.56715541  0.61398813  0.99004141  1
  O  O25  1  0.28479023  0.57836684  0.74423776  1
  O  O26  1  0.77749411  0.26746894  0.05274474  1
  O  O27  1  0.59171332  0.99181278  0.81047679  1
  O  O28  1  0.43358435  0.97008368  0.19574682  1
  O  O29  1  0.22071600  0.75423559  0.92087814  1
  O  O30  1  0.72004637  0.44047036  0.23298075  1
  O  O31  1  0.43750642  0.40042093  0.98008389  1
  O  O32  1  0.73530050  0.23965439  0.59732435  1
  O  O33  1  0.77133949  0.06694801  0.90701447  1
  O  O34  1  0.72511275  0.60102427  0.42680164  1
  O  O35  1  0.53738494  0.81685998  0.60663343  1
  O  O36  1  0.76114086  0.91032578  0.26127211  1
  O  O37  1  0.90706245  0.69121229  0.50695464  1
  O  O38  1  0.93414388  0.50685482  0.88579386  1
  O  O39  1  0.96135375  0.89326689  0.68476925  1
