# generated using pymatgen
data_LiCuPO4
_symmetry_space_group_name_H-M   'P 1'
_cell_length_a   10.50617153
_cell_length_b   6.24903499
_cell_length_c   5.21071193
_cell_angle_alpha   90.15649441
_cell_angle_beta   90.59625457
_cell_angle_gamma   89.82521965
_symmetry_Int_Tables_number   1
_chemical_formula_structural   LiCuPO4
_chemical_formula_sum   'Li4 Cu4 P4 O16'
_cell_volume   342.07976657
_cell_formula_units_Z   4
loop_
 _symmetry_equiv_pos_site_id
 _symmetry_equiv_pos_as_xyz
  1  'x, y, z'
loop_
 _atom_site_type_symbol
 _atom_site_label
 _atom_site_symmetry_multiplicity
 _atom_site_fract_x
 _atom_site_fract_y
 _atom_site_fract_z
 _atom_site_occupancy
  Li  Li0  1  0.33033528  0.02454617  0.19480993  1
  Li  Li1  1  0.16781937  0.48128396  0.66683661  1
  Li  Li2  1  0.65708957  0.01257532  0.82306131  1
  Li  Li3  1  0.33487236  0.47815949  0.19421665  1
  Cu  Cu4  1  0.91883338  0.74817593  0.72495414  1
  Cu  Cu5  1  0.83614626  0.00491982  0.28686941  1
  Cu  Cu6  1  0.82447313  0.47948364  0.31097300  1
  Cu  Cu7  1  0.41246927  0.75125489  0.79515181  1
  P  P8  1  0.42292490  0.24966261  0.68364807  1
  P  P9  1  0.09535582  0.75089923  0.18875048  1
  P  P10  1  0.92400190  0.25295344  0.80651923  1
  P  P11  1  0.58335473  0.75143712  0.31652328  1
  O  O12  1  0.65422136  0.54317370  0.24000301  1
  O  O13  1  0.08165327  0.72952074  0.88767487  1
  O  O14  1  0.35007405  0.45402554  0.80141885  1
  O  O15  1  0.56146343  0.25482969  0.76367637  1
  O  O16  1  0.57865265  0.77568764  0.61266252  1
  O  O17  1  0.90389581  0.25457136  0.10805265  1
  O  O18  1  0.66158394  0.94063897  0.19922623  1
  O  O19  1  0.84946197  0.45793201  0.70034462  1
  O  O20  1  0.35789432  0.04492928  0.80862563  1
  O  O21  1  0.05955932  0.25030617  0.72760848  1
  O  O22  1  0.15997121  0.55255582  0.30070163  1
  O  O23  1  0.84668323  0.04908638  0.70871432  1
  O  O24  1  0.44595626  0.74915466  0.20265081  1
  O  O25  1  0.94739025  0.75183389  0.28998170  1
  O  O26  1  0.15842426  0.95895693  0.26128446  1
  O  O27  1  0.39761272  0.24962362  0.39419992  1
