# generated using pymatgen
data_Li16Mn15(CuO12)3
_symmetry_space_group_name_H-M   'P 1'
_cell_length_a   9.25496612
_cell_length_b   8.62962245
_cell_length_c   10.27798437
_cell_angle_alpha   91.49270106
_cell_angle_beta   94.44451510
_cell_angle_gamma   62.55851897
_symmetry_Int_Tables_number   1
_chemical_formula_structural   Li16Mn15(CuO12)3
_chemical_formula_sum   'Li16 Mn15 Cu3 O36'
_cell_volume   726.27361486
_cell_formula_units_Z   1
loop_
 _symmetry_equiv_pos_site_id
 _symmetry_equiv_pos_as_xyz
  1  'x, y, z'
loop_
 _atom_site_type_symbol
 _atom_site_label
 _atom_site_symmetry_multiplicity
 _atom_site_fract_x
 _atom_site_fract_y
 _atom_site_fract_z
 _atom_site_occupancy
  Li  Li0  1  0.89388988  0.89987360  0.22623753  1
  Li  Li1  1  0.77522743  0.76685465  0.78180048  1
  Li  Li2  1  0.89644456  0.54789043  0.23067171  1
  Li  Li3  1  0.54447277  0.89373741  0.22189796  1
  Li  Li4  1  0.45190676  0.74751444  0.77654958  1
  Li  Li5  1  0.76857153  0.43995533  0.78434243  1
  Li  Li6  1  0.55510280  0.55655187  0.22316614  1
  Li  Li7  1  0.21034912  0.91417343  0.21376356  1
  Li  Li8  1  0.90850951  0.22611999  0.22308749  1
  Li  Li9  1  0.77595456  0.11743304  0.77778161  1
  Li  Li10  1  0.12978457  0.77032758  0.77676547  1
  Li  Li11  1  0.54840375  0.22741967  0.21915182  1
  Li  Li12  1  0.21952082  0.54418696  0.22217318  1
  Li  Li13  1  0.12373965  0.43967233  0.78037595  1
  Li  Li14  1  0.44285075  0.12011359  0.77037648  1
  Li  Li15  1  0.11579025  0.10854307  0.77857164  1
  Mn  Mn16  1  0.83555114  0.83112806  0.50856914  1
  Mn  Mn17  1  0.33835818  0.99763221  0.99705724  1
  Mn  Mn18  1  0.00390931  0.33385996  0.99784566  1
  Mn  Mn19  1  0.83573490  0.49777175  0.50942294  1
  Mn  Mn20  1  0.49585392  0.83630558  0.49241228  1
  Mn  Mn21  1  0.33105429  0.66799492  0.00297071  1
  Mn  Mn22  1  0.66548783  0.33192996  0.00399411  1
  Mn  Mn23  1  0.16575450  0.83344156  0.49927316  1
  Mn  Mn24  1  0.49599011  0.50150188  0.49654326  1
  Mn  Mn25  1  0.83527650  0.16486720  0.50662020  1
  Mn  Mn26  1  0.99390279  0.67217831  0.00439081  1
  Mn  Mn27  1  0.67232204  0.99531356  0.99662728  1
  Mn  Mn28  1  0.49326175  0.17107618  0.48797500  1
  Mn  Mn29  1  0.16696788  0.49851212  0.49913062  1
  Mn  Mn30  1  0.16558557  0.16826560  0.49527963  1
  Cu  Cu31  1  0.67047995  0.66096569  0.00365169  1
  Cu  Cu32  1  0.33438892  0.33296304  0.00000939  1
  Cu  Cu33  1  0.99639402  0.00552817  0.99765322  1
  O  O34  1  0.94096297  0.94222857  0.40979411  1
  O  O35  1  0.87597090  0.89003233  0.89844467  1
  O  O36  1  0.78778321  0.77790034  0.10403233  1
  O  O37  1  0.58977004  0.95250244  0.39203736  1
  O  O38  1  0.93835089  0.61019115  0.41105328  1
  O  O39  1  0.74132327  0.71417391  0.60695258  1
  O  O40  1  0.57866471  0.87751217  0.88333462  1
  O  O41  1  0.91878704  0.54077747  0.88272042  1
  O  O42  1  0.41429108  0.79847400  0.11848599  1
  O  O43  1  0.76079815  0.44773636  0.12225952  1
  O  O44  1  0.93989980  0.27675500  0.40888590  1
  O  O45  1  0.23851958  0.95945529  0.39244037  1
  O  O46  1  0.58863199  0.61998289  0.39650700  1
  O  O47  1  0.38940142  0.72664568  0.58987096  1
  O  O48  1  0.74396238  0.37941349  0.60677644  1
  O  O49  1  0.90889551  0.21701762  0.88047045  1
  O  O50  1  0.25535637  0.86647933  0.88142448  1
  O  O51  1  0.57192736  0.54052625  0.89516616  1
  O  O52  1  0.42053774  0.46072413  0.11550932  1
  O  O53  1  0.74993254  0.12477317  0.11898809  1
  O  O54  1  0.08506127  0.79173492  0.11578861  1
  O  O55  1  0.23894177  0.62762948  0.39355775  1
  O  O56  1  0.58838791  0.28872960  0.39338367  1
  O  O57  1  0.38740776  0.38933827  0.58512259  1
  O  O58  1  0.74376652  0.04684642  0.60551149  1
  O  O59  1  0.09118498  0.70701757  0.60693323  1
  O  O60  1  0.19082878  0.57953704  0.90786353  1
  O  O61  1  0.58873476  0.19622653  0.88869489  1
  O  O62  1  0.07651434  0.47242896  0.11245269  1
  O  O63  1  0.47622019  0.08809357  0.09323816  1
  O  O64  1  0.23615885  0.29849243  0.39099168  1
  O  O65  1  0.09291487  0.37109737  0.60548821  1
  O  O66  1  0.38957158  0.05992848  0.58626658  1
  O  O67  1  0.24787787  0.20566568  0.88473058  1
  O  O68  1  0.09754770  0.12560808  0.10435293  1
  O  O69  1  0.09168455  0.04001888  0.60433500  1
