# generated using pymatgen
data_LiVF4
_symmetry_space_group_name_H-M   'P 1'
_cell_length_a   7.98148512
_cell_length_b   7.98276935
_cell_length_c   7.87771127
_cell_angle_alpha   97.95846782
_cell_angle_beta   97.84519746
_cell_angle_gamma   97.00011216
_symmetry_Int_Tables_number   1
_chemical_formula_structural   LiVF4
_chemical_formula_sum   'Li6 V6 F24'
_cell_volume   487.34132147
_cell_formula_units_Z   6
loop_
 _symmetry_equiv_pos_site_id
 _symmetry_equiv_pos_as_xyz
  1  'x, y, z'
loop_
 _atom_site_type_symbol
 _atom_site_label
 _atom_site_symmetry_multiplicity
 _atom_site_fract_x
 _atom_site_fract_y
 _atom_site_fract_z
 _atom_site_occupancy
  Li  Li0  1  0.23597944  0.57255554  0.49056236  1
  Li  Li1  1  0.44160611  0.52397655  0.76231456  1
  Li  Li2  1  0.51848378  0.73450260  0.40266985  1
  Li  Li3  1  0.47843667  0.23640972  0.56462676  1
  Li  Li4  1  0.74930222  0.43503239  0.50108917  1
  Li  Li5  1  0.82865175  0.26987562  0.10422482  1
  V  V6  1  0.08292398  0.17341003  0.45154483  1
  V  V7  1  0.18332384  0.44672397  0.08147367  1
  V  V8  1  0.55115768  0.91308685  0.82190012  1
  V  V9  1  0.44358219  0.08512125  0.17605516  1
  V  V10  1  0.83050240  0.56201579  0.91871915  1
  V  V11  1  0.91838567  0.83062363  0.55919829  1
  F  F12  1  0.07607245  0.70897685  0.45878833  1
  F  F13  1  0.03771236  0.64622653  0.08531289  1
  F  F14  1  0.05149606  0.31701321  0.24722543  1
  F  F15  1  0.08825731  0.03411724  0.65088030  1
  F  F16  1  0.36402432  0.90961959  0.96507404  1
  F  F17  1  0.29268022  0.53807577  0.91168132  1
  F  F18  1  0.27921145  0.35730970  0.56483530  1
  F  F19  1  0.26024066  0.07102555  0.33699209  1
  F  F20  1  0.43587935  0.71571951  0.63545634  1
  F  F21  1  0.33514887  0.56412616  0.28609731  1
  F  F22  1  0.32221454  0.25251185  0.06309544  1
  F  F23  1  0.46442734  0.08341312  0.70848794  1
  F  F24  1  0.53878627  0.92207375  0.29541929  1
  F  F25  1  0.67126664  0.74487528  0.93282606  1
  F  F26  1  0.64794273  0.43896346  0.71977328  1
  F  F27  1  0.56618992  0.26817686  0.36066067  1
  F  F28  1  0.74297754  0.93713373  0.68214303  1
  F  F29  1  0.72953427  0.65500271  0.44541759  1
  F  F30  1  0.71790081  0.45974651  0.08182354  1
  F  F31  1  0.64775234  0.09544860  0.03672394  1
  F  F32  1  0.91185602  0.97617990  0.35729663  1
  F  F33  1  0.93791934  0.67236239  0.74434842  1
  F  F34  1  0.96355321  0.35009227  0.92544390  1
  F  F35  1  0.92396928  0.30458949  0.54035917  1
