# generated using pymatgen
data_Li2Mn4OF8
_symmetry_space_group_name_H-M   'P 1'
_cell_length_a   5.44808930
_cell_length_b   5.36930069
_cell_length_c   14.68950133
_cell_angle_alpha   90.05615436
_cell_angle_beta   90.68591982
_cell_angle_gamma   119.50164804
_symmetry_Int_Tables_number   1
_chemical_formula_structural   Li2Mn4OF8
_chemical_formula_sum   'Li4 Mn8 O2 F16'
_cell_volume   373.95042352
_cell_formula_units_Z   2
loop_
 _symmetry_equiv_pos_site_id
 _symmetry_equiv_pos_as_xyz
  1  'x, y, z'
loop_
 _atom_site_type_symbol
 _atom_site_label
 _atom_site_symmetry_multiplicity
 _atom_site_fract_x
 _atom_site_fract_y
 _atom_site_fract_z
 _atom_site_occupancy
  Li  Li0  1  0.99074932  0.99139069  0.15579786  1
  Li  Li1  1  0.01976447  0.03363006  0.36601371  1
  Li  Li2  1  0.00037842  0.00328441  0.65474771  1
  Li  Li3  1  0.02770971  0.99179859  0.86268343  1
  Mn  Mn4  1  0.31979289  0.67546239  0.01994207  1
  Mn  Mn5  1  0.33799029  0.65533737  0.31674174  1
  Mn  Mn6  1  0.34594704  0.68672008  0.81657664  1
  Mn  Mn7  1  0.32410793  0.64927004  0.51981290  1
  Mn  Mn8  1  0.65739579  0.32827845  0.18508254  1
  Mn  Mn9  1  0.66795796  0.33453855  0.68613008  1
  Mn  Mn10  1  0.65251270  0.30764460  0.96718992  1
  Mn  Mn11  1  0.65177150  0.34679138  0.46863008  1
  O  O12  1  0.33090891  0.94541817  0.91799006  1
  O  O13  1  0.32993078  0.38528772  0.41801152  1
  F  F14  1  0.00192853  0.69886966  0.74796825  1
  F  F15  1  0.03324739  0.69730389  0.41740830  1
  F  F16  1  0.03309766  0.33579721  0.91670844  1
  F  F17  1  0.99554959  0.30308419  0.24607272  1
  F  F18  1  0.31053983  0.31995999  0.74542383  1
  F  F19  1  0.65576362  0.98840434  0.41614566  1
  F  F20  1  0.36017162  0.33903070  0.08407634  1
  F  F21  1  0.30421532  0.99043146  0.24729212  1
  F  F22  1  0.65622036  0.66717777  0.91301220  1
  F  F23  1  0.36268816  0.02251606  0.58555968  1
  F  F24  1  0.67910716  0.64514150  0.58730439  1
  F  F25  1  0.69739866  0.69895880  0.24599099  1
  F  F26  1  0.94821447  0.63074940  0.08368889  1
  F  F27  1  0.67736535  0.03111185  0.08669221  1
  F  F28  1  0.70375508  0.00035141  0.74463536  1
  F  F29  1  0.95489248  0.32246624  0.58399237  1
