# generated using pymatgen
data_Li2Mn4O3F8
_symmetry_space_group_name_H-M   'P 1'
_cell_length_a   6.58573954
_cell_length_b   6.94206320
_cell_length_c   5.12418360
_cell_angle_alpha   105.91491736
_cell_angle_beta   96.94824110
_cell_angle_gamma   108.40418613
_symmetry_Int_Tables_number   1
_chemical_formula_structural   Li2Mn4O3F8
_chemical_formula_sum   'Li2 Mn4 O3 F8'
_cell_volume   208.16504487
_cell_formula_units_Z   1
loop_
 _symmetry_equiv_pos_site_id
 _symmetry_equiv_pos_as_xyz
  1  'x, y, z'
loop_
 _atom_site_type_symbol
 _atom_site_label
 _atom_site_symmetry_multiplicity
 _atom_site_fract_x
 _atom_site_fract_y
 _atom_site_fract_z
 _atom_site_occupancy
  Li  Li0  1  0.18177414  0.39820594  0.66800012  1
  Li  Li1  1  0.81822586  0.60179406  0.33199988  1
  Mn  Mn2  1  0.24778878  0.97392062  0.89450853  1
  Mn  Mn3  1  0.37716740  0.76382944  0.33541443  1
  Mn  Mn4  1  0.62283260  0.23617056  0.66458557  1
  Mn  Mn5  1  0.75221122  0.02607938  0.10549147  1
  O  O6  1  0.00000000  0.00000000  0.00000000  1
  O  O7  1  0.52200880  0.96173646  0.73909652  1
  O  O8  1  0.47799120  0.03826354  0.26090348  1
  F  F9  1  0.10352005  0.80827713  0.49496975  1
  F  F10  1  0.20466624  0.65601112  0.95142095  1
  F  F11  1  0.29259501  0.50088350  0.39215334  1
  F  F12  1  0.34637529  0.25761979  0.80086081  1
  F  F13  1  0.65362471  0.74238021  0.19913919  1
  F  F14  1  0.70740499  0.49911650  0.60784666  1
  F  F15  1  0.79533376  0.34398888  0.04857905  1
  F  F16  1  0.89647995  0.19172287  0.50503025  1
