# generated using pymatgen
data_Sn2N2O
_symmetry_space_group_name_H-M   'P 1'
_cell_length_a   8.85369028
_cell_length_b   8.87438024
_cell_length_c   8.85181421
_cell_angle_alpha   109.61828807
_cell_angle_beta   109.21073811
_cell_angle_gamma   109.59481117
_symmetry_Int_Tables_number   1
_chemical_formula_structural   Sn2N2O
_chemical_formula_sum   'Sn16 N16 O8'
_cell_volume   535.31944428
_cell_formula_units_Z   8
loop_
 _symmetry_equiv_pos_site_id
 _symmetry_equiv_pos_as_xyz
  1  'x, y, z'
loop_
 _atom_site_type_symbol
 _atom_site_label
 _atom_site_symmetry_multiplicity
 _atom_site_fract_x
 _atom_site_fract_y
 _atom_site_fract_z
 _atom_site_occupancy
  Sn  Sn0  1  0.95989963  0.24345682  0.22177161  1
  Sn  Sn1  1  0.50620220  0.00441837  0.99413146  1
  Sn  Sn2  1  0.70175063  0.45376154  0.23692052  1
  Sn  Sn3  1  0.78476722  0.02137402  0.74613548  1
  Sn  Sn4  1  0.75455490  0.78652783  0.02435271  1
  Sn  Sn5  1  0.75706849  0.27700692  0.53037451  1
  Sn  Sn6  1  0.00477500  0.50694915  0.99677038  1
  Sn  Sn7  1  0.49347661  0.50265126  0.49886411  1
  Sn  Sn8  1  0.00615609  0.00885467  0.50710337  1
  Sn  Sn9  1  0.46141403  0.25328234  0.72008823  1
  Sn  Sn10  1  0.53083222  0.74818145  0.28976538  1
  Sn  Sn11  1  0.26320258  0.72609085  0.47612855  1
  Sn  Sn12  1  0.25333089  0.22221691  0.96217167  1
  Sn  Sn13  1  0.20988374  0.95682903  0.25170783  1
  Sn  Sn14  1  0.27352389  0.52616468  0.73572628  1
  Sn  Sn15  1  0.03581680  0.74901864  0.78617103  1
  N  N16  1  0.76500223  0.03266440  0.49664527  1
  N  N17  1  0.73163045  0.23342711  0.27301547  1
  N  N18  1  0.45421367  0.45768592  0.22804435  1
  N  N19  1  0.00075054  0.03790275  0.27346120  1
  N  N20  1  0.21577640  0.45598371  0.45001451  1
  N  N21  1  0.27037392  0.72799377  0.22570898  1
  N  N22  1  0.50281371  0.22957927  0.95629090  1
  N  N23  1  0.00453979  0.96010550  0.74293062  1
  N  N24  1  0.53975449  0.53698127  0.76795393  1
  N  N25  1  0.95854590  0.72914033  0.99172504  1
  N  N26  1  0.54021941  0.77046146  0.54826812  1
  N  N27  1  0.22600494  0.27798435  0.73702043  1
  N  N28  1  0.73662136  0.00171318  0.95858477  1
  N  N29  1  0.02741568  0.48854361  0.75582319  1
  N  N30  1  0.23938424  0.96577209  0.50906598  1
  N  N31  1  0.27231073  0.77427541  0.74022523  1
  O  O32  1  0.94710337  0.50355512  0.21899854  1
  O  O33  1  0.28551349  0.01411866  0.06396129  1
  O  O34  1  0.76973671  0.71843148  0.26335247  1
  O  O35  1  0.47259372  0.22850287  0.45729072  1
  O  O36  1  0.04144078  0.28102699  0.00383806  1
  O  O37  1  0.76878204  0.54821956  0.53716422  1
  O  O38  1  0.72484072  0.26674216  0.77147852  1
  O  O39  1  0.50797779  0.77240455  0.05095408  1
