# generated using pymatgen
data_Li4Ni3Sn(PO4)4
_symmetry_space_group_name_H-M   'P 1'
_cell_length_a   4.78891058
_cell_length_b   10.52794165
_cell_length_c   6.07585481
_cell_angle_alpha   90.00000000
_cell_angle_beta   90.00000000
_cell_angle_gamma   90.43333328
_symmetry_Int_Tables_number   1
_chemical_formula_structural   Li4Ni3Sn(PO4)4
_chemical_formula_sum   'Li4 Ni3 Sn1 P4 O16'
_cell_volume   306.31986598
_cell_formula_units_Z   1
loop_
 _symmetry_equiv_pos_site_id
 _symmetry_equiv_pos_as_xyz
  1  'x, y, z'
loop_
 _atom_site_type_symbol
 _atom_site_label
 _atom_site_symmetry_multiplicity
 _atom_site_fract_x
 _atom_site_fract_y
 _atom_site_fract_z
 _atom_site_occupancy
  Li  Li0  1  0.00413810  0.98686409  0.00301264  1
  Li  Li1  1  0.00413810  0.98686409  0.49698736  1
  Li  Li2  1  0.49835610  0.51520933  0.49646960  1
  Li  Li3  1  0.49835610  0.51520933  0.00353040  1
  Ni  Ni4  1  0.01895547  0.73093238  0.75000000  1
  Ni  Ni5  1  0.48141524  0.21525267  0.75000000  1
  Ni  Ni6  1  0.53056256  0.77960766  0.25000000  1
  Sn  Sn7  1  0.98847082  0.28063856  0.25000000  1
  P  P8  1  0.09289422  0.61272821  0.25000000  1
  P  P9  1  0.43379031  0.07068049  0.25000000  1
  P  P10  1  0.58535364  0.90465471  0.75000000  1
  P  P11  1  0.88272317  0.41378695  0.75000000  1
  O  O12  1  0.22323863  0.47774688  0.25000000  1
  O  O13  1  0.22597636  0.67980861  0.04365049  1
  O  O14  1  0.22597636  0.67980861  0.45634951  1
  O  O15  1  0.19758075  0.38938426  0.75000000  1
  O  O16  1  0.26394290  0.89938143  0.75000000  1
  O  O17  1  0.31509846  0.14203969  0.04243680  1
  O  O18  1  0.31509846  0.14203969  0.45756320  1
  O  O19  1  0.29115988  0.93740789  0.25000000  1
  O  O20  1  0.70818187  0.04230768  0.75000000  1
  O  O21  1  0.72273656  0.83352016  0.54847642  1
  O  O22  1  0.72273656  0.83352016  0.95152358  1
  O  O23  1  0.75270315  0.06309908  0.25000000  1
  O  O24  1  0.77154890  0.61137840  0.25000000  1
  O  O25  1  0.72165115  0.34975315  0.55210248  1
  O  O26  1  0.72165115  0.34975315  0.94789752  1
  O  O27  1  0.80156103  0.55662169  0.75000000  1
