# generated using pymatgen
data_Li3Fe8(BO3)8
_symmetry_space_group_name_H-M   'P 1'
_cell_length_a   5.25739478
_cell_length_b   9.12361338
_cell_length_c   10.13883016
_cell_angle_alpha   90.50235569
_cell_angle_beta   90.66164717
_cell_angle_gamma   89.02579643
_symmetry_Int_Tables_number   1
_chemical_formula_structural   Li3Fe8(BO3)8
_chemical_formula_sum   'Li3 Fe8 B8 O24'
_cell_volume   486.20297484
_cell_formula_units_Z   1
loop_
 _symmetry_equiv_pos_site_id
 _symmetry_equiv_pos_as_xyz
  1  'x, y, z'
loop_
 _atom_site_type_symbol
 _atom_site_label
 _atom_site_symmetry_multiplicity
 _atom_site_fract_x
 _atom_site_fract_y
 _atom_site_fract_z
 _atom_site_occupancy
  Li  Li0  1  0.81793464  0.83063945  0.14285153  1
  Li  Li1  1  0.67810879  0.66650014  0.41166844  1
  Li  Li2  1  0.34046661  0.32681350  0.65713414  1
  Fe  Fe3  1  0.84564849  0.15060713  0.63010616  1
  Fe  Fe4  1  0.81778387  0.49601625  0.12821232  1
  Fe  Fe5  1  0.67003246  0.00092783  0.86891576  1
  Fe  Fe6  1  0.67218233  0.32928855  0.37884786  1
  Fe  Fe7  1  0.33692157  0.66525075  0.63504678  1
  Fe  Fe8  1  0.32688144  0.00464310  0.12295408  1
  Fe  Fe9  1  0.16976002  0.84709190  0.38434045  1
  Fe  Fe10  1  0.16734725  0.50801260  0.88338559  1
  B  B11  1  0.83169517  0.49459368  0.62142575  1
  B  B12  1  0.83025408  0.16301859  0.13326635  1
  B  B13  1  0.66113958  0.99819419  0.37184605  1
  B  B14  1  0.67595030  0.33487488  0.87381094  1
  B  B15  1  0.34128949  0.00415011  0.62743132  1
  B  B16  1  0.32673300  0.67657950  0.12988812  1
  B  B17  1  0.17019205  0.50612452  0.37864020  1
  B  B18  1  0.17065546  0.83320809  0.88386574  1
  O  O19  1  0.90841242  0.49872787  0.34950176  1
  O  O20  1  0.91507260  0.85188852  0.89166723  1
  O  O21  1  0.78108574  0.19852699  0.84181857  1
  O  O22  1  0.75878410  0.12535643  0.42245675  1
  O  O23  1  0.80763116  0.87085434  0.36071673  1
  O  O24  1  0.83089567  0.44310937  0.92574938  1
  O  O25  1  0.70132308  0.62312194  0.60380545  1
  O  O26  1  0.68570054  0.04178864  0.08904142  1
  O  O27  1  0.71878889  0.36173390  0.58174282  1
  O  O28  1  0.70900298  0.28672999  0.18368068  1
  O  O29  1  0.58477083  0.67189934  0.14435514  1
  O  O30  1  0.58815682  0.98952019  0.67879942  1
  O  O31  1  0.40925868  0.99472262  0.32631018  1
  O  O32  1  0.42254801  0.36304885  0.85034037  1
  O  O33  1  0.27985494  0.70379530  0.83827746  1
  O  O34  1  0.27153069  0.64371312  0.41050019  1
  O  O35  1  0.32517029  0.38619452  0.38051848  1
  O  O36  1  0.33212991  0.94479970  0.92890701  1
  O  O37  1  0.18558223  0.56208580  0.07855592  1
  O  O38  1  0.21597342  0.13498352  0.62877060  1
  O  O39  1  0.23256112  0.87799482  0.57249754  1
  O  O40  1  0.18786706  0.80584948  0.16882480  1
  O  O41  1  0.08675489  0.15291605  0.12705531  1
  O  O42  1  0.08131133  0.48999394  0.67387219  1
