# generated using pymatgen
data_Fe2RhS4
_symmetry_space_group_name_H-M   'P 1'
_cell_length_a   6.77581451
_cell_length_b   6.66647561
_cell_length_c   6.77581452
_cell_angle_alpha   60.53237313
_cell_angle_beta   60.83923085
_cell_angle_gamma   60.53237577
_symmetry_Int_Tables_number   1
_chemical_formula_structural   Fe2RhS4
_chemical_formula_sum   'Fe4 Rh2 S8'
_cell_volume   219.52079464
_cell_formula_units_Z   2
loop_
 _symmetry_equiv_pos_site_id
 _symmetry_equiv_pos_as_xyz
  1  'x, y, z'
loop_
 _atom_site_type_symbol
 _atom_site_label
 _atom_site_symmetry_multiplicity
 _atom_site_fract_x
 _atom_site_fract_y
 _atom_site_fract_z
 _atom_site_occupancy
  Fe  Fe0  1  0.00086105  0.99913895  0.00086105  1
  Fe  Fe1  1  0.24913895  0.25086105  0.24913895  1
  Fe  Fe2  1  0.62500000  0.12500000  0.62500000  1
  Fe  Fe3  1  0.62500000  0.62500000  0.62500000  1
  Rh  Rh4  1  0.12500000  0.62500000  0.62500000  1
  Rh  Rh5  1  0.62500000  0.62500000  0.12500000  1
  S  S6  1  0.38858911  0.36699508  0.38858911  1
  S  S7  1  0.39311847  0.37694361  0.85299431  1
  S  S8  1  0.38858911  0.85582669  0.38858911  1
  S  S9  1  0.85299431  0.37694361  0.39311847  1
  S  S10  1  0.39700569  0.87305639  0.85688153  1
  S  S11  1  0.85688153  0.87305639  0.39700569  1
  S  S12  1  0.86141089  0.39417331  0.86141089  1
  S  S13  1  0.86141089  0.88300492  0.86141089  1
