# generated using pymatgen
data_Mn5O9F
_symmetry_space_group_name_H-M   'P 1'
_cell_length_a   5.07527776
_cell_length_b   5.11510858
_cell_length_c   7.92404426
_cell_angle_alpha   109.76943553
_cell_angle_beta   78.26182354
_cell_angle_gamma   80.14996736
_symmetry_Int_Tables_number   1
_chemical_formula_structural   Mn5O9F
_chemical_formula_sum   'Mn5 O9 F1'
_cell_volume   183.00368999
_cell_formula_units_Z   1
loop_
 _symmetry_equiv_pos_site_id
 _symmetry_equiv_pos_as_xyz
  1  'x, y, z'
loop_
 _atom_site_type_symbol
 _atom_site_label
 _atom_site_symmetry_multiplicity
 _atom_site_fract_x
 _atom_site_fract_y
 _atom_site_fract_z
 _atom_site_occupancy
  Mn  Mn0  1  0.99679415  0.19425272  0.40128762  1
  Mn  Mn1  1  0.98432553  0.00649218  0.00993301  1
  Mn  Mn2  1  0.99420140  0.59907593  0.20069712  1
  Mn  Mn3  1  0.00066559  0.79327703  0.59054858  1
  Mn  Mn4  1  0.00200070  0.41347221  0.79793524  1
  O  O5  1  0.18775585  0.21227987  0.16912785  1
  O  O6  1  0.19791113  0.80703572  0.36083664  1
  O  O7  1  0.19880854  0.41868528  0.56104288  1
  O  O8  1  0.19028598  0.61636136  0.96813627  1
  O  O9  1  0.80805392  0.38702693  0.02825778  1
  O  O10  1  0.78483168  0.98244005  0.26390715  1
  O  O11  1  0.79958003  0.58628346  0.44171799  1
  O  O12  1  0.80922044  0.18528061  0.63935240  1
  O  O13  1  0.80971435  0.78621954  0.82902743  1
  F  F14  1  0.23298871  0.01205312  0.73491704  1
