# generated using pymatgen
data_LiCuS2
_symmetry_space_group_name_H-M   'P 1'
_cell_length_a   5.96554314
_cell_length_b   6.65461100
_cell_length_c   3.37499265
_cell_angle_alpha   90.00000000
_cell_angle_beta   90.00000000
_cell_angle_gamma   90.00000000
_symmetry_Int_Tables_number   1
_chemical_formula_structural   LiCuS2
_chemical_formula_sum   'Li2 Cu2 S4'
_cell_volume   133.98170359
_cell_formula_units_Z   2
loop_
 _symmetry_equiv_pos_site_id
 _symmetry_equiv_pos_as_xyz
  1  'x, y, z'
loop_
 _atom_site_type_symbol
 _atom_site_label
 _atom_site_symmetry_multiplicity
 _atom_site_fract_x
 _atom_site_fract_y
 _atom_site_fract_z
 _atom_site_occupancy
  Li  Li0  1  0.00000000  0.50000000  0.50000000  1
  Li  Li1  1  0.50000000  0.00000000  0.00000000  1
  Cu  Cu2  1  0.00000000  0.00000000  0.00000000  1
  Cu  Cu3  1  0.50000000  0.50000000  0.50000000  1
  S  S4  1  0.18406172  0.85405892  0.50000000  1
  S  S5  1  0.31593828  0.35405892  0.00000000  1
  S  S6  1  0.68406172  0.64594108  0.00000000  1
  S  S7  1  0.81593828  0.14594108  0.50000000  1
