# generated using pymatgen
data_Ca4Bi6O13
_symmetry_space_group_name_H-M   'P 1'
_cell_length_a   3.71279192
_cell_length_b   4.61111604
_cell_length_c   23.93339852
_cell_angle_alpha   88.44110556
_cell_angle_beta   81.92367736
_cell_angle_gamma   89.83051516
_symmetry_Int_Tables_number   1
_chemical_formula_structural   Ca4Bi6O13
_chemical_formula_sum   'Ca4 Bi6 O13'
_cell_volume   405.52831159
_cell_formula_units_Z   1
loop_
 _symmetry_equiv_pos_site_id
 _symmetry_equiv_pos_as_xyz
  1  'x, y, z'
loop_
 _atom_site_type_symbol
 _atom_site_label
 _atom_site_symmetry_multiplicity
 _atom_site_fract_x
 _atom_site_fract_y
 _atom_site_fract_z
 _atom_site_occupancy
  Ca  Ca0  1  0.19468042  0.09677912  0.05447007  1
  Ca  Ca1  1  0.10788883  0.08420687  0.20230078  1
  Ca  Ca2  1  0.64982723  0.59181137  0.12632569  1
  Ca  Ca3  1  0.55614967  0.57471723  0.27831835  1
  Bi  Bi4  1  0.07833195  0.06088455  0.36322634  1
  Bi  Bi5  1  0.02962915  0.09911581  0.59260356  1
  Bi  Bi6  1  0.02077509  0.00975601  0.82845507  1
  Bi  Bi7  1  0.39958784  0.50999006  0.46235109  1
  Bi  Bi8  1  0.42676243  0.45897582  0.69797576  1
  Bi  Bi9  1  0.51186281  0.40645419  0.93270042  1
  O  O10  1  0.44943322  0.07371980  0.42945503  1
  O  O11  1  0.50881579  0.06028850  0.64732760  1
  O  O12  1  0.49298719  0.99194877  0.88252428  1
  O  O13  1  0.53780439  0.07310399  0.29117504  1
  O  O14  1  0.10778463  0.58209947  0.22374007  1
  O  O15  1  0.65677709  0.09095803  0.14381771  1
  O  O16  1  0.78098657  0.16170668  0.99078209  1
  O  O17  1  0.19741568  0.60259688  0.07522441  1
  O  O18  1  0.88570214  0.38358711  0.51449805  1
  O  O19  1  0.92856261  0.24671811  0.74427579  1
  O  O20  1  0.16476688  0.56530440  0.37398046  1
  O  O21  1  0.04349216  0.51612083  0.63084955  1
  O  O22  1  0.98997624  0.43915640  0.86562280  1
