# generated using pymatgen
data_K4Li7Mn2O8
_symmetry_space_group_name_H-M   'P 1'
_cell_length_a   5.70269931
_cell_length_b   8.97529003
_cell_length_c   10.92788382
_cell_angle_alpha   90.02806684
_cell_angle_beta   97.99172907
_cell_angle_gamma   90.01248193
_symmetry_Int_Tables_number   1
_chemical_formula_structural   K4Li7Mn2O8
_chemical_formula_sum   'K8 Li14 Mn4 O16'
_cell_volume   553.89385222
_cell_formula_units_Z   2
loop_
 _symmetry_equiv_pos_site_id
 _symmetry_equiv_pos_as_xyz
  1  'x, y, z'
loop_
 _atom_site_type_symbol
 _atom_site_label
 _atom_site_symmetry_multiplicity
 _atom_site_fract_x
 _atom_site_fract_y
 _atom_site_fract_z
 _atom_site_occupancy
  K  K0  1  0.08709169  0.00565975  0.83706735  1
  K  K1  1  0.13155905  0.75670009  0.37033957  1
  K  K2  1  0.42183138  0.50195789  0.65976207  1
  K  K3  1  0.62564619  0.74732956  0.85975638  1
  K  K4  1  0.38223979  0.25220326  0.12265641  1
  K  K5  1  0.58721561  0.50044697  0.33719978  1
  K  K6  1  0.89025835  0.25225396  0.63296372  1
  K  K7  1  0.92000730  0.00389727  0.15843041  1
  Li  Li8  1  0.00713075  0.50778391  0.50209586  1
  Li  Li9  1  0.09647170  0.74815152  0.69324661  1
  Li  Li10  1  0.31771497  0.48239056  0.92650380  1
  Li  Li11  1  0.19029051  0.98283172  0.57263998  1
  Li  Li12  1  0.07284005  0.47801517  0.20225722  1
  Li  Li13  1  0.41476689  0.24895084  0.80898573  1
  Li  Li14  1  0.49475129  0.98992862  0.99723805  1
  Li  Li15  1  0.57648440  0.01463547  0.69630790  1
  Li  Li16  1  0.43545260  0.98029833  0.29828551  1
  Li  Li17  1  0.59751293  0.75608192  0.19388363  1
  Li  Li18  1  0.80659922  0.01213262  0.43550150  1
  Li  Li19  1  0.93250232  0.51138503  0.80465204  1
  Li  Li20  1  0.70094359  0.51114949  0.06372364  1
  Li  Li21  1  0.91260919  0.25564077  0.30762760  1
  Mn  Mn22  1  0.34366667  0.20931213  0.44929438  1
  Mn  Mn23  1  0.83943667  0.27924796  0.94875327  1
  Mn  Mn24  1  0.16351285  0.70715150  0.05140669  1
  Mn  Mn25  1  0.66914172  0.78195041  0.55170806  1
  O  O26  1  0.12387770  0.31859177  0.85918451  1
  O  O27  1  0.15032580  0.68807236  0.87693575  1
  O  O28  1  0.13598095  0.05531936  0.38369054  1
  O  O29  1  0.15431019  0.41022753  0.39098638  1
  O  O30  1  0.36394065  0.18809280  0.62430202  1
  O  O31  1  0.38219214  0.81926669  0.63968491  1
  O  O32  1  0.62994841  0.45524569  0.88073139  1
  O  O33  1  0.34797637  0.90599658  0.11414049  1
  O  O34  1  0.36828082  0.55090031  0.11526841  1
  O  O35  1  0.63759575  0.08341300  0.88442553  1
  O  O36  1  0.60303806  0.18291797  0.35738390  1
  O  O37  1  0.64167569  0.81818843  0.36440471  1
  O  O38  1  0.86733695  0.58777628  0.62187005  1
  O  O39  1  0.87628349  0.95938118  0.61867190  1
  O  O40  1  0.86823551  0.31748719  0.13632340  1
  O  O41  1  0.90131384  0.68184514  0.14172996  1
