# generated using pymatgen
data_Li3Mn3O3F5
_symmetry_space_group_name_H-M   'P 1'
_cell_length_a   6.08404790
_cell_length_b   6.15239576
_cell_length_c   5.86603918
_cell_angle_alpha   118.47060934
_cell_angle_beta   89.99870540
_cell_angle_gamma   61.47356231
_symmetry_Int_Tables_number   1
_chemical_formula_structural   Li3Mn3O3F5
_chemical_formula_sum   'Li3 Mn3 O3 F5'
_cell_volume   162.05008324
_cell_formula_units_Z   1
loop_
 _symmetry_equiv_pos_site_id
 _symmetry_equiv_pos_as_xyz
  1  'x, y, z'
loop_
 _atom_site_type_symbol
 _atom_site_label
 _atom_site_symmetry_multiplicity
 _atom_site_fract_x
 _atom_site_fract_y
 _atom_site_fract_z
 _atom_site_occupancy
  Li  Li0  1  0.35790905  0.78014169  0.39006657  1
  Li  Li1  1  0.75396030  0.47238207  0.73618758  1
  Li  Li2  1  0.02589983  0.01008132  0.00504298  1
  Mn  Mn3  1  0.87255198  0.75057802  0.37530412  1
  Mn  Mn4  1  0.36474108  0.25100522  0.38262479  1
  Mn  Mn5  1  0.36473226  0.25101081  0.86838427  1
  O  O6  1  0.14746604  0.28461821  0.14231939  1
  O  O7  1  0.59552244  0.21639628  0.60819040  1
  O  O8  1  0.16168528  0.23736130  0.61868585  1
  F  F9  1  0.61256851  0.74829090  0.62096389  1
  F  F10  1  0.61260641  0.74830137  0.12732339  1
  F  F11  1  0.14224542  0.74829372  0.13183279  1
  F  F12  1  0.14221656  0.74830005  0.61646915  1
  F  F13  1  0.59589384  0.25323803  0.12660582  1
