# generated using pymatgen
data_Li4TiS4
_symmetry_space_group_name_H-M   'P 1'
_cell_length_a   11.02714019
_cell_length_b   11.02714019
_cell_length_c   11.02714019
_cell_angle_alpha   90.00000000
_cell_angle_beta   90.00000000
_cell_angle_gamma   90.00000000
_symmetry_Int_Tables_number   1
_chemical_formula_structural   Li4TiS4
_chemical_formula_sum   'Li32 Ti8 S32'
_cell_volume   1340.87621643
_cell_formula_units_Z   8
loop_
 _symmetry_equiv_pos_site_id
 _symmetry_equiv_pos_as_xyz
  1  'x, y, z'
loop_
 _atom_site_type_symbol
 _atom_site_label
 _atom_site_symmetry_multiplicity
 _atom_site_fract_x
 _atom_site_fract_y
 _atom_site_fract_z
 _atom_site_occupancy
  Li  Li0  1  0.08157702  0.15041384  0.65952533  1
  Li  Li1  1  0.08157702  0.84958616  0.34047467  1
  Li  Li2  1  0.15041384  0.34047467  0.91842298  1
  Li  Li3  1  0.15041384  0.65952533  0.08157702  1
  Li  Li4  1  0.15952533  0.34958616  0.41842298  1
  Li  Li5  1  0.16199454  0.83800546  0.83800546  1
  Li  Li6  1  0.16199454  0.16199454  0.16199454  1
  Li  Li7  1  0.15952533  0.65041384  0.58157702  1
  Li  Li8  1  0.34047467  0.08157702  0.84958616  1
  Li  Li9  1  0.33800546  0.33800546  0.66199454  1
  Li  Li10  1  0.33800546  0.66199454  0.33800546  1
  Li  Li11  1  0.34047467  0.91842298  0.15041384  1
  Li  Li12  1  0.34958616  0.41842298  0.15952533  1
  Li  Li13  1  0.34958616  0.58157702  0.84047467  1
  Li  Li14  1  0.41842298  0.15952533  0.34958616  1
  Li  Li15  1  0.41842298  0.84047467  0.65041384  1
  Li  Li16  1  0.58157702  0.15952533  0.65041384  1
  Li  Li17  1  0.58157702  0.84047467  0.34958616  1
  Li  Li18  1  0.65041384  0.41842298  0.84047467  1
  Li  Li19  1  0.65041384  0.58157702  0.15952533  1
  Li  Li20  1  0.65952533  0.08157702  0.15041384  1
  Li  Li21  1  0.66199454  0.33800546  0.33800546  1
  Li  Li22  1  0.66199454  0.66199454  0.66199454  1
  Li  Li23  1  0.65952533  0.91842298  0.84958616  1
  Li  Li24  1  0.83800546  0.16199454  0.83800546  1
  Li  Li25  1  0.84047467  0.34958616  0.58157702  1
  Li  Li26  1  0.84047467  0.65041384  0.41842298  1
  Li  Li27  1  0.83800546  0.83800546  0.16199454  1
  Li  Li28  1  0.84958616  0.34047467  0.08157702  1
  Li  Li29  1  0.84958616  0.65952533  0.91842298  1
  Li  Li30  1  0.91842298  0.15041384  0.34047467  1
  Li  Li31  1  0.91842298  0.84958616  0.65952533  1
  Ti  Ti32  1  0.00000000  0.00000000  0.00000000  1
  Ti  Ti33  1  0.00000000  0.50000000  0.25000000  1
  Ti  Ti34  1  0.00000000  0.50000000  0.75000000  1
  Ti  Ti35  1  0.25000000  0.00000000  0.50000000  1
  Ti  Ti36  1  0.50000000  0.50000000  0.50000000  1
  Ti  Ti37  1  0.50000000  0.25000000  0.00000000  1
  Ti  Ti38  1  0.50000000  0.75000000  0.00000000  1
  Ti  Ti39  1  0.75000000  0.00000000  0.50000000  1
  S  S40  1  0.11552583  0.37680997  0.63545560  1
  S  S41  1  0.11552583  0.62319003  0.36454440  1
  S  S42  1  0.11801253  0.11801253  0.88198747  1
  S  S43  1  0.11801253  0.88198747  0.11801253  1
  S  S44  1  0.12319003  0.38447417  0.13545560  1
  S  S45  1  0.12319003  0.61552583  0.86454440  1
  S  S46  1  0.13545560  0.12319003  0.38447417  1
  S  S47  1  0.13545560  0.87680997  0.61552583  1
  S  S48  1  0.36454440  0.11552583  0.62319003  1
  S  S49  1  0.36454440  0.88447417  0.37680997  1
  S  S50  1  0.37680997  0.36454440  0.88447417  1
  S  S51  1  0.37680997  0.63545560  0.11552583  1
  S  S52  1  0.38198747  0.38198747  0.38198747  1
  S  S53  1  0.38198747  0.61801253  0.61801253  1
  S  S54  1  0.38447417  0.13545560  0.12319003  1
  S  S55  1  0.38447417  0.86454440  0.87680997  1
  S  S56  1  0.61552583  0.13545560  0.87680997  1
  S  S57  1  0.61552583  0.86454440  0.12319003  1
  S  S58  1  0.61801253  0.38198747  0.61801253  1
  S  S59  1  0.61801253  0.61801253  0.38198747  1
  S  S60  1  0.62319003  0.36454440  0.11552583  1
  S  S61  1  0.62319003  0.63545560  0.88447417  1
  S  S62  1  0.63545560  0.11552583  0.37680997  1
  S  S63  1  0.63545560  0.88447417  0.62319003  1
  S  S64  1  0.86454440  0.12319003  0.61552583  1
  S  S65  1  0.86454440  0.87680997  0.38447417  1
  S  S66  1  0.87680997  0.38447417  0.86454440  1
  S  S67  1  0.87680997  0.61552583  0.13545560  1
  S  S68  1  0.88198747  0.11801253  0.11801253  1
  S  S69  1  0.88198747  0.88198747  0.88198747  1
  S  S70  1  0.88447417  0.37680997  0.36454440  1
  S  S71  1  0.88447417  0.62319003  0.63545560  1
