# generated using pymatgen
data_LiCo15O16
_symmetry_space_group_name_H-M   'P 1'
_cell_length_a   6.04476450
_cell_length_b   7.95404104
_cell_length_c   6.79513149
_cell_angle_alpha   89.92973682
_cell_angle_beta   77.11264251
_cell_angle_gamma   79.19120084
_symmetry_Int_Tables_number   1
_chemical_formula_structural   LiCo15O16
_chemical_formula_sum   'Li1 Co15 O16'
_cell_volume   312.55055233
_cell_formula_units_Z   1
loop_
 _symmetry_equiv_pos_site_id
 _symmetry_equiv_pos_as_xyz
  1  'x, y, z'
loop_
 _atom_site_type_symbol
 _atom_site_label
 _atom_site_symmetry_multiplicity
 _atom_site_fract_x
 _atom_site_fract_y
 _atom_site_fract_z
 _atom_site_occupancy
  Li  Li0  1  0.00000000  0.00000000  0.00000000  1
  Co  Co1  1  0.75180922  0.75244677  0.24634168  1
  Co  Co2  1  0.50000000  0.00000000  0.00000000  1
  Co  Co3  1  0.24838723  0.75145636  0.24724244  1
  Co  Co4  1  0.87635801  0.36655110  0.12206972  1
  Co  Co5  1  0.37638824  0.37286553  0.12406377  1
  Co  Co6  1  0.37264426  0.87740652  0.62676945  1
  Co  Co7  1  0.87511680  0.87731966  0.62759866  1
  Co  Co8  1  0.00000000  0.50000000  0.50000000  1
  Co  Co9  1  0.50000000  0.50000000  0.50000000  1
  Co  Co10  1  0.62735574  0.12259348  0.37322955  1
  Co  Co11  1  0.12488320  0.12268034  0.37240134  1
  Co  Co12  1  0.62361176  0.62713447  0.87593623  1
  Co  Co13  1  0.12364199  0.63344790  0.87793028  1
  Co  Co14  1  0.75161277  0.24854364  0.75275756  1
  Co  Co15  1  0.24819078  0.24755323  0.75365832  1
  O  O16  1  0.56396893  0.56047193  0.18754517  1
  O  O17  1  0.43960089  0.93454777  0.31041091  1
  O  O18  1  0.93454687  0.93499598  0.32184915  1
  O  O19  1  0.19047287  0.18966980  0.06563284  1
  O  O20  1  0.06288359  0.56325946  0.18527048  1
  O  O21  1  0.67911828  0.18586000  0.06248665  1
  O  O22  1  0.31380621  0.31131473  0.43821807  1
  O  O23  1  0.68619379  0.68868527  0.56178193  1
  O  O24  1  0.18832718  0.68560857  0.56426550  1
  O  O25  1  0.81167282  0.31439143  0.43573450  1
  O  O26  1  0.80952713  0.81033020  0.93436716  1
  O  O27  1  0.32088172  0.81414000  0.93751335  1
  O  O28  1  0.43603107  0.43952807  0.81245483  1
  O  O29  1  0.93711641  0.43674054  0.81472952  1
  O  O30  1  0.06545313  0.06500402  0.67815085  1
  O  O31  1  0.56039911  0.06545223  0.68958909  1
