# generated using pymatgen
data_Li2NiP2O7
_symmetry_space_group_name_H-M   'P 1'
_cell_length_a   7.56002583
_cell_length_b   7.56002583
_cell_length_c   10.95965030
_cell_angle_alpha   88.74569253
_cell_angle_beta   91.25430747
_cell_angle_gamma   62.85046998
_symmetry_Int_Tables_number   1
_chemical_formula_structural   Li2NiP2O7
_chemical_formula_sum   'Li8 Ni4 P8 O28'
_cell_volume   556.88006259
_cell_formula_units_Z   4
loop_
 _symmetry_equiv_pos_site_id
 _symmetry_equiv_pos_as_xyz
  1  'x, y, z'
loop_
 _atom_site_type_symbol
 _atom_site_label
 _atom_site_symmetry_multiplicity
 _atom_site_fract_x
 _atom_site_fract_y
 _atom_site_fract_z
 _atom_site_occupancy
  Li  Li0  1  0.28108297  0.29510498  0.99824036  1
  Li  Li1  1  0.70489502  0.71891703  0.49824036  1
  Li  Li2  1  0.28426267  0.28426267  0.75000000  1
  Li  Li3  1  0.70667966  0.70667966  0.75000000  1
  Li  Li4  1  0.29332034  0.29332034  0.25000000  1
  Li  Li5  1  0.71573733  0.71573733  0.25000000  1
  Li  Li6  1  0.29510498  0.28108297  0.50175964  1
  Li  Li7  1  0.71891703  0.70489502  0.00175964  1
  Ni  Ni8  1  0.30297348  0.69592323  0.88708371  1
  Ni  Ni9  1  0.30407677  0.69702652  0.38708371  1
  Ni  Ni10  1  0.69592323  0.30297348  0.61291629  1
  Ni  Ni11  1  0.69702652  0.30407677  0.11291629  1
  P  P12  1  0.29716434  0.91480601  0.63229900  1
  P  P13  1  0.08519399  0.70283566  0.13229900  1
  P  P14  1  0.09065865  0.68173429  0.63395195  1
  P  P15  1  0.31826571  0.90934135  0.13395195  1
  P  P16  1  0.68173429  0.09065865  0.86604805  1
  P  P17  1  0.90934135  0.31826571  0.36604805  1
  P  P18  1  0.91480601  0.29716434  0.86770100  1
  P  P19  1  0.70283566  0.08519399  0.36770100  1
  O  O20  1  0.08635549  0.90142089  0.62744132  1
  O  O21  1  0.09857911  0.91364451  0.12744132  1
  O  O22  1  0.41457398  0.80318337  0.52050068  1
  O  O23  1  0.19681663  0.58542602  0.02050068  1
  O  O24  1  0.19775341  0.57951331  0.75654336  1
  O  O25  1  0.42048669  0.80224659  0.25654336  1
  O  O26  1  0.40814065  0.80297600  0.75185821  1
  O  O27  1  0.19702400  0.59185935  0.25185821  1
  O  O28  1  0.21805146  0.56888717  0.52542615  1
  O  O29  1  0.43111283  0.78194854  0.02542615  1
  O  O30  1  0.71850052  0.87814954  0.87360118  1
  O  O31  1  0.12185046  0.28149948  0.37360118  1
  O  O32  1  0.13251171  0.24237542  0.87363685  1
  O  O33  1  0.75762458  0.86748829  0.37363685  1
  O  O34  1  0.24237542  0.13251171  0.62636315  1
  O  O35  1  0.86748829  0.75762458  0.12636315  1
  O  O36  1  0.87814954  0.71850052  0.62639882  1
  O  O37  1  0.28149948  0.12185046  0.12639882  1
  O  O38  1  0.56888717  0.21805146  0.97457385  1
  O  O39  1  0.78194854  0.43111283  0.47457385  1
  O  O40  1  0.80297600  0.40814065  0.74814179  1
  O  O41  1  0.59185935  0.19702400  0.24814179  1
  O  O42  1  0.57951331  0.19775341  0.74345664  1
  O  O43  1  0.80224659  0.42048669  0.24345664  1
  O  O44  1  0.80318337  0.41457398  0.97949932  1
  O  O45  1  0.58542602  0.19681663  0.47949932  1
  O  O46  1  0.90142089  0.08635549  0.87255868  1
  O  O47  1  0.91364451  0.09857911  0.37255868  1
