# generated using pymatgen
data_Li3BiS4
_symmetry_space_group_name_H-M   'P 1'
_cell_length_a   7.14167428
_cell_length_b   10.10778604
_cell_length_c   9.77378427
_cell_angle_alpha   90.00000000
_cell_angle_beta   90.00000000
_cell_angle_gamma   90.00000000
_symmetry_Int_Tables_number   1
_chemical_formula_structural   Li3BiS4
_chemical_formula_sum   'Li12 Bi4 S16'
_cell_volume   705.53543058
_cell_formula_units_Z   4
loop_
 _symmetry_equiv_pos_site_id
 _symmetry_equiv_pos_as_xyz
  1  'x, y, z'
loop_
 _atom_site_type_symbol
 _atom_site_label
 _atom_site_symmetry_multiplicity
 _atom_site_fract_x
 _atom_site_fract_y
 _atom_site_fract_z
 _atom_site_occupancy
  Li  Li0  1  0.22773273  0.58772959  0.21582844  1
  Li  Li1  1  0.22773273  0.91227041  0.21582844  1
  Li  Li2  1  0.19147952  0.25000000  0.39170634  1
  Li  Li3  1  0.30852048  0.75000000  0.89170634  1
  Li  Li4  1  0.27226727  0.41227041  0.71582844  1
  Li  Li5  1  0.27226727  0.08772959  0.71582844  1
  Li  Li6  1  0.72773273  0.58772959  0.28417156  1
  Li  Li7  1  0.72773273  0.91227041  0.28417156  1
  Li  Li8  1  0.69147952  0.25000000  0.10829366  1
  Li  Li9  1  0.80852048  0.75000000  0.60829366  1
  Li  Li10  1  0.77226727  0.08772959  0.78417156  1
  Li  Li11  1  0.77226727  0.41227041  0.78417156  1
  Bi  Bi12  1  0.24834466  0.25000000  0.01829425  1
  Bi  Bi13  1  0.25165434  0.75000000  0.51829425  1
  Bi  Bi14  1  0.74834466  0.25000000  0.48170575  1
  Bi  Bi15  1  0.75165534  0.75000000  0.98170575  1
  S  S16  1  0.00580181  0.75000000  0.80517198  1
  S  S17  1  0.14258951  0.47839105  0.48352882  1
  S  S18  1  0.14258951  0.02160895  0.48352882  1
  S  S19  1  0.03766530  0.25000000  0.80117283  1
  S  S20  1  0.46233470  0.75000000  0.30117283  1
  S  S21  1  0.35741049  0.97839105  0.98352882  1
  S  S22  1  0.35741049  0.52160895  0.98352882  1
  S  S23  1  0.49419819  0.25000000  0.30517198  1
  S  S24  1  0.50580181  0.75000000  0.69482802  1
  S  S25  1  0.64258951  0.47839105  0.01647118  1
  S  S26  1  0.64258951  0.02160895  0.01647118  1
  S  S27  1  0.53766530  0.25000000  0.69882717  1
  S  S28  1  0.96233470  0.75000000  0.19882717  1
  S  S29  1  0.85741049  0.97839105  0.51647118  1
  S  S30  1  0.85741049  0.52160895  0.51647118  1
  S  S31  1  0.99419819  0.25000000  0.19482802  1
