# generated using pymatgen
data_Li3TiV3O8
_symmetry_space_group_name_H-M   'P 1'
_cell_length_a   4.08440320
_cell_length_b   6.49243958
_cell_length_c   6.65762971
_cell_angle_alpha   73.46205880
_cell_angle_beta   89.98272910
_cell_angle_gamma   71.70436369
_symmetry_Int_Tables_number   1
_chemical_formula_structural   Li3TiV3O8
_chemical_formula_sum   'Li3 Ti1 V3 O8'
_cell_volume   159.91556500
_cell_formula_units_Z   1
loop_
 _symmetry_equiv_pos_site_id
 _symmetry_equiv_pos_as_xyz
  1  'x, y, z'
loop_
 _atom_site_type_symbol
 _atom_site_label
 _atom_site_symmetry_multiplicity
 _atom_site_fract_x
 _atom_site_fract_y
 _atom_site_fract_z
 _atom_site_occupancy
  Li  Li0  1  0.93734968  0.11762918  0.63883760  1
  Li  Li1  1  0.17647905  0.64727534  0.00401670  1
  Li  Li2  1  0.06043048  0.87678026  0.35714147  1
  Ti  Ti3  1  0.29565542  0.40255065  0.71492414  1
  V  V4  1  0.39040837  0.21411536  0.31030964  1
  V  V5  1  0.71126641  0.57552086  0.29944362  1
  V  V6  1  0.61087518  0.77629851  0.69800994  1
  O  O7  1  0.33844993  0.31794138  0.98795104  1
  O  O8  1  0.43366968  0.12628578  0.64711088  1
  O  O9  1  0.88176616  0.23192275  0.32861848  1
  O  O10  1  0.22545971  0.54587835  0.32641208  1
  O  O11  1  0.77375543  0.44862448  0.65181377  1
  O  O12  1  0.12238381  0.75333601  0.68318034  1
  O  O13  1  0.55953816  0.87758543  0.37023902  1
  O  O14  1  0.65081952  0.69745267  0.00019129  1
