# generated using pymatgen
data_Ca(Bi2O3)2
_symmetry_space_group_name_H-M   'P 1'
_cell_length_a   10.10089343
_cell_length_b   50.32423933
_cell_length_c   19.74698944
_cell_angle_alpha   11.19032080
_cell_angle_beta   19.28621260
_cell_angle_gamma   22.19017554
_symmetry_Int_Tables_number   1
_chemical_formula_structural   Ca(Bi2O3)2
_chemical_formula_sum   'Ca3 Bi12 O18'
_cell_volume   643.40596566
_cell_formula_units_Z   3
loop_
 _symmetry_equiv_pos_site_id
 _symmetry_equiv_pos_as_xyz
  1  'x, y, z'
loop_
 _atom_site_type_symbol
 _atom_site_label
 _atom_site_symmetry_multiplicity
 _atom_site_fract_x
 _atom_site_fract_y
 _atom_site_fract_z
 _atom_site_occupancy
  Ca  Ca0  1  0.03571423  0.00728105  0.96646219  1
  Ca  Ca1  1  0.02757137  0.20000000  0.99977778  1
  Ca  Ca2  1  0.03571423  0.39271895  0.00286743  1
  Bi  Bi3  1  0.19271630  0.20000000  0.24395023  1
  Bi  Bi4  1  0.80446579  0.98000472  0.81499068  1
  Bi  Bi5  1  0.20692110  0.40241813  0.22580473  1
  Bi  Bi6  1  0.77112307  0.20000000  0.77160435  1
  Bi  Bi7  1  0.26370314  0.60316056  0.19906514  1
  Bi  Bi8  1  0.01878767  0.57604661  0.05761368  1
  Bi  Bi9  1  0.80446579  0.41999528  0.71501430  1
  Bi  Bi10  1  0.26370314  0.79683944  0.21486792  1
  Bi  Bi11  1  0.01878767  0.82395339  0.93784674  1
  Bi  Bi12  1  0.71724742  0.57143098  0.88049351  1
  Bi  Bi13  1  0.20692110  0.99758187  0.23789538  1
  Bi  Bi14  1  0.71724742  0.82856902  0.73764841  1
  O  O15  1  0.11661145  0.20000000  0.09082174  1
  O  O16  1  0.32758042  0.20000000  0.28149609  1
  O  O17  1  0.71838738  0.99499057  0.70951863  1
  O  O18  1  0.49894335  0.20000000  0.59730089  1
  O  O19  1  0.22664714  0.40765490  0.31175690  1
  O  O20  1  0.74262005  0.20000000  0.67758331  1
  O  O21  1  0.52186673  0.39303828  0.57876272  1
  O  O22  1  0.34966507  0.58317402  0.31208748  1
  O  O23  1  0.71838738  0.40500943  0.68447150  1
  O  O24  1  0.43304847  0.62321079  0.38133136  1
  O  O25  1  0.61371973  0.58585568  0.57171533  1
  O  O26  1  0.34966507  0.81682598  0.22795759  1
  O  O27  1  0.64874312  0.54268408  0.87925453  1
  O  O28  1  0.43304847  0.77678921  0.49738529  1
  O  O29  1  0.61371973  0.81414432  0.50099371  1
  O  O30  1  0.22664714  0.99234510  0.35003139  1
  O  O31  1  0.64874312  0.85731592  0.59267493  1
  O  O32  1  0.52186673  0.00696172  0.54395414  1
