# generated using pymatgen
data_LiMn5(CuO6)2
_symmetry_space_group_name_H-M   'P 1'
_cell_length_a   5.10285115
_cell_length_b   5.10285088
_cell_length_c   9.64478343
_cell_angle_alpha   86.19888361
_cell_angle_beta   93.80111995
_cell_angle_gamma   63.72130112
_symmetry_Int_Tables_number   1
_chemical_formula_structural   LiMn5(CuO6)2
_chemical_formula_sum   'Li1 Mn5 Cu2 O12'
_cell_volume   223.40320815
_cell_formula_units_Z   1
loop_
 _symmetry_equiv_pos_site_id
 _symmetry_equiv_pos_as_xyz
  1  'x, y, z'
loop_
 _atom_site_type_symbol
 _atom_site_label
 _atom_site_symmetry_multiplicity
 _atom_site_fract_x
 _atom_site_fract_y
 _atom_site_fract_z
 _atom_site_occupancy
  Li  Li0  1  0.92528746  0.92528746  0.75000000  1
  Mn  Mn1  1  0.07728384  0.07728384  0.25000000  1
  Mn  Mn2  1  0.41492689  0.41492689  0.25000000  1
  Mn  Mn3  1  0.58635859  0.58635859  0.75000000  1
  Mn  Mn4  1  0.51056957  0.99544012  0.50813113  1
  Mn  Mn5  1  0.99544012  0.51056957  0.99186887  1
  Cu  Cu6  1  0.25633061  0.25633061  0.75000000  1
  Cu  Cu7  1  0.74520039  0.74520039  0.25000000  1
  O  O8  1  0.17921062  0.30927276  0.37377839  1
  O  O9  1  0.06497288  0.74895797  0.14810522  1
  O  O10  1  0.30927276  0.17921062  0.12622161  1
  O  O11  1  0.28918155  0.53205454  0.85289889  1
  O  O12  1  0.26423947  0.95055371  0.65036088  1
  O  O13  1  0.53205454  0.28918155  0.64710111  1
  O  O14  1  0.42475239  0.74010687  0.34953203  1
  O  O15  1  0.74895797  0.06497288  0.35189478  1
  O  O16  1  0.74010687  0.42475239  0.15046797  1
  O  O17  1  0.67564415  0.80634562  0.88127546  1
  O  O18  1  0.95055371  0.26423947  0.84963912  1
  O  O19  1  0.80634562  0.67564415  0.61872454  1
