# generated using pymatgen
data_LiMn3OF5
_symmetry_space_group_name_H-M   'P 1'
_cell_length_a   6.35821655
_cell_length_b   6.36016302
_cell_length_c   6.30375732
_cell_angle_alpha   92.40817785
_cell_angle_beta   91.94155201
_cell_angle_gamma   92.21342383
_symmetry_Int_Tables_number   1
_chemical_formula_structural   LiMn3OF5
_chemical_formula_sum   'Li2 Mn6 O2 F10'
_cell_volume   254.34336222
_cell_formula_units_Z   2
loop_
 _symmetry_equiv_pos_site_id
 _symmetry_equiv_pos_as_xyz
  1  'x, y, z'
loop_
 _atom_site_type_symbol
 _atom_site_label
 _atom_site_symmetry_multiplicity
 _atom_site_fract_x
 _atom_site_fract_y
 _atom_site_fract_z
 _atom_site_occupancy
  Li  Li0  1  0.50254887  0.51735808  0.49169656  1
  Li  Li1  1  0.01503447  0.02390141  0.00341548  1
  Mn  Mn2  1  0.44488126  0.91573362  0.72896192  1
  Mn  Mn3  1  0.24368670  0.54807443  0.06551672  1
  Mn  Mn4  1  0.07607489  0.26128352  0.58736377  1
  Mn  Mn5  1  0.90463558  0.75183897  0.43672122  1
  Mn  Mn6  1  0.76176426  0.42660749  0.92962385  1
  Mn  Mn7  1  0.56416675  0.05726756  0.26193548  1
  O  O8  1  0.06388305  0.31918544  0.90913283  1
  O  O9  1  0.59480910  0.81843637  0.46172744  1
  F  F10  1  0.09638985  0.91241105  0.68298875  1
  F  F11  1  0.31048448  0.90217287  0.06242258  1
  F  F12  1  0.18017325  0.54450934  0.40424685  1
  F  F13  1  0.47542406  0.58594062  0.82103408  1
  F  F14  1  0.53833094  0.39078870  0.18810914  1
  F  F15  1  0.40137214  0.20331299  0.54251184  1
  F  F16  1  0.91689584  0.70283590  0.09113602  1
  F  F17  1  0.79761821  0.45229788  0.58172826  1
  F  F18  1  0.68085322  0.07718880  0.93279459  1
  F  F19  1  0.93097109  0.08885196  0.31693262  1
