# generated using pymatgen
data_Mn21Sn9O40
_symmetry_space_group_name_H-M   'P 1'
_cell_length_a   10.98028700
_cell_length_b   8.97280508
_cell_length_c   10.98028700
_cell_angle_alpha   114.11610043
_cell_angle_beta   80.38985662
_cell_angle_gamma   114.11610043
_symmetry_Int_Tables_number   1
_chemical_formula_structural   Mn21Sn9O40
_chemical_formula_sum   'Mn21 Sn9 O40'
_cell_volume   901.21866716
_cell_formula_units_Z   1
loop_
 _symmetry_equiv_pos_site_id
 _symmetry_equiv_pos_as_xyz
  1  'x, y, z'
loop_
 _atom_site_type_symbol
 _atom_site_label
 _atom_site_symmetry_multiplicity
 _atom_site_fract_x
 _atom_site_fract_y
 _atom_site_fract_z
 _atom_site_occupancy
  Mn  Mn0  1  0.05217292  0.57844005  0.85349978  1
  Mn  Mn1  1  0.25148935  0.87701694  0.75363171  1
  Mn  Mn2  1  0.34972355  0.27030294  0.95048956  1
  Mn  Mn3  1  0.15014427  0.47474194  0.54973298  1
  Mn  Mn4  1  0.05349978  0.07505972  0.34782708  1
  Mn  Mn5  1  0.54650022  0.07373286  0.85217292  1
  Mn  Mn6  1  0.44985573  0.17486470  0.65026702  1
  Mn  Mn7  1  0.15048956  0.48018662  0.05027645  1
  Mn  Mn8  1  0.34851065  0.27189587  0.44636829  1
  Mn  Mn9  1  0.25027645  0.37008983  0.24951044  1
  Mn  Mn10  1  0.30000000  0.95000000  0.10000000  1
  Mn  Mn11  1  0.44951044  0.67942061  0.14972355  1
  Mn  Mn12  1  0.85026702  0.27540232  0.95014427  1
  Mn  Mn13  1  0.64962692  0.47478521  0.55018376  1
  Mn  Mn14  1  0.75018376  0.87539855  0.75037308  1
  Mn  Mn15  1  0.54782708  0.07276736  0.34650022  1
  Mn  Mn16  1  0.95037308  0.67497452  0.64981624  1
  Mn  Mn17  1  0.84981624  0.77484072  0.44962692  1
  Mn  Mn18  1  0.74973298  0.87499104  0.24985573  1
  Mn  Mn19  1  0.64636829  0.97447241  0.05148935  1
  Mn  Mn20  1  0.95363171  0.67661578  0.14851065  1
  Sn  Sn21  1  0.09988814  0.14990300  0.69990922  1
  Sn  Sn22  1  0.00088261  0.00090730  0.00065417  1
  Sn  Sn23  1  0.39934583  0.59997530  0.80088261  1
  Sn  Sn24  1  0.20065417  0.79974687  0.39911739  1
  Sn  Sn25  1  0.50011186  0.75010564  0.50009078  1
  Sn  Sn26  1  0.70009078  0.54998514  0.89988814  1
  Sn  Sn27  1  0.80000000  0.20000000  0.60000000  1
  Sn  Sn28  1  0.59911739  0.39937052  0.19934583  1
  Sn  Sn29  1  0.89990922  0.35000622  0.30011186  1
  O  O30  1  0.04724458  0.32962385  0.85524233  1
  O  O31  1  0.05113534  0.81891894  0.84438121  1
  O  O32  1  0.34824098  0.51752338  0.95476943  1
  O  O33  1  0.04438121  0.82546327  0.34886466  1
  O  O34  1  0.15021548  0.72574714  0.55713597  1
  O  O35  1  0.24450154  0.62532304  0.74781199  1
  O  O36  1  0.25486429  0.12448791  0.75180611  1
  O  O37  1  0.15152112  0.22759001  0.54530135  1
  O  O38  1  0.35383322  0.03272014  0.93831315  1
  O  O39  1  0.05524233  0.32561848  0.35275542  1
  O  O40  1  0.34513571  0.51781651  0.44819389  1
  O  O41  1  0.44847888  0.93076754  0.65469865  1
  O  O42  1  0.54475767  0.31762173  0.84724458  1
  O  O43  1  0.24616678  0.14057377  0.26168685  1
  O  O44  1  0.13831315  0.70559301  0.04616678  1
  O  O45  1  0.55561879  0.83221739  0.85113534  1
  O  O46  1  0.44978452  0.41839570  0.64286403  1
  O  O47  1  0.35549846  0.03300951  0.45218801  1
  O  O48  1  0.25175902  0.61451296  0.24523057  1
  O  O49  1  0.15476943  0.23724606  0.05175902  1
  O  O50  1  0.84286403  0.02446833  0.95021548  1
  O  O51  1  0.54886466  0.32340139  0.35561879  1
  O  O52  1  0.64437008  0.22346148  0.54524852  1
  O  O53  1  0.44523057  0.43071761  0.14824098  1
  O  O54  1  0.74524852  0.12178704  0.75562992  1
  O  O55  1  0.85469865  0.52393111  0.95152112  1
  O  O56  1  0.75113314  0.62660038  0.74391776  1
  O  O57  1  0.55275542  0.82713694  0.34475767  1
  O  O58  1  0.65608224  0.72453276  0.55113314  1
  O  O59  1  0.46168685  0.92111307  0.15383322  1
  O  O60  1  0.94391776  0.91731739  0.64886686  1
  O  O61  1  0.64819389  0.73037738  0.05486429  1
  O  O62  1  0.84886686  0.53154947  0.45608224  1
  O  O63  1  0.74530135  0.11771134  0.24847888  1
  O  O64  1  0.85475148  0.02090860  0.44437008  1
  O  O65  1  0.65218801  0.21917850  0.04450154  1
  O  O66  1  0.95562992  0.43384288  0.65475148  1
  O  O67  1  0.75713597  0.63138883  0.24978452  1
  O  O68  1  0.94781199  0.92248895  0.15549846  1
  O  O69  1  0.95180611  0.42731920  0.14513571  1
