# generated using pymatgen
data_LiVSiO4
_symmetry_space_group_name_H-M   'P 1'
_cell_length_a   10.40681493
_cell_length_b   6.82672701
_cell_length_c   5.09286689
_cell_angle_alpha   90.00000000
_cell_angle_beta   90.00000000
_cell_angle_gamma   90.00000000
_symmetry_Int_Tables_number   1
_chemical_formula_structural   LiVSiO4
_chemical_formula_sum   'Li4 V4 Si4 O16'
_cell_volume   361.82010319
_cell_formula_units_Z   4
loop_
 _symmetry_equiv_pos_site_id
 _symmetry_equiv_pos_as_xyz
  1  'x, y, z'
loop_
 _atom_site_type_symbol
 _atom_site_label
 _atom_site_symmetry_multiplicity
 _atom_site_fract_x
 _atom_site_fract_y
 _atom_site_fract_z
 _atom_site_occupancy
  Li  Li0  1  0.15612314  0.71334080  0.68544741  1
  Li  Li1  1  0.34387686  0.21334080  0.18544741  1
  Li  Li2  1  0.65612314  0.71334080  0.81455259  1
  Li  Li3  1  0.84387686  0.21334080  0.31455259  1
  V  V4  1  0.15846199  0.21741284  0.68291644  1
  V  V5  1  0.34153801  0.71741284  0.18291644  1
  V  V6  1  0.65846199  0.21741284  0.81708356  1
  V  V7  1  0.84153801  0.71741284  0.31708356  1
  Si  Si8  1  0.09332360  0.96197291  0.18194919  1
  Si  Si9  1  0.40667640  0.46197291  0.68194919  1
  Si  Si10  1  0.59332360  0.96197291  0.31805081  1
  Si  Si11  1  0.90667640  0.46197291  0.81805081  1
  O  O12  1  0.06021401  0.45347912  0.74403239  1
  O  O13  1  0.11672000  0.97270672  0.86251166  1
  O  O14  1  0.16128197  0.15765894  0.31161142  1
  O  O15  1  0.16586000  0.76525367  0.29855034  1
  O  O16  1  0.33414000  0.26525367  0.79855034  1
  O  O17  1  0.33871803  0.65765894  0.81161142  1
  O  O18  1  0.38328000  0.47270672  0.36251166  1
  O  O19  1  0.43978599  0.95347912  0.24403239  1
  O  O20  1  0.56021401  0.45347912  0.75596761  1
  O  O21  1  0.61672000  0.97270672  0.63748834  1
  O  O22  1  0.66128197  0.15765894  0.18838858  1
  O  O23  1  0.66586000  0.76525367  0.20144966  1
  O  O24  1  0.83414000  0.26525367  0.70144966  1
  O  O25  1  0.83871803  0.65765894  0.68838858  1
  O  O26  1  0.88328000  0.47270672  0.13748834  1
  O  O27  1  0.93978599  0.95347912  0.25596761  1
