# generated using pymatgen
data_Li2Mn4O7F
_symmetry_space_group_name_H-M   'P 1'
_cell_length_a   5.97419907
_cell_length_b   5.90931520
_cell_length_c   6.10508664
_cell_angle_alpha   121.08664630
_cell_angle_beta   89.98819191
_cell_angle_gamma   60.24061230
_symmetry_Int_Tables_number   1
_chemical_formula_structural   Li2Mn4O7F
_chemical_formula_sum   'Li2 Mn4 O7 F1'
_cell_volume   150.39668887
_cell_formula_units_Z   1
loop_
 _symmetry_equiv_pos_site_id
 _symmetry_equiv_pos_as_xyz
  1  'x, y, z'
loop_
 _atom_site_type_symbol
 _atom_site_label
 _atom_site_symmetry_multiplicity
 _atom_site_fract_x
 _atom_site_fract_y
 _atom_site_fract_z
 _atom_site_occupancy
  Li  Li0  1  0.63789373  0.23067283  0.11529175  1
  Li  Li1  1  0.50159197  0.00129474  0.50066049  1
  Mn  Mn2  1  0.36155341  0.77111912  0.88563934  1
  Mn  Mn3  1  0.00891941  0.50355685  0.50719950  1
  Mn  Mn4  1  0.00888452  0.50350264  0.99617405  1
  Mn  Mn5  1  0.99496633  0.99711192  0.49853956  1
  O  O6  1  0.78720455  0.96246690  0.25687155  1
  O  O7  1  0.78723231  0.96236824  0.70554513  1
  O  O8  1  0.21351050  0.51687550  0.25801494  1
  O  O9  1  0.22754321  0.49443458  0.74782861  1
  O  O10  1  0.77973986  0.47953412  0.74016963  1
  O  O11  1  0.21501414  0.03581865  0.74244690  1
  O  O12  1  0.21499366  0.03601443  0.29342595  1
  F  F13  1  0.76095440  0.50522948  0.25219259  1
