# generated using pymatgen
data_Li6CrNiP2(CO7)2
_symmetry_space_group_name_H-M   'P 1'
_cell_length_a   8.51508704
_cell_length_b   4.99610730
_cell_length_c   6.44399233
_cell_angle_alpha   90.00000000
_cell_angle_beta   90.00000000
_cell_angle_gamma   85.39630557
_symmetry_Int_Tables_number   1
_chemical_formula_structural   Li6CrNiP2(CO7)2
_chemical_formula_sum   'Li6 Cr1 Ni1 P2 C2 O14'
_cell_volume   273.25771732
_cell_formula_units_Z   1
loop_
 _symmetry_equiv_pos_site_id
 _symmetry_equiv_pos_as_xyz
  1  'x, y, z'
loop_
 _atom_site_type_symbol
 _atom_site_label
 _atom_site_symmetry_multiplicity
 _atom_site_fract_x
 _atom_site_fract_y
 _atom_site_fract_z
 _atom_site_occupancy
  Li  Li0  1  0.09771120  0.76602405  0.25000000  1
  Li  Li1  1  0.27487215  0.25274613  0.02118168  1
  Li  Li2  1  0.27487215  0.25274613  0.47881832  1
  Li  Li3  1  0.72595113  0.75026240  0.52080461  1
  Li  Li4  1  0.72595113  0.75026240  0.97919539  1
  Li  Li5  1  0.89785148  0.23440987  0.75000000  1
  Cr  Cr6  1  0.33544572  0.78819455  0.75000000  1
  Ni  Ni7  1  0.66754932  0.20699722  0.25000000  1
  P  P8  1  0.41634159  0.71959873  0.25000000  1
  P  P9  1  0.58991494  0.27890554  0.75000000  1
  C  C10  1  0.03226917  0.70482857  0.75000000  1
  C  C11  1  0.96145802  0.29763219  0.25000000  1
  O  O12  1  0.06215233  0.95342633  0.75000000  1
  O  O13  1  0.10687921  0.36126569  0.25000000  1
  O  O14  1  0.15025398  0.51953674  0.75000000  1
  O  O15  1  0.31131423  0.82469254  0.06397119  1
  O  O16  1  0.31131423  0.82469254  0.43602881  1
  O  O17  1  0.42084977  0.18322731  0.75000000  1
  O  O18  1  0.43670471  0.40630816  0.25000000  1
  O  O19  1  0.57896212  0.59075925  0.75000000  1
  O  O20  1  0.58116864  0.82580999  0.25000000  1
  O  O21  1  0.68925166  0.16910582  0.93860220  1
  O  O22  1  0.68925166  0.16910582  0.56139780  1
  O  O23  1  0.84576234  0.48523866  0.25000000  1
  O  O24  1  0.88935572  0.63400081  0.75000000  1
  O  O25  1  0.92659238  0.05022154  0.25000000  1
