# generated using pymatgen
data_Li4Ti2Fe3Sb3O16
_symmetry_space_group_name_H-M   'P 1'
_cell_length_a   6.23397851
_cell_length_b   6.15869491
_cell_length_c   9.75147426
_cell_angle_alpha   89.97476666
_cell_angle_beta   91.36072885
_cell_angle_gamma   119.63847332
_symmetry_Int_Tables_number   1
_chemical_formula_structural   Li4Ti2Fe3Sb3O16
_chemical_formula_sum   'Li4 Ti2 Fe3 Sb3 O16'
_cell_volume   325.28669047
_cell_formula_units_Z   1
loop_
 _symmetry_equiv_pos_site_id
 _symmetry_equiv_pos_as_xyz
  1  'x, y, z'
loop_
 _atom_site_type_symbol
 _atom_site_label
 _atom_site_symmetry_multiplicity
 _atom_site_fract_x
 _atom_site_fract_y
 _atom_site_fract_z
 _atom_site_occupancy
  Li  Li0  1  0.34382979  0.67191521  0.89259214  1
  Li  Li1  1  0.97397912  0.98703367  0.98349334  1
  Li  Li2  1  0.99035728  0.99508165  0.50233534  1
  Li  Li3  1  0.64676902  0.32342683  0.40101778  1
  Ti  Ti4  1  0.35516001  0.67771118  0.50413737  1
  Ti  Ti5  1  0.71585807  0.35790993  0.97465113  1
  Fe  Fe6  1  0.65594930  0.82796637  0.21465088  1
  Fe  Fe7  1  0.84056457  0.66307768  0.71038229  1
  Fe  Fe8  1  0.84046185  0.17746967  0.71052342  1
  Sb  Sb9  1  0.16291846  0.82796828  0.21586423  1
  Sb  Sb10  1  0.16297549  0.33495825  0.21591248  1
  Sb  Sb11  1  0.35253453  0.17628230  0.71646787  1
  O  O12  1  0.19199238  0.84612934  0.59374078  1
  O  O13  1  0.02068050  0.51037263  0.33732794  1
  O  O14  1  0.31342214  0.65681137  0.10144146  1
  O  O15  1  0.00236506  0.00105492  0.31572114  1
  O  O16  1  0.02437605  0.01206016  0.80039918  1
  O  O17  1  0.19190860  0.34586396  0.59372479  1
  O  O18  1  0.45950971  0.94797091  0.34539987  1
  O  O19  1  0.45964773  0.51170386  0.34540416  1
  O  O20  1  0.30586788  0.15290349  0.10424498  1
  O  O21  1  0.65690459  0.82856948  0.58655729  1
  O  O22  1  0.51713498  0.47215695  0.85005797  1
  O  O23  1  0.51709192  0.04498033  0.85003527  1
  O  O24  1  0.65279629  0.32657497  0.60334932  1
  O  O25  1  0.84028760  0.66868851  0.09223207  1
  O  O26  1  0.96452140  0.48223769  0.85395599  1
  O  O27  1  0.84013469  0.17141840  0.09221856  1
