# generated using pymatgen
data_Fe4OF6
_symmetry_space_group_name_H-M   'P 1'
_cell_length_a   7.12123763
_cell_length_b   7.12111928
_cell_length_c   5.16527896
_cell_angle_alpha   90.00456773
_cell_angle_beta   90.02960281
_cell_angle_gamma   89.99740028
_symmetry_Int_Tables_number   1
_chemical_formula_structural   Fe4OF6
_chemical_formula_sum   'Fe8 O2 F12'
_cell_volume   261.93736809
_cell_formula_units_Z   2
loop_
 _symmetry_equiv_pos_site_id
 _symmetry_equiv_pos_as_xyz
  1  'x, y, z'
loop_
 _atom_site_type_symbol
 _atom_site_label
 _atom_site_symmetry_multiplicity
 _atom_site_fract_x
 _atom_site_fract_y
 _atom_site_fract_z
 _atom_site_occupancy
  Fe  Fe0  1  0.00230643  0.25001326  0.55457984  1
  Fe  Fe1  1  0.24999018  0.49768202  0.05458152  1
  Fe  Fe2  1  0.24999437  0.00229322  0.05461781  1
  Fe  Fe3  1  0.49767100  0.25000436  0.55461791  1
  Fe  Fe4  1  0.50238827  0.75000956  0.44534153  1
  Fe  Fe5  1  0.74994885  0.50232448  0.94541027  1
  Fe  Fe6  1  0.74994689  0.99768451  0.94539900  1
  Fe  Fe7  1  0.99775638  0.75000487  0.44546396  1
  O  O8  1  0.24997781  0.74998907  0.25002584  1
  O  O9  1  0.75008017  0.24999585  0.74999540  1
  F  F10  1  0.04280450  0.95719743  0.75002077  1
  F  F11  1  0.04280033  0.54279362  0.75000381  1
  F  F12  1  0.25003202  0.24997486  0.82259240  1
  F  F13  1  0.24994250  0.25000775  0.32259166  1
  F  F14  1  0.45722643  0.54277193  0.74995797  1
  F  F15  1  0.45722622  0.95722402  0.74996458  1
  F  F16  1  0.54275262  0.04279768  0.24998186  1
  F  F17  1  0.54275065  0.45720909  0.24997845  1
  F  F18  1  0.74992967  0.75001105  0.17745436  1
  F  F19  1  0.75004795  0.75000170  0.67745102  1
  F  F20  1  0.95720730  0.04275514  0.24999594  1
  F  F21  1  0.95721945  0.45725453  0.24997410  1
