# generated using pymatgen
data_SiO2
_symmetry_space_group_name_H-M   'P 1'
_cell_length_a   5.67579804
_cell_length_b   5.67579445
_cell_length_c   6.93885387
_cell_angle_alpha   114.14138409
_cell_angle_beta   114.14145594
_cell_angle_gamma   90.00744802
_symmetry_Int_Tables_number   1
_chemical_formula_structural   SiO2
_chemical_formula_sum   'Si4 O8'
_cell_volume   182.34175792
_cell_formula_units_Z   4
loop_
 _symmetry_equiv_pos_site_id
 _symmetry_equiv_pos_as_xyz
  1  'x, y, z'
loop_
 _atom_site_type_symbol
 _atom_site_label
 _atom_site_symmetry_multiplicity
 _atom_site_fract_x
 _atom_site_fract_y
 _atom_site_fract_z
 _atom_site_occupancy
  Si  Si0  1  0.98639184  0.37505344  0.25003165  1
  O  O1  1  0.28210184  0.71789856  0.00000011  1
  O  O2  1  0.71794168  0.28205826  0.00000063  1
  O  O3  1  0.36625854  0.86629673  0.73262090  1
  Si  Si4  1  0.12494841  0.73635500  0.75001656  1
  Si  Si5  1  0.62494786  0.01360827  0.74996932  1
  O  O6  1  0.88357871  0.88355542  0.76731454  1
  O  O7  1  0.11644378  0.11642252  0.23268585  1
  O  O8  1  0.53211320  0.03207336  0.49995899  1
  Si  Si9  1  0.26364492  0.87505161  0.24998287  1
  O  O10  1  0.96792667  0.46788684  0.50004035  1
  O  O11  1  0.13370255  0.63374000  0.26737825  1
