# generated using pymatgen
data_Li3V5O10
_symmetry_space_group_name_H-M   'P 1'
_cell_length_a   5.09070984
_cell_length_b   7.94438170
_cell_length_c   10.05100547
_cell_angle_alpha   93.39711554
_cell_angle_beta   100.65797403
_cell_angle_gamma   71.31307375
_symmetry_Int_Tables_number   1
_chemical_formula_structural   Li3V5O10
_chemical_formula_sum   'Li6 V10 O20'
_cell_volume   378.41676817
_cell_formula_units_Z   2
loop_
 _symmetry_equiv_pos_site_id
 _symmetry_equiv_pos_as_xyz
  1  'x, y, z'
loop_
 _atom_site_type_symbol
 _atom_site_label
 _atom_site_symmetry_multiplicity
 _atom_site_fract_x
 _atom_site_fract_y
 _atom_site_fract_z
 _atom_site_occupancy
  Li  Li0  1  0.85299287  0.79401427  0.75000000  1
  Li  Li1  1  0.94865711  0.60268478  0.25000000  1
  Li  Li2  1  0.34887065  0.80225770  0.25000000  1
  Li  Li3  1  0.65112935  0.19774230  0.75000000  1
  Li  Li4  1  0.05134289  0.39731522  0.75000000  1
  Li  Li5  1  0.14700713  0.20598573  0.25000000  1
  V  V6  1  0.59679977  0.80173190  0.99257799  1
  V  V7  1  0.69010038  0.59477942  0.49815105  1
  V  V8  1  0.78487980  0.40522058  0.99815105  1
  V  V9  1  0.21512020  0.59477942  0.00184895  1
  V  V10  1  0.10146734  0.80173190  0.50742201  1
  V  V11  1  0.89853266  0.19826810  0.49257799  1
  V  V12  1  0.40320023  0.19826810  0.00742201  1
  V  V13  1  0.30989962  0.40522058  0.50184895  1
  V  V14  1  0.50000000  0.00000000  0.50000000  1
  V  V15  1  0.00000000  0.00000000  0.00000000  1
  O  O16  1  0.98101478  0.79478607  0.10590725  1
  O  O17  1  0.72419915  0.79478607  0.39409275  1
  O  O18  1  0.94196857  0.40276134  0.39139252  1
  O  O19  1  0.48267492  0.79747162  0.60439315  1
  O  O20  1  0.84472991  0.59723866  0.89139252  1
  O  O21  1  0.57233279  0.60992308  0.11045259  1
  O  O22  1  0.31774412  0.60992308  0.38954741  1
  O  O23  1  0.78014655  0.20252838  0.10439315  1
  O  O24  1  0.21985345  0.79747162  0.89560685  1
  O  O25  1  0.68225588  0.39007692  0.61045259  1
  O  O26  1  0.42766721  0.39007692  0.88954741  1
  O  O27  1  0.51732508  0.20252838  0.39560685  1
  O  O28  1  0.05803143  0.59723866  0.60860748  1
  O  O29  1  0.15527009  0.40276134  0.10860748  1
  O  O30  1  0.84816084  0.00055385  0.60828952  1
  O  O31  1  0.65128531  0.00055385  0.89171048  1
  O  O32  1  0.27580085  0.20521393  0.60590725  1
  O  O33  1  0.34871469  0.99944615  0.10828952  1
  O  O34  1  0.01898522  0.20521393  0.89409275  1
  O  O35  1  0.15183916  0.99944615  0.39171048  1
