# generated using pymatgen
data_CoP2O7
_symmetry_space_group_name_H-M   'P 1'
_cell_length_a   8.20708389
_cell_length_b   5.19353874
_cell_length_c   13.32280356
_cell_angle_alpha   90.00000000
_cell_angle_beta   74.84049773
_cell_angle_gamma   90.00000000
_symmetry_Int_Tables_number   1
_chemical_formula_structural   CoP2O7
_chemical_formula_sum   'Co4 P8 O28'
_cell_volume   548.10768849
_cell_formula_units_Z   4
loop_
 _symmetry_equiv_pos_site_id
 _symmetry_equiv_pos_as_xyz
  1  'x, y, z'
loop_
 _atom_site_type_symbol
 _atom_site_label
 _atom_site_symmetry_multiplicity
 _atom_site_fract_x
 _atom_site_fract_y
 _atom_site_fract_z
 _atom_site_occupancy
  Co  Co0  1  0.08950705  0.23960144  0.63995312  1
  Co  Co1  1  0.58950705  0.26039856  0.13995312  1
  Co  Co2  1  0.41049295  0.73960144  0.86004688  1
  Co  Co3  1  0.91049295  0.76039856  0.36004688  1
  P  P4  1  0.02821783  0.77529742  0.80268331  1
  P  P5  1  0.28419536  0.22981629  0.02011245  1
  P  P6  1  0.21580464  0.72981629  0.47988755  1
  P  P7  1  0.52821783  0.72470258  0.30268331  1
  P  P8  1  0.47178217  0.27529742  0.69731669  1
  P  P9  1  0.78419536  0.27018371  0.52011245  1
  P  P10  1  0.71580464  0.77018371  0.97988755  1
  P  P11  1  0.97178217  0.22470258  0.19731669  1
  O  O12  1  0.02348019  0.96414586  0.23422145  1
  O  O13  1  0.08645702  0.26094072  0.08027461  1
  O  O14  1  0.00668227  0.44417352  0.26512818  1
  O  O15  1  0.11616332  0.79803188  0.40069441  1
  O  O16  1  0.31057928  0.94920495  0.98514534  1
  O  O17  1  0.18942072  0.44920495  0.51485466  1
  O  O18  1  0.19067056  0.91653962  0.57047436  1
  O  O19  1  0.38383668  0.29803188  0.09930559  1
  O  O20  1  0.20898518  0.77999846  0.81229724  1
  O  O21  1  0.49331773  0.94417352  0.23487182  1
  O  O22  1  0.29101482  0.27999846  0.68770276  1
  O  O23  1  0.41354298  0.76094072  0.41972539  1
  O  O24  1  0.47651981  0.46414586  0.26577855  1
  O  O25  1  0.30932944  0.41653962  0.92952564  1
  O  O26  1  0.69067056  0.58346038  0.07047436  1
  O  O27  1  0.52348019  0.53585414  0.73422145  1
  O  O28  1  0.58645702  0.23905928  0.58027461  1
  O  O29  1  0.70898518  0.72000154  0.31229724  1
  O  O30  1  0.50668227  0.05582648  0.76512818  1
  O  O31  1  0.79101482  0.22000154  0.18770276  1
  O  O32  1  0.61616332  0.70196812  0.90069441  1
  O  O33  1  0.80932944  0.08346038  0.42952564  1
  O  O34  1  0.81057928  0.55079505  0.48514534  1
  O  O35  1  0.68942072  0.05079505  0.01485466  1
  O  O36  1  0.88383668  0.20196812  0.59930559  1
  O  O37  1  0.99331773  0.55582648  0.73487182  1
  O  O38  1  0.91354298  0.73905928  0.91972539  1
  O  O39  1  0.97651981  0.03585414  0.76577855  1
