# generated using pymatgen
data_Li4Mn2Fe(BO3)4
_symmetry_space_group_name_H-M   'P 1'
_cell_length_a   5.26629462
_cell_length_b   9.18888054
_cell_length_c   9.62928676
_cell_angle_alpha   90.00000000
_cell_angle_beta   93.04310437
_cell_angle_gamma   90.00000000
_symmetry_Int_Tables_number   1
_chemical_formula_structural   Li4Mn2Fe(BO3)4
_chemical_formula_sum   'Li8 Mn4 Fe2 B8 O24'
_cell_volume   465.31712634
_cell_formula_units_Z   2
loop_
 _symmetry_equiv_pos_site_id
 _symmetry_equiv_pos_as_xyz
  1  'x, y, z'
loop_
 _atom_site_type_symbol
 _atom_site_label
 _atom_site_symmetry_multiplicity
 _atom_site_fract_x
 _atom_site_fract_y
 _atom_site_fract_z
 _atom_site_occupancy
  Li  Li0  1  0.16674095  0.99105669  0.66486890  1
  Li  Li1  1  0.17586028  0.66203104  0.62795367  1
  Li  Li2  1  0.18475106  0.99298479  0.11422360  1
  Li  Li3  1  0.34261019  0.46957978  0.84106015  1
  Li  Li4  1  0.68475106  0.50701521  0.61422360  1
  Li  Li5  1  0.66674095  0.50894331  0.16486890  1
  Li  Li6  1  0.67586028  0.83796896  0.12795367  1
  Li  Li7  1  0.84261019  0.03042022  0.34106015  1
  Mn  Mn8  1  0.14369168  0.30660618  0.11970802  1
  Mn  Mn9  1  0.35517502  0.82307491  0.37606231  1
  Mn  Mn10  1  0.64369168  0.19339382  0.61970802  1
  Mn  Mn11  1  0.85517502  0.67692509  0.87606231  1
  Fe  Fe12  1  0.31516691  0.48502273  0.38692321  1
  Fe  Fe13  1  0.81516691  0.01497727  0.88692321  1
  B  B14  1  0.16584309  0.32255185  0.61485900  1
  B  B15  1  0.16700750  0.65884014  0.13597049  1
  B  B16  1  0.32500554  0.81327950  0.88182254  1
  B  B17  1  0.33860319  0.15237958  0.36817697  1
  B  B18  1  0.66700750  0.84115986  0.63597049  1
  B  B19  1  0.66584309  0.17744815  0.11485900  1
  B  B20  1  0.83860319  0.34762042  0.86817697  1
  B  B21  1  0.82500554  0.68672050  0.38182254  1
  O  O22  1  0.08804727  0.34400074  0.92339400  1
  O  O23  1  0.08765810  0.67217467  0.41128054  1
  O  O24  1  0.17394782  0.93296975  0.88662232  1
  O  O25  1  0.20626541  0.02493567  0.34957622  1
  O  O26  1  0.22883418  0.67561375  0.84768568  1
  O  O27  1  0.21903270  0.28192802  0.32093026  1
  O  O28  1  0.27402532  0.18639218  0.63485578  1
  O  O29  1  0.28980735  0.79028326  0.17562655  1
  O  O30  1  0.28639061  0.52797792  0.15809362  1
  O  O31  1  0.31755960  0.44813340  0.60909991  1
  O  O32  1  0.41497078  0.83255353  0.57890989  1
  O  O33  1  0.40750045  0.16156588  0.09897937  1
  O  O34  1  0.58765810  0.82782533  0.91128054  1
  O  O35  1  0.58804727  0.15599926  0.42339400  1
  O  O36  1  0.70626541  0.47506433  0.84957622  1
  O  O37  1  0.71903270  0.21807198  0.82093026  1
  O  O38  1  0.67394782  0.56703025  0.38662232  1
  O  O39  1  0.72883418  0.82438625  0.34768568  1
  O  O40  1  0.78980735  0.70971674  0.67562655  1
  O  O41  1  0.78639061  0.97202208  0.65809362  1
  O  O42  1  0.77402532  0.31360782  0.13485578  1
  O  O43  1  0.81755960  0.05186660  0.10909991  1
  O  O44  1  0.90750045  0.33843412  0.59897937  1
  O  O45  1  0.91497078  0.66744647  0.07890989  1
