# generated using pymatgen
data_Bi6P2O15
_symmetry_space_group_name_H-M   'P 1'
_cell_length_a   11.57751597
_cell_length_b   11.57751597
_cell_length_c   5.87098375
_cell_angle_alpha   90.00000000
_cell_angle_beta   90.00000000
_cell_angle_gamma   63.68031042
_symmetry_Int_Tables_number   1
_chemical_formula_structural   Bi6P2O15
_chemical_formula_sum   'Bi12 P4 O30'
_cell_volume   705.36122591
_cell_formula_units_Z   2
loop_
 _symmetry_equiv_pos_site_id
 _symmetry_equiv_pos_as_xyz
  1  'x, y, z'
loop_
 _atom_site_type_symbol
 _atom_site_label
 _atom_site_symmetry_multiplicity
 _atom_site_fract_x
 _atom_site_fract_y
 _atom_site_fract_z
 _atom_site_occupancy
  Bi  Bi0  1  0.04776665  0.82172673  0.73273925  1
  Bi  Bi1  1  0.17827327  0.95223335  0.23273925  1
  Bi  Bi2  1  0.25795888  0.59330635  0.32967644  1
  Bi  Bi3  1  0.40669365  0.74204112  0.82967644  1
  Bi  Bi4  1  0.10687102  0.30702074  0.32679014  1
  Bi  Bi5  1  0.69297926  0.89312898  0.82679014  1
  Bi  Bi6  1  0.30702074  0.10687102  0.82679014  1
  Bi  Bi7  1  0.89312898  0.69297926  0.32679014  1
  Bi  Bi8  1  0.74204112  0.40669365  0.32967644  1
  Bi  Bi9  1  0.59330635  0.25795888  0.82967644  1
  Bi  Bi10  1  0.82172673  0.04776665  0.23273925  1
  Bi  Bi11  1  0.95223335  0.17827327  0.73273925  1
  P  P12  1  0.21816067  0.45967154  0.85046188  1
  P  P13  1  0.54032846  0.78183933  0.35046188  1
  P  P14  1  0.45967154  0.21816067  0.35046188  1
  P  P15  1  0.78183933  0.54032846  0.85046188  1
  O  O16  1  0.06273394  0.74157958  0.37631995  1
  O  O17  1  0.25842042  0.93726606  0.87631995  1
  O  O18  1  0.27223114  0.73615591  0.09988579  1
  O  O19  1  0.26384409  0.72776886  0.59988579  1
  O  O20  1  0.13252427  0.56237247  0.03238713  1
  O  O21  1  0.43762753  0.86747573  0.53238713  1
  O  O22  1  0.15458341  0.50144068  0.61184970  1
  O  O23  1  0.49855932  0.84541659  0.11184970  1
  O  O24  1  0.54245514  0.64666968  0.35395829  1
  O  O25  1  0.35333032  0.45754486  0.85395829  1
  O  O26  1  0.22190869  0.32953496  0.92683048  1
  O  O27  1  0.67046504  0.77809131  0.42683048  1
  O  O28  1  0.14477464  0.16844093  0.60607736  1
  O  O29  1  0.83155907  0.85522536  0.10607736  1
  O  O30  1  0.00000000  0.00000000  0.04227918  1
  O  O31  1  0.00000000  0.00000000  0.54227918  1
  O  O32  1  0.16844093  0.14477464  0.10607736  1
  O  O33  1  0.85522536  0.83155907  0.60607736  1
  O  O34  1  0.32953496  0.22190869  0.42683048  1
  O  O35  1  0.77809131  0.67046504  0.92683048  1
  O  O36  1  0.45754486  0.35333032  0.35395829  1
  O  O37  1  0.64666968  0.54245514  0.85395829  1
  O  O38  1  0.84541659  0.49855932  0.61184970  1
  O  O39  1  0.50144068  0.15458341  0.11184970  1
  O  O40  1  0.56237247  0.13252427  0.53238713  1
  O  O41  1  0.86747573  0.43762753  0.03238713  1
  O  O42  1  0.72776886  0.26384409  0.09988579  1
  O  O43  1  0.73615591  0.27223114  0.59988579  1
  O  O44  1  0.74157958  0.06273394  0.87631995  1
  O  O45  1  0.93726606  0.25842042  0.37631995  1
