# generated using pymatgen
data_LiVCO3F2
_symmetry_space_group_name_H-M   'P 1'
_cell_length_a   6.66772172
_cell_length_b   9.00547998
_cell_length_c   5.71465114
_cell_angle_alpha   90.00000000
_cell_angle_beta   90.00000000
_cell_angle_gamma   90.00000000
_symmetry_Int_Tables_number   1
_chemical_formula_structural   LiVCO3F2
_chemical_formula_sum   'Li4 V4 C4 O12 F8'
_cell_volume   343.14213929
_cell_formula_units_Z   4
loop_
 _symmetry_equiv_pos_site_id
 _symmetry_equiv_pos_as_xyz
  1  'x, y, z'
loop_
 _atom_site_type_symbol
 _atom_site_label
 _atom_site_symmetry_multiplicity
 _atom_site_fract_x
 _atom_site_fract_y
 _atom_site_fract_z
 _atom_site_occupancy
  Li  Li0  1  0.25000000  0.27308431  0.71835963  1
  Li  Li1  1  0.25000000  0.22691569  0.21835963  1
  Li  Li2  1  0.75000000  0.72691569  0.28164037  1
  Li  Li3  1  0.75000000  0.77308431  0.78164037  1
  V  V4  1  0.25000000  0.61063665  0.02440269  1
  V  V5  1  0.25000000  0.88936335  0.52440269  1
  V  V6  1  0.75000000  0.11063665  0.47559731  1
  V  V7  1  0.75000000  0.38936335  0.97559731  1
  C  C8  1  0.25000000  0.54951491  0.46223409  1
  C  C9  1  0.25000000  0.95048509  0.96223409  1
  C  C10  1  0.75000000  0.04951491  0.03776591  1
  C  C11  1  0.75000000  0.45048509  0.53776591  1
  O  O12  1  0.25000000  0.05220118  0.80362231  1
  O  O13  1  0.25000000  0.44779882  0.30362231  1
  O  O14  1  0.25000000  0.52101459  0.68009101  1
  O  O15  1  0.25000000  0.97898541  0.18009101  1
  O  O16  1  0.25000000  0.81627468  0.87030496  1
  O  O17  1  0.25000000  0.68372532  0.37030496  1
  O  O18  1  0.75000000  0.02101459  0.81990899  1
  O  O19  1  0.75000000  0.18372532  0.12969504  1
  O  O20  1  0.75000000  0.31627468  0.62969504  1
  O  O21  1  0.75000000  0.47898541  0.31990899  1
  O  O22  1  0.75000000  0.55220118  0.69637769  1
  O  O23  1  0.75000000  0.94779882  0.19637769  1
  F  F24  1  0.03618195  0.15657140  0.45512037  1
  F  F25  1  0.03618195  0.34342860  0.95512037  1
  F  F26  1  0.46381805  0.15657140  0.45512037  1
  F  F27  1  0.46381805  0.34342860  0.95512037  1
  F  F28  1  0.53618195  0.84342860  0.54487963  1
  F  F29  1  0.53618195  0.65657140  0.04487963  1
  F  F30  1  0.96381805  0.65657140  0.04487963  1
  F  F31  1  0.96381805  0.84342860  0.54487963  1
