# generated using pymatgen
data_Li2FePO5
_symmetry_space_group_name_H-M   'P 1'
_cell_length_a   4.88632306
_cell_length_b   5.60831504
_cell_length_c   15.86117892
_cell_angle_alpha   90.00000000
_cell_angle_beta   89.51010281
_cell_angle_gamma   90.00000000
_symmetry_Int_Tables_number   1
_chemical_formula_structural   Li2FePO5
_chemical_formula_sum   'Li8 Fe4 P4 O20'
_cell_volume   434.64447857
_cell_formula_units_Z   4
loop_
 _symmetry_equiv_pos_site_id
 _symmetry_equiv_pos_as_xyz
  1  'x, y, z'
loop_
 _atom_site_type_symbol
 _atom_site_label
 _atom_site_symmetry_multiplicity
 _atom_site_fract_x
 _atom_site_fract_y
 _atom_site_fract_z
 _atom_site_occupancy
  Li  Li0  1  0.00301013  0.67296170  0.58892987  1
  Li  Li1  1  0.00360126  0.16328799  0.90667490  1
  Li  Li2  1  0.00335818  0.15718591  0.48993428  1
  Li  Li3  1  0.49983057  0.82606848  0.69382393  1
  Li  Li4  1  0.50360126  0.33671201  0.40667490  1
  Li  Li5  1  0.50301013  0.82703830  0.08892987  1
  Li  Li6  1  0.50335818  0.34281409  0.98993428  1
  Li  Li7  1  0.99983057  0.67393152  0.19382393  1
  Fe  Fe8  1  0.00574695  0.16850517  0.70230771  1
  Fe  Fe9  1  0.00709010  0.66565609  0.80291891  1
  Fe  Fe10  1  0.50574695  0.33149483  0.20230771  1
  Fe  Fe11  1  0.50709010  0.83434391  0.30291991  1
  P  P12  1  0.01297943  0.16523690  0.09845042  1
  P  P13  1  0.00486928  0.65989942  0.40370701  1
  P  P14  1  0.51297943  0.33476310  0.59845042  1
  P  P15  1  0.50486928  0.84010058  0.90370701  1
  O  O16  1  0.11670212  0.32619271  0.17468120  1
  O  O17  1  0.12060427  0.77021855  0.31763605  1
  O  O18  1  0.07092471  0.33880844  0.80010183  1
  O  O19  1  0.09137668  0.83861767  0.70151255  1
  O  O20  1  0.10774677  0.40434816  0.41220222  1
  O  O21  1  0.10721957  0.90879684  0.11127865  1
  O  O22  1  0.10977574  0.27811570  0.01581817  1
  O  O23  1  0.07628952  0.81930997  0.47848639  1
  O  O24  1  0.18583455  0.32114523  0.60490810  1
  O  O25  1  0.18389219  0.84112008  0.89041281  1
  O  O26  1  0.61670212  0.17380729  0.67468120  1
  O  O27  1  0.62060427  0.72978145  0.81763605  1
  O  O28  1  0.57092471  0.16119156  0.30010183  1
  O  O29  1  0.59137668  0.66138233  0.20151255  1
  O  O30  1  0.60721957  0.59120316  0.61127865  1
  O  O31  1  0.60774677  0.09565184  0.91220222  1
  O  O32  1  0.60977574  0.22188430  0.51581817  1
  O  O33  1  0.57628952  0.68069003  0.97848639  1
  O  O34  1  0.68583455  0.17885477  0.10490810  1
  O  O35  1  0.68389219  0.65887992  0.39041281  1
