# generated using pymatgen
data_Sc(VN)9
_symmetry_space_group_name_H-M   'P 1'
_cell_length_a   5.86144559
_cell_length_b   16.23712922
_cell_length_c   7.71363727
_cell_angle_alpha   18.20222042
_cell_angle_beta   55.53660109
_cell_angle_gamma   51.18829082
_symmetry_Int_Tables_number   1
_chemical_formula_structural   Sc(VN)9
_chemical_formula_sum   'Sc1 V9 N9'
_cell_volume   177.37059770
_cell_formula_units_Z   1
loop_
 _symmetry_equiv_pos_site_id
 _symmetry_equiv_pos_as_xyz
  1  'x, y, z'
loop_
 _atom_site_type_symbol
 _atom_site_label
 _atom_site_symmetry_multiplicity
 _atom_site_fract_x
 _atom_site_fract_y
 _atom_site_fract_z
 _atom_site_occupancy
  Sc  Sc0  1  0.40000000  0.70000000  0.50000000  1
  V  V1  1  0.20218038  0.10571833  0.47362227  1
  V  V2  1  0.06681199  0.30293554  0.50401651  1
  V  V3  1  0.73318801  0.09706446  0.49598349  1
  V  V4  1  0.02143812  0.48191129  0.52555196  1
  V  V5  1  0.59781962  0.29428167  0.52637773  1
  V  V6  1  0.49452472  0.47901400  0.53544977  1
  V  V7  1  0.30547528  0.92098600  0.46455023  1
  V  V8  1  0.90000000  0.70000000  0.50000000  1
  V  V9  1  0.77856188  0.91808871  0.47444804  1
  N  N10  1  0.99233227  0.00540080  0.98345790  1
  N  N11  1  0.30396201  0.38170181  0.03127103  1
  N  N12  1  0.90000000  0.20000000  0.00000000  1
  N  N13  1  0.18933388  0.60191157  0.00956106  1
  N  N14  1  0.80766773  0.39459920  0.01654210  1
  N  N15  1  0.11172085  0.78579142  0.02259377  1
  N  N16  1  0.68827915  0.61420858  0.97740623  1
  N  N17  1  0.61066612  0.79808843  0.99043894  1
  N  N18  1  0.49603799  0.01829819  0.96872897  1
