# generated using pymatgen
data_LiVPO5
_symmetry_space_group_name_H-M   'P 1'
_cell_length_a   6.33390302
_cell_length_b   11.20317275
_cell_length_c   6.06026277
_cell_angle_alpha   90.00000000
_cell_angle_beta   100.18438181
_cell_angle_gamma   90.00000000
_symmetry_Int_Tables_number   1
_chemical_formula_structural   LiVPO5
_chemical_formula_sum   'Li4 V4 P4 O20'
_cell_volume   423.25939222
_cell_formula_units_Z   4
loop_
 _symmetry_equiv_pos_site_id
 _symmetry_equiv_pos_as_xyz
  1  'x, y, z'
loop_
 _atom_site_type_symbol
 _atom_site_label
 _atom_site_symmetry_multiplicity
 _atom_site_fract_x
 _atom_site_fract_y
 _atom_site_fract_z
 _atom_site_occupancy
  Li  Li0  1  0.96911946  0.38694914  0.61042852  1
  Li  Li1  1  0.96911946  0.11305086  0.11042852  1
  Li  Li2  1  0.03088054  0.88694914  0.88957148  1
  Li  Li3  1  0.03088054  0.61305086  0.38957148  1
  V  V4  1  0.29860172  0.16927132  0.51565446  1
  V  V5  1  0.29860172  0.33072868  0.01565446  1
  V  V6  1  0.70139828  0.66927132  0.98434554  1
  V  V7  1  0.70139828  0.83072868  0.48434554  1
  P  P8  1  0.20418990  0.59893979  0.92456304  1
  P  P9  1  0.20418990  0.90106021  0.42456304  1
  P  P10  1  0.79581010  0.09893979  0.57543696  1
  P  P11  1  0.79581010  0.40106021  0.07543696  1
  O  O12  1  0.04193534  0.83368721  0.54405324  1
  O  O13  1  0.10754693  0.54962347  0.69526848  1
  O  O14  1  0.04193534  0.66631279  0.04405324  1
  O  O15  1  0.10754693  0.95037653  0.19526848  1
  O  O16  1  0.26837301  0.28490031  0.73606493  1
  O  O17  1  0.29875395  0.00710497  0.58824080  1
  O  O18  1  0.26837301  0.21509969  0.23606493  1
  O  O19  1  0.29875395  0.49289503  0.08824080  1
  O  O20  1  0.39433830  0.68487668  0.91024671  1
  O  O21  1  0.39433830  0.81512332  0.41024671  1
  O  O22  1  0.60566170  0.18487668  0.58975329  1
  O  O23  1  0.60566170  0.31512332  0.08975329  1
  O  O24  1  0.70124605  0.50710497  0.91175920  1
  O  O25  1  0.73162699  0.78490031  0.76393507  1
  O  O26  1  0.70124605  0.99289503  0.41175920  1
  O  O27  1  0.73162699  0.71509969  0.26393507  1
  O  O28  1  0.89245307  0.04962347  0.80473152  1
  O  O29  1  0.95806466  0.33368721  0.95594676  1
  O  O30  1  0.89245307  0.45037653  0.30473152  1
  O  O31  1  0.95806466  0.16631279  0.45594676  1
