# generated using pymatgen
data_Li2VF6
_symmetry_space_group_name_H-M   'P 1'
_cell_length_a   5.50032741
_cell_length_b   5.39765956
_cell_length_c   11.15738452
_cell_angle_alpha   101.74063422
_cell_angle_beta   75.76723266
_cell_angle_gamma   59.34172845
_symmetry_Int_Tables_number   1
_chemical_formula_structural   Li2VF6
_chemical_formula_sum   'Li4 V2 F12'
_cell_volume   253.81471645
_cell_formula_units_Z   2
loop_
 _symmetry_equiv_pos_site_id
 _symmetry_equiv_pos_as_xyz
  1  'x, y, z'
loop_
 _atom_site_type_symbol
 _atom_site_label
 _atom_site_symmetry_multiplicity
 _atom_site_fract_x
 _atom_site_fract_y
 _atom_site_fract_z
 _atom_site_occupancy
  Li  Li0  1  0.68130177  0.82713984  0.04272505  1
  Li  Li1  1  0.51747375  0.46460086  0.82951872  1
  Li  Li2  1  0.68776852  0.96525919  0.32972447  1
  Li  Li3  1  0.94848867  0.32735855  0.54270262  1
  V  V4  1  0.51693931  0.45325507  0.15370835  1
  V  V5  1  0.37628768  0.95287251  0.65364969  1
  F  F6  1  0.34619752  0.24814991  0.09774631  1
  F  F7  1  0.39035409  0.06047659  0.49610379  1
  F  F8  1  0.11965509  0.81438533  0.25985073  1
  F  F9  1  0.30568015  0.31419675  0.75998371  1
  F  F10  1  0.51358628  0.34243785  0.30229694  1
  F  F11  1  0.88862690  0.06730231  0.05381767  1
  F  F12  1  0.49165383  0.56629801  0.55370866  1
  F  F13  1  0.34241366  0.84171379  0.80213018  1
  F  F14  1  0.68177888  0.68802160  0.19342767  1
  F  F15  1  0.93696289  0.18723308  0.69318514  1
  F  F16  1  0.55300633  0.56026991  0.99597106  1
  F  F17  1  0.80796868  0.74849787  0.59796525  1
