# generated using pymatgen
data_Li3MnFe3O8
_symmetry_space_group_name_H-M   'P 1'
_cell_length_a   5.93241234
_cell_length_b   6.00534518
_cell_length_c   5.94360107
_cell_angle_alpha   89.91309057
_cell_angle_beta   60.03887997
_cell_angle_gamma   60.21379121
_symmetry_Int_Tables_number   1
_chemical_formula_structural   Li3MnFe3O8
_chemical_formula_sum   'Li3 Mn1 Fe3 O8'
_cell_volume   150.40986738
_cell_formula_units_Z   1
loop_
 _symmetry_equiv_pos_site_id
 _symmetry_equiv_pos_as_xyz
  1  'x, y, z'
loop_
 _atom_site_type_symbol
 _atom_site_label
 _atom_site_symmetry_multiplicity
 _atom_site_fract_x
 _atom_site_fract_y
 _atom_site_fract_z
 _atom_site_occupancy
  Li  Li0  1  -0.00000644  0.50000907  0.50000390  1
  Li  Li1  1  0.50001279  0.49999197  0.00000178  1
  Li  Li2  1  -0.00000186  0.49998757  0.00000164  1
  Mn  Mn3  1  -0.00012458  0.00012951  0.00006882  1
  Fe  Fe4  1  0.50003072  -0.00003661  0.50000564  1
  Fe  Fe5  1  0.00001281  0.99997617  0.49998902  1
  Fe  Fe6  1  0.50003958  -0.00004051  -0.00004349  1
  O  O7  1  0.00802737  0.22568924  0.75681073  1
  O  O8  1  0.51975638  0.21654572  0.74233208  1
  O  O9  1  0.01858822  0.21674021  0.23039796  1
  O  O10  1  0.53222933  0.21713612  0.23084859  1
  O  O11  1  0.46775240  0.78288757  0.76915972  1
  O  O12  1  0.98142937  0.78324790  0.76959323  1
  O  O13  1  0.48026719  0.78343690  0.25765459  1
  O  O14  1  0.99198673  0.77429918  0.24317680  1
