# generated using pymatgen
data_Li2V(Si2O5)2
_symmetry_space_group_name_H-M   'P 1'
_cell_length_a   9.73171345
_cell_length_b   7.57544034
_cell_length_c   6.98277857
_cell_angle_alpha   63.15041271
_cell_angle_beta   77.50077662
_cell_angle_gamma   99.39366448
_symmetry_Int_Tables_number   1
_chemical_formula_structural   Li2V(Si2O5)2
_chemical_formula_sum   'Li4 V2 Si8 O20'
_cell_volume   427.80534741
_cell_formula_units_Z   2
loop_
 _symmetry_equiv_pos_site_id
 _symmetry_equiv_pos_as_xyz
  1  'x, y, z'
loop_
 _atom_site_type_symbol
 _atom_site_label
 _atom_site_symmetry_multiplicity
 _atom_site_fract_x
 _atom_site_fract_y
 _atom_site_fract_z
 _atom_site_occupancy
  Li  Li0  1  0.05619909  0.25454435  0.61215078  1
  Li  Li1  1  0.57198458  0.68168305  0.78198464  1
  Li  Li2  1  0.42801542  0.31831695  0.21801536  1
  Li  Li3  1  0.94380091  0.74545465  0.38784922  1
  V  V4  1  0.42573412  0.30023118  0.75908878  1
  V  V5  1  0.57426588  0.69976882  0.24091122  1
  Si  Si6  1  0.18721076  0.94956831  0.75252924  1
  Si  Si7  1  0.25711578  0.63799427  0.61104109  1
  Si  Si8  1  0.23935697  0.61490380  0.18904419  1
  Si  Si9  1  0.14196638  0.27624568  0.10465938  1
  Si  Si10  1  0.85803362  0.72375432  0.89534062  1
  Si  Si11  1  0.76064303  0.38509620  0.81095581  1
  Si  Si12  1  0.74288422  0.36200573  0.38895891  1
  Si  Si13  1  0.81278924  0.05043169  0.24747076  1
  O  O14  1  0.00910054  0.92218486  0.77737558  1
  O  O15  1  0.13765482  0.45025384  0.85621984  1
  O  O16  1  0.26052825  0.86293318  0.59042332  1
  O  O17  1  0.18181529  0.62258769  0.42560069  1
  O  O18  1  0.19641602  0.80703743  0.00690025  1
  O  O19  1  0.12388927  0.38813063  0.26383315  1
  O  O20  1  0.42159958  0.61565531  0.57200661  1
  O  O21  1  0.25759611  0.19232608  0.64641530  1
  O  O22  1  0.71032242  0.78850300  0.91156924  1
  O  O23  1  0.59235128  0.38054716  0.89342165  1
  O  O24  1  0.40764872  0.61945284  0.10657835  1
  O  O25  1  0.28967758  0.21149700  0.08843076  1
  O  O26  1  0.74240389  0.80767392  0.35358470  1
  O  O27  1  0.57840042  0.38434469  0.42799339  1
  O  O28  1  0.87611073  0.61186937  0.73616685  1
  O  O29  1  0.80358398  0.19296257  0.99309975  1
  O  O30  1  0.81818471  0.37741231  0.57439931  1
  O  O31  1  0.73947175  0.13706682  0.40957668  1
  O  O32  1  0.86234518  0.54974616  0.14378016  1
  O  O33  1  0.99089946  0.07781514  0.22262442  1
