# generated using pymatgen
data_Li4Ti5Mn4O18
_symmetry_space_group_name_H-M   'P 1'
_cell_length_a   9.10970779
_cell_length_b   26.39404635
_cell_length_c   2.91765548
_cell_angle_alpha   90.00000000
_cell_angle_beta   90.00000000
_cell_angle_gamma   90.00000000
_symmetry_Int_Tables_number   1
_chemical_formula_structural   Li4Ti5Mn4O18
_chemical_formula_sum   'Li8 Ti10 Mn8 O36'
_cell_volume   701.52706377
_cell_formula_units_Z   2
loop_
 _symmetry_equiv_pos_site_id
 _symmetry_equiv_pos_as_xyz
  1  'x, y, z'
loop_
 _atom_site_type_symbol
 _atom_site_label
 _atom_site_symmetry_multiplicity
 _atom_site_fract_x
 _atom_site_fract_y
 _atom_site_fract_z
 _atom_site_occupancy
  Li  Li0  1  0.18896217  0.99170340  0.00000000  1
  Li  Li1  1  0.20549491  0.18688432  0.00000000  1
  Li  Li2  1  0.29450509  0.68688432  0.00000000  1
  Li  Li3  1  0.31103783  0.49170340  0.00000000  1
  Li  Li4  1  0.68896217  0.50829660  0.00000000  1
  Li  Li5  1  0.70549491  0.31311568  0.00000000  1
  Li  Li6  1  0.79450509  0.81311568  0.00000000  1
  Li  Li7  1  0.81103783  0.00829660  0.00000000  1
  Ti  Ti8  1  0.00000000  0.50000000  0.00000000  1
  Ti  Ti9  1  0.99766955  0.10193102  0.00000000  1
  Ti  Ti10  1  0.14293965  0.80810916  0.50000000  1
  Ti  Ti11  1  0.35706035  0.30810916  0.50000000  1
  Ti  Ti12  1  0.50233045  0.60193102  0.00000000  1
  Ti  Ti13  1  0.50000000  0.00000000  0.00000000  1
  Ti  Ti14  1  0.49766955  0.39806898  0.00000000  1
  Ti  Ti15  1  0.64293965  0.69189084  0.50000000  1
  Ti  Ti16  1  0.85706035  0.19189084  0.50000000  1
  Ti  Ti17  1  0.00233045  0.89806898  0.00000000  1
  Mn  Mn18  1  0.01427685  0.30830010  0.00000000  1
  Mn  Mn19  1  0.14939020  0.58810503  0.50000000  1
  Mn  Mn20  1  0.35060980  0.08810503  0.50000000  1
  Mn  Mn21  1  0.48572315  0.80830010  0.00000000  1
  Mn  Mn22  1  0.51427685  0.19169990  0.00000000  1
  Mn  Mn23  1  0.64939020  0.91189497  0.50000000  1
  Mn  Mn24  1  0.85060980  0.41189497  0.50000000  1
  Mn  Mn25  1  0.98572315  0.69169990  0.00000000  1
  O  O26  1  0.98816028  0.42416256  0.00000000  1
  O  O27  1  0.01183972  0.57583744  0.00000000  1
  O  O28  1  0.05100999  0.94183288  0.50000000  1
  O  O29  1  0.05247943  0.15558568  0.50000000  1
  O  O30  1  0.11674127  0.66969139  0.50000000  1
  O  O31  1  0.09417229  0.76444474  0.00000000  1
  O  O32  1  0.14649325  0.49941671  0.50000000  1
  O  O33  1  0.14722000  0.29068574  0.50000000  1
  O  O34  1  0.18022374  0.85872171  0.00000000  1
  O  O35  1  0.20766210  0.08492160  0.00000000  1
  O  O36  1  0.29233790  0.58492160  0.00000000  1
  O  O37  1  0.31977626  0.35872171  0.00000000  1
  O  O38  1  0.35278000  0.79068574  0.50000000  1
  O  O39  1  0.35350675  0.99941671  0.50000000  1
  O  O40  1  0.40582771  0.26444474  0.00000000  1
  O  O41  1  0.38325873  0.16969139  0.50000000  1
  O  O42  1  0.44752057  0.65558568  0.50000000  1
  O  O43  1  0.44899001  0.44183288  0.50000000  1
  O  O44  1  0.48816028  0.07583744  0.00000000  1
  O  O45  1  0.51183972  0.92416256  0.00000000  1
  O  O46  1  0.55100999  0.55816712  0.50000000  1
  O  O47  1  0.55247943  0.34441432  0.50000000  1
  O  O48  1  0.61674127  0.83030861  0.50000000  1
  O  O49  1  0.59417229  0.73555526  0.00000000  1
  O  O50  1  0.64649325  0.00058329  0.50000000  1
  O  O51  1  0.64722000  0.20931426  0.50000000  1
  O  O52  1  0.68022374  0.64127829  0.00000000  1
  O  O53  1  0.70766210  0.41507840  0.00000000  1
  O  O54  1  0.79233790  0.91507840  0.00000000  1
  O  O55  1  0.81977626  0.14127829  0.00000000  1
  O  O56  1  0.85278000  0.70931426  0.50000000  1
  O  O57  1  0.85350675  0.50058329  0.50000000  1
  O  O58  1  0.90582771  0.23555526  0.00000000  1
  O  O59  1  0.88325873  0.33030861  0.50000000  1
  O  O60  1  0.94752057  0.84441432  0.50000000  1
  O  O61  1  0.94899001  0.05816712  0.50000000  1
