# generated using pymatgen
data_Li3CoPCO7
_symmetry_space_group_name_H-M   'P 1'
_cell_length_a   9.44892032
_cell_length_b   9.73247861
_cell_length_c   6.39209701
_cell_angle_alpha   90.00000000
_cell_angle_beta   90.00000000
_cell_angle_gamma   64.59275193
_symmetry_Int_Tables_number   1
_chemical_formula_structural   Li3CoPCO7
_chemical_formula_sum   'Li12 Co4 P4 C4 O28'
_cell_volume   530.97232908
_cell_formula_units_Z   4
loop_
 _symmetry_equiv_pos_site_id
 _symmetry_equiv_pos_as_xyz
  1  'x, y, z'
loop_
 _atom_site_type_symbol
 _atom_site_label
 _atom_site_symmetry_multiplicity
 _atom_site_fract_x
 _atom_site_fract_y
 _atom_site_fract_z
 _atom_site_occupancy
  Li  Li0  1  0.89230967  0.44265870  0.75864899  1
  Li  Li1  1  0.89230967  0.94265870  0.74135101  1
  Li  Li2  1  0.71833784  0.26366481  0.49933531  1
  Li  Li3  1  0.71833784  0.76366481  0.00066469  1
  Li  Li4  1  0.64499323  0.06546731  0.25285488  1
  Li  Li5  1  0.64499323  0.56546731  0.24714512  1
  Li  Li6  1  0.35500677  0.43453269  0.75285488  1
  Li  Li7  1  0.35500677  0.93453269  0.74714512  1
  Li  Li8  1  0.28166216  0.23633519  0.99933531  1
  Li  Li9  1  0.28166216  0.73633519  0.50066469  1
  Li  Li10  1  0.10769033  0.05734130  0.25864899  1
  Li  Li11  1  0.10769033  0.55734130  0.24135101  1
  Co  Co12  1  0.73469294  0.25881957  0.99226729  1
  Co  Co13  1  0.73469294  0.75881957  0.50773271  1
  Co  Co14  1  0.26530706  0.24118043  0.49226729  1
  Co  Co15  1  0.26530706  0.74118043  0.00773271  1
  P  P16  1  0.59164229  0.06596854  0.74156666  1
  P  P17  1  0.59164229  0.56596854  0.75843334  1
  P  P18  1  0.40835771  0.43403146  0.24156666  1
  P  P19  1  0.40835771  0.93403146  0.25843334  1
  C  C20  1  0.95690520  0.37135206  0.25966370  1
  C  C21  1  0.95690520  0.87135206  0.24033630  1
  C  C22  1  0.04309480  0.12864794  0.75966370  1
  C  C23  1  0.04309480  0.62864794  0.74033630  1
  O  O24  1  0.93358015  0.01059078  0.23495100  1
  O  O25  1  0.93358015  0.51059078  0.26504900  1
  O  O26  1  0.89761977  0.23819087  0.76839228  1
  O  O27  1  0.84247713  0.33181658  0.24614175  1
  O  O28  1  0.89761977  0.73819087  0.73160772  1
  O  O29  1  0.84247713  0.83181658  0.25385825  1
  O  O30  1  0.68362521  0.07296496  0.94147184  1
  O  O31  1  0.69414716  0.07255641  0.55758744  1
  O  O32  1  0.69414716  0.57255641  0.94241256  1
  O  O33  1  0.68362521  0.57296496  0.55852816  1
  O  O34  1  0.57691098  0.30486423  0.24077446  1
  O  O35  1  0.58178503  0.40921885  0.76254947  1
  O  O36  1  0.57691098  0.80486423  0.25922554  1
  O  O37  1  0.58178503  0.90921885  0.73745053  1
  O  O38  1  0.41821497  0.09078115  0.26254947  1
  O  O39  1  0.42308902  0.19513577  0.74077446  1
  O  O40  1  0.41821497  0.59078115  0.23745053  1
  O  O41  1  0.42308902  0.69513577  0.75922554  1
  O  O42  1  0.30585284  0.42744359  0.05758744  1
  O  O43  1  0.31637479  0.42703504  0.44147184  1
  O  O44  1  0.31637479  0.92703504  0.05852816  1
  O  O45  1  0.30585284  0.92744359  0.44241256  1
  O  O46  1  0.15752287  0.16818342  0.74614175  1
  O  O47  1  0.10238023  0.26180913  0.26839228  1
  O  O48  1  0.15752287  0.66818342  0.75385825  1
  O  O49  1  0.10238023  0.76180913  0.23160772  1
  O  O50  1  0.06641985  0.48940922  0.73495100  1
  O  O51  1  0.06641985  0.98940922  0.76504900  1
