# generated using pymatgen
data_Li2NiP2O7
_symmetry_space_group_name_H-M   'P 1'
_cell_length_a   6.31133797
_cell_length_b   8.07185422
_cell_length_c   8.07185422
_cell_angle_alpha   72.90706243
_cell_angle_beta   113.01345494
_cell_angle_gamma   66.98654506
_symmetry_Int_Tables_number   1
_chemical_formula_structural   Li2NiP2O7
_chemical_formula_sum   'Li4 Ni2 P4 O14'
_cell_volume   295.98391149
_cell_formula_units_Z   2
loop_
 _symmetry_equiv_pos_site_id
 _symmetry_equiv_pos_as_xyz
  1  'x, y, z'
loop_
 _atom_site_type_symbol
 _atom_site_label
 _atom_site_symmetry_multiplicity
 _atom_site_fract_x
 _atom_site_fract_y
 _atom_site_fract_z
 _atom_site_occupancy
  Li  Li0  1  0.00000000  0.22787094  0.22787094  1
  Li  Li1  1  0.50000000  0.27212906  0.27212906  1
  Li  Li2  1  0.50000000  0.72787094  0.72787094  1
  Li  Li3  1  0.00000000  0.77212906  0.77212906  1
  Ni  Ni4  1  0.00000000  0.00000000  0.00000000  1
  Ni  Ni5  1  0.50000000  0.50000000  0.50000000  1
  P  P6  1  0.58769834  0.63998314  0.13998314  1
  P  P7  1  0.41230166  0.13998314  0.63998314  1
  P  P8  1  0.58769834  0.86001686  0.36001686  1
  P  P9  1  0.41230166  0.36001686  0.86001686  1
  O  O10  1  0.27100270  0.03686911  0.18383078  1
  O  O11  1  0.72899730  0.18383078  0.03686911  1
  O  O12  1  0.25204393  0.05403609  0.55403609  1
  O  O13  1  0.74795607  0.55403609  0.05403609  1
  O  O14  1  0.62404103  0.46313089  0.31616922  1
  O  O15  1  0.37595897  0.31616922  0.46313089  1
  O  O16  1  0.71348478  0.75000000  0.25000000  1
  O  O17  1  0.28651522  0.25000000  0.75000000  1
  O  O18  1  0.62404103  0.68383078  0.53686911  1
  O  O19  1  0.37595897  0.53686911  0.68383078  1
  O  O20  1  0.74795607  0.94596391  0.44596391  1
  O  O21  1  0.25204393  0.44596391  0.94596391  1
  O  O22  1  0.72899730  0.96313089  0.81616922  1
  O  O23  1  0.27100270  0.81616922  0.96313089  1
