# generated using pymatgen
data_LiNiPO4
_symmetry_space_group_name_H-M   'P 1'
_cell_length_a   6.32815096
_cell_length_b   9.34644730
_cell_length_c   5.94327933
_cell_angle_alpha   95.32694769
_cell_angle_beta   99.73408827
_cell_angle_gamma   74.00910335
_symmetry_Int_Tables_number   1
_chemical_formula_structural   LiNiPO4
_chemical_formula_sum   'Li4 Ni4 P4 O16'
_cell_volume   332.65549003
_cell_formula_units_Z   4
loop_
 _symmetry_equiv_pos_site_id
 _symmetry_equiv_pos_as_xyz
  1  'x, y, z'
loop_
 _atom_site_type_symbol
 _atom_site_label
 _atom_site_symmetry_multiplicity
 _atom_site_fract_x
 _atom_site_fract_y
 _atom_site_fract_z
 _atom_site_occupancy
  Li  Li0  1  0.17477756  0.26759118  0.58715408  1
  Li  Li1  1  0.34245412  0.66962081  0.43740159  1
  Li  Li2  1  0.65754588  0.33037919  0.56259841  1
  Li  Li3  1  0.82522244  0.73240882  0.41284592  1
  Ni  Ni4  1  0.07844755  0.71645498  0.99124688  1
  Ni  Ni5  1  0.35295937  0.93326504  0.80624377  1
  Ni  Ni6  1  0.64704063  0.06673496  0.19375723  1
  Ni  Ni7  1  0.92155245  0.28354502  0.00875312  1
  P  P8  1  0.28381268  0.37999800  0.15243218  1
  P  P9  1  0.18432018  0.99947870  0.28563270  1
  P  P10  1  0.81567982  0.00052130  0.71436730  1
  P  P11  1  0.71618732  0.62000200  0.84756782  1
  O  O12  1  0.26045034  0.05116860  0.53053581  1
  O  O13  1  0.10648868  0.36293511  0.29471451  1
  O  O14  1  0.20942460  0.32029883  0.90828904  1
  O  O15  1  0.04725692  0.89589897  0.80268058  1
  O  O16  1  0.35034233  0.01446550  0.13083937  1
  O  O17  1  0.29184648  0.54470353  0.16369463  1
  O  O18  1  0.17454803  0.83576374  0.27550657  1
  O  O19  1  0.47863670  0.71066026  0.74144420  1
  O  O20  1  0.52136330  0.28933974  0.25855580  1
  O  O21  1  0.82545197  0.16423626  0.72449343  1
  O  O22  1  0.70815352  0.45529647  0.83630537  1
  O  O23  1  0.64965767  0.98553450  0.86916063  1
  O  O24  1  0.95274308  0.10410103  0.19731942  1
  O  O25  1  0.79057540  0.67970117  0.09171096  1
  O  O26  1  0.89351132  0.63706489  0.70528549  1
  O  O27  1  0.73954966  0.94883140  0.46946419  1
