# generated using pymatgen
data_Li2V2F7
_symmetry_space_group_name_H-M   'P 1'
_cell_length_a   8.81888111
_cell_length_b   6.87357955
_cell_length_c   5.50926006
_cell_angle_alpha   97.99775719
_cell_angle_beta   73.41941004
_cell_angle_gamma   108.16265821
_symmetry_Int_Tables_number   1
_chemical_formula_structural   Li2V2F7
_chemical_formula_sum   'Li4 V4 F14'
_cell_volume   303.66076786
_cell_formula_units_Z   2
loop_
 _symmetry_equiv_pos_site_id
 _symmetry_equiv_pos_as_xyz
  1  'x, y, z'
loop_
 _atom_site_type_symbol
 _atom_site_label
 _atom_site_symmetry_multiplicity
 _atom_site_fract_x
 _atom_site_fract_y
 _atom_site_fract_z
 _atom_site_occupancy
  Li  Li0  1  0.26702856  0.57215355  0.12082776  1
  Li  Li1  1  0.34202108  0.74512964  0.57885695  1
  Li  Li2  1  0.65797892  0.25487036  0.42114305  1
  Li  Li3  1  0.73297144  0.42784645  0.87917224  1
  V  V4  1  0.17655029  0.99603232  0.29717581  1
  V  V5  1  0.30048908  0.21650616  0.78298739  1
  V  V6  1  0.69951092  0.78349384  0.21701261  1
  V  V7  1  0.82344971  0.00396768  0.70282419  1
  F  F8  1  0.17344646  0.72137711  0.39925125  1
  F  F9  1  0.20204916  0.27645666  0.15070038  1
  F  F10  1  0.08286633  0.10133466  0.68794368  1
  F  F11  1  0.27174844  0.93784265  0.89476752  1
  F  F12  1  0.30155057  0.49817276  0.75023469  1
  F  F13  1  0.47546982  0.68603811  0.19602247  1
  F  F14  1  0.39608012  0.12783436  0.42272143  1
  F  F15  1  0.60391988  0.87216564  0.57727857  1
  F  F16  1  0.52453018  0.31396189  0.80397753  1
  F  F17  1  0.69844943  0.50182724  0.24976531  1
  F  F18  1  0.72825156  0.06215735  0.10523248  1
  F  F19  1  0.91713367  0.89866534  0.31205632  1
  F  F20  1  0.79795084  0.72354334  0.84929962  1
  F  F21  1  0.82655354  0.27862289  0.60074875  1
