# generated using pymatgen
data_LiV(CO3)2
_symmetry_space_group_name_H-M   'P 1'
_cell_length_a   8.01791984
_cell_length_b   8.04904067
_cell_length_c   5.36848235
_cell_angle_alpha   89.95011471
_cell_angle_beta   90.00000000
_cell_angle_gamma   119.87217855
_symmetry_Int_Tables_number   1
_chemical_formula_structural   LiV(CO3)2
_chemical_formula_sum   'Li3 V3 C6 O18'
_cell_volume   300.43166984
_cell_formula_units_Z   3
loop_
 _symmetry_equiv_pos_site_id
 _symmetry_equiv_pos_as_xyz
  1  'x, y, z'
loop_
 _atom_site_type_symbol
 _atom_site_label
 _atom_site_symmetry_multiplicity
 _atom_site_fract_x
 _atom_site_fract_y
 _atom_site_fract_z
 _atom_site_occupancy
  Li  Li0  1  0.00081538  0.33707152  0.49886939  1
  Li  Li1  1  0.66374386  0.66292848  0.50113061  1
  Li  Li2  1  0.33468521  0.00000000  0.50000000  1
  V  V3  1  0.99566358  0.66745726  0.00077017  1
  V  V4  1  0.32820632  0.33254274  0.99922983  1
  V  V5  1  0.66963839  0.00000000  1.00000000  1
  C  C6  1  0.33302552  0.66681393  0.24861060  1
  C  C7  1  0.33413227  0.66848588  0.77688661  1
  C  C8  1  0.00137896  0.00005357  0.23810797  1
  C  C9  1  0.00132539  -0.00005357  0.76189203  1
  C  C10  1  0.66621159  0.33318607  0.75138940  1
  C  C11  1  0.66564639  0.33151412  0.22311339  1
  O  O12  1  0.08973759  0.90281727  0.76179173  1
  O  O13  1  0.22313594  0.74180981  0.25008224  1
  O  O14  1  0.14722609  0.57432932  0.78097233  1
  O  O15  1  0.09964152  0.18642925  0.76051503  1
  O  O16  1  0.42608544  0.85407383  0.77800689  1
  O  O17  1  0.25820965  0.48148447  0.25035252  1
  O  O18  1  0.51859450  0.77585106  0.24939158  1
  O  O19  1  0.18692032  0.09718273  0.23820827  1
  O  O20  1  0.42804122  0.57584242  0.77601998  1
  O  O21  1  0.48132613  0.25819019  0.74991776  1
  O  O22  1  0.57289678  0.42567068  0.21902767  1
  O  O23  1  0.81460233  0.91258400  0.76261514  1
  O  O24  1  0.91321227  0.81357075  0.23948497  1
  O  O25  1  0.57201260  0.14592617  0.22199311  1
  O  O26  1  0.77672518  0.51851553  0.74964748  1
  O  O27  1  0.74274244  0.22414894  0.75060842  1
  O  O28  1  0.85219880  0.42415758  0.22398002  1
  O  O29  1  0.90201833  0.08741600  0.23738486  1
