# generated using pymatgen
data_Ca5ThF14
_symmetry_space_group_name_H-M   'P 1'
_cell_length_a   3.97481300
_cell_length_b   4.00624840
_cell_length_c   24.34353831
_cell_angle_alpha   59.22877180
_cell_angle_beta   59.60050839
_cell_angle_gamma   58.42302056
_symmetry_Int_Tables_number   1
_chemical_formula_structural   Ca5ThF14
_chemical_formula_sum   'Ca5 Th1 F14'
_cell_volume   268.32442745
_cell_formula_units_Z   1
loop_
 _symmetry_equiv_pos_site_id
 _symmetry_equiv_pos_as_xyz
  1  'x, y, z'
loop_
 _atom_site_type_symbol
 _atom_site_label
 _atom_site_symmetry_multiplicity
 _atom_site_fract_x
 _atom_site_fract_y
 _atom_site_fract_z
 _atom_site_occupancy
  Ca  Ca0  1  0.97275258  0.02479797  0.00518585  1
  Ca  Ca1  1  0.98945278  0.06842929  0.48519942  1
  Ca  Ca2  1  0.91745799  0.04909818  0.16892109  1
  Ca  Ca3  1  0.95021310  0.06014492  0.32694486  1
  Ca  Ca4  1  0.00536733  0.01891911  0.84429855  1
  Th  Th5  1  0.00263531  0.03645466  0.66560379  1
  F  F6  1  0.67411568  0.79119098  0.12881122  1
  F  F7  1  0.17451472  0.30091386  0.20821623  1
  F  F8  1  0.24000804  0.30432882  0.52933344  1
  F  F9  1  0.69612077  0.80805048  0.28688637  1
  F  F10  1  0.20693830  0.31707126  0.36515758  1
  F  F11  1  0.23879462  0.25381499  0.73204873  1
  F  F12  1  0.73440067  0.81840065  0.44490915  1
  F  F13  1  0.40802789  0.44761464  0.61794842  1
  F  F14  1  0.25407588  0.27270421  0.88240495  1
  F  F15  1  0.76663134  0.81416183  0.59843529  1
  F  F16  1  0.60116905  0.62163575  0.71218062  1
  F  F17  1  0.76881618  0.78213700  0.79594704  1
  F  F18  1  0.39189606  0.43723592  0.96540460  1
  F  F19  1  0.56661169  0.61289550  0.04282982  1
