# generated using pymatgen
data_Li2Nb2Fe3O10
_symmetry_space_group_name_H-M   'P 1'
_cell_length_a   5.35120901
_cell_length_b   5.20176423
_cell_length_c   8.29168522
_cell_angle_alpha   79.94627508
_cell_angle_beta   68.70481715
_cell_angle_gamma   101.77953379
_symmetry_Int_Tables_number   1
_chemical_formula_structural   Li2Nb2Fe3O10
_chemical_formula_sum   'Li2 Nb2 Fe3 O10'
_cell_volume   202.53970166
_cell_formula_units_Z   1
loop_
 _symmetry_equiv_pos_site_id
 _symmetry_equiv_pos_as_xyz
  1  'x, y, z'
loop_
 _atom_site_type_symbol
 _atom_site_label
 _atom_site_symmetry_multiplicity
 _atom_site_fract_x
 _atom_site_fract_y
 _atom_site_fract_z
 _atom_site_occupancy
  Li  Li0  1  0.04440227  0.57261389  0.58975059  1
  Li  Li1  1  0.36856282  0.43841202  0.23698377  1
  Nb  Nb2  1  0.62945179  0.95467647  0.31078284  1
  Nb  Nb3  1  0.41829514  0.06768771  0.68078775  1
  Fe  Fe4  1  0.01906383  0.49712794  0.98926143  1
  Fe  Fe5  1  0.20791971  0.97343346  0.12541948  1
  Fe  Fe6  1  0.77935976  0.97858343  0.89601287  1
  O  O7  1  0.26388996  0.75773690  0.33037132  1
  O  O8  1  0.03115691  0.76373187  0.77564454  1
  O  O9  1  0.44608028  0.22637699  0.44680408  1
  O  O10  1  0.63004419  0.21568785  0.07013753  1
  O  O11  1  0.17242359  0.24266349  0.84049714  1
  O  O12  1  0.80715426  0.75182047  0.13172997  1
  O  O13  1  0.39053167  0.77823116  0.93360337  1
  O  O14  1  0.57980661  0.79200118  0.54636459  1
  O  O15  1  0.00962720  0.25246273  0.20859219  1
  O  O16  1  0.76504502  0.22381144  0.68811157  1
