# generated using pymatgen
data_Li2FeSi3O8
_symmetry_space_group_name_H-M   'P 1'
_cell_length_a   6.80989336
_cell_length_b   6.40792595
_cell_length_c   8.40897448
_cell_angle_alpha   90.00000000
_cell_angle_beta   90.00000000
_cell_angle_gamma   106.74586304
_symmetry_Int_Tables_number   1
_chemical_formula_structural   Li2FeSi3O8
_chemical_formula_sum   'Li4 Fe2 Si6 O16'
_cell_volume   351.38354119
_cell_formula_units_Z   2
loop_
 _symmetry_equiv_pos_site_id
 _symmetry_equiv_pos_as_xyz
  1  'x, y, z'
loop_
 _atom_site_type_symbol
 _atom_site_label
 _atom_site_symmetry_multiplicity
 _atom_site_fract_x
 _atom_site_fract_y
 _atom_site_fract_z
 _atom_site_occupancy
  Li  Li0  1  0.21207433  0.85553874  0.31580274  1
  Li  Li1  1  0.51617985  0.56064333  0.81543531  1
  Li  Li2  1  0.48382015  0.43935667  0.31543531  1
  Li  Li3  1  0.78792567  0.14446126  0.81580274  1
  Fe  Fe4  1  0.40027506  0.03236041  0.99857103  1
  Fe  Fe5  1  0.59972494  0.96763959  0.49857103  1
  Si  Si6  1  0.02090593  0.41678898  0.51567962  1
  Si  Si7  1  0.09284646  0.23987256  0.18626622  1
  Si  Si8  1  0.27986192  0.16875688  0.66445432  1
  Si  Si9  1  0.72013808  0.83124312  0.16445432  1
  Si  Si10  1  0.90715354  0.76012744  0.68626622  1
  Si  Si11  1  0.97909407  0.58321102  0.01567962  1
  O  O12  1  0.06357517  0.99741694  0.73721408  1
  O  O13  1  0.99568300  0.33115621  0.02975942  1
  O  O14  1  0.09895038  0.41517829  0.33044083  1
  O  O15  1  0.18847729  0.76047051  0.06310427  1
  O  O16  1  0.21606070  0.39749748  0.62782406  1
  O  O17  1  0.32307925  0.22593572  0.16378786  1
  O  O18  1  0.34905745  0.07598449  0.50108599  1
  O  O19  1  0.45067289  0.23225824  0.80572524  1
  O  O20  1  0.54932711  0.76774176  0.30572524  1
  O  O21  1  0.65094255  0.92401551  0.00108599  1
  O  O22  1  0.67692075  0.77406428  0.66378786  1
  O  O23  1  0.78393930  0.60250252  0.12782406  1
  O  O24  1  0.81152271  0.23952949  0.56310427  1
  O  O25  1  0.90104962  0.58482171  0.83044083  1
  O  O26  1  0.00431700  0.66884379  0.52975942  1
  O  O27  1  0.93642483  0.00258306  0.23721408  1
