# generated using pymatgen
data_Ca2NdF7
_symmetry_space_group_name_H-M   'P 1'
_cell_length_a   3.94545507
_cell_length_b   3.95345780
_cell_length_c   36.81919963
_cell_angle_alpha   61.10564765
_cell_angle_beta   61.78951845
_cell_angle_gamma   59.93604281
_symmetry_Int_Tables_number   1
_chemical_formula_structural   Ca2NdF7
_chemical_formula_sum   'Ca6 Nd3 F21'
_cell_volume   414.52169091
_cell_formula_units_Z   3
loop_
 _symmetry_equiv_pos_site_id
 _symmetry_equiv_pos_as_xyz
  1  'x, y, z'
loop_
 _atom_site_type_symbol
 _atom_site_label
 _atom_site_symmetry_multiplicity
 _atom_site_fract_x
 _atom_site_fract_y
 _atom_site_fract_z
 _atom_site_occupancy
  Ca  Ca0  1  0.97812980  0.93081221  0.01768813  1
  Ca  Ca1  1  0.02648539  0.92343653  0.12520758  1
  Ca  Ca2  1  0.08063385  0.93432115  0.22794756  1
  Ca  Ca3  1  0.14443187  0.93497756  0.33183166  1
  Ca  Ca4  1  0.19390099  0.94120428  0.43611894  1
  Ca  Ca5  1  0.95788070  0.90471108  0.91463276  1
  Nd  Nd6  1  0.05790102  0.95385648  0.55944100  1
  Nd  Nd7  1  0.94530451  0.89761261  0.80650062  1
  Nd  Nd8  1  0.98505452  0.93035721  0.68373592  1
  F  F9  1  0.76576202  0.68205546  0.09665992  1
  F  F10  1  0.29293713  0.18395008  0.14883183  1
  F  F11  1  0.82467765  0.68789651  0.20002561  1
  F  F12  1  0.34921278  0.19277477  0.25178819  1
  F  F13  1  0.61679111  0.35689496  0.40787147  1
  F  F14  1  0.88801408  0.69054365  0.30351783  1
  F  F15  1  0.41792503  0.19606172  0.35453742  1
  F  F16  1  0.38891283  0.27874493  0.56157208  1
  F  F17  1  0.80140218  0.53973486  0.45782864  1
  F  F18  1  0.89922976  0.73186257  0.51535151  1
  F  F19  1  0.30324331  0.24558776  0.68944421  1
  F  F20  1  0.60977877  0.50715891  0.59736403  1
  F  F21  1  0.80431674  0.71881478  0.63979355  1
  F  F22  1  0.25629166  0.20810452  0.81404544  1
  F  F23  1  0.54113150  0.48200584  0.72158235  1
  F  F24  1  0.74944167  0.69148331  0.76297096  1
  F  F25  1  0.21873668  0.16862079  0.93810125  1
  F  F26  1  0.50235438  0.45226866  0.84356288  1
  F  F27  1  0.71197767  0.65846731  0.88556594  1
  F  F28  1  0.39142875  0.35028514  0.98964527  1
  F  F29  1  0.58171164  0.53039435  0.03961345  1
