# generated using pymatgen
data_Li4Ti2Mn7O18
_symmetry_space_group_name_H-M   'P 1'
_cell_length_a   9.04583430
_cell_length_b   25.01948317
_cell_length_c   2.94834832
_cell_angle_alpha   90.00005731
_cell_angle_beta   89.99999978
_cell_angle_gamma   90.17788509
_symmetry_Int_Tables_number   1
_chemical_formula_structural   Li4Ti2Mn7O18
_chemical_formula_sum   'Li8 Ti4 Mn14 O36'
_cell_volume   667.27316453
_cell_formula_units_Z   2
loop_
 _symmetry_equiv_pos_site_id
 _symmetry_equiv_pos_as_xyz
  1  'x, y, z'
loop_
 _atom_site_type_symbol
 _atom_site_label
 _atom_site_symmetry_multiplicity
 _atom_site_fract_x
 _atom_site_fract_y
 _atom_site_fract_z
 _atom_site_occupancy
  Li  Li0  1  0.19006302  0.98921094  0.99999516  1
  Li  Li1  1  0.19350357  0.20647483  0.00000334  1
  Li  Li2  1  0.30690412  0.70650129  0.00000195  1
  Li  Li3  1  0.30983674  0.48947453  0.00000149  1
  Li  Li4  1  0.69013143  0.51072982  0.00000110  1
  Li  Li5  1  0.69369075  0.29348277  0.00000240  1
  Li  Li6  1  0.80653185  0.79343603  0.00000199  1
  Li  Li7  1  0.81011997  0.01066000  0.99999587  1
  Ti  Ti8  1  0.00318211  0.10398932  0.99999917  1
  Ti  Ti9  1  0.49584359  0.60372700  0.00000165  1
  Ti  Ti10  1  0.50413641  0.39622755  0.00000079  1
  Ti  Ti11  1  0.99676160  0.89594354  -0.00000025  1
  Mn  Mn12  1  0.99979342  0.50003760  0.00000035  1
  Mn  Mn13  1  0.02388809  0.31011483  0.00000094  1
  Mn  Mn14  1  0.14333315  0.58608478  0.50000046  1
  Mn  Mn15  1  0.14727936  0.80593505  0.49999876  1
  Mn  Mn16  1  0.35293528  0.30615772  0.50000288  1
  Mn  Mn17  1  0.35592360  0.08607108  0.49999120  1
  Mn  Mn18  1  0.47598699  0.81018235  0.99999709  1
  Mn  Mn19  1  0.49995559  0.00003752  0.00001337  1
  Mn  Mn20  1  0.52396290  0.18994090  0.99999838  1
  Mn  Mn21  1  0.64389050  0.91402460  0.49999167  1
  Mn  Mn22  1  0.64731042  0.69390911  0.50000138  1
  Mn  Mn23  1  0.85269496  0.19392971  0.50000358  1
  Mn  Mn24  1  0.85628597  0.41391976  0.49999968  1
  Mn  Mn25  1  0.97599427  0.68965301  0.00000003  1
  O  O26  1  0.99846585  0.42367773  0.99999530  1
  O  O27  1  0.00080679  0.57632048  0.00000972  1
  O  O28  1  0.05398141  0.94069464  0.49999923  1
  O  O29  1  0.04902474  0.16058590  0.49999656  1
  O  O30  1  0.10100382  0.66172355  0.50000098  1
  O  O31  1  0.10539817  0.75852279  0.00000023  1
  O  O32  1  0.16030847  0.50868887  0.50000297  1
  O  O33  1  0.14881415  0.28137275  0.49999963  1
  O  O34  1  0.18799617  0.85492988  -0.00000060  1
  O  O35  1  0.21002947  0.08777954  0.99996221  1
  O  O36  1  0.29194743  0.58795830  0.99999578  1
  O  O37  1  0.31189743  0.35496330  0.00000004  1
  O  O38  1  0.35125509  0.78135022  0.49999702  1
  O  O39  1  0.34034477  0.00830586  0.50000115  1
  O  O40  1  0.39455003  0.25867097  0.99999887  1
  O  O41  1  0.39905497  0.16198818  0.50000005  1
  O  O42  1  0.45123696  0.66077832  0.50000083  1
  O  O43  1  0.44592988  0.44066223  0.50000078  1
  O  O44  1  0.49754610  0.07679282  0.00003881  1
  O  O45  1  0.50219229  0.92330969  0.00002524  1
  O  O46  1  0.55436556  0.55928989  0.50000065  1
  O  O47  1  0.54909600  0.33928579  0.50000015  1
  O  O48  1  0.60076361  0.83817118  0.49999852  1
  O  O49  1  0.60577190  0.74139787  0.00000118  1
  O  O50  1  0.65961335  0.99166021  0.50000045  1
  O  O51  1  0.64885348  0.21868929  0.49999795  1
  O  O52  1  0.68826250  0.64512193  0.00000087  1
  O  O53  1  0.70822107  0.41200577  0.00000495  1
  O  O54  1  0.78976017  0.91231708  0.99997261  1
  O  O55  1  0.81186956  0.14498082  0.99999785  1
  O  O56  1  0.85160240  0.71850269  0.50000110  1
  O  O57  1  0.83954814  0.49144146  0.50000055  1
  O  O58  1  0.89465786  0.24137164  0.00000037  1
  O  O59  1  0.89895525  0.33826727  0.49999951  1
  O  O60  1  0.95088219  0.83933312  0.49999715  1
  O  O61  1  0.94605330  0.05923236  0.49999691  1
