# generated using pymatgen
data_Mg2(TeO3)3
_symmetry_space_group_name_H-M   'P 1'
_cell_length_a   9.18411539
_cell_length_b   7.25875756
_cell_length_c   12.59304160
_cell_angle_alpha   90.00000000
_cell_angle_beta   121.94867922
_cell_angle_gamma   90.00000000
_symmetry_Int_Tables_number   1
_chemical_formula_structural   Mg2(TeO3)3
_chemical_formula_sum   'Mg8 Te12 O36'
_cell_volume   712.35024740
_cell_formula_units_Z   4
loop_
 _symmetry_equiv_pos_site_id
 _symmetry_equiv_pos_as_xyz
  1  'x, y, z'
loop_
 _atom_site_type_symbol
 _atom_site_label
 _atom_site_symmetry_multiplicity
 _atom_site_fract_x
 _atom_site_fract_y
 _atom_site_fract_z
 _atom_site_occupancy
  Mg  Mg0  1  0.39551535  0.13088946  0.85907033  1
  Mg  Mg1  1  0.40481297  0.62303893  0.86229145  1
  Mg  Mg2  1  0.59518703  0.12303893  0.63770855  1
  Mg  Mg3  1  0.60448465  0.63088946  0.64092967  1
  Mg  Mg4  1  0.39551535  0.36911054  0.35907033  1
  Mg  Mg5  1  0.40481297  0.87696107  0.36229145  1
  Mg  Mg6  1  0.59518703  0.37696107  0.13770855  1
  Mg  Mg7  1  0.60448465  0.86911054  0.14092967  1
  Te  Te8  1  0.00435350  0.87307908  0.75146868  1
  Te  Te9  1  0.22323588  0.88521229  0.55949926  1
  Te  Te10  1  0.23967126  0.38086021  0.57147512  1
  Te  Te11  1  0.00435350  0.62692092  0.25146868  1
  Te  Te12  1  0.76032874  0.88086021  0.92852488  1
  Te  Te13  1  0.77676412  0.38521229  0.94050074  1
  Te  Te14  1  0.22323588  0.61478771  0.05949926  1
  Te  Te15  1  0.23967126  0.11913979  0.07147512  1
  Te  Te16  1  0.99564650  0.37307908  0.74853132  1
  Te  Te17  1  0.76032874  0.61913979  0.42852488  1
  Te  Te18  1  0.77676412  0.11478771  0.44050074  1
  Te  Te19  1  0.99564650  0.12692092  0.24853132  1
  O  O20  1  0.06935938  0.43361791  0.92511598  1
  O  O21  1  0.08308572  0.80827020  0.92571882  1
  O  O22  1  0.04066878  0.12385131  0.81441100  1
  O  O23  1  0.22759288  0.38653431  0.79214102  1
  O  O24  1  0.23847211  0.86653921  0.79481453  1
  O  O25  1  0.06935938  0.06638109  0.42511598  1
  O  O26  1  0.08308572  0.69172980  0.42571882  1
  O  O27  1  0.04066878  0.37614869  0.31441100  1
  O  O28  1  0.32702701  0.15547990  0.67029967  1
  O  O29  1  0.36252930  0.58755824  0.67726830  1
  O  O30  1  0.58264142  0.85947620  0.96629929  1
  O  O31  1  0.58233631  0.38808746  0.95809814  1
  O  O32  1  0.41766369  0.88808746  0.54190186  1
  O  O33  1  0.41735858  0.35947620  0.53370071  1
  O  O34  1  0.22759288  0.11346569  0.29214102  1
  O  O35  1  0.63747070  0.08755824  0.82273170  1
  O  O36  1  0.23847211  0.63346079  0.29481453  1
  O  O37  1  0.67297299  0.65547990  0.82970033  1
  O  O38  1  0.32702701  0.34452010  0.17029967  1
  O  O39  1  0.76152789  0.36653921  0.70518547  1
  O  O40  1  0.36252930  0.91244176  0.17726830  1
  O  O41  1  0.77240712  0.88653431  0.70785898  1
  O  O42  1  0.58264142  0.64052380  0.46629929  1
  O  O43  1  0.58233631  0.11191254  0.45809814  1
  O  O44  1  0.41766369  0.61191254  0.04190186  1
  O  O45  1  0.41735858  0.14052380  0.03370071  1
  O  O46  1  0.63747070  0.41244176  0.32273170  1
  O  O47  1  0.67297299  0.84452010  0.32970033  1
  O  O48  1  0.95933122  0.62385131  0.68558900  1
  O  O49  1  0.91691428  0.30827020  0.57428118  1
  O  O50  1  0.93064062  0.93361791  0.57488402  1
  O  O51  1  0.76152789  0.13346079  0.20518547  1
  O  O52  1  0.77240712  0.61346569  0.20785898  1
  O  O53  1  0.95933122  0.87614869  0.18558900  1
  O  O54  1  0.91691428  0.19172980  0.07428118  1
  O  O55  1  0.93064062  0.56638209  0.07488402  1
