# generated using pymatgen
data_Li4B2O5
_symmetry_space_group_name_H-M   'P 1'
_cell_length_a   4.87901860
_cell_length_b   7.09479154
_cell_length_c   7.02131803
_cell_angle_alpha   108.25248483
_cell_angle_beta   104.96082680
_cell_angle_gamma   110.48380929
_symmetry_Int_Tables_number   1
_chemical_formula_structural   Li4B2O5
_chemical_formula_sum   'Li8 B4 O10'
_cell_volume   196.88428327
_cell_formula_units_Z   2
loop_
 _symmetry_equiv_pos_site_id
 _symmetry_equiv_pos_as_xyz
  1  'x, y, z'
loop_
 _atom_site_type_symbol
 _atom_site_label
 _atom_site_symmetry_multiplicity
 _atom_site_fract_x
 _atom_site_fract_y
 _atom_site_fract_z
 _atom_site_occupancy
  Li  Li0  1  0.17808632  0.20504599  0.57551480  1
  Li  Li1  1  0.47532511  0.97218183  0.30998504  1
  Li  Li2  1  0.44608242  0.65609486  0.66342319  1
  Li  Li3  1  0.33570232  0.30640529  0.96942135  1
  Li  Li4  1  0.66429768  0.69359471  0.03057865  1
  Li  Li5  1  0.55391758  0.34390514  0.33657681  1
  Li  Li6  1  0.52467489  0.02781817  0.69001496  1
  Li  Li7  1  0.82191368  0.79495401  0.42448520  1
  B  B8  1  0.03007075  0.91860725  0.85734252  1
  B  B9  1  0.07946500  0.53053014  0.27560351  1
  B  B10  1  0.92053500  0.46946986  0.72439649  1
  B  B11  1  0.96992925  0.08139275  0.14265748  1
  O  O12  1  0.22051950  0.48514539  0.80461708  1
  O  O13  1  0.12650437  0.33902686  0.24926989  1
  O  O14  1  0.13932722  0.00969282  0.72360515  1
  O  O15  1  0.35944904  0.73287800  0.40774421  1
  O  O16  1  0.75528569  0.96255146  0.90179574  1
  O  O17  1  0.24471431  0.03744854  0.09820426  1
  O  O18  1  0.64055096  0.26712200  0.59225579  1
  O  O19  1  0.86067278  0.99030718  0.27639485  1
  O  O20  1  0.87349563  0.66097314  0.75073011  1
  O  O21  1  0.77948050  0.51485461  0.19538292  1
