# generated using pymatgen
data_NaBiAsCO7
_symmetry_space_group_name_H-M   'P 1'
_cell_length_a   9.72474091
_cell_length_b   7.21278357
_cell_length_c   5.63077454
_cell_angle_alpha   90.00000000
_cell_angle_beta   89.38069723
_cell_angle_gamma   90.00000000
_symmetry_Int_Tables_number   1
_chemical_formula_structural   NaBiAsCO7
_chemical_formula_sum   'Na2 Bi2 As2 C2 O14'
_cell_volume   394.93325844
_cell_formula_units_Z   2
loop_
 _symmetry_equiv_pos_site_id
 _symmetry_equiv_pos_as_xyz
  1  'x, y, z'
loop_
 _atom_site_type_symbol
 _atom_site_label
 _atom_site_symmetry_multiplicity
 _atom_site_fract_x
 _atom_site_fract_y
 _atom_site_fract_z
 _atom_site_occupancy
  Na  Na0  1  0.21082502  0.49062416  0.23210076  1
  Na  Na1  1  0.78917498  0.99062416  0.76789924  1
  Bi  Bi2  1  0.35549385  0.76495993  0.78913871  1
  Bi  Bi3  1  0.64450615  0.26495993  0.21086129  1
  As  As4  1  0.42012206  0.25801706  0.71932514  1
  As  As5  1  0.57987794  0.75801706  0.28067486  1
  C  C6  1  0.07167217  0.73527130  0.72238517  1
  C  C7  1  0.92832783  0.23527130  0.27761483  1
  O  O8  1  0.05567062  0.25918716  0.30602312  1
  O  O9  1  0.12640464  0.73533407  0.93456534  1
  O  O10  1  0.15499321  0.71323272  0.54001228  1
  O  O11  1  0.31930992  0.07361569  0.80542338  1
  O  O12  1  0.33720603  0.44536520  0.84387031  1
  O  O13  1  0.41192206  0.73701135  0.17884186  1
  O  O14  1  0.43252582  0.28523236  0.41565743  1
  O  O15  1  0.56747418  0.78523236  0.58434257  1
  O  O16  1  0.58807794  0.23701135  0.82115814  1
  O  O17  1  0.66279397  0.94536520  0.15612969  1
  O  O18  1  0.68069008  0.57361569  0.19457662  1
  O  O19  1  0.84500679  0.21323272  0.45998772  1
  O  O20  1  0.87359536  0.23533407  0.06543466  1
  O  O21  1  0.94432938  0.75918716  0.69397688  1
