# generated using pymatgen
data_Li4TiMn8O18
_symmetry_space_group_name_H-M   'P 1'
_cell_length_a   9.04412725
_cell_length_b   25.15065486
_cell_length_c   2.92310434
_cell_angle_alpha   90.00004072
_cell_angle_beta   90.00011999
_cell_angle_gamma   89.98778343
_symmetry_Int_Tables_number   1
_chemical_formula_structural   Li4TiMn8O18
_chemical_formula_sum   'Li8 Ti2 Mn16 O36'
_cell_volume   664.90602683
_cell_formula_units_Z   2
loop_
 _symmetry_equiv_pos_site_id
 _symmetry_equiv_pos_as_xyz
  1  'x, y, z'
loop_
 _atom_site_type_symbol
 _atom_site_label
 _atom_site_symmetry_multiplicity
 _atom_site_fract_x
 _atom_site_fract_y
 _atom_site_fract_z
 _atom_site_occupancy
  Li  Li0  1  0.17569226  0.99918871  0.99999813  1
  Li  Li1  1  0.19236799  0.20693059  0.99999972  1
  Li  Li2  1  0.30735712  0.70686738  0.99999893  1
  Li  Li3  1  0.32400667  0.49939452  0.00000052  1
  Li  Li4  1  0.68789182  0.52078204  0.00000052  1
  Li  Li5  1  0.68742631  0.29287388  -0.00000005  1
  Li  Li6  1  0.81235047  0.79292021  0.99999953  1
  Li  Li7  1  0.81221371  0.02074385  0.99999966  1
  Ti  Ti8  1  0.49854350  0.39480853  0.00000020  1
  Ti  Ti9  1  0.00132698  0.89503973  0.00000055  1
  Mn  Mn10  1  0.99617152  0.50062771  0.00000165  1
  Mn  Mn11  1  0.00549493  0.10630788  0.00000074  1
  Mn  Mn12  1  0.01955606  0.30797954  0.00000011  1
  Mn  Mn13  1  0.14316851  0.58558333  0.49999984  1
  Mn  Mn14  1  0.14981459  0.80494340  0.50000189  1
  Mn  Mn15  1  0.35017001  0.30471866  0.50000030  1
  Mn  Mn16  1  0.35678160  0.08564309  0.50000219  1
  Mn  Mn17  1  0.48020597  0.80788264  -0.00000056  1
  Mn  Mn18  1  0.49446431  0.60634975  0.99999676  1
  Mn  Mn19  1  0.50413934  0.00072888  0.99999727  1
  Mn  Mn20  1  0.52040742  0.18747094  0.99999937  1
  Mn  Mn21  1  0.65015815  0.91339373  0.49999923  1
  Mn  Mn22  1  0.65367711  0.69230919  0.49999924  1
  Mn  Mn23  1  0.84648653  0.19224673  0.49999645  1
  Mn  Mn24  1  0.85007423  0.41351871  0.50000111  1
  Mn  Mn25  1  0.97973641  0.68762589  0.00000058  1
  O  O26  1  0.99061993  0.42414153  0.99999725  1
  O  O27  1  0.99962372  0.57696493  0.00000126  1
  O  O28  1  0.05256387  0.93931542  0.50000083  1
  O  O29  1  0.04505480  0.16019695  0.50000047  1
  O  O30  1  0.10709229  0.66188755  0.50000332  1
  O  O31  1  0.10849903  0.75748655  0.00000000  1
  O  O32  1  0.15427155  0.50822232  0.49999787  1
  O  O33  1  0.14605170  0.27963213  0.50000090  1
  O  O34  1  0.19004562  0.85400722  0.00000077  1
  O  O35  1  0.21638261  0.08639725  -0.00000099  1
  O  O36  1  0.28334206  0.58660037  0.00000069  1
  O  O37  1  0.30996745  0.35386938  0.99999988  1
  O  O38  1  0.35374980  0.77967684  0.50000040  1
  O  O39  1  0.34696458  0.00810534  0.50000241  1
  O  O40  1  0.39146805  0.25730035  0.99999984  1
  O  O41  1  0.39278447  0.16184172  0.49999916  1
  O  O42  1  0.45512397  0.66022217  0.50000105  1
  O  O43  1  0.44768082  0.43909666  0.50000070  1
  O  O44  1  0.50012564  0.07718739  0.99999936  1
  O  O45  1  0.50915267  0.92434580  0.99999443  1
  O  O46  1  0.54207062  0.55827717  0.49999972  1
  O  O47  1  0.54597348  0.33782900  0.50000051  1
  O  O48  1  0.60123193  0.83673461  0.50000035  1
  O  O49  1  0.61280503  0.74026280  0.00000137  1
  O  O50  1  0.65860652  0.99476798  0.49999162  1
  O  O51  1  0.64246427  0.21637844  0.50000135  1
  O  O52  1  0.69600281  0.64427379  0.00000147  1
  O  O53  1  0.70834202  0.40976444  0.00000512  1
  O  O54  1  0.79235947  0.91010319  0.00000007  1
  O  O55  1  0.80426356  0.14416417  0.99999916  1
  O  O56  1  0.85775488  0.71654056  0.50000233  1
  O  O57  1  0.83985496  0.49394045  0.50000331  1
  O  O58  1  0.88722467  0.24026095  0.00000014  1
  O  O59  1  0.89867163  0.33712288  0.50000089  1
  O  O60  1  0.95417960  0.83796845  0.50000047  1
  O  O61  1  0.95794644  0.05822772  0.49999867  1
