# generated using pymatgen
data_Co3Sb(PO4)4
_symmetry_space_group_name_H-M   'P 1'
_cell_length_a   4.90420284
_cell_length_b   9.96937577
_cell_length_c   5.98397424
_cell_angle_alpha   90.00000000
_cell_angle_beta   90.00000000
_cell_angle_gamma   90.16379479
_symmetry_Int_Tables_number   1
_chemical_formula_structural   Co3Sb(PO4)4
_chemical_formula_sum   'Co3 Sb1 P4 O16'
_cell_volume   292.56632151
_cell_formula_units_Z   1
loop_
 _symmetry_equiv_pos_site_id
 _symmetry_equiv_pos_as_xyz
  1  'x, y, z'
loop_
 _atom_site_type_symbol
 _atom_site_label
 _atom_site_symmetry_multiplicity
 _atom_site_fract_x
 _atom_site_fract_y
 _atom_site_fract_z
 _atom_site_occupancy
  Co  Co0  1  0.03027646  0.73273976  0.75000000  1
  Co  Co1  1  0.45353568  0.22121009  0.75000000  1
  Co  Co2  1  0.54848248  0.76522253  0.25000000  1
  Sb  Sb3  1  0.95929100  0.28422762  0.25000000  1
  P  P4  1  0.09523456  0.60267547  0.25000000  1
  P  P5  1  0.38733658  0.09519448  0.25000000  1
  P  P6  1  0.59719273  0.89759808  0.75000000  1
  P  P7  1  0.92666044  0.41241620  0.75000000  1
  O  O8  1  0.18858564  0.44353241  0.25000000  1
  O  O9  1  0.23711473  0.66561333  0.04461855  1
  O  O10  1  0.23711473  0.66561333  0.45538145  1
  O  O11  1  0.22846511  0.38448362  0.75000000  1
  O  O12  1  0.28703099  0.87143858  0.75000000  1
  O  O13  1  0.23265942  0.17337263  0.05311508  1
  O  O14  1  0.23265942  0.17337263  0.44688492  1
  O  O15  1  0.34669392  0.94742558  0.25000000  1
  O  O16  1  0.64223530  0.04977379  0.75000000  1
  O  O17  1  0.74577019  0.82887062  0.54844062  1
  O  O18  1  0.74577019  0.82887062  0.95155938  1
  O  O19  1  0.69993537  0.13045580  0.25000000  1
  O  O20  1  0.78730429  0.60137057  0.25000000  1
  O  O21  1  0.77329093  0.33312611  0.54698785  1
  O  O22  1  0.77329093  0.33312611  0.95301215  1
  O  O23  1  0.84406891  0.55827004  0.75000000  1
