# generated using pymatgen
data_Zn3Ni7O10
_symmetry_space_group_name_H-M   'P 1'
_cell_length_a   3.00985825
_cell_length_b   3.00985825
_cell_length_c   24.56463613
_cell_angle_alpha   93.51237272
_cell_angle_beta   90.00000000
_cell_angle_gamma   120.00000000
_symmetry_Int_Tables_number   1
_chemical_formula_structural   Zn3Ni7O10
_chemical_formula_sum   'Zn3 Ni7 O10'
_cell_volume   192.23994657
_cell_formula_units_Z   1
loop_
 _symmetry_equiv_pos_site_id
 _symmetry_equiv_pos_as_xyz
  1  'x, y, z'
loop_
 _atom_site_type_symbol
 _atom_site_label
 _atom_site_symmetry_multiplicity
 _atom_site_fract_x
 _atom_site_fract_y
 _atom_site_fract_z
 _atom_site_occupancy
  Zn  Zn0  1  -0.00005961  -0.00011922  -0.00017983  1
  Zn  Zn1  1  0.10000000  0.20000000  0.30000000  1
  Zn  Zn2  1  0.20005961  0.40011922  0.60017983  1
  Ni  Ni3  1  0.39976881  0.79953862  0.19930743  1
  Ni  Ni4  1  0.70019013  0.40038126  0.10057140  1
  Ni  Ni5  1  0.80023119  0.60046138  0.40069257  1
  Ni  Ni6  1  0.49980987  0.99961874  0.49942860  1
  Ni  Ni7  1  0.90037508  0.80075016  0.70112524  1
  Ni  Ni8  1  0.29962492  0.59924984  0.89887476  1
  Ni  Ni9  1  0.60000000  0.20000000  0.80000000  1
  O  O10  1  0.35047323  0.70094746  0.05142068  1
  O  O11  1  0.04998922  0.09997743  0.14996665  1
  O  O12  1  0.74950844  0.49901589  0.24852433  1
  O  O13  1  0.45049156  0.90098411  0.35147567  1
  O  O14  1  0.15001078  0.30002257  0.45003335  1
  O  O15  1  0.84952677  0.69905254  0.54857932  1
  O  O16  1  0.55057993  0.10115885  0.65173878  1
  O  O17  1  0.25019049  0.50038098  0.75057146  1
  O  O18  1  0.94980951  0.89961902  0.84942854  1
  O  O19  1  0.64942007  0.29884115  0.94826122  1
