# generated using pymatgen
data_Li3VS4
_symmetry_space_group_name_H-M   'P 1'
_cell_length_a   12.67818211
_cell_length_b   12.67818211
_cell_length_c   7.41486506
_cell_angle_alpha   90.00000000
_cell_angle_beta   90.00000000
_cell_angle_gamma   90.00000000
_symmetry_Int_Tables_number   1
_chemical_formula_structural   Li3VS4
_chemical_formula_sum   'Li24 V8 S32'
_cell_volume   1191.83798671
_cell_formula_units_Z   8
loop_
 _symmetry_equiv_pos_site_id
 _symmetry_equiv_pos_as_xyz
  1  'x, y, z'
loop_
 _atom_site_type_symbol
 _atom_site_label
 _atom_site_symmetry_multiplicity
 _atom_site_fract_x
 _atom_site_fract_y
 _atom_site_fract_z
 _atom_site_occupancy
  Li  Li0  1  0.00000000  0.00000000  0.20879060  1
  Li  Li1  1  0.00000000  0.00000000  0.79120940  1
  Li  Li2  1  0.00000000  0.50000000  0.08324606  1
  Li  Li3  1  0.00000000  0.50000000  0.58324606  1
  Li  Li4  1  0.04801335  0.25422003  0.36082171  1
  Li  Li5  1  0.19994508  0.74692818  0.06933216  1
  Li  Li6  1  0.24578097  0.45198665  0.86082171  1
  Li  Li7  1  0.25307182  0.19994508  0.93066784  1
  Li  Li8  1  0.24692818  0.69994508  0.56933216  1
  Li  Li9  1  0.25422003  0.95198665  0.63917829  1
  Li  Li10  1  0.30005492  0.24692818  0.43066784  1
  Li  Li11  1  0.45198665  0.75421903  0.13917829  1
  Li  Li12  1  0.50000000  0.50000000  0.29120940  1
  Li  Li13  1  0.50000000  0.50000000  0.70879060  1
  Li  Li14  1  0.50000000  0.00000000  0.41675394  1
  Li  Li15  1  0.50000000  0.00000000  0.91675394  1
  Li  Li16  1  0.54801335  0.24578097  0.13917829  1
  Li  Li17  1  0.69994508  0.75307182  0.43066784  1
  Li  Li18  1  0.74578097  0.04801335  0.63917829  1
  Li  Li19  1  0.75307182  0.30005492  0.56933216  1
  Li  Li20  1  0.74692818  0.80005492  0.93066784  1
  Li  Li21  1  0.75421903  0.54801335  0.86082171  1
  Li  Li22  1  0.80005492  0.25307182  0.06933216  1
  Li  Li23  1  0.95198665  0.74578097  0.36082171  1
  V  V24  1  0.01149271  0.73694044  0.78244645  1
  V  V25  1  0.23694044  0.51149271  0.28244645  1
  V  V26  1  0.26305956  0.01149271  0.21755355  1
  V  V27  1  0.48850729  0.23694044  0.71755355  1
  V  V28  1  0.51149271  0.76305956  0.71755355  1
  V  V29  1  0.73694044  0.98850729  0.21755355  1
  V  V30  1  0.76305956  0.48850729  0.28244645  1
  V  V31  1  0.98850729  0.26305956  0.78244645  1
  S  S32  1  -0.00018238  0.18308324  0.03584937  1
  S  S33  1  0.08201866  0.84609212  0.59611896  1
  S  S34  1  0.11145549  0.60058990  0.82284180  1
  S  S35  1  0.10058990  0.61145549  0.32284180  1
  S  S36  1  0.14061420  0.30967645  0.67517939  1
  S  S37  1  0.15390788  0.08201866  0.40388104  1
  S  S38  1  0.18308324  0.00018238  0.96415063  1
  S  S39  1  0.19032355  0.35938580  0.17517939  1
  S  S40  1  0.30967645  0.85938580  0.32482061  1
  S  S41  1  0.31691676  0.50018238  0.53584937  1
  S  S42  1  0.34609212  0.58201866  0.09611896  1
  S  S43  1  0.35938580  0.80967645  0.82482061  1
  S  S44  1  0.39941010  0.11145549  0.17715820  1
  S  S45  1  0.38854451  0.10058990  0.67715820  1
  S  S46  1  0.41798134  0.34609212  0.90388104  1
  S  S47  1  0.50018238  0.68308324  0.46415063  1
  S  S48  1  0.49981762  0.31691676  0.46415063  1
  S  S49  1  0.58201866  0.65390788  0.90388104  1
  S  S50  1  0.61145549  0.89941010  0.67715820  1
  S  S51  1  0.60058990  0.88854451  0.17715820  1
  S  S52  1  0.64061420  0.19032355  0.82482061  1
  S  S53  1  0.65390788  0.41798134  0.09611896  1
  S  S54  1  0.68308324  0.49981762  0.53584937  1
  S  S55  1  0.69032355  0.14061420  0.32482061  1
  S  S56  1  0.80967645  0.64061420  0.17517939  1
  S  S57  1  0.81691676  -0.00018238  0.96415063  1
  S  S58  1  0.84609212  0.91798134  0.40388104  1
  S  S59  1  0.85938580  0.69032355  0.67517939  1
  S  S60  1  0.89941010  0.38854451  0.32284180  1
  S  S61  1  0.88854451  0.39941010  0.82284180  1
  S  S62  1  0.91798134  0.15390788  0.59611896  1
  S  S63  1  0.00018238  0.81691676  0.03584937  1
