# generated using pymatgen
data_LiCuPO4
_symmetry_space_group_name_H-M   'P 1'
_cell_length_a   7.37079561
_cell_length_b   14.07005470
_cell_length_c   5.87591502
_cell_angle_alpha   90.00000000
_cell_angle_beta   90.00000000
_cell_angle_gamma   90.00000000
_symmetry_Int_Tables_number   1
_chemical_formula_structural   LiCuPO4
_chemical_formula_sum   'Li8 Cu8 P8 O32'
_cell_volume   609.37644175
_cell_formula_units_Z   8
loop_
 _symmetry_equiv_pos_site_id
 _symmetry_equiv_pos_as_xyz
  1  'x, y, z'
loop_
 _atom_site_type_symbol
 _atom_site_label
 _atom_site_symmetry_multiplicity
 _atom_site_fract_x
 _atom_site_fract_y
 _atom_site_fract_z
 _atom_site_occupancy
  Li  Li0  1  0.19671104  0.21721798  0.15709722  1
  Li  Li1  1  0.19671104  0.28278202  0.65709722  1
  Li  Li2  1  0.30328896  0.78278202  0.65709722  1
  Li  Li3  1  0.30328896  0.71721798  0.15709722  1
  Li  Li4  1  0.69671104  0.21721798  0.34290278  1
  Li  Li5  1  0.69671104  0.28278202  0.84290278  1
  Li  Li6  1  0.80328896  0.71721798  0.34290278  1
  Li  Li7  1  0.80328896  0.78278202  0.84290278  1
  Cu  Cu8  1  0.18058350  0.53105533  0.37872881  1
  Cu  Cu9  1  0.18058350  0.96894467  0.87872881  1
  Cu  Cu10  1  0.31941650  0.03105533  0.37872881  1
  Cu  Cu11  1  0.31941650  0.46894467  0.87872881  1
  Cu  Cu12  1  0.68058350  0.53105533  0.12127119  1
  Cu  Cu13  1  0.68058350  0.96894467  0.62127119  1
  Cu  Cu14  1  0.81941650  0.03105533  0.12127119  1
  Cu  Cu15  1  0.81941650  0.46894467  0.62127119  1
  P  P16  1  0.03203683  0.62550123  0.90472340  1
  P  P17  1  0.03203683  0.87449877  0.40472340  1
  P  P18  1  0.46796317  0.12550123  0.90472340  1
  P  P19  1  0.46796317  0.37449877  0.40472340  1
  P  P20  1  0.53203683  0.62550123  0.59527660  1
  P  P21  1  0.53203683  0.87449877  0.09527660  1
  P  P22  1  0.96796317  0.12550123  0.59527660  1
  P  P23  1  0.96796317  0.37449877  0.09527660  1
  O  O24  1  0.99103377  0.06194200  0.81288641  1
  O  O25  1  0.99103377  0.43805800  0.31288641  1
  O  O26  1  0.09142226  0.77425152  0.34473343  1
  O  O27  1  0.09142226  0.72574848  0.84473343  1
  O  O28  1  0.14793985  0.13170304  0.45769501  1
  O  O29  1  0.14793985  0.36829696  0.95769501  1
  O  O30  1  0.18578612  0.57873584  0.05776259  1
  O  O31  1  0.18578612  0.92126416  0.55776259  1
  O  O32  1  0.31421388  0.07873584  0.05776259  1
  O  O33  1  0.31421388  0.42126416  0.55776259  1
  O  O34  1  0.35206115  0.63170304  0.45769501  1
  O  O35  1  0.35206115  0.86829696  0.95769501  1
  O  O36  1  0.40857774  0.22574848  0.84473343  1
  O  O37  1  0.40857774  0.27425152  0.34473343  1
  O  O38  1  0.50896623  0.56194200  0.81288641  1
  O  O39  1  0.50896623  0.93805800  0.31288641  1
  O  O40  1  0.49103377  0.43805800  0.18711359  1
  O  O41  1  0.49103377  0.06194200  0.68711359  1
  O  O42  1  0.59142226  0.72574848  0.65526657  1
  O  O43  1  0.59142226  0.77425152  0.15526657  1
  O  O44  1  0.64793885  0.13170304  0.04230499  1
  O  O45  1  0.64793885  0.36829696  0.54230499  1
  O  O46  1  0.68578612  0.57873584  0.44223741  1
  O  O47  1  0.68578612  0.92126416  0.94223741  1
  O  O48  1  0.81421388  0.07873584  0.44223741  1
  O  O49  1  0.81421388  0.42126416  0.94223741  1
  O  O50  1  0.85206115  0.63170304  0.04230499  1
  O  O51  1  0.85206115  0.86829696  0.54230499  1
  O  O52  1  0.90857774  0.22574848  0.65526657  1
  O  O53  1  0.90857774  0.27425152  0.15526657  1
  O  O54  1  0.00896623  0.56194200  0.68711359  1
  O  O55  1  0.00896623  0.93805800  0.18711359  1
