# generated using pymatgen
data_NaBiPCO7
_symmetry_space_group_name_H-M   'P 1'
_cell_length_a   9.49423575
_cell_length_b   6.97531866
_cell_length_c   5.45206202
_cell_angle_alpha   90.00000000
_cell_angle_beta   90.99491783
_cell_angle_gamma   90.00000000
_symmetry_Int_Tables_number   1
_chemical_formula_structural   NaBiPCO7
_chemical_formula_sum   'Na2 Bi2 P2 C2 O14'
_cell_volume   361.01011623
_cell_formula_units_Z   2
loop_
 _symmetry_equiv_pos_site_id
 _symmetry_equiv_pos_as_xyz
  1  'x, y, z'
loop_
 _atom_site_type_symbol
 _atom_site_label
 _atom_site_symmetry_multiplicity
 _atom_site_fract_x
 _atom_site_fract_y
 _atom_site_fract_z
 _atom_site_occupancy
  Na  Na0  1  0.21811903  0.48269068  0.23089931  1
  Na  Na1  1  0.78188097  0.98269068  0.76910069  1
  Bi  Bi2  1  0.36565343  0.76760170  0.78377942  1
  Bi  Bi3  1  0.63434657  0.26760170  0.21622058  1
  P  P4  1  0.41738409  0.26197043  0.72293946  1
  P  P5  1  0.58261591  0.76197043  0.27706054  1
  C  C6  1  0.07390522  0.73283697  0.72627811  1
  C  C7  1  0.92609478  0.23283697  0.27372189  1
  O  O8  1  0.05661276  0.24999597  0.31071733  1
  O  O9  1  0.13395949  0.73364106  0.94217555  1
  O  O10  1  0.15635422  0.71734423  0.53581994  1
  O  O11  1  0.32930286  0.08681600  0.80665072  1
  O  O12  1  0.34836586  0.43593042  0.85137549  1
  O  O13  1  0.42413768  0.74076000  0.18962557  1
  O  O14  1  0.41792311  0.28826253  0.44147171  1
  O  O15  1  0.58207689  0.78826253  0.55852829  1
  O  O16  1  0.57586232  0.24076000  0.81037443  1
  O  O17  1  0.65163414  0.93593042  0.14862451  1
  O  O18  1  0.67069714  0.58681600  0.19334928  1
  O  O19  1  0.84364578  0.21734423  0.46418006  1
  O  O20  1  0.86604051  0.23364106  0.05782445  1
  O  O21  1  0.94338724  0.74999597  0.68928267  1
