# generated using pymatgen
data_LiMnBO4
_symmetry_space_group_name_H-M   'P 1'
_cell_length_a   5.54899953
_cell_length_b   9.52000661
_cell_length_c   4.48769657
_cell_angle_alpha   89.99961920
_cell_angle_beta   90.00004429
_cell_angle_gamma   89.99998775
_symmetry_Int_Tables_number   1
_chemical_formula_structural   LiMnBO4
_chemical_formula_sum   'Li4 Mn4 B4 O16'
_cell_volume   237.06935762
_cell_formula_units_Z   4
loop_
 _symmetry_equiv_pos_site_id
 _symmetry_equiv_pos_as_xyz
  1  'x, y, z'
loop_
 _atom_site_type_symbol
 _atom_site_label
 _atom_site_symmetry_multiplicity
 _atom_site_fract_x
 _atom_site_fract_y
 _atom_site_fract_z
 _atom_site_occupancy
  Li  Li0  1  0.99999524  -0.00000055  0.00000310  1
  Li  Li1  1  -0.00000003  0.50000172  0.50000347  1
  Li  Li2  1  0.50000484  -0.00000029  0.00000344  1
  Li  Li3  1  0.50000008  0.50000161  0.50000382  1
  Mn  Mn4  1  0.25000115  0.27147068  0.98494481  1
  Mn  Mn5  1  0.25000361  0.77146477  0.51504576  1
  Mn  Mn6  1  0.74999850  0.22852979  0.48494773  1
  Mn  Mn7  1  0.74999960  0.72853159  0.01503449  1
  B  B8  1  0.25000025  0.09130683  0.43549271  1
  B  B9  1  0.24999883  0.59129970  0.06453987  1
  B  B10  1  0.74999991  0.40870237  0.93547511  1
  B  B11  1  0.75000055  0.90869885  0.56450093  1
  O  O12  1  0.04107688  0.16866106  0.27131493  1
  O  O13  1  0.04107665  0.66865966  0.22867519  1
  O  O14  1  0.25000011  0.44901679  0.18021785  1
  O  O15  1  0.25000110  0.10342097  0.75000619  1
  O  O16  1  0.24999967  0.94901483  0.31977888  1
  O  O17  1  0.24999941  0.60341889  0.74998766  1
  O  O18  1  0.45892353  0.16866062  0.27131352  1
  O  O19  1  0.45892209  0.66866019  0.22867292  1
  O  O20  1  0.54108029  0.83133918  0.72868749  1
  O  O21  1  0.54107741  0.33134007  0.77132394  1
  O  O22  1  0.74999928  0.55098291  0.81977724  1
  O  O23  1  0.74999987  0.05098112  0.68022667  1
  O  O24  1  0.75000021  0.39658300  0.25001692  1
  O  O25  1  0.74999933  0.89657453  0.24999170  1
  O  O26  1  0.95892076  0.33134041  0.77132398  1
  O  O27  1  0.95892089  0.83133868  0.72868967  1
