# generated using pymatgen
data_NaVO2
_symmetry_space_group_name_H-M   'P 1'
_cell_length_a   3.01650809
_cell_length_b   3.06246481
_cell_length_c   5.62012412
_cell_angle_alpha   89.20187429
_cell_angle_beta   90.00000000
_cell_angle_gamma   119.50481984
_symmetry_Int_Tables_number   1
_chemical_formula_structural   NaVO2
_chemical_formula_sum   'Na1 V1 O2'
_cell_volume   45.17955823
_cell_formula_units_Z   1
loop_
 _symmetry_equiv_pos_site_id
 _symmetry_equiv_pos_as_xyz
  1  'x, y, z'
loop_
 _atom_site_type_symbol
 _atom_site_label
 _atom_site_symmetry_multiplicity
 _atom_site_fract_x
 _atom_site_fract_y
 _atom_site_fract_z
 _atom_site_occupancy
  Na  Na0  1  0.00000132  0.00000000  0.50000000  1
  V  V1  1  0.99999478  0.00000000  0.00000000  1
  O  O2  1  0.33458850  0.66918210  0.19749370  1
  O  O3  1  0.66540540  0.33081790  0.80250630  1
