# generated using pymatgen
data_LiCrAsCO7
_symmetry_space_group_name_H-M   'P 1'
_cell_length_a   8.84790694
_cell_length_b   6.45871393
_cell_length_c   5.17348161
_cell_angle_alpha   90.00048778
_cell_angle_beta   86.12954526
_cell_angle_gamma   89.99445419
_symmetry_Int_Tables_number   1
_chemical_formula_structural   LiCrAsCO7
_chemical_formula_sum   'Li2 Cr2 As2 C2 O14'
_cell_volume   294.96999488
_cell_formula_units_Z   2
loop_
 _symmetry_equiv_pos_site_id
 _symmetry_equiv_pos_as_xyz
  1  'x, y, z'
loop_
 _atom_site_type_symbol
 _atom_site_label
 _atom_site_symmetry_multiplicity
 _atom_site_fract_x
 _atom_site_fract_y
 _atom_site_fract_z
 _atom_site_occupancy
  Li  Li0  1  0.20248495  0.50424258  0.21774536  1
  Li  Li1  1  0.79750985  0.00426804  0.78234425  1
  Cr  Cr2  1  0.32777459  0.75679414  0.79998783  1
  Cr  Cr3  1  0.67221722  0.25681839  0.19988924  1
  As  As4  1  0.42811761  0.24983838  0.71814348  1
  As  As5  1  0.57187277  0.74987725  0.28182710  1
  C  C6  1  0.06357462  0.74618487  0.72860460  1
  C  C7  1  0.93633805  0.24617634  0.27141949  1
  O  O8  1  0.06759332  0.27863293  0.32449858  1
  O  O9  1  0.11647986  0.74530596  0.96125131  1
  O  O10  1  0.17945793  0.71697399  0.54680167  1
  O  O11  1  0.30988569  0.04361835  0.79892139  1
  O  O12  1  0.31810105  0.45028814  0.83431463  1
  O  O13  1  0.40200060  0.73574150  0.13964279  1
  O  O14  1  0.47014075  0.27014363  0.39087483  1
  O  O15  1  0.52989429  0.77008742  0.60914206  1
  O  O16  1  0.59800934  0.23576667  0.86025572  1
  O  O17  1  0.68193618  0.95030316  0.16574120  1
  O  O18  1  0.69015311  0.54366926  0.20108921  1
  O  O19  1  0.82051349  0.21701690  0.45319170  1
  O  O20  1  0.88352450  0.24531253  0.03876978  1
  O  O21  1  0.93242123  0.77863857  0.67554378  1
