# generated using pymatgen
data_ZnIn2O4
_symmetry_space_group_name_H-M   'P 1'
_cell_length_a   10.54470263
_cell_length_b   10.70013833
_cell_length_c   3.33596961
_cell_angle_alpha   90.00000000
_cell_angle_beta   90.00000000
_cell_angle_gamma   90.00000000
_symmetry_Int_Tables_number   1
_chemical_formula_structural   ZnIn2O4
_chemical_formula_sum   'Zn4 In8 O16'
_cell_volume   376.39670647
_cell_formula_units_Z   4
loop_
 _symmetry_equiv_pos_site_id
 _symmetry_equiv_pos_as_xyz
  1  'x, y, z'
loop_
 _atom_site_type_symbol
 _atom_site_label
 _atom_site_symmetry_multiplicity
 _atom_site_fract_x
 _atom_site_fract_y
 _atom_site_fract_z
 _atom_site_occupancy
  Zn  Zn0  1  0.13148400  0.41597554  0.75000000  1
  Zn  Zn1  1  0.36851600  0.91597554  0.25000000  1
  Zn  Zn2  1  0.63148400  0.08402446  0.75000000  1
  Zn  Zn3  1  0.86851600  0.58402446  0.25000000  1
  In  In4  1  0.13777159  0.71525854  0.75000000  1
  In  In5  1  0.11222986  0.08217512  0.75000000  1
  In  In6  1  0.38777014  0.58217512  0.25000000  1
  In  In7  1  0.36222841  0.21525854  0.25000000  1
  In  In8  1  0.63777159  0.78474146  0.75000000  1
  In  In9  1  0.61222986  0.41782488  0.75000000  1
  In  In10  1  0.88777014  0.91782488  0.25000000  1
  In  In11  1  0.86222841  0.28474146  0.25000000  1
  O  O12  1  0.02374139  0.88753751  0.75000000  1
  O  O13  1  0.95961792  0.37376784  0.75000000  1
  O  O14  1  0.27244898  0.75759585  0.25000000  1
  O  O15  1  0.25994819  0.54005063  0.75000000  1
  O  O16  1  0.24005181  0.04005063  0.25000000  1
  O  O17  1  0.22755102  0.25759585  0.75000000  1
  O  O18  1  0.54038208  0.87376784  0.25000000  1
  O  O19  1  0.47625861  0.38753751  0.25000000  1
  O  O20  1  0.52374139  0.61246249  0.75000000  1
  O  O21  1  0.45961792  0.12623216  0.75000000  1
  O  O22  1  0.77244898  0.74240415  0.25000000  1
  O  O23  1  0.75994819  0.95994937  0.75000000  1
  O  O24  1  0.74005181  0.45994937  0.25000000  1
  O  O25  1  0.72755102  0.24240415  0.75000000  1
  O  O26  1  0.04038208  0.62623216  0.25000000  1
  O  O27  1  0.97625861  0.11246249  0.25000000  1
