# generated using pymatgen
data_ScFeO3
_symmetry_space_group_name_H-M   'P 1'
_cell_length_a   5.10201164
_cell_length_b   5.42054981
_cell_length_c   7.67374462
_cell_angle_alpha   89.99699183
_cell_angle_beta   89.98685846
_cell_angle_gamma   89.99797550
_symmetry_Int_Tables_number   1
_chemical_formula_structural   ScFeO3
_chemical_formula_sum   'Sc4 Fe4 O12'
_cell_volume   212.22283629
_cell_formula_units_Z   4
loop_
 _symmetry_equiv_pos_site_id
 _symmetry_equiv_pos_as_xyz
  1  'x, y, z'
loop_
 _atom_site_type_symbol
 _atom_site_label
 _atom_site_symmetry_multiplicity
 _atom_site_fract_x
 _atom_site_fract_y
 _atom_site_fract_z
 _atom_site_occupancy
  Sc  Sc0  1  0.02517195  0.92995105  0.74963557  1
  Sc  Sc1  1  0.47461772  0.42996699  0.74996216  1
  Sc  Sc2  1  0.52538168  0.57003593  0.25003952  1
  Sc  Sc3  1  0.97482846  0.07005099  0.25036419  1
  Fe  Fe4  1  0.99999820  0.50000014  0.99999953  1
  Fe  Fe5  1  0.00000037  0.49999931  0.50000016  1
  Fe  Fe6  1  0.49999990  0.00000015  0.00000020  1
  Fe  Fe7  1  0.50000049  0.99999898  0.49999955  1
  O  O8  1  0.14611025  0.43618482  0.24969163  1
  O  O9  1  0.18472456  0.18751424  0.57487694  1
  O  O10  1  0.18487520  0.18844171  0.92429464  1
  O  O11  1  0.31537339  0.68819133  0.57512258  1
  O  O12  1  0.31489836  0.68779480  0.92451061  1
  O  O13  1  0.35406734  0.93624774  0.25022376  1
  O  O14  1  0.64593299  0.06375234  0.74977671  1
  O  O15  1  0.68510050  0.31220537  0.07548903  1
  O  O16  1  0.68462776  0.31180636  0.42487669  1
  O  O17  1  0.81512464  0.81155888  0.07570498  1
  O  O18  1  0.81527643  0.81248403  0.42512300  1
  O  O19  1  0.85388983  0.56381484  0.75030853  1
