# generated using pymatgen
data_SrCrO3
_symmetry_space_group_name_H-M   'P 1'
_cell_length_a   5.58902378
_cell_length_b   5.53972827
_cell_length_c   9.28272646
_cell_angle_alpha   89.98512970
_cell_angle_beta   89.98332445
_cell_angle_gamma   120.35218663
_symmetry_Int_Tables_number   1
_chemical_formula_structural   SrCrO3
_chemical_formula_sum   'Sr4 Cr4 O12'
_cell_volume   248.01521275
_cell_formula_units_Z   4
loop_
 _symmetry_equiv_pos_site_id
 _symmetry_equiv_pos_as_xyz
  1  'x, y, z'
loop_
 _atom_site_type_symbol
 _atom_site_label
 _atom_site_symmetry_multiplicity
 _atom_site_fract_x
 _atom_site_fract_y
 _atom_site_fract_z
 _atom_site_occupancy
  Sr  Sr0  1  0.32983795  0.66073763  0.24990808  1
  Sr  Sr1  1  0.99930374  0.00032051  0.99993573  1
  Sr  Sr2  1  0.99857945  0.00011205  0.49998028  1
  Sr  Sr3  1  0.66739256  0.33842006  0.75058886  1
  Cr  Cr4  1  0.32842334  0.66964581  0.61254126  1
  Cr  Cr5  1  0.32934226  0.67037673  0.88725344  1
  Cr  Cr6  1  0.65958890  0.33049525  0.11286635  1
  Cr  Cr7  1  0.65924084  0.33024033  0.38726450  1
  O  O8  1  0.00613764  0.49798491  0.99793542  1
  O  O9  1  0.00676631  0.49844747  0.50171339  1
  O  O10  1  0.17760656  0.82691751  0.74953620  1
  O  O11  1  0.18264930  0.36313186  0.75007168  1
  O  O12  1  0.63608033  0.81883735  0.75046907  1
  O  O13  1  0.50688969  0.50080085  0.00219882  1
  O  O14  1  0.50817317  0.50192449  0.49797375  1
  O  O15  1  0.35121643  0.17358381  0.25014017  1
  O  O16  1  0.50668731  0.00038527  0.99947387  1
  O  O17  1  0.50850439  0.00019609  0.50023876  1
  O  O18  1  0.82075247  0.63707947  0.25003085  1
  O  O19  1  0.81684436  0.18056256  0.24988052  1
