# generated using pymatgen
data_RbFe3O5
_symmetry_space_group_name_H-M   'P 1'
_cell_length_a   9.57926285
_cell_length_b   3.11323708
_cell_length_c   15.53296106
_cell_angle_alpha   90.00001750
_cell_angle_beta   89.88266099
_cell_angle_gamma   89.99999760
_symmetry_Int_Tables_number   1
_chemical_formula_structural   RbFe3O5
_chemical_formula_sum   'Rb4 Fe12 O20'
_cell_volume   463.23101304
_cell_formula_units_Z   4
loop_
 _symmetry_equiv_pos_site_id
 _symmetry_equiv_pos_as_xyz
  1  'x, y, z'
loop_
 _atom_site_type_symbol
 _atom_site_label
 _atom_site_symmetry_multiplicity
 _atom_site_fract_x
 _atom_site_fract_y
 _atom_site_fract_z
 _atom_site_occupancy
  Rb  Rb0  1  0.02908812  0.75000307  0.62205743  1
  Rb  Rb1  1  0.47111990  0.24999969  0.12118855  1
  Rb  Rb2  1  0.53086261  0.75000278  0.87950561  1
  Rb  Rb3  1  0.97108438  0.25000266  0.37787922  1
  Fe  Fe4  1  0.10873698  0.74999973  0.16443932  1
  Fe  Fe5  1  0.14300703  0.25000065  0.98972447  1
  Fe  Fe6  1  0.17784235  0.75000075  0.82008261  1
  Fe  Fe7  1  0.32168325  0.25000110  0.32033724  1
  Fe  Fe8  1  0.35506743  0.75000064  0.48957471  1
  Fe  Fe9  1  0.39099079  0.25000018  0.66378324  1
  Fe  Fe10  1  0.60988829  0.75000039  0.33578171  1
  Fe  Fe11  1  0.64552863  0.24999644  0.51044186  1
  Fe  Fe12  1  0.67897387  0.75000301  0.68012723  1
  Fe  Fe13  1  0.82052090  0.24999650  0.17646779  1
  Fe  Fe14  1  0.86301516  0.75000427  0.01080395  1
  Fe  Fe15  1  0.88863352  0.24999993  0.83873565  1
  O  O16  1  0.01798210  0.74999776  0.92470300  1
  O  O17  1  0.06352639  0.24999919  0.77305533  1
  O  O18  1  0.19355910  0.24999993  0.21965187  1
  O  O19  1  0.22152933  0.74999969  0.05560272  1
  O  O20  1  0.23072012  0.75000082  0.38934606  1
  O  O21  1  0.26780576  0.24999988  0.88990383  1
  O  O22  1  0.27590578  0.24999955  0.55517950  1
  O  O23  1  0.30614475  0.75000072  0.71996077  1
  O  O24  1  0.43561328  0.75000051  0.27150726  1
  O  O25  1  0.47828669  0.25000071  0.42293454  1
  O  O26  1  0.52224368  0.74999973  0.57707386  1
  O  O27  1  0.56472367  0.25000051  0.72853216  1
  O  O28  1  0.69314109  0.24999993  0.27892218  1
  O  O29  1  0.72458753  0.75000001  0.44454654  1
  O  O30  1  0.73417916  0.74999660  0.10684729  1
  O  O31  1  0.76979150  0.25000096  0.61070029  1
  O  O32  1  0.78135604  0.24999266  0.94872542  1
  O  O33  1  0.80592700  0.75000264  0.78123081  1
  O  O34  1  0.93483514  0.74999997  0.22710772  1
  O  O35  1  0.97209867  0.24999644  0.07353828  1
