# generated using pymatgen
data_LiVBO3
_symmetry_space_group_name_H-M   'P 1'
_cell_length_a   8.16961807
_cell_length_b   8.16916304
_cell_length_c   3.23786277
_cell_angle_alpha   90.00000000
_cell_angle_beta   90.00000000
_cell_angle_gamma   119.99238248
_symmetry_Int_Tables_number   1
_chemical_formula_structural   LiVBO3
_chemical_formula_sum   'Li3 V3 B3 O9'
_cell_volume   187.15512246
_cell_formula_units_Z   3
loop_
 _symmetry_equiv_pos_site_id
 _symmetry_equiv_pos_as_xyz
  1  'x, y, z'
loop_
 _atom_site_type_symbol
 _atom_site_label
 _atom_site_symmetry_multiplicity
 _atom_site_fract_x
 _atom_site_fract_y
 _atom_site_fract_z
 _atom_site_occupancy
  Li  Li0  1  0.26522318  0.97035274  0.50000000  1
  Li  Li1  1  0.02968369  0.29487422  0.50000000  1
  Li  Li2  1  0.70512613  0.73480324  0.50000000  1
  V  V3  1  0.39418748  0.37290547  0.00000000  1
  V  V4  1  0.62704816  0.02123425  0.00000000  1
  V  V5  1  0.97872341  0.60582882  0.00000000  1
  B  B6  1  0.33342910  0.66673635  0.50000000  1
  B  B7  1  0.00002086  0.00004298  0.00000000  1
  B  B8  1  0.66668187  0.33327510  0.50000000  1
  O  O9  1  0.10051696  0.90345469  0.00000000  1
  O  O10  1  0.13804163  0.58165357  0.50000000  1
  O  O11  1  0.09651926  0.19696717  0.00000000  1
  O  O12  1  0.44350292  0.86185214  0.50000000  1
  O  O13  1  0.41835879  0.55645969  0.50000000  1
  O  O14  1  0.47006652  0.23923449  0.50000000  1
  O  O15  1  0.80299341  0.89949955  0.00000000  1
  O  O16  1  0.76913779  0.52994896  0.50000000  1
  O  O17  1  0.76074086  0.23087658  0.50000000  1
