# generated using pymatgen
data_Li3AlFeO5
_symmetry_space_group_name_H-M   'P 1'
_cell_length_a   5.06752388
_cell_length_b   5.33831370
_cell_length_c   16.22886516
_cell_angle_alpha   90.00000000
_cell_angle_beta   90.00000000
_cell_angle_gamma   90.00000000
_symmetry_Int_Tables_number   1
_chemical_formula_structural   Li3AlFeO5
_chemical_formula_sum   'Li12 Al4 Fe4 O20'
_cell_volume   439.02378213
_cell_formula_units_Z   4
loop_
 _symmetry_equiv_pos_site_id
 _symmetry_equiv_pos_as_xyz
  1  'x, y, z'
loop_
 _atom_site_type_symbol
 _atom_site_label
 _atom_site_symmetry_multiplicity
 _atom_site_fract_x
 _atom_site_fract_y
 _atom_site_fract_z
 _atom_site_occupancy
  Li  Li0  1  0.00622228  0.66336425  0.60090346  1
  Li  Li1  1  0.00622228  0.16336425  0.89909654  1
  Li  Li2  1  0.50283903  0.32870504  0.00223249  1
  Li  Li3  1  0.50283903  0.82870504  0.49776751  1
  Li  Li4  1  0.49619827  0.32798362  0.79916146  1
  Li  Li5  1  0.49619827  0.82798362  0.70083854  1
  Li  Li6  1  0.50622228  0.33663575  0.39909654  1
  Li  Li7  1  0.50622228  0.83663575  0.10090346  1
  Li  Li8  1  0.00283903  0.67129496  0.99776751  1
  Li  Li9  1  0.00283903  0.17129496  0.50223249  1
  Li  Li10  1  0.99619827  0.17201638  0.29916146  1
  Li  Li11  1  0.99619827  0.67201638  0.20083854  1
  Al  Al12  1  0.99540894  0.16548774  0.70241191  1
  Al  Al13  1  0.99540894  0.66548774  0.79758809  1
  Al  Al14  1  0.49540894  0.33451226  0.20241191  1
  Al  Al15  1  0.49540894  0.83451226  0.29758809  1
  Fe  Fe16  1  0.00249122  0.16886139  0.09943341  1
  Fe  Fe17  1  0.00249122  0.66886139  0.40056659  1
  Fe  Fe18  1  0.50249122  0.33113861  0.59943341  1
  Fe  Fe19  1  0.50249122  0.83113861  0.90056659  1
  O  O20  1  0.09645971  0.34700007  0.78945775  1
  O  O21  1  0.09645971  0.84700007  0.71054225  1
  O  O22  1  0.11389688  0.35493371  0.40246276  1
  O  O23  1  0.11389688  0.85493371  0.09753724  1
  O  O24  1  0.10967117  0.30563910  0.00553117  1
  O  O25  1  0.10967117  0.80563910  0.49446883  1
  O  O26  1  0.14170085  0.32424730  0.19578296  1
  O  O27  1  0.14170085  0.82424730  0.30421704  1
  O  O28  1  0.13011265  0.30012773  0.61116717  1
  O  O29  1  0.13011265  0.80012773  0.88883283  1
  O  O30  1  0.59645971  0.65299993  0.21054225  1
  O  O31  1  0.59645971  0.15299993  0.28945775  1
  O  O32  1  0.61389688  0.64506629  0.59753724  1
  O  O33  1  0.61389688  0.14506629  0.90246276  1
  O  O34  1  0.60967117  0.19436090  0.50553117  1
  O  O35  1  0.60967117  0.69436090  0.99446883  1
  O  O36  1  0.64170085  0.17575270  0.69578296  1
  O  O37  1  0.64170085  0.67575270  0.80421704  1
  O  O38  1  0.63011265  0.19987227  0.11116717  1
  O  O39  1  0.63011265  0.69987227  0.38883283  1
