# generated using pymatgen
data_Na6Mn2B4AsO16
_symmetry_space_group_name_H-M   'P 1'
_cell_length_a   9.91663881
_cell_length_b   9.91663881
_cell_length_c   9.91663893
_cell_angle_alpha   119.99999952
_cell_angle_beta   60.00000048
_cell_angle_gamma   120.00000554
_symmetry_Int_Tables_number   1
_chemical_formula_structural   Na6Mn2B4AsO16
_chemical_formula_sum   'Na12 Mn4 B8 As2 O32'
_cell_volume   689.57018952
_cell_formula_units_Z   2
loop_
 _symmetry_equiv_pos_site_id
 _symmetry_equiv_pos_as_xyz
  1  'x, y, z'
loop_
 _atom_site_type_symbol
 _atom_site_label
 _atom_site_symmetry_multiplicity
 _atom_site_fract_x
 _atom_site_fract_y
 _atom_site_fract_z
 _atom_site_occupancy
  Na  Na0  1  0.34201717  0.15798283  0.90798283  1
  Na  Na1  1  0.09201717  0.40798283  0.65798283  1
  Na  Na2  1  0.34201717  0.59201717  0.34201717  1
  Na  Na3  1  0.34201717  0.59201717  0.90798283  1
  Na  Na4  1  0.09201717  0.84201717  0.09201717  1
  Na  Na5  1  0.09201717  0.84201717  0.65798283  1
  Na  Na6  1  0.90798283  0.15798283  0.90798283  1
  Na  Na7  1  0.90798283  0.15798283  0.34201717  1
  Na  Na8  1  0.65798283  0.40798283  0.09201717  1
  Na  Na9  1  0.65798283  0.40798283  0.65798283  1
  Na  Na10  1  0.90798283  0.59201717  0.34201717  1
  Na  Na11  1  0.65798283  0.84201717  0.09201717  1
  Mn  Mn12  1  0.00000000  0.00000000  0.50000000  1
  Mn  Mn13  1  0.50000000  0.00000000  0.50000000  1
  Mn  Mn14  1  0.50000000  0.00000000  0.00000000  1
  Mn  Mn15  1  0.50000000  0.50000000  0.50000000  1
  B  B16  1  0.29015434  0.20984566  0.62953797  1
  B  B17  1  0.29015434  0.20984566  0.29015434  1
  B  B18  1  0.62953797  0.20984566  0.29015434  1
  B  B19  1  0.70984566  0.12953797  0.70984566  1
  B  B20  1  0.37046203  0.79015434  0.70984566  1
  B  B21  1  0.29015434  0.87046203  0.29015434  1
  B  B22  1  0.70984566  0.79015434  0.70984566  1
  B  B23  1  0.70984566  0.79015434  0.37046203  1
  As  As24  1  0.12500000  0.37500000  0.12500000  1
  As  As25  1  0.87500000  0.62500000  0.87500000  1
  O  O26  1  0.13501349  0.09224849  0.63665332  1
  O  O27  1  0.05422707  0.16268022  0.05422707  1
  O  O28  1  0.13501349  0.17941832  0.40775151  1
  O  O29  1  0.32058168  0.09224849  0.13501349  1
  O  O30  1  0.05422707  0.44577293  0.33731978  1
  O  O31  1  0.05422707  0.44577293  0.05422707  1
  O  O32  1  0.40775151  0.17941832  0.63665332  1
  O  O33  1  0.32058168  0.36498651  0.63665332  1
  O  O34  1  0.33731978  0.44577293  0.05422707  1
  O  O35  1  0.63665332  0.09224849  0.32058168  1
  O  O36  1  0.59224849  0.13665332  0.86498651  1
  O  O37  1  0.40775151  0.36498651  0.32058168  1
  O  O38  1  0.63665332  0.17941832  0.13501349  1
  O  O39  1  0.67941832  0.13665332  0.59224849  1
  O  O40  1  0.13501349  0.86334668  0.32058168  1
  O  O41  1  0.36334668  0.63501349  0.59224849  1
  O  O42  1  0.86498651  0.13665332  0.67941832  1
  O  O43  1  0.63665332  0.36498651  0.40775151  1
  O  O44  1  0.32058168  0.86334668  0.40775151  1
  O  O45  1  0.36334668  0.82058168  0.86498651  1
  O  O46  1  0.59224849  0.63501349  0.67941832  1
  O  O47  1  0.40775151  0.86334668  0.13501349  1
  O  O48  1  0.36334668  0.90775151  0.67941832  1
  O  O49  1  0.66268022  0.55422707  0.94577293  1
  O  O50  1  0.67941832  0.63501349  0.36334668  1
  O  O51  1  0.59224849  0.82058168  0.36334668  1
  O  O52  1  0.94577293  0.55422707  0.94577293  1
  O  O53  1  0.94577293  0.55422707  0.66268022  1
  O  O54  1  0.67941832  0.90775151  0.86498651  1
  O  O55  1  0.86498651  0.82058168  0.59224849  1
  O  O56  1  0.94577293  0.83731978  0.94577293  1
  O  O57  1  0.86498651  0.90775151  0.36334668  1
