# generated using pymatgen
data_Li3FeO3
_symmetry_space_group_name_H-M   'P 1'
_cell_length_a   5.41526247
_cell_length_b   11.27619726
_cell_length_c   5.44745207
_cell_angle_alpha   90.00000000
_cell_angle_beta   116.40163733
_cell_angle_gamma   90.00000000
_symmetry_Int_Tables_number   1
_chemical_formula_structural   Li3FeO3
_chemical_formula_sum   'Li12 Fe4 O12'
_cell_volume   297.94610256
_cell_formula_units_Z   4
loop_
 _symmetry_equiv_pos_site_id
 _symmetry_equiv_pos_as_xyz
  1  'x, y, z'
loop_
 _atom_site_type_symbol
 _atom_site_label
 _atom_site_symmetry_multiplicity
 _atom_site_fract_x
 _atom_site_fract_y
 _atom_site_fract_z
 _atom_site_occupancy
  Li  Li0  1  0.16439872  0.23974920  0.71086050  1
  Li  Li1  1  0.27065003  0.49441425  0.76451140  1
  Li  Li2  1  0.22934997  0.99441425  0.73548860  1
  Li  Li3  1  0.33560128  0.73974920  0.78913950  1
  Li  Li4  1  0.25819817  0.62373925  0.33881251  1
  Li  Li5  1  0.24180183  0.12373925  0.16118749  1
  Li  Li6  1  0.75819817  0.87626075  0.83881251  1
  Li  Li7  1  0.74180183  0.37626075  0.66118749  1
  Li  Li8  1  0.66439872  0.26025080  0.21086050  1
  Li  Li9  1  0.77065003  0.00558575  0.26451140  1
  Li  Li10  1  0.72934997  0.50558575  0.23548860  1
  Li  Li11  1  0.83560128  0.76025080  0.28913950  1
  Fe  Fe12  1  0.16540637  0.36046939  0.23474422  1
  Fe  Fe13  1  0.33459363  0.86046939  0.26525578  1
  Fe  Fe14  1  0.66540637  0.13953061  0.73474422  1
  Fe  Fe15  1  0.83459363  0.63953061  0.76525578  1
  O  O16  1  0.97240860  0.36891602  0.45098477  1
  O  O17  1  0.16719510  0.98888535  0.34501696  1
  O  O18  1  0.03621102  0.74914533  0.06161422  1
  O  O19  1  0.47240860  0.13108398  0.95098477  1
  O  O20  1  0.46378898  0.24914533  0.43838578  1
  O  O21  1  0.66719510  0.51111465  0.84501696  1
  O  O22  1  0.33280490  0.48888535  0.15498304  1
  O  O23  1  0.53621102  0.75085467  0.56161422  1
  O  O24  1  0.52759140  0.86891602  0.04901523  1
  O  O25  1  0.96378898  0.25085467  0.93838578  1
  O  O26  1  0.83280490  0.01111465  0.65498304  1
  O  O27  1  0.02759140  0.63108398  0.54901523  1
