# generated using pymatgen
data_U2Bi2O7
_symmetry_space_group_name_H-M   'P 1'
_cell_length_a   3.82732641
_cell_length_b   15.55848195
_cell_length_c   13.56375310
_cell_angle_alpha   29.33249871
_cell_angle_beta   55.64310712
_cell_angle_gamma   60.52839743
_symmetry_Int_Tables_number   1
_chemical_formula_structural   U2Bi2O7
_chemical_formula_sum   'U4 Bi4 O14'
_cell_volume   326.63814767
_cell_formula_units_Z   2
loop_
 _symmetry_equiv_pos_site_id
 _symmetry_equiv_pos_as_xyz
  1  'x, y, z'
loop_
 _atom_site_type_symbol
 _atom_site_label
 _atom_site_symmetry_multiplicity
 _atom_site_fract_x
 _atom_site_fract_y
 _atom_site_fract_z
 _atom_site_occupancy
  U  U0  1  0.01076565  0.00000000  0.99461718  1
  U  U1  1  0.98923435  0.50000000  0.00538282  1
  U  U2  1  0.00000000  0.25000000  0.50000000  1
  U  U3  1  0.00000000  0.75000000  0.00000000  1
  Bi  Bi4  1  0.00000000  0.25000000  0.00000000  1
  Bi  Bi5  1  0.02382744  0.00000000  0.48808628  1
  Bi  Bi6  1  0.00000000  0.75000000  0.50000000  1
  Bi  Bi7  1  0.97617256  0.50000000  0.51191372  1
  O  O8  1  0.30542794  0.00000000  0.09728603  1
  O  O9  1  0.23413971  0.26277303  0.12015711  1
  O  O10  1  0.24365361  0.50000000  0.12817320  1
  O  O11  1  0.73548804  0.26527403  0.36698195  1
  O  O12  1  0.26451196  0.23472597  0.63301805  1
  O  O13  1  0.26451196  0.76527403  0.10246999  1
  O  O14  1  0.78848586  0.50000000  0.35575707  1
  O  O15  1  0.75634639  0.00000000  0.87182680  1
  O  O16  1  0.76586029  0.23722697  0.87984289  1
  O  O17  1  0.23413971  0.73722697  0.64570318  1
  O  O18  1  0.76586029  0.76277303  0.35429682  1
  O  O19  1  0.69457206  0.50000000  0.90271397  1
  O  O20  1  0.21151414  0.00000000  0.64424293  1
  O  O21  1  0.73548804  0.73472597  0.89753001  1
