# generated using pymatgen
data_Li2TiCo3(PO4)6
_symmetry_space_group_name_H-M   'P 1'
_cell_length_a   8.57004617
_cell_length_b   8.57004589
_cell_length_c   8.57004581
_cell_angle_alpha   59.92858478
_cell_angle_beta   59.92858533
_cell_angle_gamma   59.92858191
_symmetry_Int_Tables_number   1
_chemical_formula_structural   Li2TiCo3(PO4)6
_chemical_formula_sum   'Li2 Ti1 Co3 P6 O24'
_cell_volume   444.35530360
_cell_formula_units_Z   1
loop_
 _symmetry_equiv_pos_site_id
 _symmetry_equiv_pos_as_xyz
  1  'x, y, z'
loop_
 _atom_site_type_symbol
 _atom_site_label
 _atom_site_symmetry_multiplicity
 _atom_site_fract_x
 _atom_site_fract_y
 _atom_site_fract_z
 _atom_site_occupancy
  Li  Li0  1  0.00897197  0.00897197  0.00897197  1
  Li  Li1  1  0.50252665  0.50252665  0.50252665  1
  Ti  Ti2  1  0.85828401  0.85828401  0.85828401  1
  Co  Co3  1  0.14526482  0.14526482  0.14526482  1
  Co  Co4  1  0.35666086  0.35666086  0.35666086  1
  Co  Co5  1  0.64256216  0.64256216  0.64256216  1
  P  P6  1  0.03593303  0.75033148  0.45971738  1
  P  P7  1  0.45971738  0.03593303  0.75033148  1
  P  P8  1  0.75033148  0.45971738  0.03593303  1
  P  P9  1  0.25743472  0.53974006  0.95482119  1
  P  P10  1  0.53974006  0.95482119  0.25743472  1
  P  P11  1  0.95482119  0.25743472  0.53974006  1
  O  O12  1  0.12238524  0.30578998  0.50471031  1
  O  O13  1  0.30578998  0.50471031  0.12238524  1
  O  O14  1  0.05892104  0.91426714  0.26544551  1
  O  O15  1  0.50471031  0.12238524  0.30578998  1
  O  O16  1  0.22821577  0.58225448  0.44692237  1
  O  O17  1  0.99536330  0.80842688  0.62349711  1
  O  O18  1  0.26544551  0.05892104  0.91426714  1
  O  O19  1  0.44692237  0.22821577  0.58225448  1
  O  O20  1  0.58225448  0.44692237  0.22821577  1
  O  O21  1  0.20630507  0.37596933  0.98718425  1
  O  O22  1  0.09040523  0.73226017  0.93296236  1
  O  O23  1  0.37596933  0.98718425  0.20630507  1
  O  O24  1  0.62349711  0.99536330  0.80842688  1
  O  O25  1  0.91426714  0.26544551  0.05892104  1
  O  O26  1  0.80842688  0.62349711  0.99536330  1
  O  O27  1  0.42706042  0.55622491  0.76167412  1
  O  O28  1  0.55622491  0.76167412  0.42706042  1
  O  O29  1  0.73226017  0.93296236  0.09040523  1
  O  O30  1  0.98718425  0.20630507  0.37596933  1
  O  O31  1  0.76167412  0.42706042  0.55622491  1
  O  O32  1  0.48900331  0.86927765  0.70322774  1
  O  O33  1  0.93296236  0.09040523  0.73226017  1
  O  O34  1  0.70322774  0.48900331  0.86927765  1
  O  O35  1  0.86927765  0.70322774  0.48900331  1
