# generated using pymatgen
data_Li3MnAl2O6
_symmetry_space_group_name_H-M   'P 1'
_cell_length_a   9.78829740
_cell_length_b   5.60010655
_cell_length_c   9.82093086
_cell_angle_alpha   90.00000000
_cell_angle_beta   70.39725425
_cell_angle_gamma   90.00000000
_symmetry_Int_Tables_number   1
_chemical_formula_structural   Li3MnAl2O6
_chemical_formula_sum   'Li12 Mn4 Al8 O24'
_cell_volume   507.13791162
_cell_formula_units_Z   4
loop_
 _symmetry_equiv_pos_site_id
 _symmetry_equiv_pos_as_xyz
  1  'x, y, z'
loop_
 _atom_site_type_symbol
 _atom_site_label
 _atom_site_symmetry_multiplicity
 _atom_site_fract_x
 _atom_site_fract_y
 _atom_site_fract_z
 _atom_site_occupancy
  Li  Li0  1  0.11019807  0.25555944  0.46367560  1
  Li  Li1  1  0.01930362  0.49750295  0.73560571  1
  Li  Li2  1  0.38980193  0.75556044  0.03632440  1
  Li  Li3  1  0.28724339  0.74667050  0.63419024  1
  Li  Li4  1  0.51930362  0.00249705  0.23560571  1
  Li  Li5  1  0.21275661  0.24667050  0.86580976  1
  Li  Li6  1  0.78724339  0.75332950  0.13419024  1
  Li  Li7  1  0.48069638  0.99750295  0.76439429  1
  Li  Li8  1  0.71275661  0.25332950  0.36580976  1
  Li  Li9  1  0.61019807  0.24443956  0.96367560  1
  Li  Li10  1  0.98069638  0.50249705  0.26439429  1
  Li  Li11  1  0.88980193  0.74443956  0.53632440  1
  Mn  Mn12  1  0.00841697  0.99741786  0.74344070  1
  Mn  Mn13  1  0.50841697  0.50258214  0.24344070  1
  Mn  Mn14  1  0.49158303  0.49741786  0.75655930  1
  Mn  Mn15  1  0.99158303  0.00258214  0.25655930  1
  Al  Al16  1  0.27088681  0.26366353  0.10526600  1
  Al  Al17  1  0.22911319  0.76366353  0.39473400  1
  Al  Al18  1  0.14881602  0.75840913  0.97824240  1
  Al  Al19  1  0.35118398  0.25840913  0.52175760  1
  Al  Al20  1  0.64881602  0.74159087  0.47824240  1
  Al  Al21  1  0.85118398  0.24159087  0.02175760  1
  Al  Al22  1  0.77088681  0.23633647  0.60526600  1
  Al  Al23  1  0.72911319  0.73633647  0.89473400  1
  O  O24  1  0.06004824  0.77797159  0.36742390  1
  O  O25  1  0.12057120  0.25663563  0.26793531  1
  O  O26  1  0.25943054  0.00654829  0.99850066  1
  O  O27  1  0.24056946  0.50654829  0.50149934  1
  O  O28  1  0.37942880  0.75663563  0.23206469  1
  O  O29  1  0.98277161  0.75288235  0.12442050  1
  O  O30  1  0.24017349  0.00608037  0.51299431  1
  O  O31  1  0.43995176  0.27797159  0.13257610  1
  O  O32  1  0.12431816  0.77560735  0.80838374  1
  O  O33  1  0.37568184  0.27560735  0.69161626  1
  O  O34  1  0.25982651  0.50608037  0.98700569  1
  O  O35  1  0.51722839  0.25288235  0.37557950  1
  O  O36  1  0.48277161  0.74711765  0.62442050  1
  O  O37  1  0.74017349  0.49391963  0.01299431  1
  O  O38  1  0.62431816  0.72439265  0.30838374  1
  O  O39  1  0.87568184  0.22439265  0.19161626  1
  O  O40  1  0.56004824  0.72202841  0.86742390  1
  O  O41  1  0.75982651  0.99391963  0.48700569  1
  O  O42  1  0.01722839  0.24711765  0.87557950  1
  O  O43  1  0.62057120  0.24336437  0.76793531  1
  O  O44  1  0.75943054  0.49345171  0.49850066  1
  O  O45  1  0.74056946  0.99345171  0.00149934  1
  O  O46  1  0.87942880  0.74336437  0.73206469  1
  O  O47  1  0.93995176  0.22202841  0.63257610  1
