# generated using pymatgen
data_Li2VBO4
_symmetry_space_group_name_H-M   'P 1'
_cell_length_a   6.71568140
_cell_length_b   5.17383192
_cell_length_c   10.68890799
_cell_angle_alpha   90.00000000
_cell_angle_beta   97.20950796
_cell_angle_gamma   90.00000000
_symmetry_Int_Tables_number   1
_chemical_formula_structural   Li2VBO4
_chemical_formula_sum   'Li8 V4 B4 O16'
_cell_volume   368.45844412
_cell_formula_units_Z   4
loop_
 _symmetry_equiv_pos_site_id
 _symmetry_equiv_pos_as_xyz
  1  'x, y, z'
loop_
 _atom_site_type_symbol
 _atom_site_label
 _atom_site_symmetry_multiplicity
 _atom_site_fract_x
 _atom_site_fract_y
 _atom_site_fract_z
 _atom_site_occupancy
  Li  Li0  1  0.10803787  0.35231239  0.79497449  1
  Li  Li1  1  0.10803787  0.14768761  0.29497449  1
  Li  Li2  1  0.20958524  0.17749070  0.57553619  1
  Li  Li3  1  0.20958524  0.32250930  0.07553619  1
  Li  Li4  1  0.79041476  0.67749070  0.92446381  1
  Li  Li5  1  0.79041476  0.82250930  0.42446381  1
  Li  Li6  1  0.89196213  0.85231239  0.70502551  1
  Li  Li7  1  0.89196213  0.64768761  0.20502551  1
  V  V8  1  0.50963935  0.13193922  0.85334622  1
  V  V9  1  0.49036065  0.63193922  0.64665378  1
  V  V10  1  0.50963935  0.36806078  0.35334622  1
  V  V11  1  0.49036065  0.86806078  0.14665378  1
  B  B12  1  0.19242689  0.81345025  0.93899571  1
  B  B13  1  0.19242689  0.68654975  0.43899571  1
  B  B14  1  0.80757311  0.31345025  0.56100429  1
  B  B15  1  0.80757311  0.18654975  0.06100429  1
  O  O16  1  0.05046213  0.70383473  0.85416001  1
  O  O17  1  0.05046213  0.79616527  0.35416001  1
  O  O18  1  0.25556755  0.07542076  0.93080330  1
  O  O19  1  0.25556755  0.42457924  0.43080330  1
  O  O20  1  0.28524632  0.82621228  0.54221298  1
  O  O21  1  0.37892054  0.34443067  0.72062570  1
  O  O22  1  0.28524632  0.67378772  0.04221298  1
  O  O23  1  0.37892054  0.15556933  0.22062570  1
  O  O24  1  0.62107946  0.84443067  0.77937430  1
  O  O25  1  0.71475368  0.32621228  0.95778702  1
  O  O26  1  0.62107946  0.65556933  0.27937430  1
  O  O27  1  0.71475368  0.17378772  0.45778702  1
  O  O28  1  0.74443245  0.57542076  0.56919670  1
  O  O29  1  0.74443245  0.92457924  0.06919670  1
  O  O30  1  0.94953787  0.20383473  0.64583999  1
  O  O31  1  0.94953787  0.29616527  0.14583999  1
