# generated using pymatgen
data_Li2NiBO4
_symmetry_space_group_name_H-M   'P 1'
_cell_length_a   6.10059970
_cell_length_b   10.05795698
_cell_length_c   4.75154917
_cell_angle_alpha   89.99959877
_cell_angle_beta   89.99947152
_cell_angle_gamma   90.00027863
_symmetry_Int_Tables_number   1
_chemical_formula_structural   Li2NiBO4
_chemical_formula_sum   'Li8 Ni4 B4 O16'
_cell_volume   291.55301073
_cell_formula_units_Z   4
loop_
 _symmetry_equiv_pos_site_id
 _symmetry_equiv_pos_as_xyz
  1  'x, y, z'
loop_
 _atom_site_type_symbol
 _atom_site_label
 _atom_site_symmetry_multiplicity
 _atom_site_fract_x
 _atom_site_fract_y
 _atom_site_fract_z
 _atom_site_occupancy
  Li  Li0  1  0.00591066  0.84031700  0.75784611  1
  Li  Li1  1  0.23895992  0.07682333  0.75437214  1
  Li  Li2  1  0.26104471  0.57682142  0.75438286  1
  Li  Li3  1  0.49409000  0.34031473  0.75783906  1
  Li  Li4  1  0.50591784  0.65967925  0.25782623  1
  Li  Li5  1  0.73895739  0.42317646  0.25436176  1
  Li  Li6  1  0.76103962  0.92317674  0.25436734  1
  Li  Li7  1  0.99408789  0.15968641  0.25783277  1
  Ni  Ni8  1  0.01572227  0.66169597  0.25993236  1
  Ni  Ni9  1  0.48427714  0.16169548  0.25992078  1
  Ni  Ni10  1  0.51571993  0.83830514  0.75992595  1
  Ni  Ni11  1  0.98427456  0.33830458  0.75992606  1
  B  B12  1  0.23937256  0.40860427  0.26467568  1
  B  B13  1  0.26062233  0.90859829  0.26467652  1
  B  B14  1  0.73937352  0.09139964  0.76467428  1
  B  B15  1  0.76062871  0.59140236  0.76467973  1
  O  O16  1  0.03904921  0.34364048  0.15028943  1
  O  O17  1  0.05601101  0.84136715  0.16573816  1
  O  O18  1  0.24913759  0.05112778  0.17319229  1
  O  O19  1  0.23191424  0.40049683  0.57710296  1
  O  O20  1  0.26808279  0.90049290  0.57710200  1
  O  O21  1  0.25085736  0.55113222  0.17319619  1
  O  O22  1  0.44398887  0.34137379  0.16573429  1
  O  O23  1  0.46094739  0.84363767  0.15028675  1
  O  O24  1  0.53905010  0.15636019  0.65028331  1
  O  O25  1  0.55601282  0.65862671  0.66573412  1
  O  O26  1  0.74913853  0.44887325  0.67319634  1
  O  O27  1  0.73191229  0.09950533  0.07710242  1
  O  O28  1  0.76809626  0.59950856  0.07710097  1
  O  O29  1  0.75086330  0.94887011  0.67319537  1
  O  O30  1  0.94399080  0.15862469  0.66573269  1
  O  O31  1  0.96094839  0.65636130  0.65027307  1
