# generated using pymatgen
data_Li9Mn2AlO8
_symmetry_space_group_name_H-M   'P 1'
_cell_length_a   16.22827812
_cell_length_b   6.52018419
_cell_length_c   7.64875648
_cell_angle_alpha   90.00000000
_cell_angle_beta   90.00000000
_cell_angle_gamma   90.00000000
_symmetry_Int_Tables_number   1
_chemical_formula_structural   Li9Mn2AlO8
_chemical_formula_sum   'Li36 Mn8 Al4 O32'
_cell_volume   809.32534404
_cell_formula_units_Z   4
loop_
 _symmetry_equiv_pos_site_id
 _symmetry_equiv_pos_as_xyz
  1  'x, y, z'
loop_
 _atom_site_type_symbol
 _atom_site_label
 _atom_site_symmetry_multiplicity
 _atom_site_fract_x
 _atom_site_fract_y
 _atom_site_fract_z
 _atom_site_occupancy
  Li  Li0  1  0.06883746  0.52313701  0.53233853  1
  Li  Li1  1  0.06883746  0.97686299  0.53233853  1
  Li  Li2  1  0.13879056  0.25000000  0.33900851  1
  Li  Li3  1  0.12143278  0.50839965  0.10505941  1
  Li  Li4  1  0.12143278  0.99160035  0.10505941  1
  Li  Li5  1  0.16601067  0.75000000  0.33178391  1
  Li  Li6  1  0.19470563  0.25000000  0.80169047  1
  Li  Li7  1  0.20947930  0.01016170  0.54871182  1
  Li  Li8  1  0.20947930  0.48983830  0.54871182  1
  Li  Li9  1  0.29052070  0.51016170  0.04871182  1
  Li  Li10  1  0.29052070  0.98983830  0.04871182  1
  Li  Li11  1  0.30529437  0.75000000  0.30169047  1
  Li  Li12  1  0.33398933  0.25000000  0.83178391  1
  Li  Li13  1  0.37856722  0.49160035  0.60505941  1
  Li  Li14  1  0.37856722  0.00839965  0.60505941  1
  Li  Li15  1  0.36120944  0.75000000  0.83900851  1
  Li  Li16  1  0.43116254  0.02313701  0.03233853  1
  Li  Li17  1  0.43116254  0.47686299  0.03233853  1
  Li  Li18  1  0.56883746  0.52313701  0.96766147  1
  Li  Li19  1  0.56883746  0.97686299  0.96766147  1
  Li  Li20  1  0.63879056  0.25000000  0.16099149  1
  Li  Li21  1  0.62143278  0.99160035  0.39494059  1
  Li  Li22  1  0.62143278  0.50839965  0.39494059  1
  Li  Li23  1  0.66601067  0.75000000  0.16821609  1
  Li  Li24  1  0.69470563  0.25000000  0.69830953  1
  Li  Li25  1  0.70947930  0.01016170  0.95128818  1
  Li  Li26  1  0.70947930  0.48983830  0.95128818  1
  Li  Li27  1  0.79052070  0.51016170  0.45128818  1
  Li  Li28  1  0.79052070  0.98983830  0.45128818  1
  Li  Li29  1  0.80529437  0.75000000  0.19830953  1
  Li  Li30  1  0.83398933  0.25000000  0.66821609  1
  Li  Li31  1  0.87856722  0.49160035  0.89494059  1
  Li  Li32  1  0.87856722  0.00839965  0.89494059  1
  Li  Li33  1  0.86120944  0.75000000  0.66099149  1
  Li  Li34  1  0.93116254  0.02313701  0.46766147  1
  Li  Li35  1  0.93116254  0.47686299  0.46766147  1
  Mn  Mn36  1  0.03049832  0.25000000  0.77292053  1
  Mn  Mn37  1  0.19550483  0.75000000  0.80236511  1
  Mn  Mn38  1  0.30449517  0.25000000  0.30236511  1
  Mn  Mn39  1  0.46950168  0.75000000  0.27292053  1
  Mn  Mn40  1  0.53049832  0.25000000  0.72707947  1
  Mn  Mn41  1  0.69550483  0.75000000  0.69763489  1
  Mn  Mn42  1  0.80449517  0.25000000  0.19763489  1
  Mn  Mn43  1  0.96950168  0.75000000  0.22707947  1
  Al  Al44  1  0.00052400  0.75000000  0.83925059  1
  Al  Al45  1  0.49947600  0.25000000  0.33925059  1
  Al  Al46  1  0.50052400  0.75000000  0.66074941  1
  Al  Al47  1  0.99947600  0.25000000  0.16074941  1
  O  O48  1  0.02438436  0.47050808  0.29181462  1
  O  O49  1  0.02438436  0.02949192  0.29181462  1
  O  O50  1  0.08833557  0.25000000  0.01271707  1
  O  O51  1  0.12966803  0.25000000  0.59055982  1
  O  O52  1  0.14119198  0.75000000  0.56443089  1
  O  O53  1  0.09306951  0.75000000  0.96793774  1
  O  O54  1  0.22423978  0.99912012  0.27768468  1
  O  O55  1  0.22423978  0.50087988  0.27768468  1
  O  O56  1  0.27576022  0.49912012  0.77768468  1
  O  O57  1  0.27576022  0.00087988  0.77768468  1
  O  O58  1  0.40693049  0.25000000  0.46793774  1
  O  O59  1  0.35880802  0.25000000  0.06443089  1
  O  O60  1  0.37033197  0.75000000  0.09055982  1
  O  O61  1  0.41166443  0.75000000  0.51271707  1
  O  O62  1  0.47561564  0.97050808  0.79181462  1
  O  O63  1  0.47561564  0.52949192  0.79181462  1
  O  O64  1  0.52438436  0.47050808  0.20818538  1
  O  O65  1  0.52438436  0.02949192  0.20818538  1
  O  O66  1  0.58833557  0.25000000  0.48728293  1
  O  O67  1  0.62966803  0.25000000  0.90944018  1
  O  O68  1  0.64119198  0.75000000  0.93556911  1
  O  O69  1  0.59306951  0.75000000  0.53206226  1
  O  O70  1  0.72423978  0.99912012  0.22231532  1
  O  O71  1  0.72423978  0.50087988  0.22231532  1
  O  O72  1  0.77576022  0.49912012  0.72231532  1
  O  O73  1  0.77576022  0.00087988  0.72231532  1
  O  O74  1  0.90693049  0.25000000  0.03206226  1
  O  O75  1  0.85880802  0.25000000  0.43556911  1
  O  O76  1  0.87033197  0.75000000  0.40944018  1
  O  O77  1  0.91166443  0.75000000  0.98728293  1
  O  O78  1  0.97561564  0.97050808  0.70818538  1
  O  O79  1  0.97561564  0.52949192  0.70818538  1
