# generated using pymatgen
data_Li4Mn3TeO12
_symmetry_space_group_name_H-M   'P 1'
_cell_length_a   5.03370234
_cell_length_b   4.91467534
_cell_length_c   8.24619007
_cell_angle_alpha   90.00000000
_cell_angle_beta   90.00000000
_cell_angle_gamma   89.81670238
_symmetry_Int_Tables_number   1
_chemical_formula_structural   Li4Mn3TeO12
_chemical_formula_sum   'Li4 Mn3 Te1 O12'
_cell_volume   204.00155740
_cell_formula_units_Z   1
loop_
 _symmetry_equiv_pos_site_id
 _symmetry_equiv_pos_as_xyz
  1  'x, y, z'
loop_
 _atom_site_type_symbol
 _atom_site_label
 _atom_site_symmetry_multiplicity
 _atom_site_fract_x
 _atom_site_fract_y
 _atom_site_fract_z
 _atom_site_occupancy
  Li  Li0  1  0.00000000  0.00000000  0.70570805  1
  Li  Li1  1  0.00000000  0.50000000  0.80822856  1
  Li  Li2  1  0.50000000  0.00000000  0.31777686  1
  Li  Li3  1  0.50000000  0.50000000  0.19993158  1
  Mn  Mn4  1  0.00000000  0.50000000  0.41990595  1
  Mn  Mn5  1  0.50000000  0.00000000  0.90211685  1
  Mn  Mn6  1  0.50000000  0.50000000  0.60452677  1
  Te  Te7  1  0.00000000  0.00000000  0.10158752  1
  O  O8  1  0.15807328  0.24498730  0.26038961  1
  O  O9  1  0.16980476  0.30571896  0.59180072  1
  O  O10  1  0.17581753  0.20439741  0.92452910  1
  O  O11  1  0.32999562  0.69208112  0.42857513  1
  O  O12  1  0.32790024  0.79483873  0.08232579  1
  O  O13  1  0.34404269  0.75432647  0.75302958  1
  O  O14  1  0.65595731  0.24567353  0.75302958  1
  O  O15  1  0.67209976  0.20516127  0.08232579  1
  O  O16  1  0.67000438  0.30791888  0.42857513  1
  O  O17  1  0.82418247  0.79560259  0.92452910  1
  O  O18  1  0.83019524  0.69428104  0.59180072  1
  O  O19  1  0.84192672  0.75501170  0.26038961  1
