# generated using pymatgen
data_VBO4
_symmetry_space_group_name_H-M   'P 1'
_cell_length_a   7.60245219
_cell_length_b   7.83329566
_cell_length_c   8.66625269
_cell_angle_alpha   107.52126245
_cell_angle_beta   96.18453003
_cell_angle_gamma   112.86450716
_symmetry_Int_Tables_number   1
_chemical_formula_structural   VBO4
_chemical_formula_sum   'V6 B6 O24'
_cell_volume   438.40104675
_cell_formula_units_Z   6
loop_
 _symmetry_equiv_pos_site_id
 _symmetry_equiv_pos_as_xyz
  1  'x, y, z'
loop_
 _atom_site_type_symbol
 _atom_site_label
 _atom_site_symmetry_multiplicity
 _atom_site_fract_x
 _atom_site_fract_y
 _atom_site_fract_z
 _atom_site_occupancy
  V  V0  1  0.95145520  0.00849164  0.25570814  1
  V  V1  1  0.18156154  0.63690543  0.33507215  1
  V  V2  1  0.49497549  0.71788893  0.84775057  1
  V  V3  1  0.50502451  0.28211107  0.15224943  1
  V  V4  1  0.81843846  0.36309457  0.66492785  1
  V  V5  1  0.04854480  0.99150836  0.74429186  1
  B  B6  1  0.92235172  0.73471024  0.93688264  1
  B  B7  1  0.18364031  0.36541722  0.54722136  1
  B  B8  1  0.51313242  0.90509216  0.21921061  1
  B  B9  1  0.48686758  0.09490784  0.78078939  1
  B  B10  1  0.81635969  0.63458278  0.45277864  1
  B  B11  1  0.07764828  0.26528976  0.06311736  1
  O  O12  1  0.06605438  0.86036063  0.86747990  1
  O  O13  1  0.99961838  0.70481595  0.39600537  1
  O  O14  1  0.08817315  0.46380966  0.13169462  1
  O  O15  1  0.99025970  0.81585149  0.11892788  1
  O  O16  1  0.28327431  0.06133371  0.70929036  1
  O  O17  1  0.34818809  0.47321758  0.69812127  1
  O  O18  1  0.48236863  0.90044970  0.77830780  1
  O  O19  1  0.16662058  0.17740535  0.42334133  1
  O  O20  1  0.20367592  0.50676084  0.46047877  1
  O  O21  1  0.38875591  0.83272849  0.32492443  1
  O  O22  1  0.27134982  0.26803205  0.11581177  1
  O  O23  1  0.43837728  0.76004750  0.04217184  1
  O  O24  1  0.56162272  0.23995250  0.95782816  1
  O  O25  1  0.72865018  0.73196795  0.88418823  1
  O  O26  1  0.61124409  0.16727151  0.67507557  1
  O  O27  1  0.79632408  0.49323916  0.53952123  1
  O  O28  1  0.83337942  0.82259465  0.57665867  1
  O  O29  1  0.51763137  0.09955030  0.22169220  1
  O  O30  1  0.65181191  0.52678242  0.30187873  1
  O  O31  1  0.71672569  0.93866629  0.29070964  1
  O  O32  1  0.00974030  0.18414851  0.88107212  1
  O  O33  1  0.91182685  0.53619034  0.86830538  1
  O  O34  1  0.00038162  0.29518405  0.60399463  1
  O  O35  1  0.93394562  0.13963937  0.13252010  1
