# generated using pymatgen
data_Li5Fe2Cu3O10
_symmetry_space_group_name_H-M   'P 1'
_cell_length_a   5.07002592
_cell_length_b   5.53122993
_cell_length_c   7.65158833
_cell_angle_alpha   102.49188758
_cell_angle_beta   103.96234291
_cell_angle_gamma   105.70693213
_symmetry_Int_Tables_number   1
_chemical_formula_structural   Li5Fe2Cu3O10
_chemical_formula_sum   'Li5 Fe2 Cu3 O10'
_cell_volume   191.13640873
_cell_formula_units_Z   1
loop_
 _symmetry_equiv_pos_site_id
 _symmetry_equiv_pos_as_xyz
  1  'x, y, z'
loop_
 _atom_site_type_symbol
 _atom_site_label
 _atom_site_symmetry_multiplicity
 _atom_site_fract_x
 _atom_site_fract_y
 _atom_site_fract_z
 _atom_site_occupancy
  Li  Li0  1  0.20474684  0.89450181  0.39397114  1
  Li  Li1  1  0.39621401  0.29537204  0.78793704  1
  Li  Li2  1  0.50000000  0.50000000  0.50000000  1
  Li  Li3  1  0.60378599  0.70462796  0.21206296  1
  Li  Li4  1  0.79525316  0.10549819  0.60602886  1
  Fe  Fe5  1  0.09576172  0.68420478  0.69040774  1
  Fe  Fe6  1  0.90423828  0.31579522  0.30959226  1
  Cu  Cu7  1  0.00000000  0.50000000  0.00000000  1
  Cu  Cu8  1  0.70101553  0.89056487  0.90092997  1
  Cu  Cu9  1  0.29898447  0.10943513  0.09907003  1
  O  O10  1  0.05352853  0.04304766  0.84874993  1
  O  O11  1  0.34959763  0.66886095  0.92682235  1
  O  O12  1  0.13471872  0.31542294  0.54063221  1
  O  O13  1  0.21547763  0.52927705  0.24549669  1
  O  O14  1  0.45492819  0.88672789  0.67013207  1
  O  O15  1  0.54507181  0.11327211  0.32986793  1
  O  O16  1  0.78452237  0.47072295  0.75450331  1
  O  O17  1  0.86528128  0.68457706  0.45936779  1
  O  O18  1  0.65040237  0.33113905  0.07317765  1
  O  O19  1  0.94647147  0.95695234  0.15125007  1
