# generated using pymatgen
data_Ni(TeO3)4
_symmetry_space_group_name_H-M   'P 1'
_cell_length_a   5.57622974
_cell_length_b   11.04688615
_cell_length_c   9.83401688
_cell_angle_alpha   27.62346183
_cell_angle_beta   50.48113609
_cell_angle_gamma   55.80447438
_symmetry_Int_Tables_number   1
_chemical_formula_structural   Ni(TeO3)4
_chemical_formula_sum   'Ni1 Te4 O12'
_cell_volume   216.66703445
_cell_formula_units_Z   1
loop_
 _symmetry_equiv_pos_site_id
 _symmetry_equiv_pos_as_xyz
  1  'x, y, z'
loop_
 _atom_site_type_symbol
 _atom_site_label
 _atom_site_symmetry_multiplicity
 _atom_site_fract_x
 _atom_site_fract_y
 _atom_site_fract_z
 _atom_site_occupancy
  Ni  Ni0  1  0.30587218  0.00732741  0.28178451  1
  Te  Te1  1  0.00109250  0.99630500  0.98698606  1
  Te  Te2  1  0.97120011  0.49661915  0.00399063  1
  Te  Te3  1  0.49249964  0.98454165  0.52278519  1
  Te  Te4  1  0.48578719  0.50657772  0.47897747  1
  O  O5  1  0.33953499  0.31578827  0.09887265  1
  O  O6  1  0.23956114  0.13090136  0.61894870  1
  O  O7  1  0.11844606  0.30614949  0.74892501  1
  O  O8  1  0.88826355  0.18467041  0.23189322  1
  O  O9  1  0.36436219  0.80661832  0.11115003  1
  O  O10  1  0.74335426  0.37060687  0.37147491  1
  O  O11  1  0.22284925  0.64462735  0.58713521  1
  O  O12  1  0.60838700  0.19595558  0.85510447  1
  O  O13  1  0.09674283  0.82348637  0.70535138  1
  O  O14  1  0.86099165  0.69846002  0.21314961  1
  O  O15  1  0.71750551  0.88640684  0.33459039  1
  O  O16  1  0.60284993  0.64495919  0.90817955  1
