# generated using pymatgen
data_Mn4CuO8
_symmetry_space_group_name_H-M   'P 1'
_cell_length_a   6.01074180
_cell_length_b   6.01074190
_cell_length_c   6.10076932
_cell_angle_alpha   87.40305401
_cell_angle_beta   59.56256833
_cell_angle_gamma   57.87260802
_symmetry_Int_Tables_number   1
_chemical_formula_structural   Mn4CuO8
_chemical_formula_sum   'Mn4 Cu1 O8'
_cell_volume   153.16928879
_cell_formula_units_Z   1
loop_
 _symmetry_equiv_pos_site_id
 _symmetry_equiv_pos_as_xyz
  1  'x, y, z'
loop_
 _atom_site_type_symbol
 _atom_site_label
 _atom_site_symmetry_multiplicity
 _atom_site_fract_x
 _atom_site_fract_y
 _atom_site_fract_z
 _atom_site_occupancy
  Mn  Mn0  1  0.00000000  0.50000000  0.50000000  1
  Mn  Mn1  1  0.00000000  0.00000000  0.00000000  1
  Mn  Mn2  1  0.50000000  0.00000000  0.00000000  1
  Mn  Mn3  1  0.00000000  0.50000000  0.00000000  1
  Cu  Cu4  1  0.50000000  0.50000000  0.00000000  1
  O  O5  1  0.46107015  0.26258835  0.80151821  1
  O  O6  1  0.97586593  0.27977411  0.80200324  1
  O  O7  1  0.47777187  0.77786817  0.80200324  1
  O  O8  1  0.96303494  0.74249143  0.77945649  1
  O  O9  1  0.03696506  0.25750857  0.22054351  1
  O  O10  1  0.52222813  0.22213183  0.19799676  1
  O  O11  1  0.02413407  0.72022589  0.19799676  1
  O  O12  1  0.53892985  0.73741165  0.19848179  1
