# generated using pymatgen
data_Ti2CuS4
_symmetry_space_group_name_H-M   'P 1'
_cell_length_a   6.77869929
_cell_length_b   7.05177100
_cell_length_c   6.63332453
_cell_angle_alpha   104.20420887
_cell_angle_beta   59.34191714
_cell_angle_gamma   118.76997826
_symmetry_Int_Tables_number   1
_chemical_formula_structural   Ti2CuS4
_chemical_formula_sum   'Ti4 Cu2 S8'
_cell_volume   239.09434227
_cell_formula_units_Z   2
loop_
 _symmetry_equiv_pos_site_id
 _symmetry_equiv_pos_as_xyz
  1  'x, y, z'
loop_
 _atom_site_type_symbol
 _atom_site_label
 _atom_site_symmetry_multiplicity
 _atom_site_fract_x
 _atom_site_fract_y
 _atom_site_fract_z
 _atom_site_occupancy
  Ti  Ti0  1  0.01022939  0.51627093  0.00316347  1
  Ti  Ti1  1  0.25505623  0.00207219  0.50052260  1
  Ti  Ti2  1  0.50708911  0.50189164  0.99664116  1
  Ti  Ti3  1  0.76516400  0.01636253  0.49398163  1
  Cu  Cu4  1  0.20301474  0.47491659  0.50567014  1
  Cu  Cu5  1  0.45903104  0.97348590  0.99187489  1
  S  S6  1  0.03224436  0.82802194  0.26823366  1
  S  S7  1  0.05251397  0.32806050  0.22892923  1
  S  S8  1  0.54529430  0.83699668  0.25472587  1
  S  S9  1  0.55205262  0.33686259  0.24230680  1
  S  S10  1  0.46485219  0.66446219  0.74383551  1
  S  S11  1  0.47733533  0.17872561  0.73472006  1
  S  S12  1  0.96282570  0.67891023  0.76251911  1
  S  S13  1  0.96101102  0.16465449  0.75296485  1
