# generated using pymatgen
data_Li3MnB4O9
_symmetry_space_group_name_H-M   'P 1'
_cell_length_a   5.81788269
_cell_length_b   8.74558125
_cell_length_c   6.69798284
_cell_angle_alpha   90.00000000
_cell_angle_beta   102.49346774
_cell_angle_gamma   90.00000000
_symmetry_Int_Tables_number   1
_chemical_formula_structural   Li3MnB4O9
_chemical_formula_sum   'Li6 Mn2 B8 O18'
_cell_volume   332.72861871
_cell_formula_units_Z   2
loop_
 _symmetry_equiv_pos_site_id
 _symmetry_equiv_pos_as_xyz
  1  'x, y, z'
loop_
 _atom_site_type_symbol
 _atom_site_label
 _atom_site_symmetry_multiplicity
 _atom_site_fract_x
 _atom_site_fract_y
 _atom_site_fract_z
 _atom_site_occupancy
  Li  Li0  1  0.23929685  0.56481636  0.16108257  1
  Li  Li1  1  0.23929685  0.93518364  0.16108257  1
  Li  Li2  1  0.42144366  0.25000000  0.50297722  1
  Li  Li3  1  0.57855634  0.75000000  0.49702278  1
  Li  Li4  1  0.76070315  0.06481636  0.83891743  1
  Li  Li5  1  0.76070315  0.43518364  0.83891743  1
  Mn  Mn6  1  0.24472247  0.25000000  0.88178514  1
  Mn  Mn7  1  0.75527753  0.75000000  0.11821486  1
  B  B8  1  0.00707924  0.25000000  0.22734722  1
  B  B9  1  0.13256109  0.75000000  0.46335755  1
  B  B10  1  0.28049774  0.95285145  0.71940744  1
  B  B11  1  0.28049774  0.54714855  0.71940744  1
  B  B12  1  0.71950226  0.04714855  0.28059256  1
  B  B13  1  0.71950226  0.45285145  0.28059256  1
  B  B14  1  0.86743891  0.25000000  0.53664245  1
  B  B15  1  0.99292076  0.75000000  0.77265278  1
  O  O16  1  0.13920590  0.60793933  0.84504259  1
  O  O17  1  0.13920590  0.89206067  0.84504259  1
  O  O18  1  0.07466790  0.25000000  0.44987810  1
  O  O19  1  0.08064351  0.75000000  0.23969182  1
  O  O20  1  0.28698968  0.61376049  0.53397493  1
  O  O21  1  0.28698968  0.88623951  0.53397493  1
  O  O22  1  0.22220092  0.25000000  0.15100294  1
  O  O23  1  0.41441130  0.08079856  0.78112403  1
  O  O24  1  0.41441130  0.41920144  0.78112403  1
  O  O25  1  0.58558870  0.91920144  0.21887597  1
  O  O26  1  0.58558870  0.58079856  0.21887597  1
  O  O27  1  0.77779908  0.75000000  0.84899706  1
  O  O28  1  0.71301032  0.11376049  0.46602507  1
  O  O29  1  0.71301032  0.38623951  0.46602507  1
  O  O30  1  0.91935649  0.25000000  0.76030818  1
  O  O31  1  0.92533210  0.75000000  0.55012190  1
  O  O32  1  0.86079410  0.10793933  0.15495741  1
  O  O33  1  0.86079410  0.39206067  0.15495741  1
