# generated using pymatgen
data_Li3Fe(BO3)2
_symmetry_space_group_name_H-M   'P 1'
_cell_length_a   8.17763698
_cell_length_b   6.37590664
_cell_length_c   9.53586711
_cell_angle_alpha   90.00000000
_cell_angle_beta   66.87994827
_cell_angle_gamma   90.00000000
_symmetry_Int_Tables_number   1
_chemical_formula_structural   Li3Fe(BO3)2
_chemical_formula_sum   'Li12 Fe4 B8 O24'
_cell_volume   457.26573832
_cell_formula_units_Z   4
loop_
 _symmetry_equiv_pos_site_id
 _symmetry_equiv_pos_as_xyz
  1  'x, y, z'
loop_
 _atom_site_type_symbol
 _atom_site_label
 _atom_site_symmetry_multiplicity
 _atom_site_fract_x
 _atom_site_fract_y
 _atom_site_fract_z
 _atom_site_occupancy
  Li  Li0  1  0.09368121  0.24661413  0.48224888  1
  Li  Li1  1  0.05213088  0.55026478  0.67755631  1
  Li  Li2  1  0.40631879  0.74661413  0.01775112  1
  Li  Li3  1  0.30278490  0.77725019  0.53427993  1
  Li  Li4  1  0.55213088  0.94973522  0.17755631  1
  Li  Li5  1  0.19721510  0.27725019  0.96572007  1
  Li  Li6  1  0.80278490  0.72274981  0.03427993  1
  Li  Li7  1  0.44786912  0.05026478  0.82244369  1
  Li  Li8  1  0.69721510  0.22274981  0.46572007  1
  Li  Li9  1  0.59368121  0.25338587  0.98224888  1
  Li  Li10  1  0.94786912  0.44973522  0.32244369  1
  Li  Li11  1  0.90631879  0.75338587  0.51775112  1
  Fe  Fe12  1  0.99733925  0.04151725  0.81990338  1
  Fe  Fe13  1  0.49733925  0.45848275  0.31990338  1
  Fe  Fe14  1  0.50266075  0.54151725  0.68009662  1
  Fe  Fe15  1  0.00266075  0.95848275  0.18009662  1
  B  B16  1  0.27501521  0.15824223  0.18652644  1
  B  B17  1  0.22498479  0.65824223  0.31347356  1
  B  B18  1  0.18953317  0.66744501  0.88418553  1
  B  B19  1  0.31046683  0.16744501  0.61581447  1
  B  B20  1  0.68953317  0.83255499  0.38418553  1
  B  B21  1  0.81046683  0.33255499  0.11581447  1
  B  B22  1  0.77501521  0.34175777  0.68652644  1
  B  B23  1  0.72498479  0.84175777  0.81347356  1
  O  O24  1  0.08033529  0.71892853  0.28251412  1
  O  O25  1  0.09769888  0.19403682  0.27919448  1
  O  O26  1  0.29846793  0.04687176  0.05369610  1
  O  O27  1  0.20153207  0.54687176  0.44630390  1
  O  O28  1  0.40230112  0.69403682  0.22080552  1
  O  O29  1  0.04885055  0.80460724  0.95976614  1
  O  O30  1  0.22290682  0.05212708  0.54785392  1
  O  O31  1  0.41966471  0.21892853  0.21748588  1
  O  O32  1  0.25162137  0.64795476  0.72606058  1
  O  O33  1  0.24837863  0.14795476  0.77393942  1
  O  O34  1  0.27709318  0.55212708  0.95214608  1
  O  O35  1  0.45114945  0.30460724  0.54023386  1
  O  O36  1  0.54885055  0.69539276  0.45976614  1
  O  O37  1  0.72290682  0.44787292  0.04785392  1
  O  O38  1  0.75162137  0.85204524  0.22606058  1
  O  O39  1  0.74837863  0.35204524  0.27393942  1
  O  O40  1  0.58033529  0.78107147  0.78251412  1
  O  O41  1  0.77709318  0.94787292  0.45214608  1
  O  O42  1  0.95114945  0.19539276  0.04023386  1
  O  O43  1  0.59769888  0.30596318  0.77919448  1
  O  O44  1  0.79846793  0.45312824  0.55369610  1
  O  O45  1  0.70153207  0.95312824  0.94630390  1
  O  O46  1  0.90230112  0.80596318  0.72080552  1
  O  O47  1  0.91966471  0.28107147  0.71748588  1
