# generated using pymatgen
data_Li4FeCo5O12
_symmetry_space_group_name_H-M   'P 1'
_cell_length_a   4.94850275
_cell_length_b   4.92415194
_cell_length_c   9.96202866
_cell_angle_alpha   89.91771665
_cell_angle_beta   89.94540457
_cell_angle_gamma   59.83344276
_symmetry_Int_Tables_number   1
_chemical_formula_structural   Li4FeCo5O12
_chemical_formula_sum   'Li4 Fe1 Co5 O12'
_cell_volume   209.87072970
_cell_formula_units_Z   1
loop_
 _symmetry_equiv_pos_site_id
 _symmetry_equiv_pos_as_xyz
  1  'x, y, z'
loop_
 _atom_site_type_symbol
 _atom_site_label
 _atom_site_symmetry_multiplicity
 _atom_site_fract_x
 _atom_site_fract_y
 _atom_site_fract_z
 _atom_site_occupancy
  Li  Li0  1  0.15394638  0.51115710  0.74848628  1
  Li  Li1  1  0.34154890  0.49716806  0.25092226  1
  Li  Li2  1  0.65388799  0.50839517  0.74907069  1
  Li  Li3  1  0.84061246  0.49895023  0.24979017  1
  Fe  Fe4  1  0.00324555  0.99918712  0.00019108  1
  Co  Co5  1  0.16475749  0.66880514  0.49923226  1
  Co  Co6  1  0.66866918  0.66766665  0.00003674  1
  Co  Co7  1  0.33757586  0.32915778  0.99972759  1
  Co  Co8  1  0.83636131  0.32536860  0.49986012  1
  Co  Co9  1  0.49930111  0.99953340  0.49953370  1
  O  O10  1  0.01042916  0.64639518  0.10585712  1
  O  O11  1  0.34648587  0.64809491  0.89433285  1
  O  O12  1  0.16355765  0.33594230  0.39881129  1
  O  O13  1  0.50714358  0.65675363  0.39895492  1
  O  O14  1  0.49784858  0.33653925  0.60044859  1
  O  O15  1  0.16458739  0.00222793  0.59584180  1
  O  O16  1  0.83436971  0.65744751  0.60000828  1
  O  O17  1  0.65856498  0.34979903  0.10577255  1
  O  O18  1  0.33836588  0.99854948  0.09859591  1
  O  O19  1  0.99522127  0.35114975  0.89377844  1
  O  O20  1  0.66874849  0.99778299  0.90147170  1
  O  O21  1  0.83034520  0.00451679  0.40332167  1
