# generated using pymatgen
data_Li3CoSiCO7
_symmetry_space_group_name_H-M   'P 1'
_cell_length_a   8.39455075
_cell_length_b   6.28956250
_cell_length_c   5.03636574
_cell_angle_alpha   90.00000000
_cell_angle_beta   85.16944931
_cell_angle_gamma   90.00000000
_symmetry_Int_Tables_number   1
_chemical_formula_structural   Li3CoSiCO7
_chemical_formula_sum   'Li6 Co2 Si2 C2 O14'
_cell_volume   264.96581122
_cell_formula_units_Z   2
loop_
 _symmetry_equiv_pos_site_id
 _symmetry_equiv_pos_as_xyz
  1  'x, y, z'
loop_
 _atom_site_type_symbol
 _atom_site_label
 _atom_site_symmetry_multiplicity
 _atom_site_fract_x
 _atom_site_fract_y
 _atom_site_fract_z
 _atom_site_occupancy
  Li  Li0  1  0.10180891  0.25000000  0.75623884  1
  Li  Li1  1  0.27791670  0.02024736  0.24488965  1
  Li  Li2  1  0.27791670  0.47975264  0.24488965  1
  Li  Li3  1  0.72208330  0.52024736  0.75511035  1
  Li  Li4  1  0.72208330  0.97975264  0.75511035  1
  Li  Li5  1  0.89819109  0.75000000  0.24376116  1
  Co  Co6  1  0.33131019  0.75000000  0.80181612  1
  Co  Co7  1  0.66868981  0.25000000  0.19818388  1
  Si  Si8  1  0.42135527  0.25000000  0.70850107  1
  Si  Si9  1  0.57864473  0.75000000  0.29149893  1
  C  C10  1  0.03197106  0.75000000  0.70981571  1
  C  C11  1  0.96802894  0.25000000  0.29018429  1
  O  O12  1  0.11491556  0.25000000  0.34993425  1
  O  O13  1  0.06891828  0.75000000  0.95442240  1
  O  O14  1  0.14738718  0.75000000  0.52076365  1
  O  O15  1  0.30392040  0.04999508  0.81174528  1
  O  O16  1  0.30392040  0.45000492  0.81174528  1
  O  O17  1  0.44725889  0.25000000  0.37984246  1
  O  O18  1  0.40559411  0.75000000  0.17007094  1
  O  O19  1  0.59440589  0.25000000  0.82992906  1
  O  O20  1  0.55274111  0.75000000  0.62015754  1
  O  O21  1  0.69607960  0.54999508  0.18825472  1
  O  O22  1  0.69607960  0.95000492  0.18825472  1
  O  O23  1  0.85261282  0.25000000  0.47923635  1
  O  O24  1  0.93108172  0.25000000  0.04557760  1
  O  O25  1  0.88508444  0.75000000  0.65006575  1
