# generated using pymatgen
data_Mn5SnO12
_symmetry_space_group_name_H-M   'P 1'
_cell_length_a   5.16144031
_cell_length_b   5.16406014
_cell_length_c   10.56086017
_cell_angle_alpha   89.97518864
_cell_angle_beta   89.95035408
_cell_angle_gamma   60.01678405
_symmetry_Int_Tables_number   1
_chemical_formula_structural   Mn5SnO12
_chemical_formula_sum   'Mn5 Sn1 O12'
_cell_volume   243.81778834
_cell_formula_units_Z   1
loop_
 _symmetry_equiv_pos_site_id
 _symmetry_equiv_pos_as_xyz
  1  'x, y, z'
loop_
 _atom_site_type_symbol
 _atom_site_label
 _atom_site_symmetry_multiplicity
 _atom_site_fract_x
 _atom_site_fract_y
 _atom_site_fract_z
 _atom_site_occupancy
  Mn  Mn0  1  0.16674611  0.66650678  0.50000000  1
  Mn  Mn1  1  0.66667346  0.66665308  0.00000000  1
  Mn  Mn2  1  0.33332654  0.33334692  1.00000000  1
  Mn  Mn3  1  0.83325389  0.33349322  0.50000000  1
  Mn  Mn4  1  0.50000000  0.00000000  0.50000000  1
  Sn  Sn5  1  0.00000000  0.00000000  0.00000000  1
  O  O6  1  0.99992670  0.64539577  0.09488426  1
  O  O7  1  0.35467753  0.64539577  0.90511574  1
  O  O8  1  0.16685114  0.33325877  0.41160846  1
  O  O9  1  0.50010991  0.66674123  0.41160846  1
  O  O10  1  0.49989009  0.33325877  0.58839154  1
  O  O11  1  0.16633851  0.00000000  0.58846268  1
  O  O12  1  0.83314886  0.66674123  0.58839154  1
  O  O13  1  0.64532247  0.35460423  0.09488426  1
  O  O14  1  0.35444903  0.00000000  0.09489386  1
  O  O15  1  0.00007330  0.35460423  0.90511574  1
  O  O16  1  0.64555097  1.00000000  0.90510614  1
  O  O17  1  0.83366149  1.00000000  0.41153732  1
