# generated using pymatgen
data_Cd(FeO2)2
_symmetry_space_group_name_H-M   'P 1'
_cell_length_a   10.86744244
_cell_length_b   9.37785105
_cell_length_c   3.03404699
_cell_angle_alpha   90.00000000
_cell_angle_beta   90.00000000
_cell_angle_gamma   90.00000000
_symmetry_Int_Tables_number   1
_chemical_formula_structural   Cd(FeO2)2
_chemical_formula_sum   'Cd4 Fe8 O16'
_cell_volume   309.20960912
_cell_formula_units_Z   4
loop_
 _symmetry_equiv_pos_site_id
 _symmetry_equiv_pos_as_xyz
  1  'x, y, z'
loop_
 _atom_site_type_symbol
 _atom_site_label
 _atom_site_symmetry_multiplicity
 _atom_site_fract_x
 _atom_site_fract_y
 _atom_site_fract_z
 _atom_site_occupancy
  Cd  Cd0  1  0.15642841  0.74275592  0.25000000  1
  Cd  Cd1  1  0.34357159  0.24275592  0.25000000  1
  Cd  Cd2  1  0.65642841  0.75724408  0.75000000  1
  Cd  Cd3  1  0.84357159  0.25724408  0.75000000  1
  Fe  Fe4  1  0.10363927  0.41577096  0.75000000  1
  Fe  Fe5  1  0.11361838  0.06268266  0.25000000  1
  Fe  Fe6  1  0.38638162  0.56268266  0.25000000  1
  Fe  Fe7  1  0.39636073  0.91577096  0.75000000  1
  Fe  Fe8  1  0.60363927  0.08422904  0.25000000  1
  Fe  Fe9  1  0.61361838  0.43731734  0.75000000  1
  Fe  Fe10  1  0.88638162  0.93731734  0.75000000  1
  Fe  Fe11  1  0.89636073  0.58422904  0.25000000  1
  O  O12  1  0.02568187  0.61673412  0.75000000  1
  O  O13  1  0.07103468  0.91789946  0.75000000  1
  O  O14  1  0.16138514  0.20273099  0.75000000  1
  O  O15  1  0.21573150  0.46870435  0.25000000  1
  O  O16  1  0.28426850  0.96870435  0.25000000  1
  O  O17  1  0.33861486  0.70273099  0.75000000  1
  O  O18  1  0.42896532  0.41789946  0.75000000  1
  O  O19  1  0.47431813  0.11673412  0.75000000  1
  O  O20  1  0.52568187  0.88326588  0.25000000  1
  O  O21  1  0.57103468  0.58210054  0.25000000  1
  O  O22  1  0.66138514  0.29726901  0.25000000  1
  O  O23  1  0.71573150  0.03129565  0.75000000  1
  O  O24  1  0.78426850  0.53129565  0.75000000  1
  O  O25  1  0.83861486  0.79726901  0.25000000  1
  O  O26  1  0.92896532  0.08210054  0.25000000  1
  O  O27  1  0.97431813  0.38326588  0.25000000  1
