# generated using pymatgen
data_FeCo5O12
_symmetry_space_group_name_H-M   'P 1'
_cell_length_a   4.96222931
_cell_length_b   4.97160395
_cell_length_c   9.86889202
_cell_angle_alpha   90.01037209
_cell_angle_beta   90.02079712
_cell_angle_gamma   60.06235843
_symmetry_Int_Tables_number   1
_chemical_formula_structural   FeCo5O12
_chemical_formula_sum   'Fe1 Co5 O12'
_cell_volume   210.98175819
_cell_formula_units_Z   1
loop_
 _symmetry_equiv_pos_site_id
 _symmetry_equiv_pos_as_xyz
  1  'x, y, z'
loop_
 _atom_site_type_symbol
 _atom_site_label
 _atom_site_symmetry_multiplicity
 _atom_site_fract_x
 _atom_site_fract_y
 _atom_site_fract_z
 _atom_site_occupancy
  Fe  Fe0  1  0.00000000  0.00000000  0.00000000  1
  Co  Co1  1  0.16668086  0.66663828  0.50000000  1
  Co  Co2  1  0.66664930  0.66670140  1.00000000  1
  Co  Co3  1  0.33335070  0.33329860  0.00000000  1
  Co  Co4  1  0.83331914  0.33336172  0.50000000  1
  Co  Co5  1  0.50000000  0.00000000  0.50000000  1
  O  O6  1  -0.00001658  0.65592480  0.09758288  1
  O  O7  1  0.34409077  0.65592480  0.90241712  1
  O  O8  1  0.16670224  0.33327473  0.40539040  1
  O  O9  1  0.49997797  0.66672527  0.40539040  1
  O  O10  1  0.50002203  0.33327473  0.59460960  1
  O  O11  1  0.16664951  0.00000000  0.59465669  1
  O  O12  1  0.83329776  0.66672527  0.59460960  1
  O  O13  1  0.65590923  0.34407520  0.09758288  1
  O  O14  1  0.34411659  0.00000000  0.09758065  1
  O  O15  1  0.00001558  0.34407520  0.90241712  1
  O  O16  1  0.65588341  1.00000000  0.90241935  1
  O  O17  1  0.83335049  1.00000000  0.40534331  1
