# generated using pymatgen
data_LiNbNiO4
_symmetry_space_group_name_H-M   'P 1'
_cell_length_a   6.02914855
_cell_length_b   6.07717659
_cell_length_c   6.07717628
_cell_angle_alpha   61.28974968
_cell_angle_beta   60.26108018
_cell_angle_gamma   60.26108184
_symmetry_Int_Tables_number   1
_chemical_formula_structural   LiNbNiO4
_chemical_formula_sum   'Li2 Nb2 Ni2 O8'
_cell_volume   159.56450385
_cell_formula_units_Z   2
loop_
 _symmetry_equiv_pos_site_id
 _symmetry_equiv_pos_as_xyz
  1  'x, y, z'
loop_
 _atom_site_type_symbol
 _atom_site_label
 _atom_site_symmetry_multiplicity
 _atom_site_fract_x
 _atom_site_fract_y
 _atom_site_fract_z
 _atom_site_occupancy
  Li  Li0  1  0.13601811  0.11398189  0.11398189  1
  Li  Li1  1  0.86398189  0.88601811  0.88601811  1
  Nb  Nb2  1  0.50000000  0.00000000  0.50000000  1
  Nb  Nb3  1  0.50000000  0.50000000  0.00000000  1
  Ni  Ni4  1  0.00000000  0.50000000  0.50000000  1
  Ni  Ni5  1  0.50000000  0.50000000  0.50000000  1
  O  O6  1  0.27824263  0.24841465  0.24841465  1
  O  O7  1  0.26997337  0.25100293  0.70905033  1
  O  O8  1  0.26997337  0.70905033  0.25100293  1
  O  O9  1  0.72492907  0.24841465  0.24841465  1
  O  O10  1  0.27507093  0.75158535  0.75158535  1
  O  O11  1  0.73002663  0.74899707  0.29094967  1
  O  O12  1  0.73002663  0.29094967  0.74899707  1
  O  O13  1  0.72175737  0.75158535  0.75158535  1
