# generated using pymatgen
data_LiCoPO4
_symmetry_space_group_name_H-M   'P 1'
_cell_length_a   5.70677517
_cell_length_b   10.70056042
_cell_length_c   9.91070809
_cell_angle_alpha   90.00000000
_cell_angle_beta   91.69335634
_cell_angle_gamma   90.00000000
_symmetry_Int_Tables_number   1
_chemical_formula_structural   LiCoPO4
_chemical_formula_sum   'Li8 Co8 P8 O32'
_cell_volume   604.93995627
_cell_formula_units_Z   8
loop_
 _symmetry_equiv_pos_site_id
 _symmetry_equiv_pos_as_xyz
  1  'x, y, z'
loop_
 _atom_site_type_symbol
 _atom_site_label
 _atom_site_symmetry_multiplicity
 _atom_site_fract_x
 _atom_site_fract_y
 _atom_site_fract_z
 _atom_site_occupancy
  Li  Li0  1  0.12651819  0.14401513  0.88350182  1
  Li  Li1  1  0.12651819  0.35598487  0.38350182  1
  Li  Li2  1  0.38776119  0.66067544  0.64072630  1
  Li  Li3  1  0.38776119  0.83932456  0.14072630  1
  Li  Li4  1  0.61223881  0.16067544  0.85927370  1
  Li  Li5  1  0.61223881  0.33932456  0.35927370  1
  Li  Li6  1  0.87348181  0.64401513  0.61649818  1
  Li  Li7  1  0.87348181  0.85598487  0.11649818  1
  Co  Co8  1  0.11674491  0.90148702  0.73472348  1
  Co  Co9  1  0.11674491  0.59851298  0.23472348  1
  Co  Co10  1  0.34893073  0.37218563  0.99274802  1
  Co  Co11  1  0.34893073  0.12781437  0.49274802  1
  Co  Co12  1  0.65106927  0.87218563  0.50725198  1
  Co  Co13  1  0.65106927  0.62781437  0.00725198  1
  Co  Co14  1  0.88325509  0.40148702  0.76527652  1
  Co  Co15  1  0.88325509  0.09851298  0.26527652  1
  P  P16  1  0.12749507  0.64136204  0.90933067  1
  P  P17  1  0.12749507  0.85863796  0.40933067  1
  P  P18  1  0.37643912  0.39392298  0.66236161  1
  P  P19  1  0.37643912  0.10607702  0.16236161  1
  P  P20  1  0.62356088  0.89392298  0.83763839  1
  P  P21  1  0.62356088  0.60607702  0.33763839  1
  P  P22  1  0.87250493  0.14136204  0.59066933  1
  P  P23  1  0.87250493  0.35863796  0.09066933  1
  O  O24  1  0.08688003  0.78776664  0.54324923  1
  O  O25  1  0.09918456  0.06332366  0.62232629  1
  O  O26  1  0.08688003  0.71223336  0.04324923  1
  O  O27  1  0.09918456  0.43667634  0.12232629  1
  O  O28  1  0.16632352  0.72713093  0.78835271  1
  O  O29  1  0.14985848  0.47571497  0.65116574  1
  O  O30  1  0.16632352  0.77286907  0.28835271  1
  O  O31  1  0.14985848  0.02428503  0.15116574  1
  O  O32  1  0.34641386  0.55649402  0.92489153  1
  O  O33  1  0.36713894  0.30845728  0.79100057  1
  O  O34  1  0.34641386  0.94350598  0.42489153  1
  O  O35  1  0.38818832  0.31266293  0.53145825  1
  O  O36  1  0.40653951  0.98218943  0.82909317  1
  O  O37  1  0.36713894  0.19154272  0.29100057  1
  O  O38  1  0.38818832  0.18733707  0.03145825  1
  O  O39  1  0.40653951  0.51781057  0.32909317  1
  O  O40  1  0.59346049  0.48218943  0.67090683  1
  O  O41  1  0.61181168  0.81266293  0.96854175  1
  O  O42  1  0.63286106  0.80845728  0.70899943  1
  O  O43  1  0.59346049  0.01781157  0.17090683  1
  O  O44  1  0.61181168  0.68733707  0.46854175  1
  O  O45  1  0.65358614  0.05649402  0.57510847  1
  O  O46  1  0.63286106  0.69154272  0.20899943  1
  O  O47  1  0.65358614  0.44350598  0.07510847  1
  O  O48  1  0.85014152  0.97571497  0.84883426  1
  O  O49  1  0.83367648  0.22713093  0.71164729  1
  O  O50  1  0.85014152  0.52428503  0.34883426  1
  O  O51  1  0.83367648  0.27286907  0.21164729  1
  O  O52  1  0.90081544  0.56332366  0.87767371  1
  O  O53  1  0.91311997  0.28776664  0.95675077  1
  O  O54  1  0.90081544  0.93667634  0.37767371  1
  O  O55  1  0.91311997  0.21223336  0.45675077  1
