# generated using pymatgen
data_Y2W2O9
_symmetry_space_group_name_H-M   'P 1'
_cell_length_a   7.46522674
_cell_length_b   7.12889850
_cell_length_c   6.73511336
_cell_angle_alpha   97.38528057
_cell_angle_beta   95.65034494
_cell_angle_gamma   70.76019681
_symmetry_Int_Tables_number   1
_chemical_formula_structural   Y2W2O9
_chemical_formula_sum   'Y4 W4 O18'
_cell_volume   335.00515496
_cell_formula_units_Z   2
loop_
 _symmetry_equiv_pos_site_id
 _symmetry_equiv_pos_as_xyz
  1  'x, y, z'
loop_
 _atom_site_type_symbol
 _atom_site_label
 _atom_site_symmetry_multiplicity
 _atom_site_fract_x
 _atom_site_fract_y
 _atom_site_fract_z
 _atom_site_occupancy
  Y  Y0  1  0.15353857  0.26038457  0.84675291  1
  Y  Y1  1  0.37498830  0.28691002  0.38454017  1
  Y  Y2  1  0.62501170  0.71308998  0.61545983  1
  Y  Y3  1  0.84646143  0.73961543  0.15324709  1
  W  W4  1  0.05429860  0.73619948  0.73251877  1
  W  W5  1  0.36824626  0.79292574  0.15923782  1
  W  W6  1  0.63175374  0.20707426  0.84076218  1
  W  W7  1  0.94570140  0.26380052  0.26748123  1
  O  O8  1  0.09335077  0.23551621  0.50393928  1
  O  O9  1  0.21722861  0.06982676  0.14785700  1
  O  O10  1  0.09115532  0.42955282  0.18210330  1
  O  O11  1  0.24735686  0.50296828  0.67119106  1
  O  O12  1  0.14034724  0.73885046  0.03876414  1
  O  O13  1  0.15710722  0.93713926  0.73936132  1
  O  O14  1  0.45693973  0.08821140  0.68539253  1
  O  O15  1  0.38146365  0.64177261  0.36686717  1
  O  O16  1  0.46744153  0.30466896  0.04306939  1
  O  O17  1  0.53255847  0.69533104  0.95693061  1
  O  O18  1  0.61853635  0.35822739  0.63313283  1
  O  O19  1  0.54306027  0.91178860  0.31460747  1
  O  O20  1  0.84289278  0.06286074  0.26063868  1
  O  O21  1  0.85965276  0.26114954  0.96123586  1
  O  O22  1  0.75264314  0.49703172  0.32880894  1
  O  O23  1  0.90884468  0.57044718  0.81789670  1
  O  O24  1  0.78277139  0.93017324  0.85214300  1
  O  O25  1  0.90664923  0.76448379  0.49606072  1
