# generated using pymatgen
data_MnCo(PO4)2
_symmetry_space_group_name_H-M   'P 1'
_cell_length_a   8.45359018
_cell_length_b   8.60074083
_cell_length_c   8.60074052
_cell_angle_alpha   59.99999711
_cell_angle_beta   59.42249873
_cell_angle_gamma   59.42249411
_symmetry_Int_Tables_number   1
_chemical_formula_structural   MnCo(PO4)2
_chemical_formula_sum   'Mn3 Co3 P6 O24'
_cell_volume   438.27961941
_cell_formula_units_Z   3
loop_
 _symmetry_equiv_pos_site_id
 _symmetry_equiv_pos_as_xyz
  1  'x, y, z'
loop_
 _atom_site_type_symbol
 _atom_site_label
 _atom_site_symmetry_multiplicity
 _atom_site_fract_x
 _atom_site_fract_y
 _atom_site_fract_z
 _atom_site_occupancy
  Mn  Mn0  1  0.07426842  0.64191019  0.64191019  1
  Mn  Mn1  1  0.42533304  0.85822199  0.85822199  1
  Mn  Mn2  1  0.92787028  0.35737657  0.35737657  1
  Co  Co3  1  0.99231889  0.00256037  0.00256037  1
  Co  Co4  1  0.57028143  0.14323952  0.14323952  1
  Co  Co5  1  0.50214596  0.49928468  0.49928468  1
  P  P6  1  0.24813795  0.24974795  0.54490488  1
  P  P7  1  0.24813795  0.95720922  0.24974795  1
  P  P8  1  0.24813795  0.54490488  0.95720922  1
  P  P9  1  0.75279675  0.45823870  0.04013306  1
  P  P10  1  0.75279675  0.04013306  0.74883149  1
  P  P11  1  0.75279675  0.74883149  0.45823870  1
  O  O12  1  0.06133450  0.11648031  0.31118373  1
  O  O13  1  0.06133450  0.51100146  0.11648031  1
  O  O14  1  0.06133450  0.31118373  0.51100146  1
  O  O15  1  0.22251496  0.09164572  0.74726598  1
  O  O16  1  0.43755163  0.18655511  0.38818655  1
  O  O17  1  0.26921291  0.41400051  0.56054833  1
  O  O18  1  0.22251496  0.93857235  0.09164572  1
  O  O19  1  0.26921291  0.75623824  0.41400051  1
  O  O20  1  0.56385086  0.61507277  0.00736957  1
  O  O21  1  0.26921291  0.56054833  0.75623824  1
  O  O22  1  0.77851896  0.25776026  0.05704781  1
  O  O23  1  0.56385086  0.00736957  0.81370780  1
  O  O24  1  0.43755163  0.98770571  0.18655511  1
  O  O25  1  0.22251496  0.74726598  0.93857235  1
  O  O26  1  0.72898695  0.44562502  0.23922242  1
  O  O27  1  0.43755163  0.38818655  0.98770571  1
  O  O28  1  0.72898695  0.23922242  0.58616561  1
  O  O29  1  0.77851896  0.05704781  0.90667197  1
  O  O30  1  0.72898695  0.58616561  0.44562502  1
  O  O31  1  0.56385086  0.81370780  0.61507277  1
  O  O32  1  0.77851896  0.90667197  0.25776026  1
  O  O33  1  0.93968887  0.68222663  0.49756582  1
  O  O34  1  0.93968887  0.49756582  0.88051969  1
  O  O35  1  0.93968887  0.88051969  0.68222663  1
