# generated using pymatgen
data_Li2Cr2O7
_symmetry_space_group_name_H-M   'P 1'
_cell_length_a   7.19147771
_cell_length_b   6.50883895
_cell_length_c   6.68787994
_cell_angle_alpha   83.82650686
_cell_angle_beta   96.47814047
_cell_angle_gamma   112.96372204
_symmetry_Int_Tables_number   1
_chemical_formula_structural   Li2Cr2O7
_chemical_formula_sum   'Li4 Cr4 O14'
_cell_volume   285.70748157
_cell_formula_units_Z   2
loop_
 _symmetry_equiv_pos_site_id
 _symmetry_equiv_pos_as_xyz
  1  'x, y, z'
loop_
 _atom_site_type_symbol
 _atom_site_label
 _atom_site_symmetry_multiplicity
 _atom_site_fract_x
 _atom_site_fract_y
 _atom_site_fract_z
 _atom_site_occupancy
  Li  Li0  1  0.36880945  0.90908023  0.45682298  1
  Li  Li1  1  0.22161335  0.26759790  0.17006773  1
  Li  Li2  1  0.88000402  0.40192000  0.36965066  1
  Li  Li3  1  0.80927537  0.03014452  0.78361995  1
  Cr  Cr4  1  0.19917346  0.80291847  0.95762921  1
  Cr  Cr5  1  0.28806078  0.36187158  0.61442429  1
  Cr  Cr6  1  0.78036726  0.89234668  0.31592024  1
  Cr  Cr7  1  0.73194328  0.49519319  0.87801842  1
  O  O8  1  0.18900682  0.55659698  0.03968607  1
  O  O9  1  0.33912354  0.89384986  0.76676950  1
  O  O10  1  0.18672631  0.52402590  0.48565782  1
  O  O11  1  0.12774681  0.18902131  0.76778764  1
  O  O12  1  0.59322971  0.76349510  0.15490690  1
  O  O13  1  0.68884114  0.97468630  0.50443853  1
  O  O14  1  0.51579600  0.52533837  0.75666225  1
  O  O15  1  0.28503306  0.97602868  0.13850874  1
  O  O16  1  0.34422868  0.22306633  0.45586929  1
  O  O17  1  0.69025124  0.38138212  0.10227512  1
  O  O18  1  0.92864076  0.75752904  0.88437113  1
  O  O19  1  0.89643643  0.72089222  0.40188745  1
  O  O20  1  0.79136893  0.33409953  0.75189424  1
  O  O21  1  0.93897259  0.12636867  0.19787882  1
