# generated using pymatgen
data_ZnSnSb2
_symmetry_space_group_name_H-M   'P 1'
_cell_length_a   4.53519274
_cell_length_b   4.53517820
_cell_length_c   62.89263857
_cell_angle_alpha   49.54611125
_cell_angle_beta   49.54696703
_cell_angle_gamma   59.19149310
_symmetry_Int_Tables_number   1
_chemical_formula_structural   ZnSnSb2
_chemical_formula_sum   'Zn6 Sn6 Sb12'
_cell_volume   739.65497261
_cell_formula_units_Z   6
loop_
 _symmetry_equiv_pos_site_id
 _symmetry_equiv_pos_as_xyz
  1  'x, y, z'
loop_
 _atom_site_type_symbol
 _atom_site_label
 _atom_site_symmetry_multiplicity
 _atom_site_fract_x
 _atom_site_fract_y
 _atom_site_fract_z
 _atom_site_occupancy
  Zn  Zn0  1  0.88307370  0.88307324  0.03050031  1
  Zn  Zn1  1  0.92685389  0.92686512  0.10230080  1
  Zn  Zn2  1  0.97708598  0.97707763  0.17495684  1
  Zn  Zn3  1  0.02777563  0.02772161  0.24810788  1
  Zn  Zn4  1  0.06498386  0.06501104  0.32219459  1
  Zn  Zn5  1  0.10624344  0.10615088  0.39536479  1
  Sn  Sn6  1  0.08066646  0.08080223  0.47260816  1
  Sn  Sn7  1  0.12342036  0.12340228  0.56244371  1
  Sn  Sn8  1  0.05366850  0.05368181  0.65765955  1
  Sn  Sn9  1  0.03516805  0.03512590  0.75007882  1
  Sn  Sn10  1  0.00396004  0.00401591  0.93520260  1
  Sn  Sn11  1  0.00203012  0.00203891  0.84301134  1
  Sb  Sb12  1  0.14220114  0.14220863  0.04200667  1
  Sb  Sb13  1  0.17844021  0.17843844  0.11532473  1
  Sb  Sb14  1  0.23159125  0.23155826  0.18690808  1
  Sb  Sb15  1  0.28731240  0.28726519  0.25945352  1
  Sb  Sb16  1  0.35081023  0.35086562  0.32984343  1
  Sb  Sb17  1  0.37998061  0.37989518  0.40562732  1
  Sb  Sb18  1  0.22225969  0.22235613  0.50527486  1
  Sb  Sb19  1  0.26313935  0.26311549  0.59538704  1
  Sb  Sb20  1  0.19599672  0.19597989  0.68987086  1
  Sb  Sb21  1  0.17637958  0.17635519  0.78261845  1
  Sb  Sb22  1  0.14082036  0.14082448  0.87585466  1
  Sb  Sb23  1  0.14613842  0.14617094  0.96740098  1
