# generated using pymatgen
data_Li4Fe3CoO8
_symmetry_space_group_name_H-M   'P 1'
_cell_length_a   5.59536109
_cell_length_b   6.49713951
_cell_length_c   5.09634444
_cell_angle_alpha   90.15667491
_cell_angle_beta   90.25595395
_cell_angle_gamma   90.25012628
_symmetry_Int_Tables_number   1
_chemical_formula_structural   Li4Fe3CoO8
_chemical_formula_sum   'Li4 Fe3 Co1 O8'
_cell_volume   185.26738193
_cell_formula_units_Z   1
loop_
 _symmetry_equiv_pos_site_id
 _symmetry_equiv_pos_as_xyz
  1  'x, y, z'
loop_
 _atom_site_type_symbol
 _atom_site_label
 _atom_site_symmetry_multiplicity
 _atom_site_fract_x
 _atom_site_fract_y
 _atom_site_fract_z
 _atom_site_occupancy
  Li  Li0  1  0.08124119  0.62463779  0.99376936  1
  Li  Li1  1  0.41720739  0.12438386  0.49667656  1
  Li  Li2  1  0.58414275  0.87680557  0.99566209  1
  Li  Li3  1  0.91745883  0.37504542  0.49536845  1
  Fe  Fe4  1  0.08225743  0.12354395  0.99421849  1
  Fe  Fe5  1  0.41781053  0.62832002  0.49980446  1
  Fe  Fe6  1  0.58402622  0.37361183  0.99817455  1
  Co  Co7  1  0.91563723  0.87217576  0.49554956  1
  O  O8  1  0.07327023  0.11097349  0.37146585  1
  O  O9  1  0.09039191  0.63985717  0.39004323  1
  O  O10  1  0.41018726  0.13400937  0.89084394  1
  O  O11  1  0.42642883  0.61559461  0.87564581  1
  O  O12  1  0.57259473  0.38622844  0.37462527  1
  O  O13  1  0.59331772  0.86917658  0.39574897  1
  O  O14  1  0.91027044  0.36413333  0.89085627  1
  O  O15  1  0.92375930  0.88150282  0.86794615  1
