# generated using pymatgen
data_BaLaCl5
_symmetry_space_group_name_H-M   'P 1'
_cell_length_a   13.29434607
_cell_length_b   10.01298559
_cell_length_c   13.92003166
_cell_angle_alpha   90.00000000
_cell_angle_beta   88.95348955
_cell_angle_gamma   90.00000000
_symmetry_Int_Tables_number   1
_chemical_formula_structural   BaLaCl5
_chemical_formula_sum   'Ba8 La8 Cl40'
_cell_volume   1852.67118549
_cell_formula_units_Z   8
loop_
 _symmetry_equiv_pos_site_id
 _symmetry_equiv_pos_as_xyz
  1  'x, y, z'
loop_
 _atom_site_type_symbol
 _atom_site_label
 _atom_site_symmetry_multiplicity
 _atom_site_fract_x
 _atom_site_fract_y
 _atom_site_fract_z
 _atom_site_occupancy
  Ba  Ba0  1  0.19821674  0.72214504  0.85073681  1
  Ba  Ba1  1  0.27375587  0.73412468  0.46834578  1
  Ba  Ba2  1  0.30178326  0.22214504  0.64926319  1
  Ba  Ba3  1  0.22624413  0.23412468  0.03165422  1
  Ba  Ba4  1  0.77375587  0.76587532  0.96834578  1
  Ba  Ba5  1  0.69821674  0.77785496  0.35073681  1
  Ba  Ba6  1  0.72624413  0.26587532  0.53165422  1
  Ba  Ba7  1  0.80178326  0.27785496  0.14926319  1
  La  La8  1  0.00044443  0.21304619  0.80582314  1
  La  La9  1  0.11564374  0.23513367  0.35084986  1
  La  La10  1  0.38435626  0.73513367  0.14915014  1
  La  La11  1  0.49955557  0.71304519  0.69417686  1
  La  La12  1  0.50044443  0.28695381  0.30582314  1
  La  La13  1  0.61564374  0.26486633  0.85084986  1
  La  La14  1  0.88435626  0.76486633  0.64915014  1
  La  La15  1  0.99955557  0.78695481  0.19417686  1
  Cl  Cl16  1  0.06139465  0.23664050  0.61939002  1
  Cl  Cl17  1  0.02018014  0.80294898  0.99611604  1
  Cl  Cl18  1  0.09410614  0.76261505  0.63592134  1
  Cl  Cl19  1  0.14589316  0.40630070  0.85087105  1
  Cl  Cl20  1  0.08468616  0.38449337  0.18845789  1
  Cl  Cl21  1  0.09114694  0.03566098  0.20782638  1
  Cl  Cl22  1  0.17985154  0.05812674  0.82619672  1
  Cl  Cl23  1  0.20532364  0.42806165  0.46113090  1
  Cl  Cl24  1  0.20962611  0.04351341  0.46499240  1
  Cl  Cl25  1  0.18967355  0.70470098  0.25448619  1
  Cl  Cl26  1  0.32014846  0.55812674  0.67380328  1
  Cl  Cl27  1  0.31032645  0.20470098  0.24551381  1
  Cl  Cl28  1  0.29037389  0.54351341  0.03500760  1
  Cl  Cl29  1  0.29467636  0.92806165  0.03886910  1
  Cl  Cl30  1  0.35410684  0.90630070  0.64912895  1
  Cl  Cl31  1  0.40589386  0.26261505  0.86407866  1
  Cl  Cl32  1  0.40885306  0.53566098  0.29217362  1
  Cl  Cl33  1  0.41531384  0.88449337  0.31154211  1
  Cl  Cl34  1  0.43860535  0.73664050  0.88060998  1
  Cl  Cl35  1  0.47981986  0.30294898  0.50388396  1
  Cl  Cl36  1  0.52018014  0.69705102  0.49611604  1
  Cl  Cl37  1  0.56139465  0.26335950  0.11939002  1
  Cl  Cl38  1  0.58468616  0.11550663  0.68845789  1
  Cl  Cl39  1  0.59114694  0.46433902  0.70782638  1
  Cl  Cl40  1  0.59410614  0.73738495  0.13592134  1
  Cl  Cl41  1  0.64589316  0.09369930  0.35087105  1
  Cl  Cl42  1  0.70532364  0.07193835  0.96113090  1
  Cl  Cl43  1  0.70962611  0.45648659  0.96499240  1
  Cl  Cl44  1  0.68967355  0.79529902  0.75448619  1
  Cl  Cl45  1  0.67985154  0.44187326  0.32619672  1
  Cl  Cl46  1  0.81032645  0.29529902  0.74551381  1
  Cl  Cl47  1  0.79037389  0.95648659  0.53500760  1
  Cl  Cl48  1  0.79467636  0.57193835  0.53886910  1
  Cl  Cl49  1  0.82014846  0.94187326  0.17380328  1
  Cl  Cl50  1  0.90885306  0.96433902  0.79217362  1
  Cl  Cl51  1  0.91531384  0.61550663  0.81154211  1
  Cl  Cl52  1  0.85410684  0.59369930  0.14912895  1
  Cl  Cl53  1  0.90589386  0.23738495  0.36407866  1
  Cl  Cl54  1  0.97981986  0.19705102  0.00388396  1
  Cl  Cl55  1  0.93860535  0.76335950  0.38060998  1
