# generated using pymatgen
data_Ba6Li2Ti7(Sb3O14)3
_symmetry_space_group_name_H-M   'P 1'
_cell_length_a   9.26635241
_cell_length_b   9.28450759
_cell_length_c   11.99199607
_cell_angle_alpha   90.12530128
_cell_angle_beta   89.93677059
_cell_angle_gamma   120.06584005
_symmetry_Int_Tables_number   1
_chemical_formula_structural   Ba6Li2Ti7(Sb3O14)3
_chemical_formula_sum   'Ba6 Li2 Ti7 Sb9 O42'
_cell_volume   892.89469959
_cell_formula_units_Z   1
loop_
 _symmetry_equiv_pos_site_id
 _symmetry_equiv_pos_as_xyz
  1  'x, y, z'
loop_
 _atom_site_type_symbol
 _atom_site_label
 _atom_site_symmetry_multiplicity
 _atom_site_fract_x
 _atom_site_fract_y
 _atom_site_fract_z
 _atom_site_occupancy
  Ba  Ba0  1  0.00002384  0.59621557  0.24525806  1
  Ba  Ba1  1  0.99995978  0.41036661  0.75202509  1
  Ba  Ba2  1  0.40599603  0.40464740  0.24539430  1
  Ba  Ba3  1  0.59974076  0.59678366  0.75046801  1
  Ba  Ba4  1  0.40029207  0.99701217  0.75049638  1
  Ba  Ba5  1  0.59401193  0.99866892  0.24536825  1
  Li  Li6  1  0.00002498  0.00095367  0.22825592  1
  Li  Li7  1  0.99999492  0.99474378  0.73643149  1
  Ti  Ti8  1  0.99997402  0.74697565  0.91523811  1
  Ti  Ti9  1  0.00002756  0.74418097  0.60098968  1
  Ti  Ti10  1  0.99998084  0.25790989  0.09748397  1
  Ti  Ti11  1  0.25716784  0.25792887  0.59791973  1
  Ti  Ti12  1  0.25266994  0.99281522  0.09181631  1
  Ti  Ti13  1  0.74726237  0.74011711  0.09181681  1
  Ti  Ti14  1  0.74276022  0.00069188  0.59790364  1
  Sb  Sb15  1  0.99998032  0.24674722  0.41555828  1
  Sb  Sb16  1  0.33309956  0.66659648  0.99953743  1
  Sb  Sb17  1  0.33332225  0.66686592  0.49962723  1
  Sb  Sb18  1  0.24592402  0.24417207  0.91586954  1
  Sb  Sb19  1  0.24489582  0.99938720  0.41361948  1
  Sb  Sb20  1  0.75516940  0.75450768  0.41362459  1
  Sb  Sb21  1  0.66685822  0.33347607  0.99952698  1
  Sb  Sb22  1  0.66672086  0.33356440  0.49961657  1
  Sb  Sb23  1  0.75407237  0.99823341  0.91585783  1
  O  O24  1  0.00004765  0.79515391  0.07249519  1
  O  O25  1  0.00000955  0.79556292  0.42609851  1
  O  O26  1  0.99993776  0.79135715  0.75168307  1
  O  O27  1  0.16981958  0.68743414  0.60213275  1
  O  O28  1  0.16762741  0.68923842  0.89934259  1
  O  O29  1  0.99994131  0.20345931  0.24977382  1
  O  O30  1  0.31587935  0.82912521  0.10488805  1
  O  O31  1  0.31669181  0.82867934  0.39383584  1
  O  O32  1  0.00004649  0.20166943  0.58040815  1
  O  O33  1  0.00003478  0.20593924  0.92740203  1
  O  O34  1  0.16944484  0.48343016  0.10198351  1
  O  O35  1  0.17077606  0.48852603  0.39358065  1
  O  O36  1  0.31434512  0.48738012  0.89273777  1
  O  O37  1  0.31331941  0.48292453  0.60129331  1
  O  O38  1  0.19852791  0.20118078  0.08054907  1
  O  O39  1  0.20466216  0.20475593  0.42719612  1
  O  O40  1  0.51766112  0.83079897  0.60130127  1
  O  O41  1  0.50999256  0.83037787  0.89261071  1
  O  O42  1  0.20250738  0.20093547  0.74928215  1
  O  O43  1  0.51200076  0.68249268  0.39338239  1
  O  O44  1  0.52021279  0.68530726  0.09728997  1
  O  O45  1  0.19828913  0.99963257  0.57934140  1
  O  O46  1  0.20593074  0.00373103  0.92821401  1
  O  O47  1  0.20286848  0.00097931  0.24740168  1
  O  O48  1  0.48226517  0.31307949  0.60118072  1
  O  O49  1  0.48998170  0.32040097  0.89258830  1
  O  O50  1  0.79723882  0.79808485  0.24741692  1
  O  O51  1  0.47978640  0.16508983  0.09725180  1
  O  O52  1  0.48809824  0.17058531  0.39332867  1
  O  O53  1  0.80165116  0.80133196  0.57930023  1
  O  O54  1  0.79403867  0.79770782  0.92825244  1
  O  O55  1  0.68411616  0.51323890  0.10486400  1
  O  O56  1  0.68330484  0.51197563  0.39382890  1
  O  O57  1  0.83015944  0.51761143  0.60211887  1
  O  O58  1  0.83235103  0.52157176  0.89934886  1
  O  O59  1  0.68670658  0.16963228  0.60126099  1
  O  O60  1  0.68564451  0.17305889  0.89274131  1
  O  O61  1  0.82936155  0.31793588  0.39362122  1
  O  O62  1  0.83054739  0.31399674  0.10196557  1
  O  O63  1  0.79750493  0.99840755  0.74924183  1
  O  O64  1  0.79524686  0.00011532  0.42721161  1
  O  O65  1  0.80149150  0.00264377  0.08055309  1
