# generated using pymatgen
data_La2BiO5
_symmetry_space_group_name_H-M   'P 1'
_cell_length_a   5.77438971
_cell_length_b   8.88770391
_cell_length_c   5.72205184
_cell_angle_alpha   88.65760464
_cell_angle_beta   93.47847231
_cell_angle_gamma   70.18913902
_symmetry_Int_Tables_number   1
_chemical_formula_structural   La2BiO5
_chemical_formula_sum   'La4 Bi2 O10'
_cell_volume   275.47013846
_cell_formula_units_Z   2
loop_
 _symmetry_equiv_pos_site_id
 _symmetry_equiv_pos_as_xyz
  1  'x, y, z'
loop_
 _atom_site_type_symbol
 _atom_site_label
 _atom_site_symmetry_multiplicity
 _atom_site_fract_x
 _atom_site_fract_y
 _atom_site_fract_z
 _atom_site_occupancy
  La  La0  1  0.01814782  0.98315092  0.02557819  1
  La  La1  1  0.33710513  0.33333716  0.01881504  1
  La  La2  1  0.81304955  0.33417098  0.49201828  1
  La  La3  1  0.65977086  0.65708707  0.97868875  1
  Bi  Bi4  1  0.50716299  0.00455860  0.50231675  1
  Bi  Bi5  1  0.15414019  0.63134284  0.51320915  1
  O  O6  1  0.17389739  0.16851276  0.28773019  1
  O  O7  1  0.61721140  0.16767270  0.73131642  1
  O  O8  1  0.98818806  0.52125016  0.23704456  1
  O  O9  1  0.69913765  0.10082745  0.25784742  1
  O  O10  1  0.50424665  0.48525297  0.24023486  1
  O  O11  1  0.48546840  0.50969759  0.74705230  1
  O  O12  1  0.27967041  0.95836976  0.75090247  1
  O  O13  1  0.01162859  0.47593024  0.73591571  1
  O  O14  1  0.42847126  0.84052326  0.26383869  1
  O  O15  1  0.82270366  0.82831556  0.71749224  1
