# generated using pymatgen
data_Li4Mn5V3O16
_symmetry_space_group_name_H-M   'P 1'
_cell_length_a   5.96418698
_cell_length_b   6.02834515
_cell_length_c   9.65618747
_cell_angle_alpha   91.11631426
_cell_angle_beta   90.18481381
_cell_angle_gamma   122.17519500
_symmetry_Int_Tables_number   1
_chemical_formula_structural   Li4Mn5V3O16
_chemical_formula_sum   'Li4 Mn5 V3 O16'
_cell_volume   293.76793027
_cell_formula_units_Z   1
loop_
 _symmetry_equiv_pos_site_id
 _symmetry_equiv_pos_as_xyz
  1  'x, y, z'
loop_
 _atom_site_type_symbol
 _atom_site_label
 _atom_site_symmetry_multiplicity
 _atom_site_fract_x
 _atom_site_fract_y
 _atom_site_fract_z
 _atom_site_occupancy
  Li  Li0  1  0.33492562  0.67094987  0.89564498  1
  Li  Li1  1  0.01426252  0.98599175  0.99434641  1
  Li  Li2  1  0.97574081  0.99720174  0.49473191  1
  Li  Li3  1  0.67204290  0.33857286  0.39684567  1
  Mn  Mn4  1  0.32281414  0.67335358  0.48730918  1
  Mn  Mn5  1  0.67602518  0.83020124  0.21228763  1
  Mn  Mn6  1  0.67977233  0.32595673  0.98716618  1
  Mn  Mn7  1  0.82508569  0.66908927  0.71384865  1
  Mn  Mn8  1  0.81377916  0.17083017  0.71425161  1
  V  V9  1  0.18354197  0.82835128  0.21516287  1
  V  V10  1  0.18745090  0.33399333  0.21293092  1
  V  V11  1  0.32359428  0.18574316  0.71269208  1
  O  O12  1  0.15000524  0.85689217  0.60802228  1
  O  O13  1  0.04385288  0.51131962  0.33860071  1
  O  O14  1  0.34565976  0.66283868  0.10601514  1
  O  O15  1  0.00911094  0.99387834  0.30999376  1
  O  O16  1  0.97955892  0.01119253  0.80921727  1
  O  O17  1  0.14438745  0.32461836  0.60356955  1
  O  O18  1  0.46572553  0.96402432  0.34209867  1
  O  O19  1  0.48471271  0.51305467  0.33139296  1
  O  O20  1  0.34558970  0.16047934  0.10422300  1
  O  O21  1  0.65059202  0.84725150  0.59839664  1
  O  O22  1  0.50384189  0.48151666  0.82693968  1
  O  O23  1  0.50934405  0.04427362  0.83664531  1
  O  O24  1  0.66016783  0.33049927  0.60893716  1
  O  O25  1  0.87296237  0.66088732  0.09789861  1
  O  O26  1  0.95733502  0.47089478  0.84352664  1
  O  O27  1  0.86811919  0.15644484  0.10514854  1
