# generated using pymatgen
data_Cr(PO3)2
_symmetry_space_group_name_H-M   'P 1'
_cell_length_a   5.68438048
_cell_length_b   5.68438048
_cell_length_c   16.51113407
_cell_angle_alpha   87.39548619
_cell_angle_beta   92.60451381
_cell_angle_gamma   90.11606611
_symmetry_Int_Tables_number   1
_chemical_formula_structural   Cr(PO3)2
_chemical_formula_sum   'Cr4 P8 O24'
_cell_volume   532.40908882
_cell_formula_units_Z   4
loop_
 _symmetry_equiv_pos_site_id
 _symmetry_equiv_pos_as_xyz
  1  'x, y, z'
loop_
 _atom_site_type_symbol
 _atom_site_label
 _atom_site_symmetry_multiplicity
 _atom_site_fract_x
 _atom_site_fract_y
 _atom_site_fract_z
 _atom_site_occupancy
  Cr  Cr0  1  0.93590614  0.85236110  0.90654750  1
  Cr  Cr1  1  0.14763890  0.06409386  0.40654750  1
  Cr  Cr2  1  0.32303301  0.06342463  0.61506871  1
  Cr  Cr3  1  0.93657537  0.67696699  0.11506871  1
  P  P4  1  0.99579098  0.56272446  0.65038642  1
  P  P5  1  0.43727554  0.00420902  0.15038642  1
  P  P6  1  0.43493613  0.52226250  0.87356719  1
  P  P7  1  0.72718703  0.79137263  0.51111181  1
  P  P8  1  0.47773750  0.56506387  0.37356719  1
  P  P9  1  0.20862737  0.27281297  0.01111181  1
  P  P10  1  0.70523105  0.25607128  0.75938059  1
  P  P11  1  0.74392872  0.29476895  0.25937959  1
  O  O12  1  0.11624347  0.79014457  0.66572878  1
  O  O13  1  0.20985543  0.88375653  0.16572878  1
  O  O14  1  0.22774957  0.67969157  0.85946009  1
  O  O15  1  0.32030843  0.77225043  0.35946009  1
  O  O16  1  0.49577748  0.91151797  0.52362048  1
  O  O17  1  0.08848203  0.50422252  0.02362048  1
  O  O18  1  0.13708342  0.36270510  0.62188797  1
  O  O19  1  0.63729490  0.86291658  0.12188797  1
  O  O20  1  0.66548273  0.62219569  0.90349214  1
  O  O21  1  0.37345234  0.30171443  0.93522604  1
  O  O22  1  0.94399393  0.93954296  0.49906848  1
  O  O23  1  0.37780431  0.33451727  0.40349214  1
  O  O24  1  0.47472133  0.38440565  0.79199359  1
  O  O25  1  0.69828557  0.62654766  0.43522604  1
  O  O26  1  0.06045704  0.05600607  0.99906848  1
  O  O27  1  0.61559435  0.52527867  0.29199359  1
  O  O28  1  0.77352000  0.60506114  0.58554269  1
  O  O29  1  0.39493886  0.22648000  0.08554269  1
  O  O30  1  0.86007774  0.48147126  0.73025957  1
  O  O31  1  0.51852874  0.13992226  0.23025957  1
  O  O32  1  0.62147678  0.12007186  0.68823492  1
  O  O33  1  0.87992814  0.37852322  0.18823492  1
  O  O34  1  0.84005277  0.13170510  0.82806904  1
  O  O35  1  0.86829490  0.15994723  0.32806904  1
