# generated using pymatgen
data_Gd2W4O15
_symmetry_space_group_name_H-M   'P 1'
_cell_length_a   7.41919639
_cell_length_b   7.57402766
_cell_length_c   11.80168399
_cell_angle_alpha   88.71571852
_cell_angle_beta   96.38541762
_cell_angle_gamma   95.99498695
_symmetry_Int_Tables_number   1
_chemical_formula_structural   Gd2W4O15
_chemical_formula_sum   'Gd4 W8 O30'
_cell_volume   655.41671847
_cell_formula_units_Z   2
loop_
 _symmetry_equiv_pos_site_id
 _symmetry_equiv_pos_as_xyz
  1  'x, y, z'
loop_
 _atom_site_type_symbol
 _atom_site_label
 _atom_site_symmetry_multiplicity
 _atom_site_fract_x
 _atom_site_fract_y
 _atom_site_fract_z
 _atom_site_occupancy
  Gd  Gd0  1  0.24230259  0.59175122  0.77952151  1
  Gd  Gd1  1  0.31845360  0.09243800  0.22270648  1
  Gd  Gd2  1  0.68154640  0.90756200  0.77729352  1
  Gd  Gd3  1  0.75769741  0.40824878  0.22047849  1
  W  W4  1  0.09765882  0.33148948  0.46812668  1
  W  W5  1  0.22809153  0.07749454  0.87081717  1
  W  W6  1  0.27631940  0.57416528  0.12856674  1
  W  W7  1  0.43192022  0.75508999  0.47392034  1
  W  W8  1  0.56807978  0.24491001  0.52607966  1
  W  W9  1  0.72368060  0.42583472  0.87143326  1
  W  W10  1  0.77190847  0.92250546  0.12918283  1
  W  W11  1  0.90234118  0.66851052  0.53187332  1
  O  O12  1  0.04033970  0.83250781  0.46693444  1
  O  O13  1  0.08728168  0.52042113  0.59830377  1
  O  O14  1  0.00932334  0.00341374  0.15169961  1
  O  O15  1  0.04955869  0.49127004  0.15685983  1
  O  O16  1  0.13139058  0.23042568  0.33479177  1
  O  O17  1  0.28016480  0.60032552  0.97689547  1
  O  O18  1  0.26262569  0.29424106  0.80277936  1
  O  O19  1  0.35383321  0.90731951  0.81292654  1
  O  O20  1  0.29253495  0.56674398  0.41006628  1
  O  O21  1  0.33376671  0.28220020  0.55585306  1
  O  O22  1  0.37416956  0.96039577  0.40373285  1
  O  O23  1  0.34201894  0.79196761  0.18923972  1
  O  O24  1  0.41422451  0.73671641  0.62508848  1
  O  O25  1  0.29764187  0.10345997  0.02108651  1
  O  O26  1  0.43151493  0.40596447  0.18084890  1
  O  O27  1  0.56848507  0.59403553  0.81915110  1
  O  O28  1  0.70235813  0.89654003  0.97891349  1
  O  O29  1  0.58577549  0.26328359  0.37491152  1
  O  O30  1  0.65798106  0.20803239  0.81076028  1
  O  O31  1  0.62583044  0.03960423  0.59626715  1
  O  O32  1  0.66623329  0.71779980  0.44414694  1
  O  O33  1  0.70746505  0.43325602  0.58993372  1
  O  O34  1  0.64616679  0.09268049  0.18707346  1
  O  O35  1  0.73737431  0.70575894  0.19722064  1
  O  O36  1  0.71983520  0.39967448  0.02310453  1
  O  O37  1  0.86860942  0.76957432  0.66520823  1
  O  O38  1  0.95044131  0.50872996  0.84314017  1
  O  O39  1  0.99067666  0.99658626  0.84830039  1
  O  O40  1  0.91271832  0.47957887  0.40169623  1
  O  O41  1  0.95966030  0.16749219  0.53306556  1
