# generated using pymatgen
data_LiCoB2O5
_symmetry_space_group_name_H-M   'P 1'
_cell_length_a   7.29822725
_cell_length_b   7.29822725
_cell_length_c   9.66717223
_cell_angle_alpha   68.82122042
_cell_angle_beta   111.17877958
_cell_angle_gamma   89.53733966
_symmetry_Int_Tables_number   1
_chemical_formula_structural   LiCoB2O5
_chemical_formula_sum   'Li4 Co4 B8 O20'
_cell_volume   441.98097863
_cell_formula_units_Z   4
loop_
 _symmetry_equiv_pos_site_id
 _symmetry_equiv_pos_as_xyz
  1  'x, y, z'
loop_
 _atom_site_type_symbol
 _atom_site_label
 _atom_site_symmetry_multiplicity
 _atom_site_fract_x
 _atom_site_fract_y
 _atom_site_fract_z
 _atom_site_occupancy
  Li  Li0  1  0.16251253  0.16251253  0.75000000  1
  Li  Li1  1  0.61998228  0.61998228  0.75000000  1
  Li  Li2  1  0.38001772  0.38001772  0.25000000  1
  Li  Li3  1  0.83748747  0.83748747  0.25000000  1
  Co  Co4  1  0.03812878  0.65101901  0.64779247  1
  Co  Co5  1  0.34898099  0.96187122  0.14779247  1
  Co  Co6  1  0.65101901  0.03812878  0.85220753  1
  Co  Co7  1  0.96187122  0.34898099  0.35220753  1
  B  B8  1  0.23737294  0.76959752  0.90615581  1
  B  B9  1  0.26224277  0.39886283  0.97332968  1
  B  B10  1  0.23040248  0.76262706  0.40615581  1
  B  B11  1  0.60113717  0.73775723  0.47332968  1
  B  B12  1  0.39886283  0.26224277  0.52667032  1
  B  B13  1  0.76959752  0.23737294  0.59384419  1
  B  B14  1  0.73775723  0.60113717  0.02667032  1
  B  B15  1  0.76262706  0.23040248  0.09384419  1
  O  O16  1  0.29513861  0.91327438  0.96578862  1
  O  O17  1  0.14062552  0.82884851  0.74409717  1
  O  O18  1  0.08672562  0.70486139  0.46578862  1
  O  O19  1  0.18127829  0.40532383  0.82129480  1
  O  O20  1  0.66583487  0.77163091  0.88834965  1
  O  O21  1  0.17115149  0.85937448  0.24409717  1
  O  O22  1  0.43116130  0.71641744  0.51385725  1
  O  O23  1  0.71641744  0.43116130  0.98614275  1
  O  O24  1  0.59467617  0.81872171  0.32129480  1
  O  O25  1  0.22836909  0.33416513  0.38834965  1
  O  O26  1  0.77163091  0.66583487  0.61165035  1
  O  O27  1  0.40532383  0.18127829  0.67870520  1
  O  O28  1  0.28358256  0.56883870  0.01385725  1
  O  O29  1  0.56883870  0.28358256  0.48614275  1
  O  O30  1  0.82884851  0.14062552  0.75590283  1
  O  O31  1  0.33416513  0.22836909  0.11165035  1
  O  O32  1  0.81872171  0.59467617  0.17870520  1
  O  O33  1  0.91327438  0.29513861  0.53421138  1
  O  O34  1  0.85937448  0.17115149  0.25590283  1
  O  O35  1  0.70486139  0.08672562  0.03421138  1
