# generated using pymatgen
data_LiFePO4
_symmetry_space_group_name_H-M   'P 1'
_cell_length_a   10.65159513
_cell_length_b   10.65159481
_cell_length_c   12.70458463
_cell_angle_alpha   90.00000000
_cell_angle_beta   90.00000000
_cell_angle_gamma   119.99999792
_symmetry_Int_Tables_number   1
_chemical_formula_structural   LiFePO4
_chemical_formula_sum   'Li12 Fe12 P12 O48'
_cell_volume   1248.30410653
_cell_formula_units_Z   12
loop_
 _symmetry_equiv_pos_site_id
 _symmetry_equiv_pos_as_xyz
  1  'x, y, z'
loop_
 _atom_site_type_symbol
 _atom_site_label
 _atom_site_symmetry_multiplicity
 _atom_site_fract_x
 _atom_site_fract_y
 _atom_site_fract_z
 _atom_site_occupancy
  Li  Li0  1  0.00000000  0.50000000  0.00749092  1
  Li  Li1  1  0.00000000  0.50000000  0.65917608  1
  Li  Li2  1  0.00000000  0.50000000  0.33333300  1
  Li  Li3  1  0.00000000  0.00000000  0.16666700  1
  Li  Li4  1  0.00000000  0.00000000  0.50000000  1
  Li  Li5  1  0.00000000  0.00000000  0.83333300  1
  Li  Li6  1  0.50000000  0.50000000  0.34082392  1
  Li  Li7  1  0.50000000  0.50000000  0.66666700  1
  Li  Li8  1  0.50000000  0.50000000  0.99250908  1
  Li  Li9  1  0.50000000  0.00000000  0.32584208  1
  Li  Li10  1  0.50000000  0.00000000  0.00000000  1
  Li  Li11  1  0.50000000  0.00000000  0.67415792  1
  Fe  Fe12  1  0.00000000  0.74738846  0.83333300  1
  Fe  Fe13  1  1.00000000  0.25261154  0.83333300  1
  Fe  Fe14  1  0.24781192  0.75218808  0.16666700  1
  Fe  Fe15  1  0.24781192  0.49562484  0.50000000  1
  Fe  Fe16  1  0.50437516  0.75218808  0.83333300  1
  Fe  Fe17  1  0.25261154  0.25261154  0.16666700  1
  Fe  Fe18  1  0.25261154  1.00000000  0.50000000  1
  Fe  Fe19  1  0.74738846  0.74738846  0.16666700  1
  Fe  Fe20  1  0.49562484  0.24781192  0.83333300  1
  Fe  Fe21  1  0.75218808  0.50437516  0.50000000  1
  Fe  Fe22  1  0.75218808  0.24781192  0.16666700  1
  Fe  Fe23  1  0.74738846  0.00000000  0.50000000  1
  P  P24  1  0.00000000  0.75682300  0.33333300  1
  P  P25  1  0.24785356  0.75214644  0.66666700  1
  P  P26  1  1.00000000  0.24317700  0.33333300  1
  P  P27  1  0.24785356  0.49570712  0.00000000  1
  P  P28  1  0.24317700  0.24317700  0.66666700  1
  P  P29  1  0.50429288  0.75214644  0.33333300  1
  P  P30  1  0.24317700  1.00000000  0.00000000  1
  P  P31  1  0.49570712  0.24785356  0.33333300  1
  P  P32  1  0.75682300  0.75682300  0.66666700  1
  P  P33  1  0.75214644  0.50429288  0.00000000  1
  P  P34  1  0.75214644  0.24785356  0.66666700  1
  P  P35  1  0.75682300  0.00000000  0.00000000  1
  O  O36  1  0.06559974  0.87614712  0.41951502  1
  O  O37  1  0.12385288  0.93440026  0.91381898  1
  O  O38  1  0.10443021  0.69980964  0.72854482  1
  O  O39  1  0.11137273  0.71914723  0.28404946  1
  O  O40  1  0.28085277  0.88862727  0.04928354  1
  O  O41  1  0.30019036  0.89556979  0.60478818  1
  O  O42  1  0.20452109  0.62088594  0.59289111  1
  O  O43  1  0.10443021  0.40462057  0.93812118  1
  O  O44  1  0.20452109  0.58363515  0.07377489  1
  O  O45  1  0.11137273  0.39222450  0.38261654  1
  O  O46  1  0.06559974  0.18945163  0.24715198  1
  O  O47  1  0.37911406  0.79547891  0.74044189  1
  O  O48  1  0.41636485  0.79547891  0.25955811  1
  O  O49  1  0.12385288  0.18945163  0.75284802  1
  O  O50  1  0.28085277  0.39222450  0.61738346  1
  O  O51  1  0.37911406  0.58363515  0.92622511  1
  O  O52  1  0.30019036  0.40462057  0.06187882  1
  O  O53  1  0.41636485  0.62088594  0.40710889  1
  O  O54  1  0.18945163  0.12385288  0.58048498  1
  O  O55  1  0.18945163  0.06559974  0.08618102  1
  O  O56  1  0.59537943  0.89556979  0.39521182  1
  O  O57  1  0.60777550  0.88862727  0.95071646  1
  O  O58  1  0.60777550  0.71914723  0.71595054  1
  O  O59  1  0.40462057  0.30019036  0.27145518  1
  O  O60  1  0.59537943  0.69980964  0.27145518  1
  O  O61  1  0.39222450  0.28085277  0.71595054  1
  O  O62  1  0.39222450  0.11137273  0.95071646  1
  O  O63  1  0.40462057  0.10443021  0.39521182  1
  O  O64  1  0.81054837  0.93440026  0.08618102  1
  O  O65  1  0.81054837  0.87614712  0.58048498  1
  O  O66  1  0.58363515  0.37911406  0.40710889  1
  O  O67  1  0.69980964  0.59537943  0.06187882  1
  O  O68  1  0.62088594  0.41636485  0.92622511  1
  O  O69  1  0.71914723  0.60777550  0.61738346  1
  O  O70  1  0.87614712  0.81054837  0.75284802  1
  O  O71  1  0.58363515  0.20452109  0.25955811  1
  O  O72  1  0.62088594  0.20452109  0.74044189  1
  O  O73  1  0.93440026  0.81054837  0.24715198  1
  O  O74  1  0.88862727  0.60777550  0.38261654  1
  O  O75  1  0.79547891  0.41636485  0.07377489  1
  O  O76  1  0.89556979  0.59537943  0.93812118  1
  O  O77  1  0.79547891  0.37911406  0.59289111  1
  O  O78  1  0.69980964  0.10443021  0.60478818  1
  O  O79  1  0.71914723  0.11137273  0.04928354  1
  O  O80  1  0.88862727  0.28085277  0.28404946  1
  O  O81  1  0.89556979  0.30019036  0.72854482  1
  O  O82  1  0.87614712  0.06559974  0.91381898  1
  O  O83  1  0.93440026  0.12385288  0.41951502  1
