# generated using pymatgen
data_KNb2O5
_symmetry_space_group_name_H-M   'P 1'
_cell_length_a   12.96228970
_cell_length_b   12.93460874
_cell_length_c   4.11891412
_cell_angle_alpha   88.67569901
_cell_angle_beta   90.00000000
_cell_angle_gamma   90.00000000
_symmetry_Int_Tables_number   1
_chemical_formula_structural   KNb2O5
_chemical_formula_sum   'K6 Nb12 O30'
_cell_volume   690.40152072
_cell_formula_units_Z   6
loop_
 _symmetry_equiv_pos_site_id
 _symmetry_equiv_pos_as_xyz
  1  'x, y, z'
loop_
 _atom_site_type_symbol
 _atom_site_label
 _atom_site_symmetry_multiplicity
 _atom_site_fract_x
 _atom_site_fract_y
 _atom_site_fract_z
 _atom_site_occupancy
  K  K0  1  0.99443398  0.99871882  0.47983181  1
  K  K1  1  0.16398121  0.67336971  0.48657270  1
  K  K2  1  0.33601879  0.17336971  0.48657270  1
  K  K3  1  0.50556602  0.49871882  0.47983181  1
  K  K4  1  0.67939719  0.82889921  0.49304149  1
  K  K5  1  0.82060281  0.32889921  0.49304149  1
  Nb  Nb6  1  0.98882674  0.51301386  0.99882414  1
  Nb  Nb7  1  0.07133361  0.20483374  0.96709064  1
  Nb  Nb8  1  0.12195168  0.36821240  0.60830756  1
  Nb  Nb9  1  0.19744607  0.92731518  0.98686503  1
  Nb  Nb10  1  0.30255393  0.42731518  0.98686503  1
  Nb  Nb11  1  0.37804832  0.86821240  0.60830756  1
  Nb  Nb12  1  0.42866639  0.70483374  0.96709064  1
  Nb  Nb13  1  0.51117326  0.01301386  0.99882414  1
  Nb  Nb14  1  0.58466426  0.29368360  0.01301121  1
  Nb  Nb15  1  0.70749011  0.57908596  0.01215023  1
  Nb  Nb16  1  0.79250989  0.07908596  0.01215023  1
  Nb  Nb17  1  0.91533574  0.79368360  0.01301121  1
  O  O18  1  0.01225961  0.49014891  0.46484141  1
  O  O19  1  0.00183250  0.35003714  0.94824851  1
  O  O20  1  0.06825818  0.85849001  0.96717991  1
  O  O21  1  0.07902285  0.21789714  0.45180026  1
  O  O22  1  0.14141394  0.06603064  0.97309070  1
  O  O23  1  0.15062893  0.49086314  0.93473524  1
  O  O24  1  0.21331363  0.28851808  0.96419991  1
  O  O25  1  0.22160307  0.92276974  0.46755488  1
  O  O26  1  0.27839693  0.42276974  0.46755488  1
  O  O27  1  0.28668637  0.78851808  0.96419991  1
  O  O28  1  0.34937107  0.99086314  0.93473524  1
  O  O29  1  0.35858606  0.56603064  0.97309070  1
  O  O30  1  0.42097715  0.71789714  0.45180026  1
  O  O31  1  0.43174182  0.35849001  0.96717991  1
  O  O32  1  0.49816750  0.85003714  0.94824851  1
  O  O33  1  0.48774039  0.99014891  0.46484141  1
  O  O34  1  0.49794632  0.15700552  0.96495213  1
  O  O35  1  0.56970903  0.64127057  0.96356816  1
  O  O36  1  0.57666724  0.29355912  0.46038799  1
  O  O37  1  0.64275083  0.43140494  0.96438276  1
  O  O38  1  0.65516196  0.99789786  0.96684912  1
  O  O39  1  0.71255492  0.21273438  0.96841330  1
  O  O40  1  0.70689807  0.57630833  0.46032289  1
  O  O41  1  0.79310193  0.07630833  0.46032289  1
  O  O42  1  0.78744508  0.71273438  0.96841330  1
  O  O43  1  0.84483804  0.49789786  0.96684912  1
  O  O44  1  0.85724917  0.93140494  0.96438276  1
  O  O45  1  0.92333276  0.79355912  0.46038799  1
  O  O46  1  0.93029097  0.14127057  0.96356816  1
  O  O47  1  0.00205368  0.65700552  0.96495213  1
