# generated using pymatgen
data_In2AsSe
_symmetry_space_group_name_H-M   'P 1'
_cell_length_a   9.02792230
_cell_length_b   11.92952396
_cell_length_c   7.84333229
_cell_angle_alpha   29.28159870
_cell_angle_beta   55.10229796
_cell_angle_gamma   41.14043628
_symmetry_Int_Tables_number   1
_chemical_formula_structural   In2AsSe
_chemical_formula_sum   'In4 As2 Se2'
_cell_volume   262.21720258
_cell_formula_units_Z   2
loop_
 _symmetry_equiv_pos_site_id
 _symmetry_equiv_pos_as_xyz
  1  'x, y, z'
loop_
 _atom_site_type_symbol
 _atom_site_label
 _atom_site_symmetry_multiplicity
 _atom_site_fract_x
 _atom_site_fract_y
 _atom_site_fract_z
 _atom_site_occupancy
  In  In0  1  0.99973969  0.99553190  0.00331292  1
  In  In1  1  0.49467313  0.01709969  0.98524875  1
  In  In2  1  0.26328747  0.48351741  0.01767598  1
  In  In3  1  0.73450996  0.51602748  0.98411661  1
  As  As4  1  0.62795077  0.00055288  0.24598756  1
  As  As5  1  0.37188981  0.50331112  0.24842632  1
  Se  Se6  1  0.12328663  0.99786163  0.25873204  1
  Se  Se7  1  0.87271253  0.50621188  0.24261882  1
