# generated using pymatgen
data_LiSb(PO4)2
_symmetry_space_group_name_H-M   'P 1'
_cell_length_a   10.04358745
_cell_length_b   5.90099069
_cell_length_c   4.89489028
_cell_angle_alpha   90.00000000
_cell_angle_beta   89.32209986
_cell_angle_gamma   90.00000000
_symmetry_Int_Tables_number   1
_chemical_formula_structural   LiSb(PO4)2
_chemical_formula_sum   'Li2 Sb2 P4 O16'
_cell_volume   290.08572509
_cell_formula_units_Z   2
loop_
 _symmetry_equiv_pos_site_id
 _symmetry_equiv_pos_as_xyz
  1  'x, y, z'
loop_
 _atom_site_type_symbol
 _atom_site_label
 _atom_site_symmetry_multiplicity
 _atom_site_fract_x
 _atom_site_fract_y
 _atom_site_fract_z
 _atom_site_occupancy
  Li  Li0  1  0.22693076  0.75000000  0.44597157  1
  Li  Li1  1  0.77306924  0.25000000  0.55402843  1
  Sb  Sb2  1  0.27747644  0.25000000  0.97750178  1
  Sb  Sb3  1  0.72252356  0.75000000  0.02249822  1
  P  P4  1  0.09568657  0.25000000  0.40490596  1
  P  P5  1  0.40655347  0.75000000  0.92748670  1
  P  P6  1  0.59344653  0.25000000  0.07251330  1
  P  P7  1  0.90431343  0.75000000  0.59509404  1
  O  O8  1  0.05060533  0.75000000  0.63529923  1
  O  O9  1  0.12710171  0.25000000  0.71879208  1
  O  O10  1  0.17563182  0.05007299  0.25150102  1
  O  O11  1  0.17563182  0.44992701  0.25150102  1
  O  O12  1  0.33475401  0.95910225  0.78429650  1
  O  O13  1  0.33475401  0.54089775  0.78429650  1
  O  O14  1  0.39860688  0.75000000  0.23090127  1
  O  O15  1  0.44549871  0.25000000  0.19010361  1
  O  O16  1  0.55450129  0.75000000  0.80989639  1
  O  O17  1  0.60139312  0.25000000  0.76909873  1
  O  O18  1  0.66524599  0.04089775  0.21570350  1
  O  O19  1  0.66524599  0.45910225  0.21570350  1
  O  O20  1  0.82436818  0.55007299  0.74849898  1
  O  O21  1  0.82436818  0.94992701  0.74849898  1
  O  O22  1  0.87289829  0.75000000  0.28120792  1
  O  O23  1  0.94939467  0.25000000  0.36470077  1
