# generated using pymatgen
data_LiMnF3
_symmetry_space_group_name_H-M   'P 1'
_cell_length_a   3.80311890
_cell_length_b   10.22499404
_cell_length_c   6.94525471
_cell_angle_alpha   90.00000000
_cell_angle_beta   92.67696741
_cell_angle_gamma   90.00000000
_symmetry_Int_Tables_number   1
_chemical_formula_structural   LiMnF3
_chemical_formula_sum   'Li4 Mn4 F12'
_cell_volume   269.78447483
_cell_formula_units_Z   4
loop_
 _symmetry_equiv_pos_site_id
 _symmetry_equiv_pos_as_xyz
  1  'x, y, z'
loop_
 _atom_site_type_symbol
 _atom_site_label
 _atom_site_symmetry_multiplicity
 _atom_site_fract_x
 _atom_site_fract_y
 _atom_site_fract_z
 _atom_site_occupancy
  Li  Li0  1  0.27207835  0.45535281  0.79182454  1
  Li  Li1  1  0.27207835  0.04464719  0.29182454  1
  Li  Li2  1  0.72792165  0.95535281  0.70817546  1
  Li  Li3  1  0.72792165  0.54464719  0.20817546  1
  Mn  Mn4  1  0.24824034  0.77932062  0.98006120  1
  Mn  Mn5  1  0.24824034  0.72067938  0.48006120  1
  Mn  Mn6  1  0.75175966  0.27932062  0.51993880  1
  Mn  Mn7  1  0.75175966  0.22067938  0.01993880  1
  F  F8  1  0.21907348  0.89204461  0.65831835  1
  F  F9  1  0.21907348  0.60795539  0.15831835  1
  F  F10  1  0.28964676  0.63534882  0.76275888  1
  F  F11  1  0.25316497  0.35589368  0.55638527  1
  F  F12  1  0.28964676  0.86465118  0.26275888  1
  F  F13  1  0.25316497  0.14410632  0.05638527  1
  F  F14  1  0.74683503  0.85589368  0.94361473  1
  F  F15  1  0.71035324  0.13534882  0.73724112  1
  F  F16  1  0.74683503  0.64410632  0.44361473  1
  F  F17  1  0.71035324  0.36465118  0.23724112  1
  F  F18  1  0.78092652  0.39204461  0.84168165  1
  F  F19  1  0.78092652  0.10795539  0.34168165  1
