# generated using pymatgen
data_K2HfF6
_symmetry_space_group_name_H-M   'P 1'
_cell_length_a   6.47701625
_cell_length_b   26.09249281
_cell_length_c   14.79345877
_cell_angle_alpha   29.15896035
_cell_angle_beta   115.96548468
_cell_angle_gamma   119.76645192
_symmetry_Int_Tables_number   1
_chemical_formula_structural   K2HfF6
_chemical_formula_sum   'K12 Hf6 F36'
_cell_volume   1057.36217518
_cell_formula_units_Z   6
loop_
 _symmetry_equiv_pos_site_id
 _symmetry_equiv_pos_as_xyz
  1  'x, y, z'
loop_
 _atom_site_type_symbol
 _atom_site_label
 _atom_site_symmetry_multiplicity
 _atom_site_fract_x
 _atom_site_fract_y
 _atom_site_fract_z
 _atom_site_occupancy
  K  K0  1  0.98938160  0.78486875  0.41964409  1
  K  K1  1  0.28924566  0.71647016  0.85630635  1
  K  K2  1  0.32497682  0.49700225  0.83097333  1
  K  K3  1  0.56860492  0.88631640  0.29597112  1
  K  K4  1  0.00740665  0.46759192  0.57222281  1
  K  K5  1  0.75236381  0.79241016  0.16754248  1
  K  K6  1  0.32788527  0.25953850  0.80880927  1
  K  K7  1  0.01643051  0.23301880  0.55039291  1
  K  K8  1  0.38038518  0.97670175  0.92698268  1
  K  K9  1  0.61924135  0.48012547  0.15898940  1
  K  K10  1  0.03946712  0.10522627  0.32901457  1
  K  K11  1  0.66843431  0.25762191  0.15318949  1
  Hf  Hf12  1  0.64670428  0.98942216  0.66785896  1
  Hf  Hf13  1  0.00078413  0.75615957  -0.01153500  1
  Hf  Hf14  1  0.66367837  0.50270861  0.65826014  1
  Hf  Hf15  1  0.99049722  0.49092891  0.00863940  1
  Hf  Hf16  1  0.68021567  0.25723258  0.66574951  1
  Hf  Hf17  1  0.33119040  -0.00242320  0.33603780  1
  F  F18  1  0.06650061  0.88359083  0.51321619  1
  F  F19  1  0.35667230  0.86705270  0.84540480  1
  F  F20  1  0.80234809  0.86705270  0.84540480  1
  F  F21  1  0.49429510  0.88359083  0.51321619  1
  F  F22  1  0.95851087  0.61210303  0.51060093  1
  F  F23  1  0.16146620  0.87747781  0.16595951  1
  F  F24  1  0.29245874  0.60525586  0.86939641  1
  F  F25  1  0.15823993  0.77549049  0.10725895  1
  F  F26  1  0.47427126  0.69226073  0.58974979  1
  F  F27  1  0.90425641  0.82009022  0.76407598  1
  F  F28  1  0.68036404  0.87747781  0.16595951  1
  F  F29  1  0.86735752  0.60525586  0.86939641  1
  F  F30  1  0.97068512  0.37316953  0.50403798  1
  F  F31  1  0.51110310  0.61210303  0.51060093  1
  F  F32  1  0.38252596  0.38394926  0.82589542  1
  F  F33  1  0.13186788  0.64721159  0.12397202  1
  F  F34  1  0.51843644  0.50507566  0.50828512  1
  F  F35  1  0.82932731  0.49763096  0.83406538  1
  F  F36  1  0.12247494  0.46654209  0.18939075  1
  F  F37  1  0.70492251  0.64721159  0.12397202  1
  F  F38  1  0.80506190  0.38394926  0.82589542  1
  F  F39  1  0.53006894  0.37316953  0.50403798  1
  F  F40  1  0.91465862  0.09699953  0.50208718  1
  F  F41  1  0.37938676  0.14842498  0.81213748  1
  F  F42  1  0.13490731  0.37976708  0.15572086  1
  F  F43  1  0.53465497  0.26621575  0.50222346  1
  F  F44  1  0.83182084  0.26103002  0.80976080  1
  F  F45  1  0.19246213  0.29173870  0.10898472  1
  F  F46  1  0.83858812  0.14842498  0.81213748  1
  F  F47  1  0.69560274  0.37976708  0.15572086  1
  F  F48  1  0.47751386  0.09699953  0.50208718  1
  F  F49  1  0.21485981  0.11875471  0.18072681  1
  F  F50  1  0.49246298  0.98719955  0.51806389  1
  F  F51  1  0.79862008  -0.00016994  0.79895995  1
  F  F52  1  0.18607470  -0.00157301  0.18922072  1
  F  F53  1  0.62161265  0.11875471  0.18072681  1
