# generated using pymatgen
data_Li3V(FeO3)2
_symmetry_space_group_name_H-M   'P 1'
_cell_length_a   15.55657001
_cell_length_b   9.96438254
_cell_length_c   9.96438258
_cell_angle_alpha   17.32698577
_cell_angle_beta   16.70289288
_cell_angle_gamma   16.70289346
_symmetry_Int_Tables_number   1
_chemical_formula_structural   Li3V(FeO3)2
_chemical_formula_sum   'Li3 V1 Fe2 O6'
_cell_volume   113.89998631
_cell_formula_units_Z   1
loop_
 _symmetry_equiv_pos_site_id
 _symmetry_equiv_pos_as_xyz
  1  'x, y, z'
loop_
 _atom_site_type_symbol
 _atom_site_label
 _atom_site_symmetry_multiplicity
 _atom_site_fract_x
 _atom_site_fract_y
 _atom_site_fract_z
 _atom_site_occupancy
  Li  Li0  1  0.16666700  0.50000000  0.50000000  1
  Li  Li1  1  0.50801452  0.49356962  0.49356962  1
  Li  Li2  1  0.82531848  0.50643038  0.50643038  1
  V  V3  1  0.66666700  0.00000000  0.00000000  1
  Fe  Fe4  1  0.98358652  0.01405411  0.01405411  1
  Fe  Fe5  1  0.34974748  0.98594589  0.98594589  1
  O  O6  1  0.27752460  0.23675363  0.23675363  1
  O  O7  1  0.57790637  0.25613491  0.25613491  1
  O  O8  1  0.05580840  0.76324637  0.76324637  1
  O  O9  1  0.89199235  0.27507175  0.27507175  1
  O  O10  1  0.44134065  0.72492825  0.72492825  1
  O  O11  1  0.75542663  0.74386509  0.74386509  1
