# generated using pymatgen
data_Na3FeBSO7
_symmetry_space_group_name_H-M   'P 1'
_cell_length_a   9.11217018
_cell_length_b   6.76520545
_cell_length_c   5.31811056
_cell_angle_alpha   90.00000000
_cell_angle_beta   89.05586248
_cell_angle_gamma   90.00000000
_symmetry_Int_Tables_number   1
_chemical_formula_structural   Na3FeBSO7
_chemical_formula_sum   'Na6 Fe2 B2 S2 O14'
_cell_volume   327.79415738
_cell_formula_units_Z   2
loop_
 _symmetry_equiv_pos_site_id
 _symmetry_equiv_pos_as_xyz
  1  'x, y, z'
loop_
 _atom_site_type_symbol
 _atom_site_label
 _atom_site_symmetry_multiplicity
 _atom_site_fract_x
 _atom_site_fract_y
 _atom_site_fract_z
 _atom_site_occupancy
  Na  Na0  1  0.06352580  0.25000000  0.74919522  1
  Na  Na1  1  0.23862872  0.99033680  0.24664846  1
  Na  Na2  1  0.23862872  0.50966320  0.24664846  1
  Na  Na3  1  0.76137128  0.49033680  0.75335154  1
  Na  Na4  1  0.76137128  0.00966320  0.75335154  1
  Na  Na5  1  0.93647420  0.75000000  0.25080478  1
  Fe  Fe6  1  0.33430712  0.75000000  0.76713707  1
  Fe  Fe7  1  0.66569288  0.25000000  0.23286293  1
  B  B8  1  0.06215401  0.75000000  0.73444802  1
  B  B9  1  0.93784599  0.25000000  0.26555198  1
  S  S10  1  0.41925178  0.25000000  0.70554782  1
  S  S11  1  0.58074822  0.75000000  0.29445218  1
  O  O12  1  0.08640045  0.25000000  0.28728005  1
  O  O13  1  0.13443025  0.75000000  0.96624239  1
  O  O14  1  0.15826276  0.75000000  0.52418771  1
  O  O15  1  0.32955318  0.07317402  0.77816442  1
  O  O16  1  0.32955318  0.42682598  0.77816442  1
  O  O17  1  0.44648747  0.25000000  0.42667967  1
  O  O18  1  0.43864942  0.75000000  0.16139276  1
  O  O19  1  0.56135058  0.25000000  0.83860724  1
  O  O20  1  0.55351253  0.75000000  0.57332033  1
  O  O21  1  0.67044682  0.57317402  0.22183558  1
  O  O22  1  0.67044682  0.92682598  0.22183558  1
  O  O23  1  0.84173724  0.25000000  0.47581229  1
  O  O24  1  0.86556975  0.25000000  0.03375761  1
  O  O25  1  0.91359955  0.75000000  0.71271995  1
