# generated using pymatgen
data_Mn7Cr12O48
_symmetry_space_group_name_H-M   'P 1'
_cell_length_a   4.99614841
_cell_length_b   10.28859646
_cell_length_c   17.40119075
_cell_angle_alpha   90.08544058
_cell_angle_beta   89.88854680
_cell_angle_gamma   90.25712955
_symmetry_Int_Tables_number   1
_chemical_formula_structural   Mn7Cr12O48
_chemical_formula_sum   'Mn7 Cr12 O48'
_cell_volume   894.46789941
_cell_formula_units_Z   1
loop_
 _symmetry_equiv_pos_site_id
 _symmetry_equiv_pos_as_xyz
  1  'x, y, z'
loop_
 _atom_site_type_symbol
 _atom_site_label
 _atom_site_symmetry_multiplicity
 _atom_site_fract_x
 _atom_site_fract_y
 _atom_site_fract_z
 _atom_site_occupancy
  Mn  Mn0  1  0.17276543  0.75296898  0.29208922  1
  Mn  Mn1  1  0.23776433  0.06079587  0.97520942  1
  Mn  Mn2  1  0.40849916  0.74740792  0.75062710  1
  Mn  Mn3  1  0.59971825  0.24949275  0.24644367  1
  Mn  Mn4  1  0.76420874  0.06231095  0.52860683  1
  Mn  Mn5  1  0.76727467  0.43711762  0.52839488  1
  Mn  Mn6  1  0.76406894  0.56373658  0.01858886  1
  Cr  Cr7  1  0.22867044  0.75040022  0.94074890  1
  Cr  Cr8  1  0.22946236  0.02575766  0.65351012  1
  Cr  Cr9  1  0.22835461  0.47472065  0.65405045  1
  Cr  Cr10  1  0.29933014  0.52497629  0.15264815  1
  Cr  Cr11  1  0.29286121  0.97853907  0.15542982  1
  Cr  Cr12  1  0.28229240  0.24855717  0.44982695  1
  Cr  Cr13  1  0.70919649  0.75127483  0.56265072  1
  Cr  Cr14  1  0.71080511  0.48099205  0.84273420  1
  Cr  Cr15  1  0.70948299  0.02251896  0.84871437  1
  Cr  Cr16  1  0.76500509  0.52610871  0.34543706  1
  Cr  Cr17  1  0.76413848  0.97273451  0.34613126  1
  Cr  Cr18  1  0.77139827  0.24254196  0.04985591  1
  O  O19  1  0.04934440  0.22360980  0.99313824  1
  O  O20  1  0.05095297  0.61098433  0.36066066  1
  O  O21  1  0.04912962  0.88863969  0.36319206  1
  O  O22  1  0.12892979  0.62731902  0.20983891  1
  O  O23  1  0.10371744  0.88182524  0.21278916  1
  O  O24  1  0.09016566  0.11933013  0.46964437  1
  O  O25  1  0.09742806  0.37790380  0.46932381  1
  O  O26  1  0.10312028  0.00948263  0.07589437  1
  O  O27  1  0.09120717  0.49247083  0.08222914  1
  O  O28  1  0.17938639  0.74961800  0.84404889  1
  O  O29  1  0.18685141  0.62025986  0.70115495  1
  O  O30  1  0.18703446  0.88369856  0.70072720  1
  O  O31  1  0.36942546  0.11799139  0.20381554  1
  O  O32  1  0.37898849  0.38762793  0.19939051  1
  O  O33  1  0.35787163  0.24937807  0.35861016  1
  O  O34  1  0.42884096  0.49874957  0.57804384  1
  O  O35  1  0.43701395  0.00200265  0.57747407  1
  O  O36  1  0.39417918  0.88864941  0.96618115  1
  O  O37  1  0.43542317  0.63283863  0.96201404  1
  O  O38  1  0.37625831  0.12476476  0.70930081  1
  O  O39  1  0.38244579  0.37616364  0.70783839  1
  O  O40  1  0.43297540  0.10472669  0.88312002  1
  O  O41  1  0.45313336  0.39759501  0.86842672  1
  O  O42  1  0.45663808  0.74910689  0.50633649  1
  O  O43  1  0.57575543  0.24692122  0.50769272  1
  O  O44  1  0.57182373  0.60065632  0.11738323  1
  O  O45  1  0.55508951  0.90150462  0.13099716  1
  O  O46  1  0.56208101  0.62012461  0.29867039  1
  O  O47  1  0.55984994  0.87768235  0.29953252  1
  O  O48  1  0.55036990  0.12283419  0.03237666  1
  O  O49  1  0.62127318  0.38096129  0.02848003  1
  O  O50  1  0.61224736  0.00972848  0.42972061  1
  O  O51  1  0.61554242  0.48889545  0.42921441  1
  O  O52  1  0.62544741  0.75261611  0.65767556  1
  O  O53  1  0.63079640  0.62363507  0.79341769  1
  O  O54  1  0.62309021  0.88459748  0.80197546  1
  O  O55  1  0.81666409  0.11209334  0.29699741  1
  O  O56  1  0.81646200  0.38693160  0.29524410  1
  O  O57  1  0.83871446  0.24265170  0.14258270  1
  O  O58  1  0.90869667  0.51363668  0.92422003  1
  O  O59  1  0.93044732  0.99131881  0.92216637  1
  O  O60  1  0.90318028  0.62210786  0.54155310  1
  O  O61  1  0.90379387  0.88505010  0.54032576  1
  O  O62  1  0.85832088  0.11786334  0.79073878  1
  O  O63  1  0.90237749  0.39311129  0.79025955  1
  O  O64  1  0.93720221  0.10191496  0.62208876  1
  O  O65  1  0.93549836  0.39882696  0.62249714  1
  O  O66  1  0.95474530  0.73504995  0.99576753  1
