# generated using pymatgen
data_Fe4OF7
_symmetry_space_group_name_H-M   'P 1'
_cell_length_a   9.37469517
_cell_length_b   5.81029793
_cell_length_c   5.81029793
_cell_angle_alpha   72.13953125
_cell_angle_beta   86.00082777
_cell_angle_gamma   86.00082777
_symmetry_Int_Tables_number   1
_chemical_formula_structural   Fe4OF7
_chemical_formula_sum   'Fe8 O2 F14'
_cell_volume   300.10959147
_cell_formula_units_Z   2
loop_
 _symmetry_equiv_pos_site_id
 _symmetry_equiv_pos_as_xyz
  1  'x, y, z'
loop_
 _atom_site_type_symbol
 _atom_site_label
 _atom_site_symmetry_multiplicity
 _atom_site_fract_x
 _atom_site_fract_y
 _atom_site_fract_z
 _atom_site_occupancy
  Fe  Fe0  1  0.61487266  0.87710908  0.89348453  1
  Fe  Fe1  1  0.88512734  0.62289092  0.60651547  1
  Fe  Fe2  1  0.50000000  0.52045908  0.47954092  1
  Fe  Fe3  1  0.25000000  0.75000000  0.75000000  1
  Fe  Fe4  1  0.75000000  0.25000000  0.25000000  1
  Fe  Fe5  1  0.11487266  0.39348453  0.37710908  1
  Fe  Fe6  1  0.38512734  0.10651547  0.12289092  1
  Fe  Fe7  1  0.00000000  0.97954092  0.02045908  1
  O  O8  1  0.50000000  0.80451368  0.19548632  1
  O  O9  1  0.00000000  0.69548632  0.30451368  1
  F  F10  1  0.75188218  0.55828287  0.94108528  1
  F  F11  1  0.50000000  0.21586037  0.78413963  1
  F  F12  1  0.74811782  0.94171713  0.55891472  1
  F  F13  1  0.23090843  0.98649158  0.96561692  1
  F  F14  1  0.47619987  0.73172062  0.72983571  1
  F  F15  1  0.73090843  0.46561692  0.48649158  1
  F  F16  1  0.97619987  0.22983571  0.23172062  1
  F  F17  1  0.26909157  0.51350842  0.53438308  1
  F  F18  1  0.02380013  0.76827938  0.77016429  1
  F  F19  1  0.52380013  0.27016429  0.26827938  1
  F  F20  1  0.76909157  0.03438308  0.01350842  1
  F  F21  1  0.24811782  0.05891472  0.44171713  1
  F  F22  1  0.00000000  0.28413963  0.71586037  1
  F  F23  1  0.25188218  0.44108528  0.05828287  1
