# generated using pymatgen
data_Mn4O7F
_symmetry_space_group_name_H-M   'P 1'
_cell_length_a   6.96997066
_cell_length_b   7.12298046
_cell_length_c   6.65657778
_cell_angle_alpha   64.70086417
_cell_angle_beta   65.57761509
_cell_angle_gamma   101.87119496
_symmetry_Int_Tables_number   1
_chemical_formula_structural   Mn4O7F
_chemical_formula_sum   'Mn8 O14 F2'
_cell_volume   240.91333645
_cell_formula_units_Z   2
loop_
 _symmetry_equiv_pos_site_id
 _symmetry_equiv_pos_as_xyz
  1  'x, y, z'
loop_
 _atom_site_type_symbol
 _atom_site_label
 _atom_site_symmetry_multiplicity
 _atom_site_fract_x
 _atom_site_fract_y
 _atom_site_fract_z
 _atom_site_occupancy
  Mn  Mn0  1  0.29953915  0.44863315  0.25037553  1
  Mn  Mn1  1  0.19688321  0.05041691  0.75176334  1
  Mn  Mn2  1  0.19327204  0.55214926  0.77018162  1
  Mn  Mn3  1  0.29992333  0.94903147  0.24965529  1
  Mn  Mn4  1  0.69862082  0.05216556  0.74823607  1
  Mn  Mn5  1  0.79495135  0.44552086  0.25659497  1
  Mn  Mn6  1  0.80153999  0.95210450  0.24343775  1
  Mn  Mn7  1  0.71350644  0.57238137  0.72977220  1
  O  O8  1  0.63223949  0.01585678  0.07877272  1
  O  O9  1  0.12985171  0.52351609  0.08310559  1
  O  O10  1  0.03772676  0.14467715  0.57618718  1
  O  O11  1  0.10182098  0.21071163  0.92512949  1
  O  O12  1  0.46098808  0.34461993  0.42124560  1
  O  O13  1  0.72712362  0.11968498  0.41989738  1
  O  O14  1  0.26834405  0.87840274  0.58566672  1
  O  O15  1  0.77687816  0.38580286  0.57491896  1
  O  O16  1  0.89699726  0.78959115  0.08005640  1
  O  O17  1  0.53895962  0.65139393  0.57532561  1
  O  O18  1  0.60398103  0.71405431  0.91435086  1
  O  O19  1  0.96297926  0.85659571  0.41685214  1
  O  O20  1  0.86427747  0.47670631  0.92466076  1
  O  O21  1  0.36386067  0.97079659  0.92390760  1
  F  F22  1  0.42035103  0.30007685  0.04496098  1
  F  F23  1  0.21538448  0.59511193  0.45494523  1
