# generated using pymatgen
data_LiFePO4
_symmetry_space_group_name_H-M   'P 1'
_cell_length_a   8.89536061
_cell_length_b   7.81624836
_cell_length_c   15.39903524
_cell_angle_alpha   89.99995694
_cell_angle_beta   90.94836140
_cell_angle_gamma   89.99997560
_symmetry_Int_Tables_number   1
_chemical_formula_structural   LiFePO4
_chemical_formula_sum   'Li12 Fe12 P12 O48'
_cell_volume   1070.52281555
_cell_formula_units_Z   12
loop_
 _symmetry_equiv_pos_site_id
 _symmetry_equiv_pos_as_xyz
  1  'x, y, z'
loop_
 _atom_site_type_symbol
 _atom_site_label
 _atom_site_symmetry_multiplicity
 _atom_site_fract_x
 _atom_site_fract_y
 _atom_site_fract_z
 _atom_site_occupancy
  Li  Li0  1  0.21327368  0.00535904  0.92913250  1
  Li  Li1  1  0.23629539  0.98843043  0.58141383  1
  Li  Li2  1  0.24837092  0.15586363  0.24971911  1
  Li  Li3  1  0.25162894  0.65586366  0.25028064  1
  Li  Li4  1  0.26370416  0.48843113  0.91858636  1
  Li  Li5  1  0.28672666  0.50535963  0.57086773  1
  Li  Li6  1  0.71327334  0.49464037  0.42913227  1
  Li  Li7  1  0.73629584  0.51156887  0.08141364  1
  Li  Li8  1  0.74837106  0.34413634  0.74971936  1
  Li  Li9  1  0.75162908  0.84413637  0.75028089  1
  Li  Li10  1  0.76370461  0.01156957  0.41858617  1
  Li  Li11  1  0.78672632  0.99464096  0.07086750  1
  Fe  Fe12  1  0.04323517  0.66879197  0.40666900  1
  Fe  Fe13  1  0.08043907  0.83193049  0.76897493  1
  Fe  Fe14  1  0.10287895  0.66784142  0.07545350  1
  Fe  Fe15  1  0.39711879  0.16784234  0.42454832  1
  Fe  Fe16  1  0.41956093  0.33193091  0.73102306  1
  Fe  Fe17  1  0.45675984  0.16879069  0.09333508  1
  Fe  Fe18  1  0.54324016  0.83120931  0.90666492  1
  Fe  Fe19  1  0.58043907  0.66806909  0.26897694  1
  Fe  Fe20  1  0.60288121  0.83215766  0.57545168  1
  Fe  Fe21  1  0.89712105  0.33215858  0.92454650  1
  Fe  Fe22  1  0.91956093  0.16806951  0.23102507  1
  Fe  Fe23  1  0.95676483  0.33120803  0.59333100  1
  P  P24  1  0.04837487  0.24724519  0.40666508  1
  P  P25  1  0.08168128  0.24342547  0.77551102  1
  P  P26  1  0.11776544  0.25063652  0.07057498  1
  P  P27  1  0.38223439  0.75063533  0.42942472  1
  P  P28  1  0.41831914  0.74342529  0.72448833  1
  P  P29  1  0.45162490  0.74724486  0.09333414  1
  P  P30  1  0.54837510  0.25275514  0.90666586  1
  P  P31  1  0.58168086  0.25657471  0.27551167  1
  P  P32  1  0.61776561  0.24936467  0.57057528  1
  P  P33  1  0.88223456  0.74936348  0.92942502  1
  P  P34  1  0.91831872  0.75657453  0.22448898  1
  P  P35  1  0.95162513  0.75275481  0.59333492  1
  O  O36  1  0.97100712  0.42399321  0.39412324  1
  O  O37  1  0.05802966  0.88709134  0.63690255  1
  O  O38  1  0.08387517  0.38482817  0.84684558  1
  O  O39  1  0.07781235  0.20794180  0.50482005  1
  O  O40  1  0.04038057  0.79828686  0.96716656  1
  O  O41  1  0.06546672  0.74042171  0.28047100  1
  O  O42  1  0.10699557  0.24888567  0.17159587  1
  O  O43  1  0.08686692  0.07017387  0.82519123  1
  O  O44  1  0.16583991  0.42988831  0.03679452  1
  O  O45  1  0.21114614  0.25640909  0.70960626  1
  O  O46  1  0.24010858  0.12236703  0.04145410  1
  O  O47  1  0.20404707  0.23803199  0.36137210  1
  O  O48  1  0.29595219  0.73803158  0.13862796  1
  O  O49  1  0.25989070  0.62236620  0.45854620  1
  O  O50  1  0.28885331  0.75640960  0.79039375  1
  O  O51  1  0.33415974  0.92988800  0.46320553  1
  O  O52  1  0.41313295  0.57017365  0.67480865  1
  O  O53  1  0.39300448  0.74888605  0.32840505  1
  O  O54  1  0.43453208  0.24042192  0.21952996  1
  O  O55  1  0.45961951  0.29828666  0.53283333  1
  O  O56  1  0.42218906  0.70794333  0.99517893  1
  O  O57  1  0.41612487  0.88482815  0.65315374  1
  O  O58  1  0.44196948  0.38709203  0.86309699  1
  O  O59  1  0.52899296  0.92399398  0.10587691  1
  O  O60  1  0.47100704  0.07600602  0.89412309  1
  O  O61  1  0.55803052  0.61290797  0.13690301  1
  O  O62  1  0.58387513  0.11517185  0.34684626  1
  O  O63  1  0.57781094  0.29205667  0.00482107  1
  O  O64  1  0.54038049  0.70171334  0.46716667  1
  O  O65  1  0.56546792  0.75957808  0.78047004  1
  O  O66  1  0.60699552  0.25111395  0.67159495  1
  O  O67  1  0.58686705  0.42982635  0.32519135  1
  O  O68  1  0.66584026  0.07011200  0.53679447  1
  O  O69  1  0.71114669  0.24359040  0.20960625  1
  O  O70  1  0.74010930  0.37763380  0.54145380  1
  O  O71  1  0.70404781  0.26196842  0.86137204  1
  O  O72  1  0.79595293  0.76196801  0.63862790  1
  O  O73  1  0.78885386  0.74359091  0.29039374  1
  O  O74  1  0.75989142  0.87763297  0.95854590  1
  O  O75  1  0.83416009  0.57011169  0.96320548  1
  O  O76  1  0.91313308  0.92982613  0.17480877  1
  O  O77  1  0.89300443  0.75111433  0.82840413  1
  O  O78  1  0.93453328  0.25957829  0.71952900  1
  O  O79  1  0.95961943  0.20171314  0.03283344  1
  O  O80  1  0.92218765  0.79205820  0.49517995  1
  O  O81  1  0.91612483  0.61517183  0.15315442  1
  O  O82  1  0.94197034  0.11290866  0.36309745  1
  O  O83  1  0.02899288  0.57600679  0.60587676  1
