# generated using pymatgen
data_Li4Ti2Mn3Sn3O16
_symmetry_space_group_name_H-M   'P 1'
_cell_length_a   6.15432014
_cell_length_b   6.16047208
_cell_length_c   9.73753217
_cell_angle_alpha   90.04392048
_cell_angle_beta   89.12288465
_cell_angle_gamma   119.68224821
_symmetry_Int_Tables_number   1
_chemical_formula_structural   Li4Ti2Mn3Sn3O16
_chemical_formula_sum   'Li4 Ti2 Mn3 Sn3 O16'
_cell_volume   320.69414847
_cell_formula_units_Z   1
loop_
 _symmetry_equiv_pos_site_id
 _symmetry_equiv_pos_as_xyz
  1  'x, y, z'
loop_
 _atom_site_type_symbol
 _atom_site_label
 _atom_site_symmetry_multiplicity
 _atom_site_fract_x
 _atom_site_fract_y
 _atom_site_fract_z
 _atom_site_occupancy
  Li  Li0  1  0.35365356  0.67682449  0.89686310  1
  Li  Li1  1  0.97570358  0.98858867  0.98848763  1
  Li  Li2  1  0.98617992  0.99333946  0.49985847  1
  Li  Li3  1  0.66660245  0.33327386  0.39812396  1
  Ti  Ti4  1  0.34591792  0.67213928  0.49918126  1
  Ti  Ti5  1  0.70141851  0.35048525  0.98219454  1
  Mn  Mn6  1  0.65316365  0.82494216  0.21941179  1
  Mn  Mn7  1  0.83737947  0.66185111  0.71197479  1
  Mn  Mn8  1  0.83743923  0.17558579  0.71181215  1
  Sn  Sn9  1  0.16493570  0.82935523  0.21141196  1
  Sn  Sn10  1  0.16488235  0.33586330  0.21139670  1
  Sn  Sn11  1  0.34704014  0.17367910  0.71571590  1
  O  O12  1  0.17800322  0.83930685  0.59100751  1
  O  O13  1  0.03003177  0.51629048  0.34243981  1
  O  O14  1  0.31943426  0.65924468  0.09535282  1
  O  O15  1  0.00507657  0.00360964  0.31683563  1
  O  O16  1  0.99416218  0.99817788  0.80171820  1
  O  O17  1  0.17554099  0.33791391  0.59206205  1
  O  O18  1  0.48121502  0.95162401  0.33949773  1
  O  O19  1  0.47796283  0.52459729  0.34145239  1
  O  O20  1  0.31660575  0.15758734  0.09192231  1
  O  O21  1  0.64311451  0.82184985  0.58367801  1
  O  O22  1  0.52664806  0.47902389  0.84830048  1
  O  O23  1  0.52979311  0.04812428  0.84781691  1
  O  O24  1  0.67996819  0.33852587  0.60465076  1
  O  O25  1  0.81869226  0.66646445  0.09984833  1
  O  O26  1  0.96877674  0.48433288  0.86613832  1
  O  O27  1  0.82065906  0.15770101  0.09868549  1
