# generated using pymatgen
data_Li5BiS4
_symmetry_space_group_name_H-M   'P 1'
_cell_length_a   16.62000361
_cell_length_b   16.62000361
_cell_length_c   5.93908222
_cell_angle_alpha   90.00000000
_cell_angle_beta   90.00000000
_cell_angle_gamma   90.00000000
_symmetry_Int_Tables_number   1
_chemical_formula_structural   Li5BiS4
_chemical_formula_sum   'Li40 Bi8 S32'
_cell_volume   1640.52013544
_cell_formula_units_Z   8
loop_
 _symmetry_equiv_pos_site_id
 _symmetry_equiv_pos_as_xyz
  1  'x, y, z'
loop_
 _atom_site_type_symbol
 _atom_site_label
 _atom_site_symmetry_multiplicity
 _atom_site_fract_x
 _atom_site_fract_y
 _atom_site_fract_z
 _atom_site_occupancy
  Li  Li0  1  0.98962084  0.01037916  0.25000000  1
  Li  Li1  1  0.01037916  0.98962084  0.75000000  1
  Li  Li2  1  0.98962084  0.48962084  0.25000000  1
  Li  Li3  1  0.01037916  0.51037916  0.75000000  1
  Li  Li4  1  0.11164333  0.36312092  0.81307325  1
  Li  Li5  1  0.11164333  0.13687908  0.81307325  1
  Li  Li6  1  0.12223304  0.62223304  0.25000000  1
  Li  Li7  1  0.12223304  0.87776696  0.25000000  1
  Li  Li8  1  0.13687908  0.11164333  0.31307325  1
  Li  Li9  1  0.13687908  0.38835667  0.31307325  1
  Li  Li10  1  0.25000000  0.25000000  0.33640717  1
  Li  Li11  1  0.25000000  0.75000000  0.75000000  1
  Li  Li12  1  0.25000000  0.75000000  0.25000000  1
  Li  Li13  1  0.25000000  0.25000000  0.83640717  1
  Li  Li14  1  0.36312092  0.11164333  0.31307325  1
  Li  Li15  1  0.36312092  0.38835667  0.31307325  1
  Li  Li16  1  0.37776696  0.62223304  0.25000000  1
  Li  Li17  1  0.37776696  0.87776696  0.25000000  1
  Li  Li18  1  0.38835667  0.13687908  0.81307325  1
  Li  Li19  1  0.38835667  0.36312092  0.81307325  1
  Li  Li20  1  0.51037916  0.48962084  0.25000000  1
  Li  Li21  1  0.48962084  0.51037916  0.75000000  1
  Li  Li22  1  0.51037916  0.01037916  0.25000000  1
  Li  Li23  1  0.48962084  0.98962084  0.75000000  1
  Li  Li24  1  0.61164333  0.63687908  0.18692675  1
  Li  Li25  1  0.61164333  0.86312092  0.18692675  1
  Li  Li26  1  0.62223304  0.12223304  0.75000000  1
  Li  Li27  1  0.62223304  0.37776696  0.75000000  1
  Li  Li28  1  0.63687908  0.61164333  0.68692675  1
  Li  Li29  1  0.63687908  0.88835667  0.68692675  1
  Li  Li30  1  0.75000000  0.25000000  0.75000000  1
  Li  Li31  1  0.75000000  0.25000000  0.25000000  1
  Li  Li32  1  0.75000000  0.75000000  0.16359283  1
  Li  Li33  1  0.75000000  0.75000000  0.66359283  1
  Li  Li34  1  0.86312092  0.61164333  0.68692675  1
  Li  Li35  1  0.86312092  0.88835667  0.68692675  1
  Li  Li36  1  0.87776696  0.12223304  0.75000000  1
  Li  Li37  1  0.87776696  0.37776696  0.75000000  1
  Li  Li38  1  0.88835667  0.63687908  0.18692675  1
  Li  Li39  1  0.88835667  0.86312092  0.18692675  1
  Bi  Bi40  1  0.01759680  0.75000000  0.71421936  1
  Bi  Bi41  1  0.25000000  0.51759680  0.78578064  1
  Bi  Bi42  1  0.25000000  0.98240320  0.78578064  1
  Bi  Bi43  1  0.48240320  0.75000000  0.71421936  1
  Bi  Bi44  1  0.51759680  0.25000000  0.28578064  1
  Bi  Bi45  1  0.75000000  0.01759680  0.21421936  1
  Bi  Bi46  1  0.75000000  0.48240320  0.21421936  1
  Bi  Bi47  1  0.98240320  0.25000000  0.28578064  1
  S  S48  1  0.00908078  0.11485974  0.52901581  1
  S  S49  1  0.00908078  0.38514026  0.52901581  1
  S  S50  1  0.11485974  0.00908078  0.02901581  1
  S  S51  1  0.11485974  0.49091922  0.02901581  1
  S  S52  1  0.13201169  0.25000000  0.08711719  1
  S  S53  1  0.13183117  0.75000000  0.02429262  1
  S  S54  1  0.25000000  0.13201169  0.58711719  1
  S  S55  1  0.25000000  0.63183117  0.47570738  1
  S  S56  1  0.25000000  0.36798831  0.58711719  1
  S  S57  1  0.25000000  0.86816883  0.47570738  1
  S  S58  1  0.36816883  0.75000000  0.02429262  1
  S  S59  1  0.36798831  0.25000000  0.08711719  1
  S  S60  1  0.38514026  0.49091922  0.02901581  1
  S  S61  1  0.38514026  0.00908078  0.02901581  1
  S  S62  1  0.49091922  0.11485974  0.52901581  1
  S  S63  1  0.49091922  0.38514026  0.52901581  1
  S  S64  1  0.50908078  0.61485974  0.47098419  1
  S  S65  1  0.50908078  0.88514026  0.47098419  1
  S  S66  1  0.61485974  0.50908078  0.97098419  1
  S  S67  1  0.61485974  0.99091922  0.97098419  1
  S  S68  1  0.63201169  0.75000000  0.91288281  1
  S  S69  1  0.63183117  0.25000000  0.97570738  1
  S  S70  1  0.75000000  0.13183117  0.52429262  1
  S  S71  1  0.75000000  0.36816883  0.52429262  1
  S  S72  1  0.75000000  0.63201169  0.41288281  1
  S  S73  1  0.75000000  0.86798831  0.41288281  1
  S  S74  1  0.86816883  0.25000000  0.97570738  1
  S  S75  1  0.86798831  0.75000000  0.91288281  1
  S  S76  1  0.88514026  0.50908078  0.97098419  1
  S  S77  1  0.88514026  0.99091922  0.97098419  1
  S  S78  1  0.99091922  0.61485974  0.47098419  1
  S  S79  1  0.99091922  0.88514026  0.47098419  1
