# generated using pymatgen
data_Ni3OF5
_symmetry_space_group_name_H-M   'P 1'
_cell_length_a   7.27774776
_cell_length_b   5.62918355
_cell_length_c   5.62918355
_cell_angle_alpha   73.10411190
_cell_angle_beta   72.86956636
_cell_angle_gamma   72.86956636
_symmetry_Int_Tables_number   1
_chemical_formula_structural   Ni3OF5
_chemical_formula_sum   'Ni6 O2 F10'
_cell_volume   205.29216975
_cell_formula_units_Z   2
loop_
 _symmetry_equiv_pos_site_id
 _symmetry_equiv_pos_as_xyz
  1  'x, y, z'
loop_
 _atom_site_type_symbol
 _atom_site_label
 _atom_site_symmetry_multiplicity
 _atom_site_fract_x
 _atom_site_fract_y
 _atom_site_fract_z
 _atom_site_occupancy
  Ni  Ni0  1  0.83900030  0.67050215  0.67050215  1
  Ni  Ni1  1  0.32578800  0.66182766  0.66182766  1
  Ni  Ni2  1  0.66071659  0.33614698  0.33614698  1
  Ni  Ni3  1  0.17217655  0.33606698  0.33606698  1
  Ni  Ni4  1  0.50055472  0.99926251  0.99926251  1
  Ni  Ni5  1  0.99918740  0.99535667  0.99535667  1
  O  O6  1  0.03554142  0.76784011  0.76784011  1
  O  O7  1  0.36950646  0.43418480  0.43418480  1
  F  F8  1  0.66649642  0.03122583  0.63648830  1
  F  F9  1  0.33331855  0.36323957  0.96983980  1
  F  F10  1  0.29949405  0.89587089  0.89587089  1
  F  F11  1  0.63235055  0.56999238  0.56999238  1
  F  F12  1  0.96448807  0.23198517  0.23198517  1
  F  F13  1  0.70229845  0.10152897  0.10152897  1
  F  F14  1  0.99963375  0.30235178  0.69629045  1
  F  F15  1  0.33331855  0.96983980  0.36323957  1
  F  F16  1  0.66649642  0.63648830  0.03122583  1
  F  F17  1  0.99963375  0.69629045  0.30235178  1
