# generated using pymatgen
data_Ba24In19N11
_symmetry_space_group_name_H-M   'P 1'
_cell_length_a   10.82763086
_cell_length_b   10.66369074
_cell_length_c   21.43713430
_cell_angle_alpha   60.16921411
_cell_angle_beta   60.53925684
_cell_angle_gamma   60.49960498
_symmetry_Int_Tables_number   1
_chemical_formula_structural   Ba24In19N11
_chemical_formula_sum   'Ba24 In19 N11'
_cell_volume   1766.11499402
_cell_formula_units_Z   1
loop_
 _symmetry_equiv_pos_site_id
 _symmetry_equiv_pos_as_xyz
  1  'x, y, z'
loop_
 _atom_site_type_symbol
 _atom_site_label
 _atom_site_symmetry_multiplicity
 _atom_site_fract_x
 _atom_site_fract_y
 _atom_site_fract_z
 _atom_site_occupancy
  Ba  Ba0  1  0.04766808  0.05781256  0.34941421  1
  Ba  Ba1  1  0.05069339  0.69731271  0.02734060  1
  Ba  Ba2  1  0.69295587  0.05722373  0.02664736  1
  Ba  Ba3  1  0.04766808  0.69569094  0.34941421  1
  Ba  Ba4  1  0.04766493  0.05644072  0.84720365  1
  Ba  Ba5  1  0.31103997  0.93626119  0.15821883  1
  Ba  Ba6  1  0.29996104  0.30361581  0.47586770  1
  Ba  Ba7  1  0.04632677  0.69768672  0.52914989  1
  Ba  Ba8  1  0.69029417  0.05525350  0.34959942  1
  Ba  Ba9  1  0.69295587  0.69652568  0.02664736  1
  Ba  Ba10  1  0.69283391  0.05368245  0.52826957  1
  Ba  Ba11  1  0.93394410  0.31945441  0.15942772  1
  Ba  Ba12  1  0.04766493  0.70148705  0.84720365  1
  Ba  Ba13  1  0.29996104  0.94468774  0.47586770  1
  Ba  Ba14  1  0.31540444  0.32029181  0.96332423  1
  Ba  Ba15  1  0.29807543  0.94852217  0.65244011  1
  Ba  Ba16  1  0.69776851  0.05543438  0.84568136  1
  Ba  Ba17  1  0.69283391  0.69694451  0.52826957  1
  Ba  Ba18  1  0.94281397  0.30423308  0.47435994  1
  Ba  Ba19  1  0.93394410  0.92774606  0.15942772  1
  Ba  Ba20  1  0.94492126  0.30388015  0.65272811  1
  Ba  Ba21  1  0.31540444  0.93765528  0.96332423  1
  Ba  Ba22  1  0.93905640  0.31704350  0.96342830  1
  Ba  Ba23  1  0.94492126  0.94574237  0.65272811  1
  In  In24  1  0.30596824  0.30108873  0.15093073  1
  In  In25  1  0.30566758  0.30046068  0.29670553  1
  In  In26  1  0.50545383  0.50170332  0.99556977  1
  In  In27  1  0.50015647  0.99729550  0.24980856  1
  In  In28  1  0.30596824  0.59108157  0.15093073  1
  In  In29  1  0.60967269  0.29682879  0.14833486  1
  In  In30  1  0.50015647  0.50293091  0.24980856  1
  In  In31  1  0.30291038  0.30196610  0.65292061  1
  In  In32  1  0.39518167  0.70054041  0.35186876  1
  In  In33  1  0.68988890  0.41707093  0.34847416  1
  In  In34  1  0.30385612  0.30329766  0.79477428  1
  In  In35  1  0.30291038  0.58928230  0.65292061  1
  In  In36  1  0.69698504  0.70368306  0.19782442  1
  In  In37  1  0.68988890  0.69609184  0.34847416  1
  In  In38  1  0.58777462  0.30383209  0.65228060  1
  In  In39  1  0.40103158  0.70041268  0.84907153  1
  In  In40  1  0.69659922  0.40248171  0.85107782  1
  In  In41  1  0.68703192  0.69172678  0.71475726  1
  In  In42  1  0.69659922  0.69876342  0.85107782  1
  N  N43  1  0.45175290  0.01639208  0.00773147  1
  N  N44  1  0.11686217  0.12868064  0.56288827  1
  N  N45  1  0.49753235  0.00186167  0.49937215  1
  N  N46  1  0.87539838  0.87465641  0.43764440  1
  N  N47  1  0.01008488  0.01629598  0.22866158  1
  N  N48  1  0.99400014  0.50448538  0.49927473  1
  N  N49  1  0.99400014  0.00296502  0.49927473  1
  N  N50  1  0.86978345  0.87417367  0.94093461  1
  N  N51  1  0.99430144  0.00057938  0.75226990  1
  N  N52  1  0.01380338  0.45647442  0.00902692  1
  N  N53  1  0.01380338  0.01166835  0.00902692  1
