# generated using pymatgen
data_Mn12O7F17
_symmetry_space_group_name_H-M   'P 1'
_cell_length_a   4.79785054
_cell_length_b   5.82774379
_cell_length_c   15.76528722
_cell_angle_alpha   90.16261177
_cell_angle_beta   90.52215526
_cell_angle_gamma   88.99904378
_symmetry_Int_Tables_number   1
_chemical_formula_structural   Mn12O7F17
_chemical_formula_sum   'Mn12 O7 F17'
_cell_volume   440.72042840
_cell_formula_units_Z   1
loop_
 _symmetry_equiv_pos_site_id
 _symmetry_equiv_pos_as_xyz
  1  'x, y, z'
loop_
 _atom_site_type_symbol
 _atom_site_label
 _atom_site_symmetry_multiplicity
 _atom_site_fract_x
 _atom_site_fract_y
 _atom_site_fract_z
 _atom_site_occupancy
  Mn  Mn0  1  0.02529672  0.13520494  0.41306021  1
  Mn  Mn1  1  0.99109746  0.83855532  0.24551464  1
  Mn  Mn2  1  0.00070317  0.16572513  0.07361196  1
  Mn  Mn3  1  0.00963673  0.15330517  0.75384680  1
  Mn  Mn4  1  0.03427833  0.84319680  0.58061721  1
  Mn  Mn5  1  0.02356019  0.85255035  0.91398483  1
  Mn  Mn6  1  0.50309166  0.36224059  0.58565043  1
  Mn  Mn7  1  0.49238457  0.33224865  0.92672879  1
  Mn  Mn8  1  0.49058711  0.32160364  0.25391770  1
  Mn  Mn9  1  0.53942966  0.63800211  0.09112198  1
  Mn  Mn10  1  0.48386174  0.67093062  0.41710421  1
  Mn  Mn11  1  0.47374964  0.67580409  0.75003437  1
  O  O12  1  0.20474722  0.08597718  0.30386323  1
  O  O13  1  0.20471222  0.12114196  0.96978327  1
  O  O14  1  0.22672153  0.89420921  0.47393438  1
  O  O15  1  0.21479593  0.88848388  0.80563244  1
  O  O16  1  0.28759710  0.63346744  0.63961213  1
  O  O17  1  0.72142916  0.37951081  0.03091168  1
  O  O18  1  0.72723895  0.61505281  0.19791421  1
  F  F19  1  0.24074906  0.13218076  0.64383126  1
  F  F20  1  0.23689943  0.88428978  0.13349581  1
  F  F21  1  0.25823017  0.38143603  0.14350110  1
  F  F22  1  0.24265599  0.59904545  0.30637638  1
  F  F23  1  0.26688024  0.39236519  0.47224171  1
  F  F24  1  0.26673198  0.39260681  0.81552498  1
  F  F25  1  0.28454455  0.62347827  0.98537019  1
  F  F26  1  0.73418131  0.36854785  0.36632801  1
  F  F27  1  0.74384606  0.61371485  0.52467338  1
  F  F28  1  0.72078354  0.62830065  0.86079809  1
  F  F29  1  0.73394640  0.39444259  0.70298459  1
  F  F30  1  0.77202068  0.10459617  0.18189748  1
  F  F31  1  0.79019499  0.11821320  0.52603246  1
  F  F32  1  0.74785894  0.88142807  0.35310824  1
  F  F33  1  0.77593294  0.87298902  0.01835503  1
  F  F34  1  0.74568090  0.11793015  0.85515895  1
  F  F35  1  0.78394474  0.88722547  0.68347890  1
