# generated using pymatgen
data_NbCu(PO4)2
_symmetry_space_group_name_H-M   'P 1'
_cell_length_a   9.95246019
_cell_length_b   6.20711126
_cell_length_c   5.12146071
_cell_angle_alpha   90.00000000
_cell_angle_beta   91.18415802
_cell_angle_gamma   90.00000000
_symmetry_Int_Tables_number   1
_chemical_formula_structural   NbCu(PO4)2
_chemical_formula_sum   'Nb2 Cu2 P4 O16'
_cell_volume   316.31593052
_cell_formula_units_Z   2
loop_
 _symmetry_equiv_pos_site_id
 _symmetry_equiv_pos_as_xyz
  1  'x, y, z'
loop_
 _atom_site_type_symbol
 _atom_site_label
 _atom_site_symmetry_multiplicity
 _atom_site_fract_x
 _atom_site_fract_y
 _atom_site_fract_z
 _atom_site_occupancy
  Nb  Nb0  1  0.22399090  0.75000000  0.47046248  1
  Nb  Nb1  1  0.77600910  0.25000000  0.52953752  1
  Cu  Cu2  1  0.27740594  0.25000000  0.92968672  1
  Cu  Cu3  1  0.72259406  0.75000000  0.07031328  1
  P  P4  1  0.09990442  0.25000000  0.44440175  1
  P  P5  1  0.40268372  0.75000000  0.89620373  1
  P  P6  1  0.59731628  0.25000000  0.10379627  1
  P  P7  1  0.90009558  0.75000000  0.55559825  1
  O  O8  1  0.05068087  0.75000000  0.65608828  1
  O  O9  1  0.10458463  0.25000000  0.73866074  1
  O  O10  1  0.16726343  0.04517392  0.32179519  1
  O  O11  1  0.16726343  0.45482608  0.32179519  1
  O  O12  1  0.32759918  0.93885169  0.74071027  1
  O  O13  1  0.32759918  0.56114831  0.74071027  1
  O  O14  1  0.35701509  0.75000000  0.18494189  1
  O  O15  1  0.44886817  0.25000000  0.12942322  1
  O  O16  1  0.55113183  0.75000000  0.87057678  1
  O  O17  1  0.64298491  0.25000000  0.81505811  1
  O  O18  1  0.67240082  0.06114831  0.25928973  1
  O  O19  1  0.67240082  0.43885169  0.25928973  1
  O  O20  1  0.83273657  0.54517392  0.67820481  1
  O  O21  1  0.83273657  0.95482608  0.67820481  1
  O  O22  1  0.89541537  0.75000000  0.26133926  1
  O  O23  1  0.94931913  0.25000000  0.34391172  1
