# generated using pymatgen
data_Li3V4SnO12
_symmetry_space_group_name_H-M   'P 1'
_cell_length_a   5.47571765
_cell_length_b   10.92773207
_cell_length_c   9.59142297
_cell_angle_alpha   28.05020246
_cell_angle_beta   50.31226727
_cell_angle_gamma   55.73934175
_symmetry_Int_Tables_number   1
_chemical_formula_structural   Li3V4SnO12
_chemical_formula_sum   'Li3 V4 Sn1 O12'
_cell_volume   207.68578939
_cell_formula_units_Z   1
loop_
 _symmetry_equiv_pos_site_id
 _symmetry_equiv_pos_as_xyz
  1  'x, y, z'
loop_
 _atom_site_type_symbol
 _atom_site_label
 _atom_site_symmetry_multiplicity
 _atom_site_fract_x
 _atom_site_fract_y
 _atom_site_fract_z
 _atom_site_occupancy
  Li  Li0  1  0.27351327  0.49878125  0.29070367  1
  Li  Li1  1  0.78957313  0.00426736  0.78196458  1
  Li  Li2  1  0.78253237  0.49834612  0.78266198  1
  V  V3  1  0.04187276  0.02100584  0.96021056  1
  V  V4  1  0.97664509  0.48711468  0.02467691  1
  V  V5  1  0.49643427  0.97955771  0.52263302  1
  V  V6  1  0.51860828  0.51539181  0.47256758  1
  Sn  Sn7  1  0.29289946  0.99917140  0.28706656  1
  O  O8  1  0.35852075  0.29373418  0.12413867  1
  O  O9  1  0.21809947  0.11611112  0.63262466  1
  O  O10  1  0.12208429  0.30714237  0.73241715  1
  O  O11  1  0.87252418  0.19767836  0.21601039  1
  O  O12  1  0.34322457  0.80829882  0.11861099  1
  O  O13  1  0.72297773  0.38217914  0.35605676  1
  O  O14  1  0.21135393  0.63166074  0.61010365  1
  O  O15  1  0.61071454  0.17438224  0.86591965  1
  O  O16  1  0.11818142  0.82122011  0.71655781  1
  O  O17  1  0.84577164  0.68603289  0.23787323  1
  O  O18  1  0.72453810  0.88372163  0.34365197  1
  O  O19  1  0.60952974  0.69420523  0.85314920  1
