# generated using pymatgen
data_Mn3Fe(PO4)6
_symmetry_space_group_name_H-M   'P 1'
_cell_length_a   8.78523751
_cell_length_b   8.78523811
_cell_length_c   8.78523807
_cell_angle_alpha   58.15645790
_cell_angle_beta   58.15646533
_cell_angle_gamma   58.15646357
_symmetry_Int_Tables_number   1
_chemical_formula_structural   Mn3Fe(PO4)6
_chemical_formula_sum   'Mn3 Fe1 P6 O24'
_cell_volume   459.19429334
_cell_formula_units_Z   1
loop_
 _symmetry_equiv_pos_site_id
 _symmetry_equiv_pos_as_xyz
  1  'x, y, z'
loop_
 _atom_site_type_symbol
 _atom_site_label
 _atom_site_symmetry_multiplicity
 _atom_site_fract_x
 _atom_site_fract_y
 _atom_site_fract_z
 _atom_site_occupancy
  Mn  Mn0  1  0.14491447  0.14491447  0.14491447  1
  Mn  Mn1  1  0.35535116  0.35535116  0.35535116  1
  Mn  Mn2  1  0.64580089  0.64580089  0.64580089  1
  Fe  Fe3  1  0.85736613  0.85736613  0.85736613  1
  P  P4  1  0.03553586  0.75042408  0.46320797  1
  P  P5  1  0.46320797  0.03553586  0.75042408  1
  P  P6  1  0.75042408  0.46320797  0.03553586  1
  P  P7  1  0.25448834  0.53192024  0.96608733  1
  P  P8  1  0.53192024  0.96608733  0.25448834  1
  P  P9  1  0.96608733  0.25448834  0.53192024  1
  O  O10  1  0.13977786  0.27805638  0.50880842  1
  O  O11  1  0.27805638  0.50880842  0.13977786  1
  O  O12  1  0.06037483  0.92614119  0.27802116  1
  O  O13  1  0.50880842  0.13977786  0.27805638  1
  O  O14  1  0.22102575  0.57631077  0.43345382  1
  O  O15  1  0.01340985  0.77274717  0.63426440  1
  O  O16  1  0.27802116  0.06037483  0.92614119  1
  O  O17  1  0.43345382  0.22102575  0.57631077  1
  O  O18  1  0.57631077  0.43345382  0.22102575  1
  O  O19  1  0.22883304  0.35904839  0.98844558  1
  O  O20  1  0.08170369  0.71333278  0.94068346  1
  O  O21  1  0.35904839  0.98844558  0.22883304  1
  O  O22  1  0.63426440  0.01340985  0.77274717  1
  O  O23  1  0.92614119  0.27802116  0.06037483  1
  O  O24  1  0.77274717  0.63426440  0.01340985  1
  O  O25  1  0.43015805  0.55595175  0.78153254  1
  O  O26  1  0.55595175  0.78153254  0.43015805  1
  O  O27  1  0.71333278  0.94068346  0.08170369  1
  O  O28  1  0.98844558  0.22883304  0.35904839  1
  O  O29  1  0.78153254  0.43015805  0.55595175  1
  O  O30  1  0.48487193  0.86225191  0.72569679  1
  O  O31  1  0.94068346  0.08170369  0.71333278  1
  O  O32  1  0.72569679  0.48487193  0.86225191  1
  O  O33  1  0.86225191  0.72569679  0.48487193  1
