# generated using pymatgen
data_LiCrPO4
_symmetry_space_group_name_H-M   'P 1'
_cell_length_a   8.30133522
_cell_length_b   16.71032300
_cell_length_c   5.02936753
_cell_angle_alpha   90.00000000
_cell_angle_beta   90.00000000
_cell_angle_gamma   90.00000000
_symmetry_Int_Tables_number   1
_chemical_formula_structural   LiCrPO4
_chemical_formula_sum   'Li8 Cr8 P8 O32'
_cell_volume   697.66376910
_cell_formula_units_Z   8
loop_
 _symmetry_equiv_pos_site_id
 _symmetry_equiv_pos_as_xyz
  1  'x, y, z'
loop_
 _atom_site_type_symbol
 _atom_site_label
 _atom_site_symmetry_multiplicity
 _atom_site_fract_x
 _atom_site_fract_y
 _atom_site_fract_z
 _atom_site_occupancy
  Li  Li0  1  0.03071920  0.94353252  0.94130598  1
  Li  Li1  1  0.14049906  0.36335041  0.46650384  1
  Li  Li2  1  0.35950094  0.86335041  0.96650384  1
  Li  Li3  1  0.46928080  0.44353252  0.44130598  1
  Li  Li4  1  0.53071920  0.55646748  0.94130598  1
  Li  Li5  1  0.64049906  0.13664959  0.46650384  1
  Li  Li6  1  0.85950094  0.63664959  0.96650384  1
  Li  Li7  1  0.96928080  0.05646748  0.44130598  1
  Cr  Cr8  1  0.13118641  0.74895284  0.52307762  1
  Cr  Cr9  1  0.14994917  0.55296128  0.47747199  1
  Cr  Cr10  1  0.35005083  0.05296128  0.97747199  1
  Cr  Cr11  1  0.36881359  0.24895284  0.02307762  1
  Cr  Cr12  1  0.63118641  0.75104716  0.52307762  1
  Cr  Cr13  1  0.64994917  0.94703872  0.47747199  1
  Cr  Cr14  1  0.85005083  0.44703872  0.97747199  1
  Cr  Cr15  1  0.86881359  0.25104716  0.02307762  1
  P  P16  1  0.22826890  0.67684343  0.94881011  1
  P  P17  1  0.24058557  0.93447129  0.43606170  1
  P  P18  1  0.25941443  0.43447129  0.93606170  1
  P  P19  1  0.27173110  0.17684343  0.44881011  1
  P  P20  1  0.72826890  0.82315657  0.94881011  1
  P  P21  1  0.74058557  0.56552871  0.43606170  1
  P  P22  1  0.75941443  0.06552871  0.93606170  1
  P  P23  1  0.77173110  0.32315657  0.44881011  1
  O  O24  1  0.08668045  0.64470498  0.75688988  1
  O  O25  1  0.08222856  0.96378534  0.31864442  1
  O  O26  1  0.11303619  0.46917422  0.77385747  1
  O  O27  1  0.11217874  0.14255631  0.36694452  1
  O  O28  1  0.17551596  0.65749852  0.23985053  1
  O  O29  1  0.25699350  0.95651898  0.73948324  1
  O  O30  1  0.21603613  0.76891848  0.90483855  1
  O  O31  1  0.24113126  0.34271831  0.89743013  1
  O  O32  1  0.25886874  0.84271831  0.39743013  1
  O  O33  1  0.28396387  0.26891848  0.40483855  1
  O  O34  1  0.24300650  0.45651898  0.23948324  1
  O  O35  1  0.32448404  0.15749852  0.73985053  1
  O  O36  1  0.38782126  0.64255631  0.86694452  1
  O  O37  1  0.38696381  0.96917422  0.27385747  1
  O  O38  1  0.41777144  0.46378534  0.81864442  1
  O  O39  1  0.41331955  0.14470498  0.25688988  1
  O  O40  1  0.58668045  0.85529502  0.75688988  1
  O  O41  1  0.58222856  0.53621466  0.31864442  1
  O  O42  1  0.61303619  0.03082578  0.77385747  1
  O  O43  1  0.61217874  0.35744369  0.36694452  1
  O  O44  1  0.67551596  0.84250148  0.23985053  1
  O  O45  1  0.75699350  0.54348102  0.73948324  1
  O  O46  1  0.71603613  0.73108152  0.90483855  1
  O  O47  1  0.74113126  0.15728169  0.89743013  1
  O  O48  1  0.75886874  0.65728169  0.39743013  1
  O  O49  1  0.78396387  0.23108152  0.40483855  1
  O  O50  1  0.74300650  0.04348102  0.23948324  1
  O  O51  1  0.82448404  0.34250148  0.73985053  1
  O  O52  1  0.88782126  0.85744369  0.86694452  1
  O  O53  1  0.88696381  0.53082578  0.27385747  1
  O  O54  1  0.91777144  0.03621466  0.81864442  1
  O  O55  1  0.91331955  0.35529502  0.25688988  1
