# generated using pymatgen
data_Li2Cr3NiO8
_symmetry_space_group_name_H-M   'P 1'
_cell_length_a   5.91553052
_cell_length_b   5.91553150
_cell_length_c   5.91553092
_cell_angle_alpha   59.26304985
_cell_angle_beta   59.26304471
_cell_angle_gamma   59.26304766
_symmetry_Int_Tables_number   1
_chemical_formula_structural   Li2Cr3NiO8
_chemical_formula_sum   'Li2 Cr3 Ni1 O8'
_cell_volume   143.91798222
_cell_formula_units_Z   1
loop_
 _symmetry_equiv_pos_site_id
 _symmetry_equiv_pos_as_xyz
  1  'x, y, z'
loop_
 _atom_site_type_symbol
 _atom_site_label
 _atom_site_symmetry_multiplicity
 _atom_site_fract_x
 _atom_site_fract_y
 _atom_site_fract_z
 _atom_site_occupancy
  Li  Li0  1  0.12323212  0.12323212  0.12323212  1
  Li  Li1  1  0.50057820  0.50057820  0.50057820  1
  Cr  Cr2  1  0.00581723  0.49839226  0.49839226  1
  Cr  Cr3  1  0.49839226  0.00581723  0.49839226  1
  Cr  Cr4  1  0.49839226  0.49839226  0.00581723  1
  Ni  Ni5  1  0.87838192  0.87838192  0.87838192  1
  O  O6  1  0.26000789  0.26000789  0.26000789  1
  O  O7  1  0.24954938  0.24954938  0.70824513  1
  O  O8  1  0.24954938  0.70824513  0.24954938  1
  O  O9  1  0.70824513  0.24954938  0.24954938  1
  O  O10  1  0.28832842  0.74960341  0.74960341  1
  O  O11  1  0.74960341  0.28832842  0.74960341  1
  O  O12  1  0.74960341  0.74960341  0.28832842  1
  O  O13  1  0.74031799  0.74031799  0.74031799  1
