# generated using pymatgen
data_Li3MnV(PO4)3
_symmetry_space_group_name_H-M   'P 1'
_cell_length_a   9.88910276
_cell_length_b   9.88910264
_cell_length_c   9.80683062
_cell_angle_alpha   87.05460921
_cell_angle_beta   92.94539072
_cell_angle_gamma   95.45147976
_symmetry_Int_Tables_number   1
_chemical_formula_structural   Li3MnV(PO4)3
_chemical_formula_sum   'Li12 Mn4 V4 P12 O48'
_cell_volume   952.41001800
_cell_formula_units_Z   4
loop_
 _symmetry_equiv_pos_site_id
 _symmetry_equiv_pos_as_xyz
  1  'x, y, z'
loop_
 _atom_site_type_symbol
 _atom_site_label
 _atom_site_symmetry_multiplicity
 _atom_site_fract_x
 _atom_site_fract_y
 _atom_site_fract_z
 _atom_site_occupancy
  Li  Li0  1  0.01364370  0.51272347  0.25027716  1
  Li  Li1  1  0.98374954  0.25805472  0.38395429  1
  Li  Li2  1  0.22673631  0.56700595  0.46083071  1
  Li  Li3  1  0.22250575  0.73434613  0.17654714  1
  Li  Li4  1  0.25805472  0.98374954  0.61604571  1
  Li  Li5  1  0.37861506  0.74698241  0.82263793  1
  Li  Li6  1  0.51272347  0.01364370  0.74972284  1
  Li  Li7  1  0.56700595  0.22673631  0.53916929  1
  Li  Li8  1  0.67989402  0.91330910  0.98246675  1
  Li  Li9  1  0.73434613  0.22250575  0.82345286  1
  Li  Li10  1  0.74698241  0.37861506  0.17736207  1
  Li  Li11  1  0.91330910  0.67989402  0.01753325  1
  Mn  Mn12  1  0.46967362  0.46967362  1.00000000  1
  Mn  Mn13  1  0.73720444  0.97431611  0.27693905  1
  Mn  Mn14  1  0.75675887  0.75675887  0.50000000  1
  Mn  Mn15  1  0.97431611  0.73720444  0.72306095  1
  V  V16  1  0.02992621  0.24887065  0.78316232  1
  V  V17  1  0.24584906  0.24584906  0.00000000  1
  V  V18  1  0.24887065  0.02992621  0.21683768  1
  V  V19  1  0.53418173  0.53418173  0.50000000  1
  P  P20  1  0.05490053  0.81564163  0.40813795  1
  P  P21  1  0.17443970  0.94419223  0.90092617  1
  P  P22  1  0.16038537  0.54843553  0.93294883  1
  P  P23  1  0.31842052  0.34031904  0.30230447  1
  P  P24  1  0.34031904  0.31842052  0.69769553  1
  P  P25  1  0.44413259  0.84138346  0.42188388  1
  P  P26  1  0.54843553  0.16038537  0.06705117  1
  P  P27  1  0.65160303  0.68400849  0.79800785  1
  P  P28  1  0.68400849  0.65160303  0.20199215  1
  P  P29  1  0.84138346  0.44413259  0.57811612  1
  P  P30  1  0.81564163  0.05490053  0.59186205  1
  P  P31  1  0.94419223  0.17443970  0.09907383  1
  O  O32  1  0.03539072  0.86697744  0.86261931  1
  O  O33  1  0.09091738  0.82410210  0.56355421  1
  O  O34  1  0.11161041  0.60898625  0.79469116  1
  O  O35  1  0.11350427  0.95089073  0.33663038  1
  O  O36  1  0.10713813  0.69114172  0.34649027  1
  O  O37  1  0.12520420  0.38788138  0.92892751  1
  O  O38  1  0.09467137  0.59922886  0.05749642  1
  O  O39  1  0.10229501  0.16014918  0.12596837  1
  O  O40  1  0.16014918  0.10229501  0.87403163  1
  O  O41  1  0.18278935  0.31151367  0.67123877  1
  O  O42  1  0.20370404  0.90962262  0.05612001  1
  O  O43  1  0.19433628  0.40211675  0.35132177  1
  O  O44  1  0.28972144  0.91161426  0.81357874  1
  O  O45  1  0.31869167  0.58694179  0.94360945  1
  O  O46  1  0.31151367  0.18278935  0.32876123  1
  O  O47  1  0.32357334  0.37212081  0.14089601  1
  O  O48  1  0.36759134  0.88140574  0.28555325  1
  O  O49  1  0.40715519  0.91065736  0.54703874  1
  O  O50  1  0.37212081  0.32357334  0.85910399  1
  O  O51  1  0.39749606  0.45571596  0.63217268  1
  O  O52  1  0.41342330  0.68150410  0.44052052  1
  O  O53  1  0.40211675  0.19433628  0.64867823  1
  O  O54  1  0.38788138  0.12520420  0.07107249  1
  O  O55  1  0.45571596  0.39749606  0.36782732  1
  O  O56  1  0.57662047  0.80411432  0.83998698  1
  O  O57  1  0.54577624  0.59367800  0.14494319  1
  O  O58  1  0.59367800  0.54577624  0.85505681  1
  O  O59  1  0.60276597  0.87785907  0.40365171  1
  O  O60  1  0.62832494  0.67591043  0.63512843  1
  O  O61  1  0.59922886  0.09467137  0.94250358  1
  O  O62  1  0.58694179  0.31869167  0.05639055  1
  O  O63  1  0.60898625  0.11161041  0.20530884  1
  O  O64  1  0.67591043  0.62832494  0.36487157  1
  O  O65  1  0.70557433  0.80543016  0.15807251  1
  O  O66  1  0.68150410  0.41342330  0.55947948  1
  O  O67  1  0.69114172  0.10713813  0.65350973  1
  O  O68  1  0.80543016  0.70557433  0.84192749  1
  O  O69  1  0.81579274  0.89696311  0.62308387  1
  O  O70  1  0.80411432  0.57662047  0.16001302  1
  O  O71  1  0.82410210  0.09091738  0.43644579  1
  O  O72  1  0.87785907  0.60276597  0.59634829  1
  O  O73  1  0.89696311  0.81579274  0.37691613  1
  O  O74  1  0.88140574  0.36759134  0.71444675  1
  O  O75  1  0.90962262  0.20370404  0.94387999  1
  O  O76  1  0.91065736  0.40715519  0.45296126  1
  O  O77  1  0.86697744  0.03539072  0.13738069  1
  O  O78  1  0.91161426  0.28972144  0.18642126  1
  O  O79  1  0.95089073  0.11350427  0.66336962  1
