# generated using pymatgen
data_LiIO3
_symmetry_space_group_name_H-M   'P 1'
_cell_length_a   6.77233784
_cell_length_b   9.97705639
_cell_length_c   9.97705639
_cell_angle_alpha   90.00000000
_cell_angle_beta   90.00000000
_cell_angle_gamma   90.00000000
_symmetry_Int_Tables_number   1
_chemical_formula_structural   LiIO3
_chemical_formula_sum   'Li8 I8 O24'
_cell_volume   674.12971146
_cell_formula_units_Z   8
loop_
 _symmetry_equiv_pos_site_id
 _symmetry_equiv_pos_as_xyz
  1  'x, y, z'
loop_
 _atom_site_type_symbol
 _atom_site_label
 _atom_site_symmetry_multiplicity
 _atom_site_fract_x
 _atom_site_fract_y
 _atom_site_fract_z
 _atom_site_occupancy
  Li  Li0  1  0.75000000  0.75000000  0.75000000  1
  Li  Li1  1  0.25000000  0.25000000  0.25000000  1
  Li  Li2  1  0.50000000  0.00000000  0.00000000  1
  Li  Li3  1  0.25000000  0.75000000  0.75000000  1
  Li  Li4  1  0.50000000  0.50000000  0.50000000  1
  Li  Li5  1  0.00000000  0.50000000  0.00000000  1
  Li  Li6  1  0.00000000  0.00000000  0.50000000  1
  Li  Li7  1  0.75000000  0.25000000  0.25000000  1
  I  I8  1  0.39590040  0.26140725  0.96596113  1
  I  I9  1  0.60409960  0.76140725  0.46596113  1
  I  I10  1  0.39590040  0.23859275  0.53403887  1
  I  I11  1  0.60409960  0.73859275  0.03403887  1
  I  I12  1  0.10409960  0.53403887  0.26140725  1
  I  I13  1  0.89590040  0.03403887  0.76140725  1
  I  I14  1  0.89590040  0.46596113  0.73859275  1
  I  I15  1  0.10409960  0.96596113  0.23859275  1
  O  O16  1  0.20248201  0.33014677  0.44232324  1
  O  O17  1  0.29751799  0.44232324  0.16985323  1
  O  O18  1  0.04351978  0.84601596  0.37093527  1
  O  O19  1  0.95648022  0.34601596  0.87093527  1
  O  O20  1  0.90583591  0.41780902  0.22112157  1
  O  O21  1  0.79751799  0.83014677  0.94232324  1
  O  O22  1  0.09416409  0.91780902  0.72112157  1
  O  O23  1  0.59416409  0.22112157  0.08219098  1
  O  O24  1  0.09416409  0.58219098  0.77887843  1
  O  O25  1  0.95648022  0.15398404  0.62906473  1
  O  O26  1  0.90583591  0.08219098  0.27887843  1
  O  O27  1  0.29751799  0.05767676  0.33014677  1
  O  O28  1  0.45648022  0.37093527  0.65398404  1
  O  O29  1  0.45648022  0.12906473  0.84601596  1
  O  O30  1  0.70248201  0.94232324  0.66985323  1
  O  O31  1  0.59416409  0.27887843  0.41780902  1
  O  O32  1  0.54351978  0.62906473  0.34601596  1
  O  O33  1  0.40583591  0.72112157  0.58219098  1
  O  O34  1  0.04351978  0.65398404  0.12906473  1
  O  O35  1  0.20248201  0.16985323  0.05767676  1
  O  O36  1  0.40583591  0.77887843  0.91780902  1
  O  O37  1  0.79751799  0.66985323  0.55767676  1
  O  O38  1  0.70248201  0.55767676  0.83014677  1
  O  O39  1  0.54351978  0.87093527  0.15398404  1
