# generated using pymatgen
data_Li2MnCuO4
_symmetry_space_group_name_H-M   'P 1'
_cell_length_a   5.11671449
_cell_length_b   5.11671417
_cell_length_c   5.11671513
_cell_angle_alpha   132.24215919
_cell_angle_beta   132.24215794
_cell_angle_gamma   69.84683232
_symmetry_Int_Tables_number   1
_chemical_formula_structural   Li2MnCuO4
_chemical_formula_sum   'Li2 Mn1 Cu1 O4'
_cell_volume   71.99397473
_cell_formula_units_Z   1
loop_
 _symmetry_equiv_pos_site_id
 _symmetry_equiv_pos_as_xyz
  1  'x, y, z'
loop_
 _atom_site_type_symbol
 _atom_site_label
 _atom_site_symmetry_multiplicity
 _atom_site_fract_x
 _atom_site_fract_y
 _atom_site_fract_z
 _atom_site_occupancy
  Li  Li0  1  0.25000000  0.75000000  0.50000000  1
  Li  Li1  1  0.50000000  0.50000000  0.00000000  1
  Mn  Mn2  1  0.00000000  0.00000000  0.00000000  1
  Cu  Cu3  1  0.75000000  0.25000000  0.50000000  1
  O  O4  1  0.51677540  0.01677540  0.50000000  1
  O  O5  1  0.23060123  0.23060123  0.00000000  1
  O  O6  1  0.98322460  0.48322460  0.50000000  1
  O  O7  1  0.76939877  0.76939877  1.00000000  1
