# generated using pymatgen
data_Li4Mn(WO4)3
_symmetry_space_group_name_H-M   'P 1'
_cell_length_a   5.54069913
_cell_length_b   11.08593933
_cell_length_c   9.79941487
_cell_angle_alpha   28.03158498
_cell_angle_beta   51.17241617
_cell_angle_gamma   56.27680397
_symmetry_Int_Tables_number   1
_chemical_formula_structural   Li4Mn(WO4)3
_chemical_formula_sum   'Li4 Mn1 W3 O12'
_cell_volume   220.36830236
_cell_formula_units_Z   1
loop_
 _symmetry_equiv_pos_site_id
 _symmetry_equiv_pos_as_xyz
  1  'x, y, z'
loop_
 _atom_site_type_symbol
 _atom_site_label
 _atom_site_symmetry_multiplicity
 _atom_site_fract_x
 _atom_site_fract_y
 _atom_site_fract_z
 _atom_site_occupancy
  Li  Li0  1  0.24562457  0.99695957  0.32022263  1
  Li  Li1  1  0.33023873  0.50488412  0.25934955  1
  Li  Li2  1  0.75490626  0.00477619  0.72313463  1
  Li  Li3  1  0.77846073  0.48972500  0.82603425  1
  Mn  Mn4  1  0.01367195  0.49958024  0.99778558  1
  W  W5  1  0.00215691  -0.00035386  0.01227775  1
  W  W6  1  0.48030889  0.00915895  0.50535899  1
  W  W7  1  0.52543696  0.49691998  0.50149871  1
  O  O8  1  0.39629324  0.28919587  0.13455792  1
  O  O9  1  0.23857879  0.12324660  0.63498520  1
  O  O10  1  0.13006441  0.29651189  0.76316040  1
  O  O11  1  0.85340277  0.17920430  0.25383638  1
  O  O12  1  0.36251361  0.80333019  0.12605721  1
  O  O13  1  0.69621991  0.38159944  0.38975596  1
  O  O14  1  0.24773866  0.63012311  0.59251936  1
  O  O15  1  0.64025936  0.19395442  0.86300098  1
  O  O16  1  0.14018279  0.83866655  0.70963920  1
  O  O17  1  0.87215017  0.69294530  0.24025807  1
  O  O18  1  0.74948709  0.87162065  0.36599853  1
  O  O19  1  0.61350721  0.69795249  0.85176670  1
