# generated using pymatgen
data_Li4Ti2Co3O10
_symmetry_space_group_name_H-M   'P 1'
_cell_length_a   7.76809923
_cell_length_b   6.55718197
_cell_length_c   7.75542686
_cell_angle_alpha   115.49135957
_cell_angle_beta   84.36583353
_cell_angle_gamma   91.59098265
_symmetry_Int_Tables_number   1
_chemical_formula_structural   Li4Ti2Co3O10
_chemical_formula_sum   'Li8 Ti4 Co6 O20'
_cell_volume   354.81138461
_cell_formula_units_Z   2
loop_
 _symmetry_equiv_pos_site_id
 _symmetry_equiv_pos_as_xyz
  1  'x, y, z'
loop_
 _atom_site_type_symbol
 _atom_site_label
 _atom_site_symmetry_multiplicity
 _atom_site_fract_x
 _atom_site_fract_y
 _atom_site_fract_z
 _atom_site_occupancy
  Li  Li0  1  0.15564100  0.06335226  0.40529509  1
  Li  Li1  1  0.04911851  0.36202850  0.80375995  1
  Li  Li2  1  0.99593655  0.50070081  0.49328611  1
  Li  Li3  1  0.50406345  0.99929919  0.50671389  1
  Li  Li4  1  0.45088149  0.13797150  0.19624005  1
  Li  Li5  1  0.34435900  0.43664774  0.59470491  1
  Li  Li6  1  0.66236295  0.56660630  0.39732114  1
  Li  Li7  1  0.83763705  0.93339370  0.60267886  1
  Ti  Ti8  1  0.28306769  0.59679662  0.30140169  1
  Ti  Ti9  1  0.21693231  0.90320338  0.69859831  1
  Ti  Ti10  1  0.80541617  0.08360973  0.30659475  1
  Ti  Ti11  1  0.69458383  0.41639027  0.69340525  1
  Co  Co12  1  0.09680379  0.20323945  0.09923934  1
  Co  Co13  1  0.40319621  0.29676055  0.90076066  1
  Co  Co14  1  0.25000000  0.75000000  0.00000000  1
  Co  Co15  1  0.75000000  0.25000000  0.00000000  1
  Co  Co16  1  0.59821766  0.70043469  0.09749114  1
  Co  Co17  1  0.90178234  0.79956531  0.90250886  1
  O  O18  1  0.31057872  0.04703040  0.95518081  1
  O  O19  1  0.28031167  0.16957462  0.66718527  1
  O  O20  1  0.21968833  0.33042538  0.33281473  1
  O  O21  1  0.11925126  0.64952780  0.76341882  1
  O  O22  1  0.18942128  0.45296960  0.04481919  1
  O  O23  1  0.09833073  0.78422110  0.46229379  1
  O  O24  1  0.62253998  0.16290841  0.76617955  1
  O  O25  1  0.47661522  0.55523435  0.86010696  1
  O  O26  1  0.02338478  0.94476565  0.13989304  1
  O  O27  1  0.59517730  0.28039553  0.45367790  1
  O  O28  1  0.40166927  0.71577890  0.53770621  1
  O  O29  1  0.98565227  0.05910279  0.86164936  1
  O  O30  1  0.51434773  0.44089721  0.13835064  1
  O  O31  1  0.38074874  0.85047220  0.23658118  1
  O  O32  1  0.90482270  0.21960447  0.54632210  1
  O  O33  1  0.80923504  0.54260419  0.94348766  1
  O  O34  1  0.87746002  0.33709159  0.23382045  1
  O  O35  1  0.78809491  0.66941382  0.66701109  1
  O  O36  1  0.71190509  0.83058618  0.33298891  1
  O  O37  1  0.69076496  0.95739581  0.05651234  1
