# generated using pymatgen
data_Li4FeTe2WO12
_symmetry_space_group_name_H-M   'P 1'
_cell_length_a   5.48864545
_cell_length_b   10.96501765
_cell_length_c   9.65370633
_cell_angle_alpha   28.35230397
_cell_angle_beta   51.21932888
_cell_angle_gamma   56.49116746
_symmetry_Int_Tables_number   1
_chemical_formula_structural   Li4FeTe2WO12
_chemical_formula_sum   'Li4 Fe1 Te2 W1 O12'
_cell_volume   215.08279454
_cell_formula_units_Z   1
loop_
 _symmetry_equiv_pos_site_id
 _symmetry_equiv_pos_as_xyz
  1  'x, y, z'
loop_
 _atom_site_type_symbol
 _atom_site_label
 _atom_site_symmetry_multiplicity
 _atom_site_fract_x
 _atom_site_fract_y
 _atom_site_fract_z
 _atom_site_occupancy
  Li  Li0  1  0.25073258  0.99510681  0.30884658  1
  Li  Li1  1  0.31708548  0.49833380  0.26501073  1
  Li  Li2  1  0.77401098  0.00875096  0.73737152  1
  Li  Li3  1  0.78576076  0.49605481  0.81451562  1
  Fe  Fe4  1  0.01155932  0.50033525  0.00058400  1
  Te  Te5  1  0.49516170  0.00280402  0.50099368  1
  Te  Te6  1  0.51033051  0.50039906  0.50010909  1
  W  W7  1  0.99650030  0.00083938  0.00331323  1
  O  O8  1  0.38346718  0.29353906  0.13487241  1
  O  O9  1  0.22993223  0.12765134  0.62536962  1
  O  O10  1  0.10075249  0.31095278  0.74973302  1
  O  O11  1  0.85645642  0.19142848  0.24288229  1
  O  O12  1  0.37254579  0.82617475  0.10391692  1
  O  O13  1  0.71903181  0.38305562  0.36973984  1
  O  O14  1  0.23490997  0.62021853  0.62740143  1
  O  O15  1  0.61851881  0.16055763  0.89928677  1
  O  O16  1  0.14080739  0.82870522  0.71959249  1
  O  O17  1  0.89689769  0.68810513  0.23929719  1
  O  O18  1  0.75282871  0.87008811  0.37397429  1
  O  O19  1  0.62390887  0.69689927  0.85438928  1
