# generated using pymatgen
data_Li2Mn2Ni(PO4)3
_symmetry_space_group_name_H-M   'P 1'
_cell_length_a   8.33383211
_cell_length_b   8.49854009
_cell_length_c   8.49854025
_cell_angle_alpha   63.07818457
_cell_angle_beta   64.52026686
_cell_angle_gamma   64.52026942
_symmetry_Int_Tables_number   1
_chemical_formula_structural   Li2Mn2Ni(PO4)3
_chemical_formula_sum   'Li4 Mn4 Ni2 P6 O24'
_cell_volume   463.29709329
_cell_formula_units_Z   2
loop_
 _symmetry_equiv_pos_site_id
 _symmetry_equiv_pos_as_xyz
  1  'x, y, z'
loop_
 _atom_site_type_symbol
 _atom_site_label
 _atom_site_symmetry_multiplicity
 _atom_site_fract_x
 _atom_site_fract_y
 _atom_site_fract_z
 _atom_site_occupancy
  Li  Li0  1  0.75000000  0.14055658  0.35944342  1
  Li  Li1  1  0.25000000  0.84123027  0.65876973  1
  Li  Li2  1  0.64625592  0.25213684  0.84963131  1
  Li  Li3  1  0.85374408  0.65036869  0.24786316  1
  Mn  Mn4  1  0.14526613  0.14464352  0.14683615  1
  Mn  Mn5  1  0.35473387  0.35316385  0.35535648  1
  Mn  Mn6  1  0.65536837  0.65562199  0.65140209  1
  Mn  Mn7  1  0.84463163  0.84859791  0.84437801  1
  Ni  Ni8  1  0.00455374  0.00167418  0.99416831  1
  Ni  Ni9  1  0.49544626  0.50583169  0.49832582  1
  P  P10  1  0.07103358  0.75067719  0.43811626  1
  P  P11  1  0.42896642  0.06188374  0.74932281  1
  P  P12  1  0.75000000  0.43930287  0.06069713  1
  P  P13  1  0.25000000  0.54054119  0.95945881  1
  P  P14  1  0.55860591  0.95336100  0.25071225  1
  P  P15  1  0.94139409  0.24928775  0.54663900  1
  O  O16  1  0.10766109  0.31671154  0.48688865  1
  O  O17  1  0.32850242  0.49506103  0.11312509  1
  O  O18  1  0.07343059  0.91654795  0.24768827  1
  O  O19  1  0.54706938  0.09660964  0.32001000  1
  O  O20  1  0.03873955  0.81256581  0.59560649  1
  O  O21  1  0.26142777  0.60217850  0.41921144  1
  O  O22  1  0.23857223  0.08078856  0.89782150  1
  O  O23  1  0.42656941  0.25231173  0.58345205  1
  O  O24  1  0.17149758  0.38687491  0.00493897  1
  O  O25  1  0.60200737  0.41676120  0.25808963  1
  O  O26  1  0.10345269  0.73612635  0.94184721  1
  O  O27  1  0.39233891  0.01311135  0.18328846  1
  O  O28  1  0.58948693  0.03774824  0.80996390  1
  O  O29  1  0.89799263  0.24191037  0.08323880  1
  O  O30  1  0.39654731  0.55815279  0.76387365  1
  O  O31  1  0.81722464  0.59402567  0.03038440  1
  O  O32  1  0.56707120  0.75571239  0.40042979  1
  O  O33  1  0.75150235  0.92859776  0.09727746  1
  O  O34  1  0.74849765  0.40272254  0.57140224  1
  O  O35  1  0.95293062  0.17999000  0.40339036  1
  O  O36  1  0.46126045  0.90439351  0.68743419  1
  O  O37  1  0.93292880  0.09957021  0.74428761  1
  O  O38  1  0.68277536  0.46961560  0.90597433  1
  O  O39  1  0.91051307  0.69003610  0.46225176  1
