# generated using pymatgen
data_Li7Fe3Co(PO4)6
_symmetry_space_group_name_H-M   'P 1'
_cell_length_a   8.84354861
_cell_length_b   8.84354869
_cell_length_c   8.79351202
_cell_angle_alpha   89.99999798
_cell_angle_beta   59.81159476
_cell_angle_gamma   120.00000152
_symmetry_Int_Tables_number   1
_chemical_formula_structural   Li7Fe3Co(PO4)6
_chemical_formula_sum   'Li7 Fe3 Co1 P6 O24'
_cell_volume   484.90631208
_cell_formula_units_Z   1
loop_
 _symmetry_equiv_pos_site_id
 _symmetry_equiv_pos_as_xyz
  1  'x, y, z'
loop_
 _atom_site_type_symbol
 _atom_site_label
 _atom_site_symmetry_multiplicity
 _atom_site_fract_x
 _atom_site_fract_y
 _atom_site_fract_z
 _atom_site_occupancy
  Li  Li0  1  0.04681434  0.27664927  0.84271635  1
  Li  Li1  1  0.88063438  0.77016507  0.84271635  1
  Li  Li2  1  0.50425580  0.84564147  0.29677470  1
  Li  Li3  1  0.38711858  0.11046931  0.84271635  1
  Li  Li4  1  0.04461098  0.19896950  0.29677470  1
  Li  Li5  1  0.95928783  0.47964342  0.56106875  1
  Li  Li6  1  0.85758283  0.65861333  0.29677470  1
  Fe  Fe7  1  0.70108480  0.35054240  0.94837180  1
  Fe  Fe8  1  0.29471013  0.14735507  0.55793480  1
  Fe  Fe9  1  0.28949905  0.64474903  0.06575192  1
  Co  Co10  1  0.69575203  0.84787652  0.45637145  1
  P  P11  1  0.20553749  0.74688658  0.74884960  1
  P  P12  1  0.20518104  0.95385751  0.25354740  1
  P  P13  1  0.50426383  0.45865091  0.74884960  1
  P  P14  1  0.49512908  0.54127157  0.25354740  1
  P  P15  1  0.79249950  0.04561292  0.74884960  1
  P  P16  1  0.79259509  0.25132452  0.25354740  1
  O  O17  1  0.18908442  0.68657740  0.92324635  1
  O  O18  1  0.21329005  0.92871922  0.75010881  1
  O  O19  1  0.00072843  0.60284310  0.75735171  1
  O  O20  1  0.57424663  0.88766923  0.92324635  1
  O  O21  1  0.22902408  0.98244958  0.41528346  1
  O  O22  1  0.02962898  0.96394279  0.26842522  1
  O  O23  1  0.39017625  0.50250702  0.92324635  1
  O  O24  1  0.39654799  0.77274096  0.56892236  1
  O  O25  1  0.14597942  0.75524389  0.25148091  1
  O  O26  1  0.32117098  0.28457083  0.75010881  1
  O  O27  1  0.65833668  0.62380704  0.56892236  1
  O  O28  1  0.63980518  0.39788533  0.75735171  1
  O  O29  1  0.35778356  0.60253967  0.25148091  1
  O  O30  1  0.33814103  0.35569245  0.41528346  1
  O  O31  1  0.66588859  0.70194580  0.26842522  1
  O  O32  1  0.84476295  0.24191985  0.75735171  1
  O  O33  1  0.60226696  0.24657451  0.41528346  1
  O  O34  1  0.62498868  0.51788941  0.06510755  1
  O  O35  1  0.96532036  0.03660114  0.75010881  1
  O  O36  1  0.80727060  0.03452965  0.56892236  1
  O  O37  1  0.41700304  0.10709926  0.06510755  1
  O  O38  1  0.99327420  0.39073553  0.25148091  1
  O  O39  1  0.76763198  0.06568619  0.26842522  1
  O  O40  1  0.82779418  0.30990377  0.06510755  1
