# generated using pymatgen
data_LiFe8(BO3)8
_symmetry_space_group_name_H-M   'P 1'
_cell_length_a   5.32351634
_cell_length_b   9.01880056
_cell_length_c   11.41862668
_cell_angle_alpha   113.57834153
_cell_angle_beta   76.64972238
_cell_angle_gamma   89.62389629
_symmetry_Int_Tables_number   1
_chemical_formula_structural   LiFe8(BO3)8
_chemical_formula_sum   'Li1 Fe8 B8 O24'
_cell_volume   485.86299609
_cell_formula_units_Z   1
loop_
 _symmetry_equiv_pos_site_id
 _symmetry_equiv_pos_as_xyz
  1  'x, y, z'
loop_
 _atom_site_type_symbol
 _atom_site_label
 _atom_site_symmetry_multiplicity
 _atom_site_fract_x
 _atom_site_fract_y
 _atom_site_fract_z
 _atom_site_occupancy
  Li  Li0  1  0.93180057  0.42700310  0.84331359  1
  Fe  Fe1  1  0.40730059  0.26968995  0.87578511  1
  Fe  Fe2  1  0.10088655  0.22709648  0.12252483  1
  Fe  Fe3  1  0.83519020  0.14177923  0.62304449  1
  Fe  Fe4  1  0.65370335  0.35186166  0.37206572  1
  Fe  Fe5  1  0.34845406  0.64705330  0.62391276  1
  Fe  Fe6  1  0.15220286  0.85012133  0.37108712  1
  Fe  Fe7  1  0.90142379  0.77887777  0.87336683  1
  Fe  Fe8  1  0.59778758  0.72593612  0.12170304  1
  B  B9  1  0.64447383  0.01583978  0.37076808  1
  B  B10  1  0.90012669  0.10961239  0.87451805  1
  B  B11  1  0.14457390  0.51412694  0.37367577  1
  B  B12  1  0.39146886  0.60608578  0.87096891  1
  B  B13  1  0.84790404  0.48657356  0.62930124  1
  B  B14  1  0.60603283  0.39195504  0.12338331  1
  B  B15  1  0.35201085  0.98039119  0.62015875  1
  B  B16  1  0.10328079  0.88964263  0.12152337  1
  O  O17  1  0.10014557  0.15822455  0.93381099  1
  O  O18  1  0.46473331  0.12402956  0.66800285  1
  O  O19  1  0.19280322  0.03032035  0.12880295  1
  O  O20  1  0.54978602  0.15293255  0.36888123  1
  O  O21  1  0.85704587  0.01521182  0.42403943  1
  O  O22  1  0.81064721  0.21078785  0.82164078  1
  O  O23  1  0.27166657  0.47567485  0.87264211  1
  O  O24  1  0.03398029  0.36845050  0.32729370  1
  O  O25  1  0.71909356  0.30145442  0.17660908  1
  O  O26  1  0.64672257  0.48314335  0.56942697  1
  O  O27  1  0.92126901  0.35667732  0.65082720  1
  O  O28  1  0.38916720  0.34194027  0.07846070  1
  O  O29  1  0.62396036  0.64232191  0.91461672  1
  O  O30  1  0.35407215  0.51556931  0.42940282  1
  O  O31  1  0.28811342  0.71136861  0.82571392  1
  O  O32  1  0.96666450  0.63000572  0.67365917  1
  O  O33  1  0.71251667  0.52429282  0.11105894  1
  O  O34  1  0.21706634  0.78914879  0.16748475  1
  O  O35  1  0.14041975  0.98168313  0.56596519  1
  O  O36  1  0.44495518  0.84375131  0.62428595  1
  O  O37  1  0.05642554  0.65018767  0.36583331  1
  O  O38  1  0.79444397  0.96983762  0.86569932  1
  O  O39  1  0.53542853  0.86828492  0.32065255  1
  O  O40  1  0.89029983  0.83578557  0.06724141  1
