# generated using pymatgen
data_Li3MnV(PO4)3
_symmetry_space_group_name_H-M   'P 1'
_cell_length_a   8.43032596
_cell_length_b   8.81357392
_cell_length_c   12.31456758
_cell_angle_alpha   90.00000000
_cell_angle_beta   88.19793146
_cell_angle_gamma   90.00000000
_symmetry_Int_Tables_number   1
_chemical_formula_structural   Li3MnV(PO4)3
_chemical_formula_sum   'Li12 Mn4 V4 P12 O48'
_cell_volume   914.53586333
_cell_formula_units_Z   4
loop_
 _symmetry_equiv_pos_site_id
 _symmetry_equiv_pos_as_xyz
  1  'x, y, z'
loop_
 _atom_site_type_symbol
 _atom_site_label
 _atom_site_symmetry_multiplicity
 _atom_site_fract_x
 _atom_site_fract_y
 _atom_site_fract_z
 _atom_site_occupancy
  Li  Li0  1  0.00328165  0.99953975  -0.00031720  1
  Li  Li1  1  0.00614288  0.10127933  0.25027058  1
  Li  Li2  1  0.00328165  0.00046025  0.49968280  1
  Li  Li3  1  0.00614288  0.89872067  0.75027058  1
  Li  Li4  1  0.29247074  0.80688554  0.04640139  1
  Li  Li5  1  0.29247074  0.19311446  0.54640139  1
  Li  Li6  1  0.50391270  0.50104316  -0.00018558  1
  Li  Li7  1  0.50341638  0.39984595  0.25111118  1
  Li  Li8  1  0.50391270  0.49895684  0.49981442  1
  Li  Li9  1  0.50341638  0.60015405  0.75111118  1
  Li  Li10  1  0.70777527  0.80353927  0.44892853  1
  Li  Li11  1  0.70777527  0.19646073  0.94892853  1
  Mn  Mn12  1  0.28893714  0.99326381  0.35749726  1
  Mn  Mn13  1  0.28893714  0.00673619  0.85749726  1
  Mn  Mn14  1  0.78983647  0.50229699  0.35272779  1
  Mn  Mn15  1  0.78983647  0.49770301  0.85272779  1
  V  V16  1  0.21342373  0.49929962  0.14465610  1
  V  V17  1  0.21342373  0.50070038  0.64465610  1
  V  V18  1  0.71566338  0.99775496  0.14127501  1
  V  V19  1  0.71566338  0.00224504  0.64127501  1
  P  P20  1  0.00184511  0.80011795  0.25014769  1
  P  P21  1  0.00184511  0.19988205  0.75014769  1
  P  P22  1  0.15075048  0.35636697  0.39583816  1
  P  P23  1  0.15075048  0.64363303  0.89583816  1
  P  P24  1  0.34932009  0.14752948  0.10433805  1
  P  P25  1  0.34932009  0.85247052  0.60433805  1
  P  P26  1  0.50356233  0.70634271  0.24919947  1
  P  P27  1  0.50356233  0.29365729  0.74919947  1
  P  P28  1  0.64642240  0.14557925  0.39655005  1
  P  P29  1  0.64642240  0.85442075  0.89655005  1
  P  P30  1  0.84192172  0.35329561  0.10475979  1
  P  P31  1  0.84192172  0.64670439  0.60475979  1
  O  O32  1  0.01545527  0.40988626  0.10623467  1
  O  O33  1  0.01545527  0.59011374  0.60623467  1
  O  O34  1  0.07651534  0.91093213  0.33466354  1
  O  O35  1  0.07651534  0.08906787  0.83466354  1
  O  O36  1  0.12624131  0.70214314  0.18878119  1
  O  O37  1  0.12624131  0.29785686  0.68878119  1
  O  O38  1  0.14128342  0.18167622  0.41001279  1
  O  O39  1  0.14128342  0.81832378  0.91001279  1
  O  O40  1  0.24434222  0.40714131  0.29157971  1
  O  O41  1  0.25104378  0.06305438  0.01915624  1
  O  O42  1  0.25036796  0.41275398  0.49314704  1
  O  O43  1  0.24434222  0.59285869  0.79157971  1
  O  O44  1  0.25104378  0.93694562  0.51915624  1
  O  O45  1  0.27244645  0.09791338  0.21280662  1
  O  O46  1  0.25036796  0.58724602  0.99314704  1
  O  O47  1  0.27244645  0.90208662  0.71280662  1
  O  O48  1  0.34765059  0.32351816  0.09137728  1
  O  O49  1  0.34765059  0.67648184  0.59137728  1
  O  O50  1  0.38566428  0.79819901  0.31646410  1
  O  O51  1  0.38566428  0.20180099  0.81646410  1
  O  O52  1  0.42800287  0.59769604  0.16310700  1
  O  O53  1  0.42800287  0.40230396  0.66310700  1
  O  O54  1  0.46685511  0.10393018  0.40900453  1
  O  O55  1  0.46685511  0.89606982  0.90900453  1
  O  O56  1  0.52671627  0.10774323  0.09295699  1
  O  O57  1  0.52671627  0.89225677  0.59295699  1
  O  O58  1  0.57944705  0.59764822  0.33344955  1
  O  O59  1  0.57944705  0.40235178  0.83344955  1
  O  O60  1  0.61781438  0.80560587  0.18373047  1
  O  O61  1  0.61781438  0.19439413  0.68373047  1
  O  O62  1  0.64491165  0.31860616  0.40956472  1
  O  O63  1  0.64491165  0.68139384  0.90956472  1
  O  O64  1  0.72050229  0.09199512  0.28794762  1
  O  O65  1  0.74546667  0.40688606  0.00774614  1
  O  O66  1  0.72050229  0.90800488  0.78794762  1
  O  O67  1  0.74441287  0.05974331  0.48191581  1
  O  O68  1  0.74921961  0.40042758  0.20751547  1
  O  O69  1  0.74546667  0.59311394  0.50774614  1
  O  O70  1  0.74441287  0.94025669  0.98191581  1
  O  O71  1  0.74921961  0.59957242  0.70751547  1
  O  O72  1  0.85609375  0.17688907  0.09174524  1
  O  O73  1  0.85609375  0.82311093  0.59174524  1
  O  O74  1  0.87547843  0.71328907  0.31399476  1
  O  O75  1  0.87547843  0.28671093  0.81399476  1
  O  O76  1  0.93360421  0.90963202  0.16373867  1
  O  O77  1  0.93360421  0.09036798  0.66373867  1
  O  O78  1  0.98178376  0.41177135  0.39616159  1
  O  O79  1  0.98178376  0.58822865  0.89616159  1
