# generated using pymatgen
data_Cs5Ag4C8IN8
_symmetry_space_group_name_H-M   'P 1'
_cell_length_a   17.43031655
_cell_length_b   17.43031641
_cell_length_c   17.43031608
_cell_angle_alpha   109.47122025
_cell_angle_beta   109.47122008
_cell_angle_gamma   109.47122135
_symmetry_Int_Tables_number   1
_chemical_formula_structural   Cs5Ag4C8IN8
_chemical_formula_sum   'Cs30 Ag24 C48 I6 N48'
_cell_volume   4076.56074613
_cell_formula_units_Z   6
loop_
 _symmetry_equiv_pos_site_id
 _symmetry_equiv_pos_as_xyz
  1  'x, y, z'
loop_
 _atom_site_type_symbol
 _atom_site_label
 _atom_site_symmetry_multiplicity
 _atom_site_fract_x
 _atom_site_fract_y
 _atom_site_fract_z
 _atom_site_occupancy
  Cs  Cs0  1  0.70193146  0.06892270  0.50538421  1
  Cs  Cs1  1  0.06892270  0.50538421  0.70193146  1
  Cs  Cs2  1  0.99461579  0.06353849  0.19654725  1
  Cs  Cs3  1  0.69654725  0.56353849  0.49461579  1
  Cs  Cs4  1  0.29806854  0.86699125  0.80345275  1
  Cs  Cs5  1  0.63300875  0.93107730  0.93646151  1
  Cs  Cs6  1  0.06353849  0.19654725  0.99461579  1
  Cs  Cs7  1  0.25000000  0.12500000  0.87500000  1
  Cs  Cs8  1  0.12500000  0.87500000  0.25000000  1
  Cs  Cs9  1  0.79806854  0.30345275  0.36699125  1
  Cs  Cs10  1  0.43107730  0.13300875  0.43646151  1
  Cs  Cs11  1  0.43646151  0.43107730  0.13300875  1
  Cs  Cs12  1  0.19654725  0.99461579  0.06353849  1
  Cs  Cs13  1  0.20193146  0.00538421  0.56892270  1
  Cs  Cs14  1  0.93646151  0.63300875  0.93107730  1
  Cs  Cs15  1  0.37500000  0.62500000  0.75000000  1
  Cs  Cs16  1  0.87500000  0.25000000  0.12500000  1
  Cs  Cs17  1  0.86699125  0.80345275  0.29806854  1
  Cs  Cs18  1  0.50538421  0.70193146  0.06892270  1
  Cs  Cs19  1  0.62500000  0.75000000  0.37500000  1
  Cs  Cs20  1  0.00538421  0.56892270  0.20193146  1
  Cs  Cs21  1  0.75000000  0.37500000  0.62500000  1
  Cs  Cs22  1  0.93107730  0.93646151  0.63300875  1
  Cs  Cs23  1  0.13300875  0.43646151  0.43107730  1
  Cs  Cs24  1  0.56892270  0.20193146  0.00538421  1
  Cs  Cs25  1  0.80345275  0.29806854  0.86699125  1
  Cs  Cs26  1  0.36699125  0.79806854  0.30345275  1
  Cs  Cs27  1  0.49461579  0.69654725  0.56353849  1
  Cs  Cs28  1  0.56353849  0.49461579  0.69654725  1
  Cs  Cs29  1  0.30345275  0.36699125  0.79806854  1
  Ag  Ag30  1  0.29985200  0.29429740  0.42724428  1
  Ag  Ag31  1  0.12739228  0.70014800  0.49444540  1
  Ag  Ag32  1  0.00555460  0.70570260  0.63294688  1
  Ag  Ag33  1  0.79429740  0.79985200  0.92724428  1
  Ag  Ag34  1  0.36705312  0.87260772  0.07275572  1
  Ag  Ag35  1  0.13294688  0.20570260  0.50555460  1
  Ag  Ag36  1  0.37260772  0.86705312  0.57275572  1
  Ag  Ag37  1  0.62739228  0.99444540  0.20014800  1
  Ag  Ag38  1  0.07275572  0.36705312  0.87260772  1
  Ag  Ag39  1  0.63294688  0.00555460  0.70570260  1
  Ag  Ag40  1  0.70014800  0.49444540  0.12739228  1
  Ag  Ag41  1  0.79985200  0.92724428  0.79429740  1
  Ag  Ag42  1  0.42724428  0.29985200  0.29429740  1
  Ag  Ag43  1  0.20014800  0.62739228  0.99444540  1
  Ag  Ag44  1  0.87260772  0.07275572  0.36705312  1
  Ag  Ag45  1  0.86705312  0.57275572  0.37260772  1
  Ag  Ag46  1  0.92724428  0.79429740  0.79985200  1
  Ag  Ag47  1  0.50555460  0.13294688  0.20570260  1
  Ag  Ag48  1  0.20570260  0.50555460  0.13294688  1
  Ag  Ag49  1  0.70570260  0.63294688  0.00555460  1
  Ag  Ag50  1  0.99444540  0.20014800  0.62739228  1
  Ag  Ag51  1  0.49444540  0.12739228  0.70014800  1
  Ag  Ag52  1  0.29429740  0.42724428  0.29985200  1
  Ag  Ag53  1  0.57275572  0.37260772  0.86705312  1
  C  C54  1  0.93458751  0.84750095  0.01245909  1
  C  C55  1  0.06541249  0.41291344  0.07787158  1
  C  C56  1  0.33433101  0.91817280  0.17647245  1
  C  C57  1  0.83433101  0.67647245  0.41817280  1
  C  C58  1  0.51245909  0.34750095  0.43458751  1
  C  C59  1  0.08182720  0.75829965  0.41615821  1
  C  C60  1  0.41817280  0.83433101  0.67647245  1
  C  C61  1  0.08708656  0.15249905  0.66495813  1
  C  C62  1  0.65785856  0.74170035  0.82352755  1
  C  C63  1  0.01245909  0.93458751  0.84750095  1
  C  C64  1  0.65249905  0.58708656  0.16495813  1
  C  C65  1  0.57787158  0.91291344  0.56541249  1
  C  C66  1  0.07787158  0.06541249  0.41291344  1
  C  C67  1  0.17647245  0.33433101  0.91817280  1
  C  C68  1  0.43458751  0.51245909  0.34750095  1
  C  C69  1  0.08384179  0.84214144  0.66566899  1
  C  C70  1  0.66495813  0.08708656  0.15249905  1
  C  C71  1  0.75829965  0.41615821  0.08182720  1
  C  C72  1  0.25829965  0.58182720  0.91615821  1
  C  C73  1  0.56541249  0.57787158  0.91291344  1
  C  C74  1  0.84750095  0.01245909  0.93458751  1
  C  C75  1  0.84214144  0.66566899  0.08384179  1
  C  C76  1  0.16566899  0.34214144  0.58384179  1
  C  C77  1  0.42212842  0.83504187  0.98754091  1
  C  C78  1  0.67647245  0.41817280  0.83433101  1
  C  C79  1  0.15249905  0.66495813  0.08708656  1
  C  C80  1  0.74170035  0.82352755  0.65785856  1
  C  C81  1  0.34214144  0.58384179  0.16566899  1
  C  C82  1  0.24170035  0.15785856  0.32352755  1
  C  C83  1  0.92212842  0.48754091  0.33504187  1
  C  C84  1  0.58708656  0.16495813  0.65249905  1
  C  C85  1  0.83504187  0.98754091  0.42212842  1
  C  C86  1  0.33504187  0.92212842  0.48754091  1
  C  C87  1  0.58384179  0.16566899  0.34214144  1
  C  C88  1  0.41291344  0.07787158  0.06541249  1
  C  C89  1  0.34750095  0.43458751  0.51245909  1
  C  C90  1  0.91291344  0.56541249  0.57787158  1
  C  C91  1  0.41615821  0.08182720  0.75829965  1
  C  C92  1  0.16495813  0.65249905  0.58708656  1
  C  C93  1  0.15785856  0.32352755  0.24170035  1
  C  C94  1  0.91817280  0.17647245  0.33433101  1
  C  C95  1  0.48754091  0.33504187  0.92212842  1
  C  C96  1  0.82352755  0.65785856  0.74170035  1
  C  C97  1  0.32352755  0.24170035  0.15785856  1
  C  C98  1  0.66566899  0.08384179  0.84214144  1
  C  C99  1  0.58182720  0.91615821  0.25829965  1
  C  C100  1  0.91615821  0.25829965  0.58182720  1
  C  C101  1  0.98754091  0.42212842  0.83504187  1
  I  I102  1  0.12500000  0.75000000  0.87500000  1
  I  I103  1  0.75000000  0.87500000  0.12500000  1
  I  I104  1  0.25000000  0.62500000  0.37500000  1
  I  I105  1  0.87500000  0.12500000  0.75000000  1
  I  I106  1  0.62500000  0.37500000  0.25000000  1
  I  I107  1  0.37500000  0.25000000  0.62500000  1
  N  N108  1  0.23702183  0.31760859  0.94524984  1
  N  N109  1  0.44524984  0.81760859  0.73702183  1
  N  N110  1  0.35844747  0.04568339  0.98629683  1
  N  N111  1  0.81276408  0.94061345  0.45431661  1
  N  N112  1  0.12784937  0.68723592  0.14155253  1
  N  N113  1  0.45431661  0.81276408  0.94061345  1
  N  N114  1  0.76297817  0.58058675  0.70822801  1
  N  N115  1  0.58058675  0.70822801  0.76297817  1
  N  N116  1  0.44061345  0.31276408  0.95431661  1
  N  N117  1  0.01370317  0.87215063  0.05938655  1
  N  N118  1  0.68723592  0.14155253  0.12784937  1
  N  N119  1  0.14155253  0.12784937  0.68723592  1
  N  N120  1  0.51370317  0.55938655  0.37215063  1
  N  N121  1  0.20822801  0.08058675  0.26297817  1
  N  N122  1  0.41941325  0.62764126  0.18239141  1
  N  N123  1  0.04568339  0.98629683  0.35844747  1
  N  N124  1  0.29177199  0.55475016  0.87235874  1
  N  N125  1  0.64155253  0.18723592  0.62784937  1
  N  N126  1  0.05938655  0.01370317  0.87215063  1
  N  N127  1  0.55475016  0.87235874  0.29177199  1
  N  N128  1  0.62784937  0.64155253  0.18723592  1
  N  N129  1  0.18723592  0.62784937  0.64155253  1
  N  N130  1  0.37215063  0.51370317  0.55938655  1
  N  N131  1  0.95431661  0.44061345  0.31276408  1
  N  N132  1  0.37235874  0.05475016  0.79177199  1
  N  N133  1  0.54568339  0.85844747  0.48629683  1
  N  N134  1  0.48629683  0.54568339  0.85844747  1
  N  N135  1  0.12764126  0.91941325  0.68239141  1
  N  N136  1  0.85844747  0.48629683  0.54568339  1
  N  N137  1  0.73702183  0.44524984  0.81760859  1
  N  N138  1  0.98629683  0.35844747  0.04568339  1
  N  N139  1  0.87235874  0.29177199  0.55475016  1
  N  N140  1  0.31276408  0.95431661  0.44061345  1
  N  N141  1  0.08058675  0.26297817  0.20822801  1
  N  N142  1  0.91941325  0.68239141  0.12764126  1
  N  N143  1  0.62764126  0.18239141  0.41941325  1
  N  N144  1  0.05475016  0.79177199  0.37235874  1
  N  N145  1  0.18239141  0.41941325  0.62764126  1
  N  N146  1  0.68239141  0.12764126  0.91941325  1
  N  N147  1  0.70822801  0.76297817  0.58058675  1
  N  N148  1  0.87215063  0.05938655  0.01370317  1
  N  N149  1  0.31760859  0.94524984  0.23702183  1
  N  N150  1  0.79177199  0.37235874  0.05475016  1
  N  N151  1  0.81760859  0.73702183  0.44524984  1
  N  N152  1  0.55938655  0.37215063  0.51370317  1
  N  N153  1  0.26297817  0.20822801  0.08058675  1
  N  N154  1  0.94061345  0.45431661  0.81276408  1
  N  N155  1  0.94524984  0.23702183  0.31760859  1
