# generated using pymatgen
data_Li3Mn5(CoO6)2
_symmetry_space_group_name_H-M   'P 1'
_cell_length_a   5.17537329
_cell_length_b   5.17537339
_cell_length_c   29.67333725
_cell_angle_alpha   84.59037218
_cell_angle_beta   95.40962971
_cell_angle_gamma   60.51770282
_symmetry_Int_Tables_number   1
_chemical_formula_structural   Li3Mn5(CoO6)2
_chemical_formula_sum   'Li9 Mn15 Co6 O36'
_cell_volume   679.65036482
_cell_formula_units_Z   3
loop_
 _symmetry_equiv_pos_site_id
 _symmetry_equiv_pos_as_xyz
  1  'x, y, z'
loop_
 _atom_site_type_symbol
 _atom_site_label
 _atom_site_symmetry_multiplicity
 _atom_site_fract_x
 _atom_site_fract_y
 _atom_site_fract_z
 _atom_site_occupancy
  Li  Li0  1  0.15905694  0.65790302  0.50130311  1
  Li  Li1  1  0.65790302  0.15905694  0.99869689  1
  Li  Li2  1  0.15688904  0.66134187  0.16758105  1
  Li  Li3  1  0.33321458  0.83915920  0.66439829  1
  Li  Li4  1  0.66134187  0.15688904  0.33241895  1
  Li  Li5  1  0.83915920  0.33321458  0.83560171  1
  Li  Li6  1  0.93059841  0.91876151  0.91662095  1
  Li  Li7  1  0.91876151  0.93059841  0.58337905  1
  Li  Li8  1  0.93008331  0.93008331  0.25000000  1
  Mn  Mn9  1  0.07525002  0.07525002  0.75000000  1
  Mn  Mn10  1  0.07225302  0.07004776  0.41670867  1
  Mn  Mn11  1  0.07004776  0.07225302  0.08329133  1
  Mn  Mn12  1  0.41435545  0.41435545  0.75000000  1
  Mn  Mn13  1  0.41680583  0.41441374  0.41675001  1
  Mn  Mn14  1  0.58126013  0.59215629  0.91644853  1
  Mn  Mn15  1  0.41441374  0.41680583  0.08324999  1
  Mn  Mn16  1  0.59215629  0.58126013  0.58355147  1
  Mn  Mn17  1  0.49759919  0.00710772  0.83492443  1
  Mn  Mn18  1  0.58902681  0.58902681  0.25000000  1
  Mn  Mn19  1  0.99467371  0.51953587  0.99798415  1
  Mn  Mn20  1  0.51953587  0.99467371  0.50201585  1
  Mn  Mn21  1  0.00710772  0.49759919  0.66507557  1
  Mn  Mn22  1  0.51477428  0.99962602  0.16855552  1
  Mn  Mn23  1  0.99962602  0.51477428  0.33144448  1
  Co  Co24  1  0.26046953  0.26243879  0.91641297  1
  Co  Co25  1  0.26243879  0.26046953  0.58358703  1
  Co  Co26  1  0.25748664  0.25748664  0.25000000  1
  Co  Co27  1  0.74844714  0.74844714  0.75000000  1
  Co  Co28  1  0.74217433  0.73932715  0.41666841  1
  Co  Co29  1  0.73932715  0.74217433  0.08333159  1
  O  O30  1  0.14136920  0.33698185  0.79229313  1
  O  O31  1  0.06809982  0.74916511  0.71042951  1
  O  O32  1  0.33698185  0.14136920  0.70770687  1
  O  O33  1  0.31148176  0.52027699  0.95199633  1
  O  O34  1  0.17428724  0.33875758  0.45745157  1
  O  O35  1  0.00597272  0.78916509  0.37452465  1
  O  O36  1  0.34060107  0.17128834  0.37603844  1
  O  O37  1  0.29990417  0.53867484  0.61804511  1
  O  O38  1  0.53867484  0.29990417  0.88195489  1
  O  O39  1  0.17128834  0.34060107  0.12396156  1
  O  O40  1  0.24237428  0.97895744  0.88023887  1
  O  O41  1  0.00333704  0.79255362  0.04130215  1
  O  O42  1  0.33875758  0.17428724  0.04254843  1
  O  O43  1  0.74916511  0.06809982  0.78957049  1
  O  O44  1  0.43562120  0.73278244  0.78602259  1
  O  O45  1  0.31751557  0.51254676  0.28582777  1
  O  O46  1  0.52027699  0.31148176  0.54800367  1
  O  O47  1  0.26712948  0.95380197  0.54655623  1
  O  O48  1  0.79255362  0.00333704  0.45869785  1
  O  O49  1  0.73278244  0.43562120  0.71397741  1
  O  O50  1  0.65067838  0.84529022  0.95658016  1
  O  O51  1  0.42282992  0.72167525  0.45177012  1
  O  O52  1  0.95380197  0.26712948  0.95344377  1
  O  O53  1  0.51254676  0.31751557  0.21417223  1
  O  O54  1  0.25880197  0.95720623  0.21326851  1
  O  O55  1  0.82438519  0.64359246  0.87490789  1
  O  O56  1  0.78916509  0.00597272  0.12547535  1
  O  O57  1  0.72426042  0.42010170  0.38150944  1
  O  O58  1  0.64359246  0.82438519  0.62509211  1
  O  O59  1  0.42010170  0.72426042  0.11849056  1
  O  O60  1  0.97895744  0.24237428  0.61976113  1
  O  O61  1  0.84529022  0.65067838  0.54341984  1
  O  O62  1  0.72167525  0.42282992  0.04822988  1
  O  O63  1  0.65554153  0.84028985  0.29020766  1
  O  O64  1  0.95720623  0.25880197  0.28673149  1
  O  O65  1  0.84028985  0.65554153  0.20979234  1
