# generated using pymatgen
data_Li4V3O8
_symmetry_space_group_name_H-M   'P 1'
_cell_length_a   6.14722927
_cell_length_b   10.81847700
_cell_length_c   10.81727642
_cell_angle_alpha   31.34416081
_cell_angle_beta   28.38342454
_cell_angle_gamma   51.46539882
_symmetry_Int_Tables_number   1
_chemical_formula_structural   Li4V3O8
_chemical_formula_sum   'Li4 V3 O8'
_cell_volume   152.02573340
_cell_formula_units_Z   1
loop_
 _symmetry_equiv_pos_site_id
 _symmetry_equiv_pos_as_xyz
  1  'x, y, z'
loop_
 _atom_site_type_symbol
 _atom_site_label
 _atom_site_symmetry_multiplicity
 _atom_site_fract_x
 _atom_site_fract_y
 _atom_site_fract_z
 _atom_site_occupancy
  Li  Li0  1  0.99930969  0.99873841  0.00085254  1
  Li  Li1  1  0.35930796  0.35796155  0.99922404  1
  Li  Li2  1  0.50068547  0.49945765  0.99982514  1
  Li  Li3  1  0.64237019  0.64108623  -0.00000071  1
  V  V4  1  0.50043341  0.99923199  0.00002722  1
  V  V5  1  0.50040496  0.49937006  0.49998244  1
  V  V6  1  0.50018824  0.99898152  0.50061481  1
  O  O7  1  0.23632661  0.23499456  0.00010341  1
  O  O8  1  0.19149168  0.72909547  0.02775336  1
  O  O9  1  0.24714351  0.21812469  0.51099489  1
  O  O10  1  0.26963207  0.75682226  0.46101760  1
  O  O11  1  0.76475151  0.76346702  0.00000951  1
  O  O12  1  0.80900896  0.26931060  0.97258093  1
  O  O13  1  0.75439179  0.78064359  0.48864768  1
  O  O14  1  0.73207696  0.24188742  0.53848613  1
