# generated using pymatgen
data_Ag3IrO4
_symmetry_space_group_name_H-M   'P 1'
_cell_length_a   7.42066879
_cell_length_b   7.42259010
_cell_length_c   8.26871435
_cell_angle_alpha   89.98297662
_cell_angle_beta   89.90820782
_cell_angle_gamma   90.00035659
_symmetry_Int_Tables_number   1
_chemical_formula_structural   Ag3IrO4
_chemical_formula_sum   'Ag12 Ir4 O16'
_cell_volume   455.44499994
_cell_formula_units_Z   4
loop_
 _symmetry_equiv_pos_site_id
 _symmetry_equiv_pos_as_xyz
  1  'x, y, z'
loop_
 _atom_site_type_symbol
 _atom_site_label
 _atom_site_symmetry_multiplicity
 _atom_site_fract_x
 _atom_site_fract_y
 _atom_site_fract_z
 _atom_site_occupancy
  Ag  Ag0  1  0.99998909  0.17945182  0.99998069  1
  Ag  Ag1  1  0.00004503  0.75651675  0.99992083  1
  Ag  Ag2  1  0.00003288  0.24381052  0.50007567  1
  Ag  Ag3  1  0.99998222  0.82059611  0.50002036  1
  Ag  Ag4  1  0.19934545  0.50010021  0.25012615  1
  Ag  Ag5  1  0.17922193  0.00006573  0.74991408  1
  Ag  Ag6  1  0.24344930  0.99989847  0.25021828  1
  Ag  Ag7  1  0.49994195  0.19936610  0.50003538  1
  Ag  Ag8  1  0.49996125  0.80050845  0.99997083  1
  Ag  Ag9  1  0.75637870  0.99990169  0.74978756  1
  Ag  Ag10  1  0.82066459  0.00004292  0.25009118  1
  Ag  Ag11  1  0.80071121  0.50009668  0.74985847  1
  Ir  Ir12  1  0.27838040  0.49999831  0.75008343  1
  Ir  Ir13  1  0.50000193  0.27870867  0.00013195  1
  Ir  Ir14  1  0.50000058  0.72150993  0.49987649  1
  Ir  Ir15  1  0.72121782  0.49999824  0.24991220  1
  O  O16  1  0.08887811  0.31671517  0.74199081  1
  O  O17  1  0.08894719  0.68306767  0.75811606  1
  O  O18  1  0.31189114  0.47397412  0.98740775  1
  O  O19  1  0.31226160  0.52550287  0.51248114  1
  O  O20  1  0.31652882  0.08850681  0.00828336  1
  O  O21  1  0.31657757  0.91158344  0.49209655  1
  O  O22  1  0.47416540  0.31272288  0.76233117  1
  O  O23  1  0.47413719  0.68764479  0.73786029  1
  O  O24  1  0.52610496  0.31253537  0.23757580  1
  O  O25  1  0.52613099  0.68782794  0.26223753  1
  O  O26  1  0.68355394  0.91163147  0.50786798  1
  O  O27  1  0.68360156  0.08847258  0.99174961  1
  O  O28  1  0.68796547  0.47396357  0.01264887  1
  O  O29  1  0.68758217  0.52550945  0.48746359  1
  O  O30  1  0.91120728  0.31662288  0.25817919  1
  O  O31  1  0.91114230  0.68314842  0.24170676  1
