# generated using pymatgen
data_Li8Sb7S19
_symmetry_space_group_name_H-M   'P 1'
_cell_length_a   8.25164872
_cell_length_b   8.25164872
_cell_length_c   22.40933034
_cell_angle_alpha   85.96615053
_cell_angle_beta   94.03384947
_cell_angle_gamma   102.60277129
_symmetry_Int_Tables_number   1
_chemical_formula_structural   Li8Sb7S19
_chemical_formula_sum   'Li16 Sb14 S38'
_cell_volume   1483.02006222
_cell_formula_units_Z   2
loop_
 _symmetry_equiv_pos_site_id
 _symmetry_equiv_pos_as_xyz
  1  'x, y, z'
loop_
 _atom_site_type_symbol
 _atom_site_label
 _atom_site_symmetry_multiplicity
 _atom_site_fract_x
 _atom_site_fract_y
 _atom_site_fract_z
 _atom_site_occupancy
  Li  Li0  1  0.23395749  0.00587035  0.00527190  1
  Li  Li1  1  0.99412965  0.76604251  0.50527190  1
  Li  Li2  1  0.44643159  0.75433645  0.90272344  1
  Li  Li3  1  0.24566355  0.55356841  0.40272344  1
  Li  Li4  1  0.38566878  0.60996073  0.56289695  1
  Li  Li5  1  0.39003927  0.61433122  0.06289695  1
  Li  Li6  1  0.13913572  0.29810731  0.63897014  1
  Li  Li7  1  0.70189269  0.86086428  0.13897014  1
  Li  Li8  1  0.29810731  0.13913572  0.86102986  1
  Li  Li9  1  0.86086428  0.70189269  0.36102986  1
  Li  Li10  1  0.60996073  0.38566878  0.93710305  1
  Li  Li11  1  0.61433122  0.39003927  0.43710305  1
  Li  Li12  1  0.75433645  0.44643159  0.59727656  1
  Li  Li13  1  0.55356841  0.24566355  0.09727656  1
  Li  Li14  1  0.00587035  0.23395749  0.49472810  1
  Li  Li15  1  0.76604251  0.99412965  0.99472810  1
  Sb  Sb16  1  0.12285731  0.70129343  0.66225019  1
  Sb  Sb17  1  0.29870657  0.87714269  0.16225019  1
  Sb  Sb18  1  0.10714587  0.39450760  0.93216906  1
  Sb  Sb19  1  0.60549240  0.89285413  0.43216906  1
  Sb  Sb20  1  0.76021615  0.89741947  0.61271714  1
  Sb  Sb21  1  0.10258053  0.23978385  0.11271714  1
  Sb  Sb22  1  0.45779648  0.45779648  0.75000000  1
  Sb  Sb23  1  0.54220352  0.54220352  0.25000000  1
  Sb  Sb24  1  0.89741947  0.76021615  0.88728286  1
  Sb  Sb25  1  0.23978385  0.10258053  0.38728286  1
  Sb  Sb26  1  0.39450760  0.10714587  0.56783094  1
  Sb  Sb27  1  0.89285413  0.60549240  0.06783094  1
  Sb  Sb28  1  0.70129343  0.12285731  0.83774981  1
  Sb  Sb29  1  0.87714269  0.29870657  0.33774981  1
  S  S30  1  0.06145129  0.00920482  0.58340615  1
  S  S31  1  0.99079518  0.93854871  0.08340615  1
  S  S32  1  0.08799899  0.84252109  0.78887683  1
  S  S33  1  0.15630173  0.68945663  0.96235045  1
  S  S34  1  0.15747891  0.91200101  0.28887683  1
  S  S35  1  0.31054337  0.84369827  0.46235045  1
  S  S36  1  0.07359800  0.53586757  0.57267694  1
  S  S37  1  0.46413243  0.92640200  0.07267694  1
  S  S38  1  0.46466916  0.84617825  0.64253555  1
  S  S39  1  0.15382175  0.53533084  0.14253555  1
  S  S40  1  0.15595715  0.45180342  0.73210659  1
  S  S41  1  0.54819658  0.84404285  0.23210659  1
  S  S42  1  0.65002634  0.81593608  0.82101574  1
  S  S43  1  0.18406392  0.34997366  0.32101574  1
  S  S44  1  0.36548810  0.45244634  0.87260432  1
  S  S45  1  0.54755366  0.63451190  0.37260432  1
  S  S46  1  0.68602628  0.70308770  0.52549633  1
  S  S47  1  0.06835342  0.06835342  0.75000000  1
  S  S48  1  0.70308770  0.68602628  0.97450367  1
  S  S49  1  0.29691230  0.31397372  0.02549633  1
  S  S50  1  0.93164658  0.93164658  0.25000000  1
  S  S51  1  0.31397372  0.29691230  0.47450367  1
  S  S52  1  0.45244634  0.36548810  0.62739568  1
  S  S53  1  0.63451190  0.54755366  0.12739568  1
  S  S54  1  0.81593608  0.65002634  0.67898426  1
  S  S55  1  0.34997366  0.18406392  0.17898426  1
  S  S56  1  0.45180342  0.15595715  0.76789341  1
  S  S57  1  0.84404285  0.54819658  0.26789341  1
  S  S58  1  0.84617825  0.46466916  0.85746445  1
  S  S59  1  0.53533084  0.15382175  0.35746445  1
  S  S60  1  0.53586757  0.07359800  0.92732306  1
  S  S61  1  0.92640200  0.46413243  0.42732306  1
  S  S62  1  0.68945663  0.15630173  0.53764955  1
  S  S63  1  0.84252109  0.08799899  0.71112317  1
  S  S64  1  0.84369827  0.31054337  0.03764955  1
  S  S65  1  0.91200101  0.15747891  0.21112317  1
  S  S66  1  0.00920482  0.06145129  0.91659385  1
  S  S67  1  0.93854871  0.99079518  0.41659385  1
