# generated using pymatgen
data_Li4V3Co3(SnO8)2
_symmetry_space_group_name_H-M   'P 1'
_cell_length_a   5.98207195
_cell_length_b   5.96987832
_cell_length_c   9.72144463
_cell_angle_alpha   89.13666573
_cell_angle_beta   90.07932998
_cell_angle_gamma   120.17327695
_symmetry_Int_Tables_number   1
_chemical_formula_structural   Li4V3Co3(SnO8)2
_chemical_formula_sum   'Li4 V3 Co3 Sn2 O16'
_cell_volume   300.09389668
_cell_formula_units_Z   1
loop_
 _symmetry_equiv_pos_site_id
 _symmetry_equiv_pos_as_xyz
  1  'x, y, z'
loop_
 _atom_site_type_symbol
 _atom_site_label
 _atom_site_symmetry_multiplicity
 _atom_site_fract_x
 _atom_site_fract_y
 _atom_site_fract_z
 _atom_site_occupancy
  Li  Li0  1  0.33682654  0.66592796  0.89735735  1
  Li  Li1  1  0.99536627  0.99767547  0.99554752  1
  Li  Li2  1  0.99698345  0.99495785  0.49296718  1
  Li  Li3  1  0.67757097  0.34505317  0.39231565  1
  V  V4  1  0.82707946  0.65117534  0.72029773  1
  V  V5  1  0.65731624  0.82356274  0.21830531  1
  V  V6  1  0.81816831  0.15852204  0.71268233  1
  Co  Co7  1  0.17287141  0.82900550  0.21488049  1
  Co  Co8  1  0.17710756  0.34198019  0.21027028  1
  Co  Co9  1  0.33941848  0.17014122  0.71038912  1
  Sn  Sn10  1  0.31956456  0.66667766  0.49301747  1
  Sn  Sn11  1  0.66034988  0.32650072  0.99529932  1
  O  O12  1  0.15579562  0.83919160  0.59885741  1
  O  O13  1  0.04142162  0.53247175  0.33417345  1
  O  O14  1  0.38074632  0.68853614  0.09991776  1
  O  O15  1  0.97002702  0.98916336  0.30594076  1
  O  O16  1  0.97588179  0.97537579  0.80681265  1
  O  O17  1  0.13779343  0.31808461  0.60152360  1
  O  O18  1  0.48305345  0.96779436  0.33128724  1
  O  O19  1  0.50488693  0.54400143  0.34452723  1
  O  O20  1  0.31263432  0.14560162  0.09855915  1
  O  O21  1  0.66878227  0.83943238  0.60150216  1
  O  O22  1  0.52446608  0.48596099  0.84275476  1
  O  O23  1  0.53949433  0.03338086  0.83374900  1
  O  O24  1  0.69769426  0.36419726  0.60283924  1
  O  O25  1  0.83814429  0.67580314  0.10865875  1
  O  O26  1  0.96697127  0.48285961  0.84066673  1
  O  O27  1  0.82358487  0.14726325  0.10274036  1
