# generated using pymatgen
data_Li5SbS4
_symmetry_space_group_name_H-M   'P 1'
_cell_length_a   12.30870015
_cell_length_b   12.61042149
_cell_length_c   10.65643573
_cell_angle_alpha   90.00000000
_cell_angle_beta   90.00000000
_cell_angle_gamma   90.00000000
_symmetry_Int_Tables_number   1
_chemical_formula_structural   Li5SbS4
_chemical_formula_sum   'Li40 Sb8 S32'
_cell_volume   1654.06954231
_cell_formula_units_Z   8
loop_
 _symmetry_equiv_pos_site_id
 _symmetry_equiv_pos_as_xyz
  1  'x, y, z'
loop_
 _atom_site_type_symbol
 _atom_site_label
 _atom_site_symmetry_multiplicity
 _atom_site_fract_x
 _atom_site_fract_y
 _atom_site_fract_z
 _atom_site_occupancy
  Li  Li0  1  0.11864517  0.13029904  0.38004368  1
  Li  Li1  1  0.11864517  0.36970096  0.88004368  1
  Li  Li2  1  0.14611035  0.66129744  0.59471095  1
  Li  Li3  1  0.14611035  0.83870256  0.09471095  1
  Li  Li4  1  0.14097740  0.90175237  0.38702177  1
  Li  Li5  1  0.14097740  0.59824763  0.88702177  1
  Li  Li6  1  0.09731299  0.36182287  0.15768093  1
  Li  Li7  1  0.09731299  0.13817713  0.65768093  1
  Li  Li8  1  0.11682586  0.60463503  0.16107538  1
  Li  Li9  1  0.11682586  0.89536497  0.66107538  1
  Li  Li10  1  0.38317414  0.10463503  0.16107538  1
  Li  Li11  1  0.38317414  0.39536497  0.66107538  1
  Li  Li12  1  0.40268701  0.86182287  0.15768093  1
  Li  Li13  1  0.40268701  0.63817713  0.65768093  1
  Li  Li14  1  0.35902260  0.40175237  0.38702177  1
  Li  Li15  1  0.35902260  0.09824763  0.88702177  1
  Li  Li16  1  0.35388965  0.33870256  0.09471095  1
  Li  Li17  1  0.35388965  0.16129744  0.59471095  1
  Li  Li18  1  0.38135483  0.86970096  0.88004368  1
  Li  Li19  1  0.38135483  0.63029904  0.38004368  1
  Li  Li20  1  0.61864517  0.13029904  0.11995632  1
  Li  Li21  1  0.61864517  0.36970096  0.61995632  1
  Li  Li22  1  0.64611035  0.66129744  0.90528905  1
  Li  Li23  1  0.64611035  0.83870256  0.40528905  1
  Li  Li24  1  0.64097740  0.59824763  0.61297823  1
  Li  Li25  1  0.64097740  0.90175237  0.11297823  1
  Li  Li26  1  0.59731299  0.36182287  0.34231907  1
  Li  Li27  1  0.59731299  0.13817713  0.84231907  1
  Li  Li28  1  0.61682586  0.60463503  0.33892462  1
  Li  Li29  1  0.61682586  0.89536497  0.83892462  1
  Li  Li30  1  0.88317414  0.10463503  0.33892462  1
  Li  Li31  1  0.88317414  0.39536497  0.83892462  1
  Li  Li32  1  0.90268701  0.86182287  0.34231907  1
  Li  Li33  1  0.90268701  0.63817713  0.84231907  1
  Li  Li34  1  0.85902260  0.09824763  0.61297823  1
  Li  Li35  1  0.85902260  0.40175237  0.11297823  1
  Li  Li36  1  0.85388965  0.16129744  0.90528905  1
  Li  Li37  1  0.85388965  0.33870256  0.40528905  1
  Li  Li38  1  0.88135483  0.63029904  0.11995632  1
  Li  Li39  1  0.88135483  0.86970096  0.61995632  1
  Sb  Sb40  1  0.12052486  0.10842534  0.06899112  1
  Sb  Sb41  1  0.12052486  0.39157466  0.56899112  1
  Sb  Sb42  1  0.37947514  0.60842534  0.06899112  1
  Sb  Sb43  1  0.37947514  0.89157466  0.56899112  1
  Sb  Sb44  1  0.62052486  0.10842534  0.43100888  1
  Sb  Sb45  1  0.62052486  0.39157466  0.93100888  1
  Sb  Sb46  1  0.87947514  0.60842534  0.43100888  1
  Sb  Sb47  1  0.87947514  0.89157466  0.93100888  1
  S  S48  1  0.97503067  0.28601116  0.00339738  1
  S  S49  1  0.97503067  0.21398884  0.50339738  1
  S  S50  1  0.03027839  0.99443606  0.23153033  1
  S  S51  1  0.03027839  0.50556394  0.73153033  1
  S  S52  1  0.22453540  0.22123744  0.22088209  1
  S  S53  1  0.22453540  0.27876256  0.72088209  1
  S  S54  1  0.21991560  0.02467523  0.53429774  1
  S  S55  1  0.21991560  0.47532377  0.03429774  1
  S  S56  1  0.28008440  0.97532377  0.03429774  1
  S  S57  1  0.28008440  0.52467623  0.53429774  1
  S  S58  1  0.27546460  0.72123744  0.22088209  1
  S  S59  1  0.27546460  0.77876256  0.72088209  1
  S  S60  1  0.46972161  0.49443606  0.23153033  1
  S  S61  1  0.46972161  0.00556394  0.73153033  1
  S  S62  1  0.52496933  0.71398884  0.50339738  1
  S  S63  1  0.52496933  0.78601116  0.00339738  1
  S  S64  1  0.47503067  0.28601116  0.49660262  1
  S  S65  1  0.47503067  0.21398884  0.99660262  1
  S  S66  1  0.53027839  0.99443606  0.26846967  1
  S  S67  1  0.53027839  0.50556394  0.76846967  1
  S  S68  1  0.72453540  0.22123744  0.27911791  1
  S  S69  1  0.72453540  0.27876256  0.77911791  1
  S  S70  1  0.71991560  0.47532377  0.46570226  1
  S  S71  1  0.71991560  0.02467523  0.96570226  1
  S  S72  1  0.78008440  0.52467623  0.96570226  1
  S  S73  1  0.78008440  0.97532377  0.46570226  1
  S  S74  1  0.77546460  0.72123744  0.27911791  1
  S  S75  1  0.77546460  0.77876256  0.77911791  1
  S  S76  1  0.96972161  0.49443606  0.26846967  1
  S  S77  1  0.96972161  0.00556394  0.76846967  1
  S  S78  1  0.02496933  0.78601116  0.49660262  1
  S  S79  1  0.02496933  0.71398884  0.99660262  1
