# generated using pymatgen
data_Ca2Ti6N2O11
_symmetry_space_group_name_H-M   'P 1'
_cell_length_a   3.75455845
_cell_length_b   7.74556155
_cell_length_c   9.50175829
_cell_angle_alpha   80.72736430
_cell_angle_beta   90.08231621
_cell_angle_gamma   76.14146781
_symmetry_Int_Tables_number   1
_chemical_formula_structural   Ca2Ti6N2O11
_chemical_formula_sum   'Ca2 Ti6 N2 O11'
_cell_volume   264.54165050
_cell_formula_units_Z   1
loop_
 _symmetry_equiv_pos_site_id
 _symmetry_equiv_pos_as_xyz
  1  'x, y, z'
loop_
 _atom_site_type_symbol
 _atom_site_label
 _atom_site_symmetry_multiplicity
 _atom_site_fract_x
 _atom_site_fract_y
 _atom_site_fract_z
 _atom_site_occupancy
  Ca  Ca0  1  0.52511542  0.93712396  0.81007494  1
  Ca  Ca1  1  0.44071597  0.10880287  0.26267443  1
  Ti  Ti2  1  0.11010896  0.77712429  0.08770888  1
  Ti  Ti3  1  0.16564308  0.66821457  0.43016951  1
  Ti  Ti4  1  0.22389549  0.54867471  0.75547553  1
  Ti  Ti5  1  0.75632781  0.48373518  0.22365857  1
  Ti  Ti6  1  0.83882524  0.31525724  0.56227047  1
  Ti  Ti7  1  0.87425039  0.24721151  0.92319967  1
  N  N8  1  0.64805173  0.70121332  0.09797612  1
  N  N9  1  0.99790965  0.00424671  0.98425609  1
  O  O10  1  0.06529088  0.86951306  0.28529771  1
  O  O11  1  0.12849507  0.75042247  0.59802247  1
  O  O12  1  0.15113307  0.69366293  0.88551755  1
  O  O13  1  0.70147895  0.59585397  0.41697451  1
  O  O14  1  0.75614983  0.48434306  0.74942201  1
  O  O15  1  0.24995958  0.49686121  0.25701949  1
  O  O16  1  0.29677987  0.40123801  0.56777584  1
  O  O17  1  0.35126495  0.29324507  0.88253240  1
  O  O18  1  0.84834700  0.29673087  0.11272499  1
  O  O19  1  0.88505805  0.22369893  0.39689067  1
  O  O20  1  0.93468603  0.12487705  0.70448317  1
