# generated using pymatgen
data_Li2TiV3O8
_symmetry_space_group_name_H-M   'P 1'
_cell_length_a   6.44141602
_cell_length_b   6.44141603
_cell_length_c   6.58281416
_cell_angle_alpha   73.24859522
_cell_angle_beta   106.75140166
_cell_angle_gamma   143.37947967
_symmetry_Int_Tables_number   1
_chemical_formula_structural   Li2TiV3O8
_chemical_formula_sum   'Li2 Ti1 V3 O8'
_cell_volume   155.23750096
_cell_formula_units_Z   1
loop_
 _symmetry_equiv_pos_site_id
 _symmetry_equiv_pos_as_xyz
  1  'x, y, z'
loop_
 _atom_site_type_symbol
 _atom_site_label
 _atom_site_symmetry_multiplicity
 _atom_site_fract_x
 _atom_site_fract_y
 _atom_site_fract_z
 _atom_site_occupancy
  Li  Li0  1  0.05905366  0.94094634  0.35641857  1
  Li  Li1  1  0.94310111  0.05689889  0.65156425  1
  Ti  Ti2  1  0.70422820  0.29577180  0.28200629  1
  V  V3  1  0.38971569  0.61028431  0.30434487  1
  V  V4  1  0.61136003  0.38863997  0.69980080  1
  V  V5  1  0.29167831  0.70832169  0.71713462  1
  O  O6  1  0.12558940  0.87441060  0.67643976  1
  O  O7  1  0.22616152  0.77383848  0.34510353  1
  O  O8  1  0.34986020  0.65013980  0.98887063  1
  O  O9  1  0.43782625  0.56217375  0.62831057  1
  O  O10  1  0.56506742  0.43493258  0.36046906  1
  O  O11  1  0.64715183  0.35284817  0.00665983  1
  O  O12  1  0.77173117  0.22826883  0.66255097  1
  O  O13  1  0.87747421  0.12252579  0.32032526  1
