# generated using pymatgen
data_MnAgO3
_symmetry_space_group_name_H-M   'P 1'
_cell_length_a   5.14789640
_cell_length_b   5.92500760
_cell_length_c   5.14765596
_cell_angle_alpha   115.74734701
_cell_angle_beta   59.99272533
_cell_angle_gamma   115.72802918
_symmetry_Int_Tables_number   1
_chemical_formula_structural   MnAgO3
_chemical_formula_sum   'Mn2 Ag2 O6'
_cell_volume   117.63803330
_cell_formula_units_Z   2
loop_
 _symmetry_equiv_pos_site_id
 _symmetry_equiv_pos_as_xyz
  1  'x, y, z'
loop_
 _atom_site_type_symbol
 _atom_site_label
 _atom_site_symmetry_multiplicity
 _atom_site_fract_x
 _atom_site_fract_y
 _atom_site_fract_z
 _atom_site_occupancy
  Mn  Mn0  1  0.33823190  0.01432394  0.33814519  1
  Mn  Mn1  1  0.66177982  0.98570358  0.66186720  1
  Ag  Ag2  1  0.13796581  0.41463553  0.13830589  1
  Ag  Ag3  1  0.86198264  0.58521515  0.86165593  1
  O  O4  1  0.06004934  0.20894193  0.45389958  1
  O  O5  1  0.54608822  0.79091506  0.30507747  1
  O  O6  1  0.30510015  0.79100920  0.94002991  1
  O  O7  1  0.69496353  0.20903449  0.05999295  1
  O  O8  1  0.45386728  0.20912165  0.69497702  1
  O  O9  1  0.93997031  0.79109946  0.54604987  1
