# generated using pymatgen
data_LiSbPO5
_symmetry_space_group_name_H-M   'P 1'
_cell_length_a   8.36766030
_cell_length_b   10.55927324
_cell_length_c   11.05648389
_cell_angle_alpha   84.16191096
_cell_angle_beta   68.54338802
_cell_angle_gamma   65.29421511
_symmetry_Int_Tables_number   1
_chemical_formula_structural   LiSbPO5
_chemical_formula_sum   'Li8 Sb8 P8 O40'
_cell_volume   824.46889300
_cell_formula_units_Z   8
loop_
 _symmetry_equiv_pos_site_id
 _symmetry_equiv_pos_as_xyz
  1  'x, y, z'
loop_
 _atom_site_type_symbol
 _atom_site_label
 _atom_site_symmetry_multiplicity
 _atom_site_fract_x
 _atom_site_fract_y
 _atom_site_fract_z
 _atom_site_occupancy
  Li  Li0  1  0.09236852  0.92190211  0.26071422  1
  Li  Li1  1  0.41495489  0.81984297  0.98269969  1
  Li  Li2  1  0.49742087  0.27376649  0.35235677  1
  Li  Li3  1  0.12148342  0.42041645  0.73090902  1
  Li  Li4  1  -0.00003885  0.52815805  0.09043365  1
  Li  Li5  1  0.61363840  0.66637100  0.49096995  1
  Li  Li6  1  0.99388867  0.02209550  0.60112710  1
  Li  Li7  1  0.62240818  0.17067915  0.97829958  1
  Sb  Sb8  1  0.00276121  0.99701971  0.98994766  1
  Sb  Sb9  1  0.00885134  0.50027392  0.49072680  1
  Sb  Sb10  1  0.50950165  0.74607504  0.24782389  1
  Sb  Sb11  1  0.25014565  0.12452185  0.37255269  1
  Sb  Sb12  1  0.75309454  0.37386155  0.12038168  1
  Sb  Sb13  1  0.26169274  0.62437139  0.86743894  1
  Sb  Sb14  1  0.74389720  0.87284639  0.62695739  1
  Sb  Sb15  1  0.50798410  0.24689317  0.74031085  1
  P  P16  1  0.22183294  0.17521107  0.07135195  1
  P  P17  1  0.28272663  0.57307410  0.18025761  1
  P  P18  1  0.21295867  0.68559989  0.57513070  1
  P  P19  1  0.71511094  0.93167360  0.32745668  1
  P  P20  1  0.27534597  0.07197580  0.68050772  1
  P  P21  1  0.78028509  0.31978876  0.43085289  1
  P  P22  1  0.71926073  0.42789479  0.82151823  1
  P  P23  1  0.78403645  0.81625323  0.92866059  1
  O  O24  1  0.04793432  0.30539110  0.05460259  1
  O  O25  1  0.24797330  0.54224677  0.05730967  1
  O  O26  1  0.19057811  0.03909328  0.07868432  1
  O  O27  1  0.10753125  0.58917224  0.29988413  1
  O  O28  1  0.31815653  0.70864989  0.16254976  1
  O  O29  1  0.23758799  0.20876534  0.20040586  1
  O  O30  1  0.26750784  0.94963649  0.32122939  1
  O  O31  1  0.60397581  0.82209504  0.04232072  1
  O  O32  1  0.04209054  0.81698708  0.55766320  1
  O  O33  1  0.45668734  0.44609904  0.19942670  1
  O  O34  1  0.24062895  0.29597552  0.42364069  1
  O  O35  1  0.17015769  0.55534304  0.58976948  1
  O  O36  1  0.39441109  0.66919046  0.45952205  1
  O  O37  1  0.76140194  0.20184500  0.07271215  1
  O  O38  1  0.74760001  0.54245187  0.17553226  1
  O  O39  1  0.54242126  0.06499292  0.31316454  1
  O  O40  1  0.66727127  0.80285318  0.34289678  1
  O  O41  1  0.23548456  0.04453208  0.55758038  1
  O  O42  1  0.89307581  0.91600758  0.21157680  1
  O  O43  1  0.24029213  0.71832024  0.69977040  1
  O  O44  1  0.74534075  0.29160104  0.30652439  1
  O  O45  1  0.10104402  0.07814633  0.79778580  1
  O  O46  1  0.74680342  0.96119960  0.45102598  1
  O  O47  1  0.30394312  0.20820893  0.66992348  1
  O  O48  1  0.45340646  0.94459870  0.69069020  1
  O  O49  1  0.26449976  0.45368775  0.82129373  1
  O  O50  1  0.23888106  0.79641085  0.92857804  1
  O  O51  1  0.60473778  0.32757008  0.54720564  1
  O  O52  1  0.81017606  0.45539359  0.42155254  1
  O  O53  1  0.76951644  0.69984746  0.56676857  1
  O  O54  1  0.54946796  0.55609590  0.79962469  1
  O  O55  1  0.95601080  0.19017855  0.44532045  1
  O  O56  1  0.40159431  0.16561923  0.95981098  1
  O  O57  1  0.73754850  0.04332052  0.68031470  1
  O  O58  1  0.75802148  0.78563117  0.80261298  1
  O  O59  1  0.67844283  0.29583630  0.83498027  1
  O  O60  1  0.90133400  0.41269187  0.70951352  1
  O  O61  1  0.80345450  0.95597380  0.92515394  1
  O  O62  1  0.73530141  0.46352660  0.95033513  1
  O  O63  1  0.95892064  0.69322254  0.94873787  1
