# generated using pymatgen
data_Al2S3
_symmetry_space_group_name_H-M   'P 1'
_cell_length_a   7.09066811
_cell_length_b   7.09066886
_cell_length_c   63.76869751
_cell_angle_alpha   59.97575304
_cell_angle_beta   59.97575062
_cell_angle_gamma   59.99947405
_symmetry_Int_Tables_number   1
_chemical_formula_structural   Al2S3
_chemical_formula_sum   'Al48 S72'
_cell_volume   2266.24007355
_cell_formula_units_Z   24
loop_
 _symmetry_equiv_pos_site_id
 _symmetry_equiv_pos_as_xyz
  1  'x, y, z'
loop_
 _atom_site_type_symbol
 _atom_site_label
 _atom_site_symmetry_multiplicity
 _atom_site_fract_x
 _atom_site_fract_y
 _atom_site_fract_z
 _atom_site_occupancy
  Al  Al0  1  0.12421737  0.12421751  0.01549694  1
  Al  Al1  1  0.12479611  0.12479638  0.06951366  1
  Al  Al2  1  0.12421957  0.61209949  0.01549640  1
  Al  Al3  1  0.61209956  0.12421967  0.01549640  1
  Al  Al4  1  0.13142746  0.13142786  0.12450608  1
  Al  Al5  1  0.13442143  0.13442154  0.17741620  1
  Al  Al6  1  0.13144033  0.61657088  0.12450434  1
  Al  Al7  1  0.13826852  0.13826835  0.23674246  1
  Al  Al8  1  0.61657104  0.13144048  0.12450433  1
  Al  Al9  1  0.14806253  0.14806241  0.28397808  1
  Al  Al10  1  0.13827597  0.59279317  0.23674056  1
  Al  Al11  1  0.59279314  0.13827590  0.23674057  1
  Al  Al12  1  0.13511914  0.13511904  0.34511507  1
  Al  Al13  1  0.12621784  0.12621783  0.40237463  1
  Al  Al14  1  0.13512658  0.62371277  0.34511548  1
  Al  Al15  1  0.74795444  0.74795454  0.19512596  1
  Al  Al16  1  0.62371269  0.13512641  0.34511549  1
  Al  Al17  1  0.12514802  0.12514807  0.45826985  1
  Al  Al18  1  0.49984652  0.49984654  0.38894294  1
  Al  Al19  1  0.12486535  0.12486539  0.51393535  1
  Al  Al20  1  0.75534963  0.75534969  0.30377192  1
  Al  Al21  1  0.12514675  0.62525297  0.45827008  1
  Al  Al22  1  0.12500244  0.12500244  0.56944468  1
  Al  Al23  1  0.62525300  0.12514669  0.45827008  1
  Al  Al24  1  0.75264179  0.75264177  0.41579029  1
  Al  Al25  1  0.50003980  0.50003986  0.49998676  1
  Al  Al26  1  0.12509038  0.12509044  0.62496844  1
  Al  Al27  1  0.12500286  0.62501003  0.56944455  1
  Al  Al28  1  0.12412611  0.12412625  0.68077265  1
  Al  Al29  1  0.62501002  0.12500274  0.56944456  1
  Al  Al30  1  0.12068202  0.12068213  0.73755235  1
  Al  Al31  1  0.74993224  0.74993227  0.52780060  1
  Al  Al32  1  0.49995040  0.49995054  0.61112562  1
  Al  Al33  1  0.12412634  0.62480542  0.68077288  1
  Al  Al34  1  0.62480551  0.12412641  0.68077287  1
  Al  Al35  1  0.12307436  0.12307464  0.79531532  1
  Al  Al36  1  0.74994152  0.74994160  0.63890741  1
  Al  Al37  1  0.49974432  0.49974429  0.72230932  1
  Al  Al38  1  0.13160032  0.13160059  0.84502231  1
  Al  Al39  1  0.12307559  0.59598871  0.79531830  1
  Al  Al40  1  0.13514880  0.13514885  0.90439184  1
  Al  Al41  1  0.59598892  0.12307574  0.79531828  1
  Al  Al42  1  0.74573590  0.74573584  0.75141761  1
  Al  Al43  1  0.13514169  0.59018133  0.90439211  1
  Al  Al44  1  0.13387950  0.13387951  0.95537188  1
  Al  Al45  1  0.59018138  0.13514165  0.90439211  1
  Al  Al46  1  0.74484179  0.74484163  0.86283208  1
  Al  Al47  1  0.75188078  0.75188106  0.97159690  1
  S  S48  1  0.36684159  0.36684213  0.04127717  1
  S  S49  1  0.37013836  0.37013819  0.09884325  1
  S  S50  1  0.36682533  0.89483621  0.04127695  1
  S  S51  1  0.89483606  0.36682473  0.04127706  1
  S  S52  1  0.36970600  0.36970528  0.15135021  1
  S  S53  1  0.34307151  0.88423877  0.09871585  1
  S  S54  1  0.37055079  0.37055094  0.20981535  1
  S  S55  1  0.88788269  0.88788216  0.03736993  1
  S  S56  1  0.36971136  0.89844035  0.15135076  1
  S  S57  1  0.88423891  0.34307129  0.09871587  1
  S  S58  1  0.37061714  0.37061720  0.26392375  1
  S  S59  1  0.34600811  0.88236205  0.20991658  1
  S  S60  1  0.89844114  0.36971131  0.15135073  1
  S  S61  1  0.88424296  0.88424289  0.09871480  1
  S  S62  1  0.36505416  0.36505378  0.32275949  1
  S  S63  1  0.37062003  0.88345352  0.26392531  1
  S  S64  1  0.88236252  0.34600792  0.20991652  1
  S  S65  1  0.87925477  0.87925528  0.15135885  1
  S  S66  1  0.88345350  0.37062002  0.26392530  1
  S  S67  1  0.35139106  0.87905607  0.32116681  1
  S  S68  1  0.36471296  0.36471346  0.37522990  1
  S  S69  1  0.88236892  0.88236938  0.20991642  1
  S  S70  1  0.36724471  0.36724459  0.43314197  1
  S  S71  1  0.87905558  0.35139113  0.32116685  1
  S  S72  1  0.88243712  0.88243729  0.26140914  1
  S  S73  1  0.36470729  0.89352429  0.37522877  1
  S  S74  1  0.89352427  0.36470703  0.37522884  1
  S  S75  1  0.36759401  0.36759383  0.48531817  1
  S  S76  1  0.87904935  0.87904880  0.32116722  1
  S  S77  1  0.35333980  0.88129537  0.43156517  1
  S  S78  1  0.36780656  0.36780656  0.54406236  1
  S  S79  1  0.88129475  0.35333995  0.43156522  1
  S  S80  1  0.88281568  0.88281600  0.37239266  1
  S  S81  1  0.36759703  0.89694595  0.48531652  1
  S  S82  1  0.89694608  0.36759704  0.48531654  1
  S  S83  1  0.36790287  0.36790228  0.59642877  1
  S  S84  1  0.88128487  0.88128460  0.43156678  1
  S  S85  1  0.35365541  0.88187119  0.54251290  1
  S  S86  1  0.88253492  0.88253527  0.48360168  1
  S  S87  1  0.36775292  0.36775254  0.65519299  1
  S  S88  1  0.88187148  0.35365491  0.54251287  1
  S  S89  1  0.36789165  0.89634045  0.59642816  1
  S  S90  1  0.35270845  0.88292973  0.65349332  1
  S  S91  1  0.89634048  0.36789112  0.59642819  1
  S  S92  1  0.36903600  0.36903604  0.70694878  1
  S  S93  1  0.88187037  0.88187004  0.54251237  1
  S  S94  1  0.37272013  0.37272020  0.76465009  1
  S  S95  1  0.88292934  0.35270869  0.65349333  1
  S  S96  1  0.88197979  0.88197906  0.59489364  1
  S  S97  1  0.36903336  0.89938734  0.70694884  1
  S  S98  1  0.37511628  0.37511620  0.81769772  1
  S  S99  1  0.89938742  0.36903323  0.70694880  1
  S  S100  1  0.35210529  0.88470900  0.76427488  1
  S  S101  1  0.88292848  0.88292861  0.65349267  1
  S  S102  1  0.37512364  0.89047787  0.81769721  1
  S  S103  1  0.88470862  0.35210545  0.76427487  1
  S  S104  1  0.36997567  0.36997580  0.87667418  1
  S  S105  1  0.88215122  0.88215163  0.70594670  1
  S  S106  1  0.89047745  0.37512426  0.81769709  1
  S  S107  1  0.37048377  0.37048434  0.93012063  1
  S  S108  1  0.35130888  0.88643765  0.87508712  1
  S  S109  1  0.88471172  0.88471222  0.76427653  1
  S  S110  1  0.88485457  0.88485466  0.81616049  1
  S  S111  1  0.36461268  0.36461271  0.98957456  1
  S  S112  1  0.37048651  0.88794953  0.93012029  1
  S  S113  1  0.88643797  0.35130845  0.87508711  1
  S  S114  1  0.88794962  0.37048596  0.93012036  1
  S  S115  1  0.35410723  0.88387070  0.98646146  1
  S  S116  1  0.88644877  0.88644878  0.87508736  1
  S  S117  1  0.88664792  0.88664820  0.92667342  1
  S  S118  1  0.88387013  0.35410746  0.98646154  1
  S  S119  1  0.88387421  0.88387372  0.98646045  1
