# generated using pymatgen
data_BeCrO4
_symmetry_space_group_name_H-M   'P 1'
_cell_length_a   7.16479177
_cell_length_b   7.16479177
_cell_length_c   5.72091330
_cell_angle_alpha   77.74123733
_cell_angle_beta   102.25876267
_cell_angle_gamma   98.58215564
_symmetry_Int_Tables_number   1
_chemical_formula_structural   BeCrO4
_chemical_formula_sum   'Be4 Cr4 O16'
_cell_volume   278.76606712
_cell_formula_units_Z   4
loop_
 _symmetry_equiv_pos_site_id
 _symmetry_equiv_pos_as_xyz
  1  'x, y, z'
loop_
 _atom_site_type_symbol
 _atom_site_label
 _atom_site_symmetry_multiplicity
 _atom_site_fract_x
 _atom_site_fract_y
 _atom_site_fract_z
 _atom_site_occupancy
  Be  Be0  1  0.11347627  0.88652373  0.79331231  1
  Be  Be1  1  0.24874992  0.24874992  0.50000000  1
  Be  Be2  1  0.75125008  0.75125008  0.50000000  1
  Be  Be3  1  0.88652373  0.11347627  0.20668769  1
  Cr  Cr4  1  0.27971500  0.72028500  0.38681977  1
  Cr  Cr5  1  0.23844795  0.23844795  0.00000000  1
  Cr  Cr6  1  0.76155205  0.76155205  0.00000000  1
  Cr  Cr7  1  0.72028500  0.27971500  0.61318023  1
  O  O8  1  0.19137253  0.80862747  0.58306206  1
  O  O9  1  0.18460099  0.81539901  0.09596205  1
  O  O10  1  0.21820932  0.46118312  0.90563445  1
  O  O11  1  0.53881688  0.78179068  0.90563445  1
  O  O12  1  0.51654143  0.77102033  0.43629551  1
  O  O13  1  0.22897967  0.48345857  0.43629551  1
  O  O14  1  0.87540577  0.83109295  0.74163834  1
  O  O15  1  0.16890705  0.12459423  0.74163834  1
  O  O16  1  0.12459423  0.16890705  0.25836166  1
  O  O17  1  0.83109295  0.87540577  0.25836166  1
  O  O18  1  0.48345857  0.22897967  0.56370449  1
  O  O19  1  0.77102033  0.51654143  0.56370449  1
  O  O20  1  0.46118312  0.21820932  0.09436555  1
  O  O21  1  0.78179068  0.53881688  0.09436555  1
  O  O22  1  0.81539901  0.18460099  0.90403795  1
  O  O23  1  0.80862747  0.19137253  0.41693794  1
