# generated using pymatgen
data_Li4Ti3V2Ni3O16
_symmetry_space_group_name_H-M   'P 1'
_cell_length_a   5.92573168
_cell_length_b   5.89765334
_cell_length_c   9.57950912
_cell_angle_alpha   89.99991081
_cell_angle_beta   90.07639889
_cell_angle_gamma   119.84321555
_symmetry_Int_Tables_number   1
_chemical_formula_structural   Li4Ti3V2Ni3O16
_chemical_formula_sum   'Li4 Ti3 V2 Ni3 O16'
_cell_volume   290.38792850
_cell_formula_units_Z   1
loop_
 _symmetry_equiv_pos_site_id
 _symmetry_equiv_pos_as_xyz
  1  'x, y, z'
loop_
 _atom_site_type_symbol
 _atom_site_label
 _atom_site_symmetry_multiplicity
 _atom_site_fract_x
 _atom_site_fract_y
 _atom_site_fract_z
 _atom_site_occupancy
  Li  Li0  1  0.33508036  0.66755302  0.90272257  1
  Li  Li1  1  0.98782237  0.99391546  0.98496286  1
  Li  Li2  1  0.99704421  0.99853109  0.49595348  1
  Li  Li3  1  0.67223153  0.33612771  0.40533207  1
  Ti  Ti4  1  0.19566427  0.84641542  0.22245652  1
  Ti  Ti5  1  0.19567635  0.34927071  0.22245190  1
  Ti  Ti6  1  0.36397660  0.18200589  0.73640745  1
  V  V7  1  0.33181037  0.66591471  0.50240509  1
  V  V8  1  0.71098132  0.35549968  0.98647835  1
  Ni  Ni9  1  0.65838145  0.82920760  0.20822674  1
  Ni  Ni10  1  0.82556203  0.65805733  0.70809160  1
  Ni  Ni11  1  0.82555880  0.16752414  0.70808996  1
  O  O12  1  0.17760016  0.82251926  0.58583891  1
  O  O13  1  0.03976787  0.51989461  0.33701968  1
  O  O14  1  0.30933154  0.65467861  0.10411767  1
  O  O15  1  0.00205618  0.00104019  0.30400349  1
  O  O16  1  0.01199080  0.00600587  0.79416623  1
  O  O17  1  0.17760114  0.35509636  0.58583829  1
  O  O18  1  0.47164235  0.96217108  0.34376324  1
  O  O19  1  0.47164580  0.50949628  0.34376137  1
  O  O20  1  0.32920997  0.16461590  0.10100148  1
  O  O21  1  0.64412961  0.82207360  0.58266970  1
  O  O22  1  0.50973188  0.47430649  0.85241036  1
  O  O23  1  0.50972952  0.03545353  0.85241080  1
  O  O24  1  0.64142115  0.32072300  0.60542422  1
  O  O25  1  0.82399396  0.64846091  0.08835579  1
  O  O26  1  0.95636213  0.47818997  0.85512367  1
  O  O27  1  0.82399830  0.17555355  0.08835451  1
