# generated using pymatgen
data_LiFeF4
_symmetry_space_group_name_H-M   'P 1'
_cell_length_a   5.95153269
_cell_length_b   5.78222283
_cell_length_c   8.50035444
_cell_angle_alpha   90.00000000
_cell_angle_beta   90.00000000
_cell_angle_gamma   90.00000000
_symmetry_Int_Tables_number   1
_chemical_formula_structural   LiFeF4
_chemical_formula_sum   'Li4 Fe4 F16'
_cell_volume   292.52344702
_cell_formula_units_Z   4
loop_
 _symmetry_equiv_pos_site_id
 _symmetry_equiv_pos_as_xyz
  1  'x, y, z'
loop_
 _atom_site_type_symbol
 _atom_site_label
 _atom_site_symmetry_multiplicity
 _atom_site_fract_x
 _atom_site_fract_y
 _atom_site_fract_z
 _atom_site_occupancy
  Li  Li0  1  0.03483751  0.22362001  0.00578610  1
  Li  Li1  1  0.46516249  0.77637999  0.50578610  1
  Li  Li2  1  0.53483751  0.27637999  0.99421390  1
  Li  Li3  1  0.96516249  0.72362001  0.49421490  1
  Fe  Fe4  1  0.15693329  0.27419805  0.65108297  1
  Fe  Fe5  1  0.34306671  0.72580195  0.15108297  1
  Fe  Fe6  1  0.65693329  0.22580195  0.34891703  1
  Fe  Fe7  1  0.84306671  0.77419805  0.84891703  1
  F  F8  1  0.10121431  0.84535381  0.00788706  1
  F  F9  1  0.97114643  0.46008961  0.82649907  1
  F  F10  1  0.17592292  0.79746908  0.33160211  1
  F  F11  1  0.25481824  0.42273863  0.09908199  1
  F  F12  1  0.24518176  0.57726137  0.59908199  1
  F  F13  1  0.32407708  0.20253092  0.83160211  1
  F  F14  1  0.52885357  0.53991039  0.32649907  1
  F  F15  1  0.39878569  0.15464619  0.50788706  1
  F  F16  1  0.60121431  0.65464619  0.99211294  1
  F  F17  1  0.47114643  0.03991039  0.17350093  1
  F  F18  1  0.67592292  0.70253092  0.66839789  1
  F  F19  1  0.75481824  0.07726137  0.90091801  1
  F  F20  1  0.74518176  0.92273863  0.40091801  1
  F  F21  1  0.82407708  0.29746908  0.16839789  1
  F  F22  1  0.02885357  0.96008961  0.67350093  1
  F  F23  1  0.89878569  0.34535381  0.49211294  1
