# generated using pymatgen
data_Li4Mn5Fe(PO4)6
_symmetry_space_group_name_H-M   'P 1'
_cell_length_a   8.47607555
_cell_length_b   8.98605243
_cell_length_c   9.01922021
_cell_angle_alpha   59.73202757
_cell_angle_beta   59.44860625
_cell_angle_gamma   58.91786931
_symmetry_Int_Tables_number   1
_chemical_formula_structural   Li4Mn5Fe(PO4)6
_chemical_formula_sum   'Li4 Mn5 Fe1 P6 O24'
_cell_volume   478.69702136
_cell_formula_units_Z   1
loop_
 _symmetry_equiv_pos_site_id
 _symmetry_equiv_pos_as_xyz
  1  'x, y, z'
loop_
 _atom_site_type_symbol
 _atom_site_label
 _atom_site_symmetry_multiplicity
 _atom_site_fract_x
 _atom_site_fract_y
 _atom_site_fract_z
 _atom_site_occupancy
  Li  Li0  1  0.25294490  0.84901271  0.64065521  1
  Li  Li1  1  0.76914421  0.15088596  0.34517083  1
  Li  Li2  1  0.76628965  0.74055721  0.14514140  1
  Li  Li3  1  0.77041068  0.34438847  0.73573753  1
  Mn  Mn4  1  0.00539164  0.99907379  0.00914863  1
  Mn  Mn5  1  0.05338955  0.64614951  0.64960343  1
  Mn  Mn6  1  0.49647869  0.49708319  0.49804646  1
  Mn  Mn7  1  0.44520623  0.84971408  0.85176146  1
  Mn  Mn8  1  0.96462637  0.34990935  0.34203725  1
  Fe  Fe9  1  0.54246488  0.15395248  0.15212314  1
  P  P10  1  0.25381106  0.24626444  0.55666538  1
  P  P11  1  0.24315504  0.95002548  0.25031260  1
  P  P12  1  0.25008126  0.55874571  0.94463646  1
  P  P13  1  0.74589993  0.45094731  0.04940139  1
  P  P14  1  0.75955741  0.04658269  0.75333011  1
  P  P15  1  0.73462791  0.75442043  0.44718685  1
  O  O16  1  0.04901599  0.09915558  0.31589212  1
  O  O17  1  0.05338935  0.54348108  0.09047203  1
  O  O18  1  0.05330345  0.31076513  0.54178538  1
  O  O19  1  0.24710469  0.07604521  0.73961867  1
  O  O20  1  0.42455113  0.18693873  0.39124147  1
  O  O21  1  0.28569150  0.39113665  0.57158380  1
  O  O22  1  0.22811096  0.92546301  0.10078018  1
  O  O23  1  0.28064749  0.76660774  0.40977479  1
  O  O24  1  0.56375860  0.61033104  0.00554505  1
  O  O25  1  0.28306330  0.57701265  0.75129206  1
  O  O26  1  0.76009998  0.25563495  0.07474787  1
  O  O27  1  0.59260617  0.98468886  0.81217268  1
  O  O28  1  0.42172238  0.00731844  0.17567160  1
  O  O29  1  0.23846717  0.75104332  0.92130292  1
  O  O30  1  0.72105326  0.42642714  0.24420445  1
  O  O31  1  0.42669536  0.39570304  0.99674300  1
  O  O32  1  0.72397355  0.24327700  0.60625345  1
  O  O33  1  0.76282014  0.07698992  0.91110523  1
  O  O34  1  0.72751632  0.60311941  0.41273138  1
  O  O35  1  0.54116324  0.81376274  0.59431547  1
  O  O36  1  0.75840692  0.91164134  0.25213142  1
  O  O37  1  0.91162689  0.69576244  0.49315567  1
  O  O38  1  0.93233943  0.47993997  0.90034036  1
  O  O39  1  0.95939734  0.90304379  0.69318279  1
