# generated using pymatgen
data_LiFe5O3F5
_symmetry_space_group_name_H-M   'P 1'
_cell_length_a   6.31473730
_cell_length_b   6.37873797
_cell_length_c   6.25886093
_cell_angle_alpha   59.94853448
_cell_angle_beta   90.44134569
_cell_angle_gamma   120.91651716
_symmetry_Int_Tables_number   1
_chemical_formula_structural   LiFe5O3F5
_chemical_formula_sum   'Li1 Fe5 O3 F5'
_cell_volume   176.32148931
_cell_formula_units_Z   1
loop_
 _symmetry_equiv_pos_site_id
 _symmetry_equiv_pos_as_xyz
  1  'x, y, z'
loop_
 _atom_site_type_symbol
 _atom_site_label
 _atom_site_symmetry_multiplicity
 _atom_site_fract_x
 _atom_site_fract_y
 _atom_site_fract_z
 _atom_site_occupancy
  Li  Li0  1  0.61782794  0.74508587  0.61782794  1
  Fe  Fe1  1  0.61037393  0.22134872  0.13818534  1
  Fe  Fe2  1  0.96495045  0.02959836  0.96495045  1
  Fe  Fe3  1  0.62196108  0.24693704  0.62196108  1
  Fe  Fe4  1  0.29284759  0.49393858  0.29284759  1
  Fe  Fe5  1  0.13818534  0.74915914  0.61037393  1
  O  O6  1  0.39774992  0.22364452  0.39774992  1
  O  O7  1  0.84696312  0.28570525  0.84696312  1
  O  O8  1  0.39277601  0.76906699  0.39277601  1
  F  F9  1  0.87526996  0.23478597  0.38378876  1
  F  F10  1  0.87019553  0.75964786  0.37396402  1
  F  F11  1  0.37396402  0.26341635  0.87019553  1
  F  F12  1  0.86314435  0.73436258  0.86314435  1
  F  F13  1  0.38378876  0.74330477  0.87526996  1
