# generated using pymatgen
data_V5FeO12
_symmetry_space_group_name_H-M   'P 1'
_cell_length_a   6.83536061
_cell_length_b   6.83536110
_cell_length_c   5.87572284
_cell_angle_alpha   75.10207963
_cell_angle_beta   104.89791757
_cell_angle_gamma   95.57857232
_symmetry_Int_Tables_number   1
_chemical_formula_structural   V5FeO12
_chemical_formula_sum   'V5 Fe1 O12'
_cell_volume   256.23816231
_cell_formula_units_Z   1
loop_
 _symmetry_equiv_pos_site_id
 _symmetry_equiv_pos_as_xyz
  1  'x, y, z'
loop_
 _atom_site_type_symbol
 _atom_site_label
 _atom_site_symmetry_multiplicity
 _atom_site_fract_x
 _atom_site_fract_y
 _atom_site_fract_z
 _atom_site_occupancy
  V  V0  1  0.91508304  0.91508304  0.25000000  1
  V  V1  1  0.20770411  0.61259710  0.75886060  1
  V  V2  1  0.39177870  0.79463330  0.26395114  1
  V  V3  1  0.61259710  0.20770411  0.74113940  1
  V  V4  1  0.79463330  0.39177870  0.23604886  1
  Fe  Fe5  1  0.08581579  0.08581579  0.75000000  1
  O  O6  1  0.03600602  0.80689263  0.63284544  1
  O  O7  1  0.09024526  0.38280742  0.77930145  1
  O  O8  1  0.18779196  0.95885872  0.15458530  1
  O  O9  1  0.37064952  0.64115566  0.55866715  1
  O  O10  1  0.38280742  0.09024526  0.72069855  1
  O  O11  1  0.34863824  0.63507794  0.05248025  1
  O  O12  1  0.64115566  0.37064952  0.94133285  1
  O  O13  1  0.63289896  0.90136463  0.28688491  1
  O  O14  1  0.63507794  0.34863824  0.44751975  1
  O  O15  1  0.80689263  0.03600602  0.86715456  1
  O  O16  1  0.90136463  0.63289896  0.21311509  1
  O  O17  1  0.95885872  0.18779196  0.34541470  1
