# generated using pymatgen
data_Li5V6O5F19
_symmetry_space_group_name_H-M   'P 1'
_cell_length_a   5.20829001
_cell_length_b   5.40008826
_cell_length_c   16.16101307
_cell_angle_alpha   80.53963135
_cell_angle_beta   89.85611656
_cell_angle_gamma   90.38025903
_symmetry_Int_Tables_number   1
_chemical_formula_structural   Li5V6O5F19
_chemical_formula_sum   'Li5 V6 O5 F19'
_cell_volume   448.33742613
_cell_formula_units_Z   1
loop_
 _symmetry_equiv_pos_site_id
 _symmetry_equiv_pos_as_xyz
  1  'x, y, z'
loop_
 _atom_site_type_symbol
 _atom_site_label
 _atom_site_symmetry_multiplicity
 _atom_site_fract_x
 _atom_site_fract_y
 _atom_site_fract_z
 _atom_site_occupancy
  Li  Li0  1  0.96575861  0.04633656  0.77291945  1
  Li  Li1  1  0.25829411  0.50278853  0.48197781  1
  Li  Li2  1  0.21406131  0.69599015  0.15104543  1
  Li  Li3  1  0.54060147  0.50275030  0.78607536  1
  Li  Li4  1  0.02533520  0.62767327  0.89998246  1
  V  V5  1  0.47625885  0.13623761  0.66470052  1
  V  V6  1  0.00051113  0.33218994  0.33166658  1
  V  V7  1  0.97268730  0.03967230  0.99702716  1
  V  V8  1  0.47250348  0.51433204  0.00631210  1
  V  V9  1  0.02190795  0.63615833  0.66555187  1
  V  V10  1  0.48337775  0.80711226  0.33373600  1
  O  O11  1  0.19240295  0.36284579  0.69534817  1
  O  O12  1  0.29060382  0.53836776  0.35188624  1
  O  O13  1  0.21347950  0.69642463  0.01643534  1
  O  O14  1  0.80487985  0.31133032  0.97217513  1
  O  O15  1  0.29859197  0.86619645  0.69356473  1
  F  F16  1  0.20144816  0.03316822  0.35558859  1
  F  F17  1  0.29778246  0.18733375  0.02846714  1
  F  F18  1  0.70509325  0.12494554  0.31565127  1
  F  F19  1  0.08167313  0.38132276  0.22096961  1
  F  F20  1  0.08569265  0.01334768  0.88178741  1
  F  F21  1  0.41625903  0.22989583  0.55166044  1
  F  F22  1  0.58303675  0.47482193  0.11532936  1
  F  F23  1  0.61678251  0.15797931  0.77506231  1
  F  F24  1  0.93414070  0.30967267  0.44264162  1
  F  F25  1  0.79734278  0.63502815  0.30849821  1
  F  F26  1  0.68923268  0.48266175  0.64769840  1
  F  F27  1  0.37659907  0.52290965  0.88444448  1
  F  F28  1  0.92667382  0.92486537  0.11050763  1
  F  F29  1  0.09200093  0.70384147  0.55255245  1
  F  F30  1  0.40717883  0.87823539  0.21848490  1
  F  F31  1  0.56950327  0.77419972  0.44687518  1
  F  F32  1  0.88756591  0.65356924  0.78164498  1
  F  F33  1  0.71625332  0.79590308  0.96762807  1
  F  F34  1  0.81024749  0.97491825  0.64821360  1
