# generated using pymatgen
data_Li4Fe3Co3(WO8)2
_symmetry_space_group_name_H-M   'P 1'
_cell_length_a   5.94053146
_cell_length_b   5.96072588
_cell_length_c   9.78823397
_cell_angle_alpha   90.07911750
_cell_angle_beta   90.89234431
_cell_angle_gamma   120.13700831
_symmetry_Int_Tables_number   1
_chemical_formula_structural   Li4Fe3Co3(WO8)2
_chemical_formula_sum   'Li4 Fe3 Co3 W2 O16'
_cell_volume   299.69598967
_cell_formula_units_Z   1
loop_
 _symmetry_equiv_pos_site_id
 _symmetry_equiv_pos_as_xyz
  1  'x, y, z'
loop_
 _atom_site_type_symbol
 _atom_site_label
 _atom_site_symmetry_multiplicity
 _atom_site_fract_x
 _atom_site_fract_y
 _atom_site_fract_z
 _atom_site_occupancy
  Li  Li0  1  0.32975622  0.66395773  0.91062288  1
  Li  Li1  1  0.00354669  0.00335911  0.98904301  1
  Li  Li2  1  0.00880311  0.00263372  0.48569168  1
  Li  Li3  1  0.65160082  0.32687435  0.40816612  1
  Fe  Fe4  1  0.65793083  0.82494394  0.21933532  1
  Fe  Fe5  1  0.82390183  0.65776673  0.71563532  1
  Fe  Fe6  1  0.82441330  0.16669491  0.71409597  1
  Co  Co7  1  0.16580650  0.82242346  0.21266216  1
  Co  Co8  1  0.16827654  0.34028491  0.21137024  1
  Co  Co9  1  0.34125457  0.17012443  0.71376449  1
  W  W10  1  0.31545206  0.65561227  0.48500472  1
  W  W11  1  0.66535242  0.32917548  0.98741898  1
  O  O12  1  0.17323922  0.82625759  0.58813617  1
  O  O13  1  0.02574027  0.51935269  0.35779455  1
  O  O14  1  0.32584750  0.66828744  0.11513234  1
  O  O15  1  0.01263993  0.00134808  0.29675445  1
  O  O16  1  -0.00219754  -0.00053944  0.80107659  1
  O  O17  1  0.16805389  0.34585030  0.58743520  1
  O  O18  1  0.47231975  0.95702431  0.34348764  1
  O  O19  1  0.47813831  0.52156807  0.34935064  1
  O  O20  1  0.35367749  0.17501199  0.08105545  1
  O  O21  1  0.65721868  0.83118331  0.58538830  1
  O  O22  1  0.53216082  0.49300875  0.85545928  1
  O  O23  1  0.53258817  0.03762231  0.85442366  1
  O  O24  1  0.67422116  0.33808521  0.60850193  1
  O  O25  1  0.83935271  0.66199776  0.09250517  1
  O  O26  1  0.96397466  0.48254866  0.84718515  1
  O  O27  1  0.83693107  0.17784193  0.09134561  1
