# generated using pymatgen
data_LiMn2(BO3)2
_symmetry_space_group_name_H-M   'P 1'
_cell_length_a   5.29523607
_cell_length_b   14.03375633
_cell_length_c   10.36552885
_cell_angle_alpha   90.27325947
_cell_angle_beta   91.44856652
_cell_angle_gamma   79.12536657
_symmetry_Int_Tables_number   1
_chemical_formula_structural   LiMn2(BO3)2
_chemical_formula_sum   'Li6 Mn12 B12 O36'
_cell_volume   756.20948274
_cell_formula_units_Z   6
loop_
 _symmetry_equiv_pos_site_id
 _symmetry_equiv_pos_as_xyz
  1  'x, y, z'
loop_
 _atom_site_type_symbol
 _atom_site_label
 _atom_site_symmetry_multiplicity
 _atom_site_fract_x
 _atom_site_fract_y
 _atom_site_fract_z
 _atom_site_occupancy
  Li  Li0  1  0.45361581  0.32511239  0.65475399  1
  Li  Li1  1  0.47894693  0.33989550  0.18457665  1
  Li  Li2  1  0.87114115  0.01103610  0.92209172  1
  Li  Li3  1  0.81884243  0.66010450  0.68457665  1
  Li  Li4  1  0.77872820  0.67488761  0.15475399  1
  Li  Li5  1  0.88217725  0.98896390  0.42209172  1
  Mn  Mn6  1  0.05784781  0.22627371  0.13709161  1
  Mn  Mn7  1  0.28796137  0.13326182  0.87131380  1
  Mn  Mn8  1  0.04658838  0.57107799  0.38260025  1
  Mn  Mn9  1  0.60419039  0.09440263  0.62417561  1
  Mn  Mn10  1  0.28412152  0.77372629  0.63709161  1
  Mn  Mn11  1  0.35715314  0.53994401  0.12803723  1
  Mn  Mn12  1  0.61766738  0.42892201  0.88260025  1
  Mn  Mn13  1  0.42122320  0.86673818  0.37131380  1
  Mn  Mn14  1  0.74763983  0.21396846  0.38263816  1
  Mn  Mn15  1  0.89709715  0.46005599  0.62803723  1
  Mn  Mn16  1  0.69859302  0.90559737  0.12417561  1
  Mn  Mn17  1  0.96160829  0.78603154  0.88263816  1
  B  B18  1  0.03879378  0.23139562  0.62501978  1
  B  B19  1  0.05535169  0.55177702  0.87684212  1
  B  B20  1  0.29882071  0.09664724  0.37773652  1
  B  B21  1  0.37883140  0.55234447  0.63491898  1
  B  B22  1  0.27018841  0.76860438  0.12501978  1
  B  B23  1  0.62132730  0.12792154  0.11956034  1
  B  B24  1  0.72588970  0.20804699  0.86299466  1
  B  B25  1  0.39546795  0.90335276  0.87773652  1
  B  B26  1  0.60712871  0.44822298  0.37684212  1
  B  B27  1  0.74924884  0.87207846  0.61956034  1
  B  B28  1  0.93117587  0.44765553  0.13491898  1
  B  B29  1  0.93393669  0.79195301  0.36299466  1
  O  O30  1  0.22505568  0.00974359  0.38583444  1
  O  O31  1  0.13343479  0.18074502  0.33630969  1
  O  O32  1  0.21034589  0.15327028  0.68207687  1
  O  O33  1  0.09523747  0.32097985  0.62112016  1
  O  O34  1  0.98124737  0.54016965  0.16575009  1
  O  O35  1  0.11834268  0.36791239  0.14231766  1
  O  O36  1  0.11971881  0.55940837  0.59338172  1
  O  O37  1  0.01480571  0.78833318  0.07175014  1
  O  O38  1  0.38766403  0.15334713  0.05250729  1
  O  O39  1  0.28530493  0.52095553  0.94612971  1
  O  O40  1  0.15760239  0.79827708  0.43183040  1
  O  O41  1  0.55386708  0.10480606  0.41760429  1
  O  O42  1  0.23479927  0.99025641  0.88583444  1
  O  O43  1  0.65564905  0.11868901  0.82591285  1
  O  O44  1  0.56931602  0.29257594  0.83370044  1
  O  O45  1  0.31417881  0.81925498  0.83630969  1
  O  O46  1  0.42584199  0.52228039  0.31550018  1
  O  O47  1  0.52141702  0.45983035  0.66575009  1
  O  O48  1  0.58447820  0.35465424  0.36477249  1
  O  O49  1  0.48625507  0.63208761  0.64231766  1
  O  O50  1  0.36361616  0.84672972  0.18207687  1
  O  O51  1  0.41621732  0.67902015  0.12112016  1
  O  O52  1  0.68371882  0.20691045  0.19290640  1
  O  O53  1  0.77707293  0.04141081  0.11067877  1
  O  O54  1  0.80313890  0.21166682  0.57175014  1
  O  O55  1  0.67912618  0.44059163  0.09338172  1
  O  O56  1  0.54101117  0.84665287  0.55250729  1
  O  O57  1  0.95587947  0.20172292  0.93183040  1
  O  O58  1  0.65867314  0.89519394  0.91760429  1
  O  O59  1  0.80626045  0.47904447  0.44612971  1
  O  O60  1  0.94812238  0.47771961  0.81550018  1
  O  O61  1  0.93913144  0.64534576  0.86477249  1
  O  O62  1  0.77433806  0.88131099  0.32591285  1
  O  O63  1  0.86189196  0.70742506  0.33370044  1
  O  O64  1  0.89062927  0.79308955  0.69290640  1
  O  O65  1  0.81848475  0.95858919  0.61067877  1
