# generated using pymatgen
data_Ca2F
_symmetry_space_group_name_H-M   'P 1'
_cell_length_a   3.94052438
_cell_length_b   19.63433239
_cell_length_c   17.07303524
_cell_angle_alpha   23.61827944
_cell_angle_beta   54.82983408
_cell_angle_gamma   59.92977973
_symmetry_Int_Tables_number   1
_chemical_formula_structural   Ca2F
_chemical_formula_sum   'Ca10 F5'
_cell_volume   431.16895122
_cell_formula_units_Z   5
loop_
 _symmetry_equiv_pos_site_id
 _symmetry_equiv_pos_as_xyz
  1  'x, y, z'
loop_
 _atom_site_type_symbol
 _atom_site_label
 _atom_site_symmetry_multiplicity
 _atom_site_fract_x
 _atom_site_fract_y
 _atom_site_fract_z
 _atom_site_occupancy
  Ca  Ca0  1  0.99382319  0.99993921  0.00254233  1
  Ca  Ca1  1  0.01884666  0.20096374  0.99159727  1
  Ca  Ca2  1  0.02241112  0.39849300  0.99251359  1
  Ca  Ca3  1  0.99836927  0.09838085  0.50228006  1
  Ca  Ca4  1  0.00072502  0.60122546  0.99847574  1
  Ca  Ca5  1  0.03267048  0.30201007  0.48494715  1
  Ca  Ca6  1  0.96617226  0.79779109  0.01577786  1
  Ca  Ca7  1  0.97811596  0.70276609  0.50598149  1
  Ca  Ca8  1  0.00628794  0.49749696  0.50001670  1
  Ca  Ca9  1  0.97260877  0.90027992  0.51072939  1
  F  F10  1  0.22949285  0.77269010  0.13545540  1
  F  F11  1  0.76943370  0.32752222  0.36466000  1
  F  F12  1  0.75439967  0.23136747  0.86676935  1
  F  F13  1  0.23318656  0.87320668  0.63350346  1
  F  F14  1  0.77345655  0.42086714  0.86975023  1
