# generated using pymatgen
data_Fe10O11F9
_symmetry_space_group_name_H-M   'P 1'
_cell_length_a   4.73659402
_cell_length_b   4.74183219
_cell_length_c   15.32941639
_cell_angle_alpha   90.00000000
_cell_angle_beta   90.00000000
_cell_angle_gamma   92.25517009
_symmetry_Int_Tables_number   1
_chemical_formula_structural   Fe10O11F9
_chemical_formula_sum   'Fe10 O11 F9'
_cell_volume   344.03408124
_cell_formula_units_Z   1
loop_
 _symmetry_equiv_pos_site_id
 _symmetry_equiv_pos_as_xyz
  1  'x, y, z'
loop_
 _atom_site_type_symbol
 _atom_site_label
 _atom_site_symmetry_multiplicity
 _atom_site_fract_x
 _atom_site_fract_y
 _atom_site_fract_z
 _atom_site_occupancy
  Fe  Fe0  1  0.00169241  0.98519495  0.99591986  1
  Fe  Fe1  1  0.00169241  0.98519495  0.20408014  1
  Fe  Fe2  1  0.05208690  0.00735955  0.40132203  1
  Fe  Fe3  1  0.99038558  0.94587072  0.60000000  1
  Fe  Fe4  1  0.05208690  0.00735955  0.79867797  1
  Fe  Fe5  1  0.50248472  0.49076692  0.10000000  1
  Fe  Fe6  1  0.48138562  0.52061983  0.49830824  1
  Fe  Fe7  1  0.46725940  0.51190168  0.29247103  1
  Fe  Fe8  1  0.48138562  0.52061983  0.70169176  1
  Fe  Fe9  1  0.46725940  0.51190168  0.90752897  1
  O  O10  1  0.19492970  0.81513519  0.29841957  1
  O  O11  1  0.19388353  0.80420310  0.49994313  1
  O  O12  1  0.19388353  0.80420310  0.70005687  1
  O  O13  1  0.19492970  0.81513519  0.90158043  1
  O  O14  1  0.30274046  0.29797213  0.00713127  1
  O  O15  1  0.30274046  0.29797213  0.19286873  1
  O  O16  1  0.31868641  0.32318073  0.39792613  1
  O  O17  1  0.31868641  0.32318073  0.80207387  1
  O  O18  1  0.69195179  0.68779797  0.00574368  1
  O  O19  1  0.69195179  0.68779797  0.19425632  1
  O  O20  1  0.67861511  0.67490280  0.60000000  1
  F  F21  1  0.18687552  0.79867716  0.10000000  1
  F  F22  1  0.28912098  0.29107963  0.60000000  1
  F  F23  1  0.70559886  0.71265654  0.39741612  1
  F  F24  1  0.70559886  0.71265654  0.80258388  1
  F  F25  1  0.80973877  0.17918285  0.10000000  1
  F  F26  1  0.80426993  0.19278934  0.49969835  1
  F  F27  1  0.80690514  0.20094745  0.30069389  1
  F  F28  1  0.80690514  0.20094745  0.89930611  1
  F  F29  1  0.80426993  0.19278934  0.70030165  1
