# generated using pymatgen
data_Ag(H7O4)2
_symmetry_space_group_name_H-M   'P 1'
_cell_length_a   6.98712913
_cell_length_b   16.72050672
_cell_length_c   6.88933632
_cell_angle_alpha   90.00000000
_cell_angle_beta   92.70538302
_cell_angle_gamma   90.00000000
_symmetry_Int_Tables_number   1
_chemical_formula_structural   Ag(H7O4)2
_chemical_formula_sum   'Ag4 H56 O32'
_cell_volume   803.97265227
_cell_formula_units_Z   4
loop_
 _symmetry_equiv_pos_site_id
 _symmetry_equiv_pos_as_xyz
  1  'x, y, z'
loop_
 _atom_site_type_symbol
 _atom_site_label
 _atom_site_symmetry_multiplicity
 _atom_site_fract_x
 _atom_site_fract_y
 _atom_site_fract_z
 _atom_site_occupancy
  Ag  Ag0  1  0.46600138  0.74557478  0.97393559  1
  Ag  Ag1  1  0.46600138  0.75442522  0.47393559  1
  Ag  Ag2  1  0.53399862  0.24557478  0.52606441  1
  Ag  Ag3  1  0.53399862  0.25442522  0.02606441  1
  H  H4  1  0.02391616  0.91384717  0.82270578  1
  H  H5  1  0.02391616  0.58615283  0.32270578  1
  H  H6  1  0.07567529  0.11352892  0.68500571  1
  H  H7  1  0.10155148  0.12606467  0.91903443  1
  H  H8  1  0.07567529  0.38647108  0.18500571  1
  H  H9  1  0.10155148  0.37393533  0.41903443  1
  H  H10  1  0.13257545  0.72249191  0.71861710  1
  H  H11  1  0.13257545  0.77750809  0.21861710  1
  H  H12  1  0.16616648  0.95281247  0.66463519  1
  H  H13  1  0.16616648  0.54718753  0.16463519  1
  H  H14  1  0.20018432  0.45057657  0.84892986  1
  H  H15  1  0.19539117  0.81995915  0.72766124  1
  H  H16  1  0.20018432  0.04942343  0.34892986  1
  H  H17  1  0.21626929  0.35342288  0.68312845  1
  H  H18  1  0.19539117  0.68004085  0.22766124  1
  H  H19  1  0.21626929  0.14657712  0.18312845  1
  H  H20  1  0.24965795  0.21804034  0.77303443  1
  H  H21  1  0.24965795  0.28195966  0.27303443  1
  H  H22  1  0.35198958  0.55621667  0.92186250  1
  H  H23  1  0.36511655  0.91754911  0.92484052  1
  H  H24  1  0.34687683  0.05840258  0.53289155  1
  H  H25  1  0.35198958  0.94378333  0.42186250  1
  H  H26  1  0.36511655  0.58245089  0.42484052  1
  H  H27  1  0.34687683  0.44159742  0.03289155  1
  H  H28  1  0.39912239  0.41392152  0.54144723  1
  H  H29  1  0.39912239  0.08607848  0.04144723  1
  H  H30  1  0.45426165  0.59488427  0.74069444  1
  H  H31  1  0.45426165  0.90511573  0.24069444  1
  H  H32  1  0.54573835  0.09488427  0.75930556  1
  H  H33  1  0.54573835  0.40511573  0.25930556  1
  H  H34  1  0.60087761  0.91392152  0.95855277  1
  H  H35  1  0.60087761  0.58607848  0.45855277  1
  H  H36  1  0.65312317  0.55840258  0.96710845  1
  H  H37  1  0.63488345  0.41754911  0.57515948  1
  H  H38  1  0.64801042  0.05621667  0.57813750  1
  H  H39  1  0.65312317  0.94159742  0.46710845  1
  H  H40  1  0.63488345  0.08245089  0.07515948  1
  H  H41  1  0.64801042  0.44378333  0.07813750  1
  H  H42  1  0.75034205  0.71804034  0.72696557  1
  H  H43  1  0.75034205  0.78195966  0.22696557  1
  H  H44  1  0.78373071  0.85342288  0.81687155  1
  H  H45  1  0.80460883  0.31995915  0.77233876  1
  H  H46  1  0.78373071  0.64657712  0.31687155  1
  H  H47  1  0.79981568  0.95057657  0.65107014  1
  H  H48  1  0.80460883  0.18004085  0.27233876  1
  H  H49  1  0.79981568  0.54942343  0.15107014  1
  H  H50  1  0.83383352  0.45281247  0.83536481  1
  H  H51  1  0.83383352  0.04718753  0.33536481  1
  H  H52  1  0.86742455  0.22249191  0.78138290  1
  H  H53  1  0.86742455  0.27750809  0.28138290  1
  H  H54  1  0.89844852  0.62606467  0.58096557  1
  H  H55  1  0.92432471  0.61352892  0.81499429  1
  H  H56  1  0.89844852  0.87393533  0.08096557  1
  H  H57  1  0.92432471  0.88647108  0.31499429  1
  H  H58  1  0.97608384  0.41384717  0.67729422  1
  H  H59  1  0.97608384  0.08615283  0.17729422  1
  O  O60  1  0.06026746  0.15370074  0.78722488  1
  O  O61  1  0.06026746  0.34629926  0.28722488  1
  O  O62  1  0.16342708  0.91264745  0.76938199  1
  O  O63  1  0.17547613  0.40438594  0.62156993  1
  O  O64  1  0.16342708  0.58735255  0.26938099  1
  O  O65  1  0.17547613  0.09561406  0.12156993  1
  O  O66  1  0.22297501  0.46872729  0.98764487  1
  O  O67  1  0.22297501  0.03127271  0.48764487  1
  O  O68  1  0.24261968  0.76152778  0.71981183  1
  O  O69  1  0.24261968  0.73847222  0.21981183  1
  O  O70  1  0.35157710  0.26057011  0.76995118  1
  O  O71  1  0.35157710  0.23942989  0.26995118  1
  O  O72  1  0.44982568  0.59634478  0.88791179  1
  O  O73  1  0.44982568  0.90365522  0.38791179  1
  O  O74  1  0.47340597  0.59835523  0.51531644  1
  O  O75  1  0.47340597  0.90164477  0.01531644  1
  O  O76  1  0.52659403  0.09835523  0.98468356  1
  O  O77  1  0.52659403  0.40164477  0.48468356  1
  O  O78  1  0.55017432  0.09634478  0.61208821  1
  O  O79  1  0.55017432  0.40365522  0.11208821  1
  O  O80  1  0.64842290  0.76057011  0.73004882  1
  O  O81  1  0.64842290  0.73942989  0.23004882  1
  O  O82  1  0.75738032  0.26152778  0.78018817  1
  O  O83  1  0.75738032  0.23847222  0.28018817  1
  O  O84  1  0.77702499  0.96872729  0.51235513  1
  O  O85  1  0.77702499  0.53127271  0.01235513  1
  O  O86  1  0.82452387  0.90438594  0.87843007  1
  O  O87  1  0.83657292  0.41264745  0.73061801  1
  O  O88  1  0.82452387  0.59561406  0.37843007  1
  O  O89  1  0.83657292  0.08735255  0.23061801  1
  O  O90  1  0.93973254  0.65370074  0.71277512  1
  O  O91  1  0.93973254  0.84629926  0.21277512  1
