# generated using pymatgen
data_Li2VO2F
_symmetry_space_group_name_H-M   'P 1'
_cell_length_a   2.98938288
_cell_length_b   5.11297661
_cell_length_c   7.78466587
_cell_angle_alpha   71.59018079
_cell_angle_beta   101.05758689
_cell_angle_gamma   89.99847500
_symmetry_Int_Tables_number   1
_chemical_formula_structural   Li2VO2F
_chemical_formula_sum   'Li4 V2 O4 F2'
_cell_volume   110.56559901
_cell_formula_units_Z   2
loop_
 _symmetry_equiv_pos_site_id
 _symmetry_equiv_pos_as_xyz
  1  'x, y, z'
loop_
 _atom_site_type_symbol
 _atom_site_label
 _atom_site_symmetry_multiplicity
 _atom_site_fract_x
 _atom_site_fract_y
 _atom_site_fract_z
 _atom_site_occupancy
  Li  Li0  1  0.83092482  0.49779127  0.66129178  1
  Li  Li1  1  0.17276558  0.47637062  0.34270959  1
  Li  Li2  1  0.66351528  0.02352221  0.32373239  1
  Li  Li3  1  0.00276863  0.00241467  0.00533408  1
  V  V4  1  0.32935554  0.02351018  0.67177609  1
  V  V5  1  0.49116663  0.47649111  0.99502638  1
  O  O6  1  0.88691858  0.75021233  0.83326601  1
  O  O7  1  0.42074854  0.25039233  0.83321495  1
  O  O8  1  0.77142779  0.23168795  0.51360118  1
  O  O9  1  0.09178119  0.26794392  0.15347233  1
  F  F10  1  0.25266445  0.76160611  0.50036759  1
  F  F11  1  0.58596397  0.73805730  0.16620764  1
