# generated using pymatgen
data_BaY3F11
_symmetry_space_group_name_H-M   'P 1'
_cell_length_a   16.26670543
_cell_length_b   8.68051688
_cell_length_c   4.42929914
_cell_angle_alpha   90.00000000
_cell_angle_beta   90.00000000
_cell_angle_gamma   90.00000000
_symmetry_Int_Tables_number   1
_chemical_formula_structural   BaY3F11
_chemical_formula_sum   'Ba2 Y6 F22'
_cell_volume   625.43214720
_cell_formula_units_Z   2
loop_
 _symmetry_equiv_pos_site_id
 _symmetry_equiv_pos_as_xyz
  1  'x, y, z'
loop_
 _atom_site_type_symbol
 _atom_site_label
 _atom_site_symmetry_multiplicity
 _atom_site_fract_x
 _atom_site_fract_y
 _atom_site_fract_z
 _atom_site_occupancy
  Ba  Ba0  1  0.01478429  0.50000000  0.00000000  1
  Ba  Ba1  1  0.98521571  0.00000000  0.00000000  1
  Y  Y2  1  0.23551604  0.74889695  0.00000000  1
  Y  Y3  1  0.23551604  0.25110305  0.00000000  1
  Y  Y4  1  0.50000000  0.25000000  0.00000000  1
  Y  Y5  1  0.50000000  0.75000000  0.00000000  1
  Y  Y6  1  0.76448396  0.24889695  0.00000000  1
  Y  Y7  1  0.76448396  0.75110305  0.00000000  1
  F  F8  1  0.07484634  0.50000000  0.50000000  1
  F  F9  1  0.10192073  0.21654153  0.00000000  1
  F  F10  1  0.10192073  0.78345847  0.00000000  1
  F  F11  1  0.20747126  0.50000000  0.00000000  1
  F  F12  1  0.24060308  0.75666923  0.50000000  1
  F  F13  1  0.24060308  0.24333077  0.50000000  1
  F  F14  1  0.25367389  0.00000000  0.00000000  1
  F  F15  1  0.36800448  0.30107244  0.00000000  1
  F  F16  1  0.36800448  0.69892756  0.00000000  1
  F  F17  1  0.47355147  0.00000000  0.00000000  1
  F  F18  1  0.50000000  0.25000000  0.50000000  1
  F  F19  1  0.50000000  0.75000000  0.50000000  1
  F  F20  1  0.52644853  0.50000000  0.00000000  1
  F  F21  1  0.63199552  0.19892756  0.00000000  1
  F  F22  1  0.63199552  0.80107244  0.00000000  1
  F  F23  1  0.74632611  0.50000000  0.00000000  1
  F  F24  1  0.75939692  0.25666923  0.50000000  1
  F  F25  1  0.75939692  0.74333077  0.50000000  1
  F  F26  1  0.79252874  0.00000000  0.00000000  1
  F  F27  1  0.89807927  0.28345847  0.00000000  1
  F  F28  1  0.89807927  0.71654153  0.00000000  1
  F  F29  1  0.92515366  0.00000000  0.50000000  1
