# generated using pymatgen
data_MnOF
_symmetry_space_group_name_H-M   'P 1'
_cell_length_a   4.67066159
_cell_length_b   7.77939286
_cell_length_c   5.69541421
_cell_angle_alpha   94.58869026
_cell_angle_beta   92.86398995
_cell_angle_gamma   88.01678716
_symmetry_Int_Tables_number   1
_chemical_formula_structural   MnOF
_chemical_formula_sum   'Mn6 O6 F6'
_cell_volume   205.92400336
_cell_formula_units_Z   6
loop_
 _symmetry_equiv_pos_site_id
 _symmetry_equiv_pos_as_xyz
  1  'x, y, z'
loop_
 _atom_site_type_symbol
 _atom_site_label
 _atom_site_symmetry_multiplicity
 _atom_site_fract_x
 _atom_site_fract_y
 _atom_site_fract_z
 _atom_site_occupancy
  Mn  Mn0  1  0.50000000  0.00000000  0.50000000  1
  Mn  Mn1  1  0.51539608  0.65032089  0.16968453  1
  Mn  Mn2  1  0.48460392  0.34967911  0.83031547  1
  Mn  Mn3  1  0.01821189  0.68388866  0.66179597  1
  Mn  Mn4  1  0.98178811  0.31611134  0.33820403  1
  Mn  Mn5  1  0.00000000  0.00000000  0.00000000  1
  O  O6  1  0.81448238  0.09224968  0.28609757  1
  O  O7  1  0.68981204  0.76611926  0.46610280  1
  O  O8  1  0.69880591  0.42811824  0.12341051  1
  O  O9  1  0.30119409  0.57188176  0.87658949  1
  O  O10  1  0.31018796  0.23388074  0.53389720  1
  O  O11  1  0.18551762  0.90775032  0.71390243  1
  F  F12  1  0.81509255  0.45604131  0.63760238  1
  F  F13  1  0.79216963  0.78364661  0.96699529  1
  F  F14  1  0.70136086  0.12718184  0.80110478  1
  F  F15  1  0.29863914  0.87281816  0.19889522  1
  F  F16  1  0.18490745  0.54395869  0.36239762  1
  F  F17  1  0.20783037  0.21635439  0.03300471  1
