# generated using pymatgen
data_Na4CoO4
_symmetry_space_group_name_H-M   'P 1'
_cell_length_a   10.07274707
_cell_length_b   6.04844241
_cell_length_c   17.83544612
_cell_angle_alpha   90.00000000
_cell_angle_beta   91.08063326
_cell_angle_gamma   90.00000000
_symmetry_Int_Tables_number   1
_chemical_formula_structural   Na4CoO4
_chemical_formula_sum   'Na32 Co8 O32'
_cell_volume   1086.42113762
_cell_formula_units_Z   8
loop_
 _symmetry_equiv_pos_site_id
 _symmetry_equiv_pos_as_xyz
  1  'x, y, z'
loop_
 _atom_site_type_symbol
 _atom_site_label
 _atom_site_symmetry_multiplicity
 _atom_site_fract_x
 _atom_site_fract_y
 _atom_site_fract_z
 _atom_site_occupancy
  Na  Na0  1  0.14603853  0.16182470  0.85660030  1
  Na  Na1  1  0.14603853  0.33817530  0.35660030  1
  Na  Na2  1  0.19980344  0.63785024  0.14282559  1
  Na  Na3  1  0.19980344  0.86214976  0.64282559  1
  Na  Na4  1  0.25560729  0.56258175  0.78971074  1
  Na  Na5  1  0.25560729  0.93741825  0.28971074  1
  Na  Na6  1  0.32839506  0.08864191  0.50237938  1
  Na  Na7  1  0.32839506  0.41135809  0.00237938  1
  Na  Na8  1  0.38734846  0.34703887  0.23584321  1
  Na  Na9  1  0.38734846  0.15296113  0.73584321  1
  Na  Na10  1  0.36324595  0.87334271  0.91890862  1
  Na  Na11  1  0.36324595  0.62665729  0.41890862  1
  Na  Na12  1  0.54782779  0.06943356  0.05755985  1
  Na  Na13  1  0.54782779  0.43056644  0.55755985  1
  Na  Na14  1  0.59161583  0.87180094  0.25438289  1
  Na  Na15  1  0.59161583  0.62819906  0.75438289  1
  Na  Na16  1  0.65066808  0.59257999  0.00319663  1
  Na  Na17  1  0.65066808  0.90742001  0.50319663  1
  Na  Na18  1  0.68652636  0.10534479  0.67699146  1
  Na  Na19  1  0.68652636  0.39465521  0.17699146  1
  Na  Na20  1  0.69384224  0.55965236  0.37245630  1
  Na  Na21  1  0.69384224  0.94034764  0.87245630  1
  Na  Na22  1  0.80213051  0.08614674  0.36613608  1
  Na  Na23  1  0.80213051  0.41385326  0.86613608  1
  Na  Na24  1  0.84677516  0.58607713  0.67456036  1
  Na  Na25  1  0.84677516  0.91392287  0.17456036  1
  Na  Na26  1  0.90171494  0.41436107  0.50706517  1
  Na  Na27  1  0.90171494  0.08563893  0.00706517  1
  Na  Na28  1  0.94919407  0.05726791  0.74602603  1
  Na  Na29  1  0.94919407  0.44273209  0.24602603  1
  Na  Na30  1  0.97645856  0.91339096  0.54664953  1
  Na  Na31  1  0.97645856  0.58660904  0.04664953  1
  Co  Co32  1  0.06927082  0.18261957  0.13321452  1
  Co  Co33  1  0.06927082  0.31738043  0.63321452  1
  Co  Co34  1  0.47503082  0.67057471  0.12435016  1
  Co  Co35  1  0.47503082  0.82942529  0.62435016  1
  Co  Co36  1  0.52889258  0.15917241  0.37608054  1
  Co  Co37  1  0.52889258  0.34082759  0.87608054  1
  Co  Co38  1  0.95361091  0.69083118  0.37432981  1
  Co  Co39  1  0.95361091  0.80916882  0.87432981  1
  O  O40  1  0.04363114  0.89329249  0.11536823  1
  O  O41  1  0.04363114  0.60670751  0.61536823  1
  O  O42  1  0.15147393  0.26627534  0.22080876  1
  O  O43  1  0.15147393  0.23372466  0.72080876  1
  O  O44  1  0.13644881  0.16877697  0.55665509  1
  O  O45  1  0.13644881  0.33122303  0.05665509  1
  O  O46  1  0.12905694  0.76482175  0.87050728  1
  O  O47  1  0.12905694  0.73517825  0.37050728  1
  O  O48  1  0.35743837  0.24640083  0.37601254  1
  O  O49  1  0.35743837  0.25359917  0.87601254  1
  O  O50  1  0.39970009  0.77342818  0.04028432  1
  O  O51  1  0.39970009  0.72657182  0.54028432  1
  O  O52  1  0.38850253  0.76529022  0.70969245  1
  O  O53  1  0.38850253  0.73470978  0.20969245  1
  O  O54  1  0.48233735  0.37527768  0.11509324  1
  O  O55  1  0.48233735  0.12472232  0.61509324  1
  O  O56  1  0.54038413  0.63841526  0.88126769  1
  O  O57  1  0.54038413  0.86158474  0.38126769  1
  O  O58  1  0.61017848  0.24880336  0.29048369  1
  O  O59  1  0.61017848  0.25119664  0.79048369  1
  O  O60  1  0.62898012  0.22867830  0.95239995  1
  O  O61  1  0.62898012  0.27132170  0.45239995  1
  O  O62  1  0.64650030  0.72608957  0.63014525  1
  O  O63  1  0.64650030  0.77391043  0.13014525  1
  O  O64  1  0.89182836  0.21337754  0.63394376  1
  O  O65  1  0.89182836  0.28662246  0.13394376  1
  O  O66  1  0.85553104  0.78917796  0.45211843  1
  O  O67  1  0.85553104  0.71082204  0.95211843  1
  O  O68  1  0.85263135  0.72843480  0.79201843  1
  O  O69  1  0.85263135  0.77156520  0.29201843  1
  O  O70  1  0.92978564  0.39114780  0.37640571  1
  O  O71  1  0.92978564  0.10885220  0.87640571  1
