# generated using pymatgen
data_LiFe2F5
_symmetry_space_group_name_H-M   'P 1'
_cell_length_a   6.79896518
_cell_length_b   7.85268850
_cell_length_c   9.82558670
_cell_angle_alpha   111.95847582
_cell_angle_beta   110.24178883
_cell_angle_gamma   64.34782638
_symmetry_Int_Tables_number   1
_chemical_formula_structural   LiFe2F5
_chemical_formula_sum   'Li4 Fe8 F20'
_cell_volume   427.81406841
_cell_formula_units_Z   4
loop_
 _symmetry_equiv_pos_site_id
 _symmetry_equiv_pos_as_xyz
  1  'x, y, z'
loop_
 _atom_site_type_symbol
 _atom_site_label
 _atom_site_symmetry_multiplicity
 _atom_site_fract_x
 _atom_site_fract_y
 _atom_site_fract_z
 _atom_site_occupancy
  Li  Li0  1  0.29536789  0.94348532  0.31261561  1
  Li  Li1  1  0.92623860  0.55651468  0.18738439  1
  Li  Li2  1  0.07376140  0.44348532  0.81261561  1
  Li  Li3  1  0.70463211  0.05651468  0.68738439  1
  Fe  Fe4  1  0.22601070  0.93369757  0.63424293  1
  Fe  Fe5  1  0.84558026  0.88917015  0.00335819  1
  Fe  Fe6  1  0.73139221  0.61082985  0.49664181  1
  Fe  Fe7  1  0.47453466  0.43369757  0.13424293  1
  Fe  Fe8  1  0.52546534  0.56630243  0.86575707  1
  Fe  Fe9  1  0.26860779  0.38917015  0.50335819  1
  Fe  Fe10  1  0.15441974  0.11082985  0.99664181  1
  Fe  Fe11  1  0.77398930  0.06630243  0.36575707  1
  F  F12  1  0.10777291  0.98966328  0.13304348  1
  F  F13  1  0.88473786  0.94749014  0.54796974  1
  F  F14  1  0.56551562  0.86743719  0.62491654  1
  F  F15  1  0.84299388  0.82237061  0.19682948  1
  F  F16  1  0.46853501  0.67762939  0.30317052  1
  F  F17  1  0.38567901  0.85818508  0.90543951  1
  F  F18  1  0.33842458  0.64181492  0.59456049  1
  F  F19  1  0.96439370  0.51033672  0.36695652  1
  F  F20  1  0.71574174  0.44749014  0.04796974  1
  F  F21  1  0.80803627  0.63256281  0.87508346  1
  F  F22  1  0.19196373  0.36743719  0.12491654  1
  F  F23  1  0.28425826  0.55250986  0.95203026  1
  F  F24  1  0.03560630  0.48966328  0.63304348  1
  F  F25  1  0.66157542  0.35818508  0.40543951  1
  F  F26  1  0.61432099  0.14181492  0.09456049  1
  F  F27  1  0.53146499  0.32237061  0.69682948  1
  F  F28  1  0.15700612  0.17762939  0.80317052  1
  F  F29  1  0.43448438  0.13256281  0.37508346  1
  F  F30  1  0.11526214  0.05250986  0.45203026  1
  F  F31  1  0.89222709  0.01033672  0.86695652  1
