# generated using pymatgen
data_LiMn2(BO3)2
_symmetry_space_group_name_H-M   'P 1'
_cell_length_a   9.07026909
_cell_length_b   9.19252555
_cell_length_c   11.47528159
_cell_angle_alpha   90.48733429
_cell_angle_beta   68.32245297
_cell_angle_gamma   59.74096925
_symmetry_Int_Tables_number   1
_chemical_formula_structural   LiMn2(BO3)2
_chemical_formula_sum   'Li6 Mn12 B12 O36'
_cell_volume   745.06683734
_cell_formula_units_Z   6
loop_
 _symmetry_equiv_pos_site_id
 _symmetry_equiv_pos_as_xyz
  1  'x, y, z'
loop_
 _atom_site_type_symbol
 _atom_site_label
 _atom_site_symmetry_multiplicity
 _atom_site_fract_x
 _atom_site_fract_y
 _atom_site_fract_z
 _atom_site_occupancy
  Li  Li0  1  0.30137539  0.35907365  0.91567216  1
  Li  Li1  1  0.61316565  0.17618830  0.40709764  1
  Li  Li2  1  0.34894740  0.80697228  0.65159228  1
  Li  Li3  1  0.63818887  0.68513069  0.17691162  1
  Li  Li4  1  0.97847428  0.02129275  0.16979789  1
  Li  Li5  1  0.95840362  0.50906270  0.67772790  1
  Mn  Mn6  1  0.05746527  0.32140045  0.14386909  1
  Mn  Mn7  1  0.01898323  0.12709934  0.62978152  1
  Mn  Mn8  1  0.26912000  0.17987988  0.37708011  1
  Mn  Mn9  1  0.34460840  0.62743866  0.12578426  1
  Mn  Mn10  1  0.65200330  0.02358007  0.12990003  1
  Mn  Mn11  1  0.36197872  0.47108187  0.63157097  1
  Mn  Mn12  1  0.65481786  0.50584350  0.38313640  1
  Mn  Mn13  1  0.29293597  0.00260429  0.88812991  1
  Mn  Mn14  1  0.67358192  0.36907811  0.87521064  1
  Mn  Mn15  1  0.66060806  0.88099906  0.62684292  1
  Mn  Mn16  1  0.99436064  0.84529608  0.38525357  1
  Mn  Mn17  1  0.95744183  0.69657809  0.88280608  1
  B  B18  1  0.02841423  0.66683768  0.11436430  1
  B  B19  1  0.35089320  0.14746159  0.60441677  1
  B  B20  1  0.02557932  0.80488090  0.63937518  1
  B  B21  1  0.33744622  0.48315219  0.35865503  1
  B  B22  1  0.33285584  0.97197856  0.13995363  1
  B  B23  1  0.70507200  0.33389195  0.13538482  1
  B  B24  1  0.31101986  0.65776494  0.87031419  1
  B  B25  1  0.63053133  0.04094231  0.86865839  1
  B  B26  1  0.96405301  0.17618097  0.37957269  1
  B  B27  1  0.68928298  0.51453450  0.63360912  1
  B  B28  1  0.63993092  0.85821451  0.37611497  1
  B  B29  1  0.99495382  0.33883402  0.87558227  1
  O  O30  1  0.19274274  0.04793245  0.09481950  1
  O  O31  1  0.10632486  0.08890615  0.42150560  1
  O  O32  1  0.13333387  0.49493933  0.10488860  1
  O  O33  1  0.36604002  0.09152317  0.18730015  1
  O  O34  1  0.07357384  0.77511537  0.16127158  1
  O  O35  1  0.19787845  0.22731221  0.56923259  1
  O  O36  1  0.27885468  0.37833295  0.34599194  1
  O  O37  1  0.12692735  0.27025663  0.92514243  1
  O  O38  1  0.05423937  0.65882041  0.69129908  1
  O  O39  1  0.57230004  0.01069527  0.33316092  1
  O  O40  1  0.27816900  0.63213053  0.30897536  1
  O  O41  1  0.59969551  0.41616775  0.06517572  1
  O  O42  1  0.45468158  0.21565753  0.59875648  1
  O  O43  1  0.12972490  0.87206047  0.63156091  1
  O  O44  1  0.45400227  0.44975415  0.42068323  1
  O  O45  1  0.42865045  0.80222601  0.13623544  1
  O  O46  1  0.24633045  0.56008397  0.83938501  1
  O  O47  1  0.75818818  0.17148942  0.14591739  1
  O  O48  1  0.74777096  0.43602999  0.19207605  1
  O  O49  1  0.56946634  0.20966529  0.87591042  1
  O  O50  1  0.27632386  0.80525581  0.83384195  1
  O  O51  1  0.56640187  0.54323449  0.57349351  1
  O  O52  1  0.87415001  0.10030386  0.36482138  1
  O  O53  1  0.60144451  0.73871238  0.35383419  1
  O  O54  1  0.42391740  0.58946943  0.93786894  1
  O  O55  1  0.39586627  0.99246128  0.64451941  1
  O  O56  1  0.74164557  0.36889675  0.68881730  1
  O  O57  1  0.92769075  0.33414567  0.35083980  1
  O  O58  1  0.88164349  0.74462200  0.07387143  1
  O  O59  1  0.74606349  0.62208929  0.63868010  1
  O  O60  1  0.75444943  0.83184025  0.43924653  1
  O  O61  1  0.56622653  0.96065634  0.81312661  1
  O  O62  1  0.94063193  0.23168258  0.83759195  1
  O  O63  1  0.91463247  0.50351959  0.85955499  1
  O  O64  1  0.89349078  0.87325855  0.58924116  1
  O  O65  1  0.74957168  0.94270680  0.92606396  1
