# generated using pymatgen
data_Fe10O11F9
_symmetry_space_group_name_H-M   'P 1'
_cell_length_a   4.72927226
_cell_length_b   4.73815098
_cell_length_c   15.38700385
_cell_angle_alpha   90.13466420
_cell_angle_beta   90.12940269
_cell_angle_gamma   92.26205459
_symmetry_Int_Tables_number   1
_chemical_formula_structural   Fe10O11F9
_chemical_formula_sum   'Fe10 O11 F9'
_cell_volume   344.52149138
_cell_formula_units_Z   1
loop_
 _symmetry_equiv_pos_site_id
 _symmetry_equiv_pos_as_xyz
  1  'x, y, z'
loop_
 _atom_site_type_symbol
 _atom_site_label
 _atom_site_symmetry_multiplicity
 _atom_site_fract_x
 _atom_site_fract_y
 _atom_site_fract_z
 _atom_site_occupancy
  Fe  Fe0  1  0.00465171  0.98768209  0.99665475  1
  Fe  Fe1  1  0.01150328  0.99570215  0.20344824  1
  Fe  Fe2  1  0.99140973  0.94715793  0.40016552  1
  Fe  Fe3  1  0.04781691  0.99949381  0.59966838  1
  Fe  Fe4  1  0.04533716  0.99789396  0.79993173  1
  Fe  Fe5  1  0.50523160  0.49408758  0.09992204  1
  Fe  Fe6  1  0.47884055  0.51696101  0.49765177  1
  Fe  Fe7  1  0.48657312  0.53189330  0.29186959  1
  Fe  Fe8  1  0.46210730  0.49856059  0.70225913  1
  Fe  Fe9  1  0.46895932  0.51192651  0.90826501  1
  O  O10  1  0.18271851  0.80414131  0.29754128  1
  O  O11  1  0.19082909  0.80144396  0.49917643  1
  O  O12  1  0.20453009  0.81334372  0.70025613  1
  O  O13  1  0.19178313  0.81134868  0.90265759  1
  O  O14  1  0.30465426  0.30111432  0.00792633  1
  O  O15  1  0.30911526  0.30480629  0.19386290  1
  O  O16  1  0.31663112  0.31597600  0.59770455  1
  O  O17  1  0.31090840  0.31815135  0.80468543  1
  O  O18  1  0.69444260  0.69021250  0.00644278  1
  O  O19  1  0.69868833  0.69478643  0.19214109  1
  O  O20  1  0.67520116  0.68021039  0.39755901  1
  F  F21  1  0.19504506  0.80704965  0.10017127  1
  F  F22  1  0.28669311  0.29269778  0.39639168  1
  F  F23  1  0.70391913  0.70681824  0.60132504  1
  F  F24  1  0.70215444  0.70698304  0.80224885  1
  F  F25  1  0.81505923  0.18548976  0.09999976  1
  F  F26  1  0.80304947  0.19192831  0.49856980  1
  F  F27  1  0.79777327  0.19192969  0.29957457  1
  F  F28  1  0.80309263  0.19727931  0.90079634  1
  F  F29  1  0.81128103  0.20292936  0.70113201  1
