# generated using pymatgen
data_Tl2O3
_symmetry_space_group_name_H-M   'P 1'
_cell_length_a   3.55486620
_cell_length_b   3.55486605
_cell_length_c   19.51643332
_cell_angle_alpha   68.63582083
_cell_angle_beta   68.63582314
_cell_angle_gamma   60.00000102
_symmetry_Int_Tables_number   1
_chemical_formula_structural   Tl2O3
_chemical_formula_sum   'Tl4 O6'
_cell_volume   193.77215953
_cell_formula_units_Z   2
loop_
 _symmetry_equiv_pos_site_id
 _symmetry_equiv_pos_as_xyz
  1  'x, y, z'
loop_
 _atom_site_type_symbol
 _atom_site_label
 _atom_site_symmetry_multiplicity
 _atom_site_fract_x
 _atom_site_fract_y
 _atom_site_fract_z
 _atom_site_occupancy
  Tl  Tl0  1  0.97169840  0.97169840  0.02122595  1
  Tl  Tl1  1  0.02830160  0.02830160  0.47877405  1
  Tl  Tl2  1  0.46624814  0.46624814  0.65031390  1
  Tl  Tl3  1  0.53375186  0.53375186  0.84968610  1
  O  O4  1  0.24327796  0.24327796  0.06754178  1
  O  O5  1  0.24737392  0.24737392  0.56446956  1
  O  O6  1  0.25822838  0.25822838  0.80632872  1
  O  O7  1  0.75672204  0.75672204  0.43245822  1
  O  O8  1  0.74177162  0.74177162  0.69367128  1
  O  O9  1  0.75262608  0.75262608  0.93553044  1
