# generated using pymatgen
data_V3SnO8
_symmetry_space_group_name_H-M   'P 1'
_cell_length_a   6.56729662
_cell_length_b   6.56729680
_cell_length_c   6.61842058
_cell_angle_alpha   74.11436988
_cell_angle_beta   105.88563119
_cell_angle_gamma   145.83767493
_symmetry_Int_Tables_number   1
_chemical_formula_structural   V3SnO8
_chemical_formula_sum   'V3 Sn1 O8'
_cell_volume   153.57843137
_cell_formula_units_Z   1
loop_
 _symmetry_equiv_pos_site_id
 _symmetry_equiv_pos_as_xyz
  1  'x, y, z'
loop_
 _atom_site_type_symbol
 _atom_site_label
 _atom_site_symmetry_multiplicity
 _atom_site_fract_x
 _atom_site_fract_y
 _atom_site_fract_z
 _atom_site_occupancy
  V  V0  1  0.40388439  0.59611561  0.31870000  1
  V  V1  1  0.60516006  0.39483994  0.71174370  1
  V  V2  1  0.30068153  0.69931847  0.72701124  1
  Sn  Sn3  1  0.69794304  0.30205696  0.29280423  1
  O  O4  1  0.13911246  0.86088754  0.69585404  1
  O  O5  1  0.24247940  0.75752060  0.35181707  1
  O  O6  1  0.36309866  0.63690134  0.98815482  1
  O  O7  1  0.43969480  0.56030520  0.61721969  1
  O  O8  1  0.55732740  0.44267260  0.37822362  1
  O  O9  1  0.62520049  0.37479951  0.98309696  1
  O  O10  1  0.75847387  0.24152613  0.64899065  1
  O  O11  1  0.86694489  0.13305511  0.28638598  1
