# generated using pymatgen
data_Ga3NO3
_symmetry_space_group_name_H-M   'P 1'
_cell_length_a   8.31757770
_cell_length_b   8.31770936
_cell_length_c   3.14282452
_cell_angle_alpha   90.00000000
_cell_angle_beta   90.00000000
_cell_angle_gamma   120.00026946
_symmetry_Int_Tables_number   1
_chemical_formula_structural   Ga3NO3
_chemical_formula_sum   'Ga6 N2 O6'
_cell_volume   188.29994493
_cell_formula_units_Z   2
loop_
 _symmetry_equiv_pos_site_id
 _symmetry_equiv_pos_as_xyz
  1  'x, y, z'
loop_
 _atom_site_type_symbol
 _atom_site_label
 _atom_site_symmetry_multiplicity
 _atom_site_fract_x
 _atom_site_fract_y
 _atom_site_fract_z
 _atom_site_occupancy
  Ga  Ga0  1  0.17487714  0.76148956  0.25000000  1
  Ga  Ga1  1  0.23850796  0.41339890  0.25000000  1
  Ga  Ga2  1  0.58660294  0.82512002  0.25000000  1
  Ga  Ga3  1  0.41338794  0.17488240  0.75000000  1
  Ga  Ga4  1  0.76147125  0.58659378  0.75000000  1
  Ga  Ga5  1  0.82510984  0.23851660  0.75000000  1
  N  N6  1  0.33332858  0.66667174  0.25000000  1
  N  N7  1  0.66665580  0.33332742  0.75000000  1
  O  O8  1  0.02649248  0.70742787  0.75000000  1
  O  O9  1  0.29256426  0.31907287  0.75000000  1
  O  O10  1  0.68093069  0.97350119  0.75000000  1
  O  O11  1  0.31905416  0.02650378  0.25000000  1
  O  O12  1  0.70742815  0.68092829  0.25000000  1
  O  O13  1  0.97348881  0.29256358  0.25000000  1
