# generated using pymatgen
data_Mn7Sn(PO4)12
_symmetry_space_group_name_H-M   'P 1'
_cell_length_a   8.52922680
_cell_length_b   8.53223375
_cell_length_c   11.89141984
_cell_angle_alpha   89.99377521
_cell_angle_beta   89.95401646
_cell_angle_gamma   89.98644530
_symmetry_Int_Tables_number   1
_chemical_formula_structural   Mn7Sn(PO4)12
_chemical_formula_sum   'Mn7 Sn1 P12 O48'
_cell_volume   865.37823027
_cell_formula_units_Z   1
loop_
 _symmetry_equiv_pos_site_id
 _symmetry_equiv_pos_as_xyz
  1  'x, y, z'
loop_
 _atom_site_type_symbol
 _atom_site_label
 _atom_site_symmetry_multiplicity
 _atom_site_fract_x
 _atom_site_fract_y
 _atom_site_fract_z
 _atom_site_occupancy
  Mn  Mn0  1  0.25016649  0.96464229  0.61608011  1
  Mn  Mn1  1  0.24997556  0.53537518  0.38211273  1
  Mn  Mn2  1  0.24976675  0.03543875  0.11708799  1
  Mn  Mn3  1  0.24935114  0.46559609  0.88284585  1
  Mn  Mn4  1  0.75062398  0.53578741  0.11780142  1
  Mn  Mn5  1  0.75052730  0.96360563  0.88319501  1
  Mn  Mn6  1  0.74979932  0.03535328  0.38171312  1
  Sn  Sn7  1  0.74906977  0.46468013  0.62178704  1
  P  P8  1  0.04262124  0.24722490  0.49721483  1
  P  P9  1  0.46409430  0.75004452  0.00015461  1
  P  P10  1  0.53652600  0.24992502  0.99947815  1
  P  P11  1  0.96637300  0.75553365  0.49795954  1
  P  P12  1  0.10740759  0.39154652  0.14521713  1
  P  P13  1  0.10721511  0.10898314  0.85499990  1
  P  P14  1  0.38534919  0.61091101  0.64601496  1
  P  P15  1  0.39319054  0.89155936  0.35433095  1
  P  P16  1  0.60642545  0.09931599  0.64711781  1
  P  P17  1  0.60331843  0.38958488  0.34956215  1
  P  P18  1  0.89619106  0.60963684  0.86067736  1
  P  P19  1  0.89251860  0.89172127  0.14554429  1
  O  O20  1  0.06099602  0.64311307  0.42291294  1
  O  O21  1  0.06264888  0.86536114  0.57278669  1
  O  O22  1  0.07371342  0.90185003  0.15798675  1
  O  O23  1  0.07731127  0.60404634  0.84719963  1
  O  O24  1  0.15318974  0.15660353  0.57708933  1
  O  O25  1  0.15101187  0.33838165  0.41554371  1
  O  O26  1  0.16051580  0.43798464  0.02736993  1
  O  O27  1  0.15975532  0.06129199  0.97291495  1
  O  O28  1  0.15313462  0.22228655  0.17551201  1
  O  O29  1  0.15228225  0.27835946  0.82495901  1
  O  O30  1  0.17739121  0.51366135  0.22807393  1
  O  O31  1  0.17720753  0.98896091  0.77091817  1
  O  O32  1  0.32103840  0.01193271  0.27144103  1
  O  O33  1  0.31374399  0.48858924  0.72781135  1
  O  O34  1  0.33533643  0.77861844  0.67579045  1
  O  O35  1  0.34757310  0.72234327  0.32415311  1
  O  O36  1  0.33773743  0.56111744  0.52702460  1
  O  O37  1  0.34198478  0.93792020  0.47281664  1
  O  O38  1  0.35364512  0.84110811  0.08047326  1
  O  O39  1  0.35583395  0.65834213  0.91920701  1
  O  O40  1  0.42536729  0.08990346  0.65884302  1
  O  O41  1  0.42246157  0.40150028  0.33518741  1
  O  O42  1  0.44041444  0.14126971  0.07629291  1
  O  O43  1  0.44026648  0.35832708  0.92301695  1
  O  O44  1  0.55992059  0.64098108  0.07644666  1
  O  O45  1  0.55999847  0.85946756  0.92422640  1
  O  O46  1  0.56494093  0.60884344  0.66090212  1
  O  O47  1  0.57456585  0.90131223  0.34174621  1
  O  O48  1  0.64702927  0.34150007  0.07913055  1
  O  O49  1  0.64611979  0.15756772  0.91927386  1
  O  O50  1  0.66078110  0.06044678  0.52759543  1
  O  O51  1  0.65497140  0.43972677  0.46618278  1
  O  O52  1  0.65073234  0.22013632  0.32140598  1
  O  O53  1  0.64765080  0.26662706  0.68237124  1
  O  O54  1  0.67574658  0.51060256  0.26769287  1
  O  O55  1  0.67777087  0.97697002  0.72887044  1
  O  O56  1  0.82047973  0.01358960  0.22746503  1
  O  O57  1  0.82322374  0.48532981  0.78353000  1
  O  O58  1  0.84564766  0.72329620  0.17744172  1
  O  O59  1  0.84840370  0.77742680  0.82727291  1
  O  O60  1  0.84488015  0.56869607  0.97991924  1
  O  O61  1  0.84013634  0.93882279  0.02750835  1
  O  O62  1  0.85851113  0.66947236  0.58078525  1
  O  O63  1  0.85826127  0.84465653  0.41515523  1
  O  O64  1  0.92572060  0.09750372  0.84153170  1
  O  O65  1  0.92620448  0.40184562  0.15907387  1
  O  O66  1  0.94201563  0.14075597  0.42229087  1
  O  O67  1  0.95121783  0.35508737  0.57596152  1
