# generated using pymatgen
data_Li3MnV(PO4)3
_symmetry_space_group_name_H-M   'P 1'
_cell_length_a   9.87293670
_cell_length_b   9.85065687
_cell_length_c   9.75582290
_cell_angle_alpha   87.47591298
_cell_angle_beta   93.56820922
_cell_angle_gamma   95.33092801
_symmetry_Int_Tables_number   1
_chemical_formula_structural   Li3MnV(PO4)3
_chemical_formula_sum   'Li12 Mn4 V4 P12 O48'
_cell_volume   942.16749313
_cell_formula_units_Z   4
loop_
 _symmetry_equiv_pos_site_id
 _symmetry_equiv_pos_as_xyz
  1  'x, y, z'
loop_
 _atom_site_type_symbol
 _atom_site_label
 _atom_site_symmetry_multiplicity
 _atom_site_fract_x
 _atom_site_fract_y
 _atom_site_fract_z
 _atom_site_occupancy
  Li  Li0  1  0.01360982  0.51222127  0.24248996  1
  Li  Li1  1  0.99500711  0.25916316  0.38491582  1
  Li  Li2  1  0.22527361  0.56245519  0.47255444  1
  Li  Li3  1  0.22678003  0.73424016  0.17799442  1
  Li  Li4  1  0.25271732  0.98857768  0.60416785  1
  Li  Li5  1  0.37411142  0.74586134  0.81062852  1
  Li  Li6  1  0.50483796  0.01164473  0.75236350  1
  Li  Li7  1  0.55890585  0.22569312  0.52998174  1
  Li  Li8  1  0.69671029  0.92463799  0.97864720  1
  Li  Li9  1  0.73202804  0.23157968  0.81849355  1
  Li  Li10  1  0.75108110  0.38198342  0.19350255  1
  Li  Li11  1  0.92379865  0.69341210  0.02323785  1
  Mn  Mn12  1  0.25978703  0.02726805  0.21844477  1
  Mn  Mn13  1  0.53515871  0.53125128  0.50632226  1
  Mn  Mn14  1  0.75255296  0.75791571  0.49930742  1
  Mn  Mn15  1  0.97103467  0.73742341  0.72219730  1
  V  V16  1  0.02805897  0.24915987  0.78478283  1
  V  V17  1  0.24694972  0.24696272  0.00072845  1
  V  V18  1  0.46870688  0.46414295  0.00199774  1
  V  V19  1  0.74606346  0.96613430  0.28170133  1
  P  P20  1  0.05154025  0.82520008  0.40473284  1
  P  P21  1  0.17406514  0.94572214  0.89997884  1
  P  P22  1  0.16174415  0.55068337  0.92992671  1
  P  P23  1  0.32130436  0.34164836  0.30399964  1
  P  P24  1  0.33672274  0.31931601  0.69700014  1
  P  P25  1  0.44375244  0.83152937  0.42578772  1
  P  P26  1  0.55005641  0.15317170  0.07141647  1
  P  P27  1  0.65205582  0.67990316  0.80260587  1
  P  P28  1  0.68672841  0.65366004  0.19976687  1
  P  P29  1  0.84061952  0.44529198  0.57615162  1
  P  P30  1  0.81492093  0.05435594  0.59177924  1
  P  P31  1  0.94421133  0.17674893  0.09542157  1
  O  O32  1  0.03298872  0.87031390  0.85673327  1
  O  O33  1  0.08226459  0.82433334  0.56307256  1
  O  O34  1  0.11386753  0.61425871  0.79164030  1
  O  O35  1  0.11777752  0.96275527  0.34549573  1
  O  O36  1  0.09615855  0.69848074  0.33994051  1
  O  O37  1  0.12609375  0.39038403  0.92498245  1
  O  O38  1  0.09639097  0.60226642  0.05477649  1
  O  O39  1  0.10242430  0.16881032  0.12092980  1
  O  O40  1  0.16070175  0.10398782  0.87386023  1
  O  O41  1  0.17903254  0.30510893  0.66946676  1
  O  O42  1  0.19720989  0.90814373  0.05613229  1
  O  O43  1  0.19767055  0.40735996  0.34894118  1
  O  O44  1  0.28895038  0.91254235  0.81249254  1
  O  O45  1  0.32045081  0.58689243  0.94378597  1
  O  O46  1  0.30948384  0.18399600  0.33277997  1
  O  O47  1  0.32914781  0.37635816  0.14220954  1
  O  O48  1  0.36834225  0.86560143  0.28703013  1
  O  O49  1  0.40198197  0.90220392  0.54985250  1
  O  O50  1  0.37632594  0.32329522  0.86070227  1
  O  O51  1  0.38471428  0.45859500  0.63323119  1
  O  O52  1  0.41402847  0.67060350  0.44444481  1
  O  O53  1  0.40180653  0.19632338  0.64748674  1
  O  O54  1  0.38797194  0.12120943  0.07646552  1
  O  O55  1  0.46164853  0.39160106  0.37277592  1
  O  O56  1  0.58011708  0.80278253  0.84377235  1
  O  O57  1  0.54933830  0.59110574  0.14133259  1
  O  O58  1  0.59015135  0.54306721  0.86220511  1
  O  O59  1  0.60123395  0.87299142  0.41212691  1
  O  O60  1  0.62828292  0.66963540  0.63968762  1
  O  O61  1  0.59731032  0.09661275  0.93964650  1
  O  O62  1  0.58879411  0.31099910  0.07236901  1
  O  O63  1  0.60882267  0.08614475  0.20416230  1
  O  O64  1  0.68167793  0.63122879  0.36158284  1
  O  O65  1  0.70350465  0.80899814  0.15554398  1
  O  O66  1  0.68015464  0.41269359  0.56143542  1
  O  O67  1  0.69067431  0.10884337  0.65083080  1
  O  O68  1  0.80734955  0.69736485  0.84492311  1
  O  O69  1  0.81320968  0.89529901  0.62449608  1
  O  O70  1  0.80871682  0.58243606  0.15659464  1
  O  O71  1  0.81876784  0.08789452  0.43329627  1
  O  O72  1  0.87906284  0.60539062  0.59184945  1
  O  O73  1  0.89099069  0.83212312  0.37296432  1
  O  O74  1  0.88380558  0.37239547  0.71309644  1
  O  O75  1  0.90361143  0.20687314  0.93978159  1
  O  O76  1  0.90611164  0.40508433  0.44913064  1
  O  O77  1  0.87037161  0.03605937  0.13208076  1
  O  O78  1  0.91025843  0.29083709  0.18665380  1
  O  O79  1  0.95215217  0.11155532  0.65818873  1
