# generated using pymatgen
data_Nb(BO2)5
_symmetry_space_group_name_H-M   'P 1'
_cell_length_a   7.44449207
_cell_length_b   15.10292192
_cell_length_c   7.44391839
_cell_angle_alpha   90.00000000
_cell_angle_beta   91.56589304
_cell_angle_gamma   90.00000000
_symmetry_Int_Tables_number   1
_chemical_formula_structural   Nb(BO2)5
_chemical_formula_sum   'Nb4 B20 O40'
_cell_volume   836.63386271
_cell_formula_units_Z   4
loop_
 _symmetry_equiv_pos_site_id
 _symmetry_equiv_pos_as_xyz
  1  'x, y, z'
loop_
 _atom_site_type_symbol
 _atom_site_label
 _atom_site_symmetry_multiplicity
 _atom_site_fract_x
 _atom_site_fract_y
 _atom_site_fract_z
 _atom_site_occupancy
  Nb  Nb0  1  0.14686994  0.12459964  0.53974103  1
  Nb  Nb1  1  0.14686994  0.37540036  0.03974103  1
  Nb  Nb2  1  0.85313006  0.62459964  0.96025897  1
  Nb  Nb3  1  0.85313006  0.87540036  0.46025897  1
  B  B4  1  0.20214711  0.02570434  0.91505352  1
  B  B5  1  0.20214711  0.47429566  0.41505352  1
  B  B6  1  0.22390129  0.77675057  0.52138295  1
  B  B7  1  0.22390129  0.72324943  0.02138295  1
  B  B8  1  0.24433138  0.50326838  0.72375354  1
  B  B9  1  0.24433138  0.99673162  0.22375354  1
  B  B10  1  0.31718003  0.62005128  0.50674529  1
  B  B11  1  0.31718003  0.87994872  0.00674529  1
  B  B12  1  0.46921364  0.25723780  0.50028744  1
  B  B13  1  0.46921364  0.24276220  0.00028744  1
  B  B14  1  0.53078636  0.75723780  0.99971256  1
  B  B15  1  0.53078636  0.74276220  0.49971256  1
  B  B16  1  0.68281997  0.12005128  0.99325471  1
  B  B17  1  0.68281997  0.37994872  0.49325471  1
  B  B18  1  0.75566862  0.00326838  0.77624646  1
  B  B19  1  0.75566862  0.49673162  0.27624646  1
  B  B20  1  0.77609871  0.27675057  0.97861705  1
  B  B21  1  0.77609871  0.22324943  0.47861705  1
  B  B22  1  0.79785289  0.52570434  0.58494648  1
  B  B23  1  0.79785289  0.97429566  0.08494648  1
  O  O24  1  0.08650131  0.84132274  0.52766661  1
  O  O25  1  0.08650131  0.65867726  0.02766661  1
  O  O26  1  0.15056257  0.08674200  0.77884435  1
  O  O27  1  0.15056257  0.41325800  0.27884435  1
  O  O28  1  0.17911122  0.80874182  0.99570046  1
  O  O29  1  0.16982099  0.44910498  0.59019591  1
  O  O30  1  0.17911122  0.69125818  0.49570046  1
  O  O31  1  0.16982099  0.05089502  0.09019591  1
  O  O32  1  0.23024759  0.46946577  0.90038984  1
  O  O33  1  0.23024759  0.03053423  0.40038984  1
  O  O34  1  0.29305454  0.22443993  0.51692577  1
  O  O35  1  0.27554497  0.94782553  0.87062432  1
  O  O36  1  0.29305454  0.27556007  0.01692577  1
  O  O37  1  0.27554497  0.55217447  0.37062432  1
  O  O38  1  0.31821429  0.58222566  0.69256286  1
  O  O39  1  0.31821429  0.91777434  0.19256286  1
  O  O40  1  0.40061896  0.80519784  0.53835300  1
  O  O41  1  0.40061896  0.69480216  0.03835300  1
  O  O42  1  0.50159734  0.34380571  0.52386932  1
  O  O43  1  0.49840266  0.84380571  0.97613068  1
  O  O44  1  0.50159734  0.15619429  0.02386932  1
  O  O45  1  0.49840266  0.65619429  0.47613068  1
  O  O46  1  0.59938104  0.30519784  0.96164700  1
  O  O47  1  0.59938104  0.19480216  0.46164700  1
  O  O48  1  0.68178571  0.08222566  0.80743714  1
  O  O49  1  0.68178571  0.41777434  0.30743714  1
  O  O50  1  0.72445503  0.44782553  0.62937568  1
  O  O51  1  0.70694546  0.72443993  0.98307423  1
  O  O52  1  0.72445503  0.05217447  0.12937568  1
  O  O53  1  0.70694546  0.77556007  0.48307423  1
  O  O54  1  0.76975241  0.96946577  0.59961016  1
  O  O55  1  0.76975241  0.53053423  0.09961016  1
  O  O56  1  0.83017901  0.94910498  0.90980409  1
  O  O57  1  0.82088878  0.30874182  0.50429954  1
  O  O58  1  0.83017901  0.55089502  0.40980409  1
  O  O59  1  0.82088878  0.19125818  0.00429954  1
  O  O60  1  0.84943743  0.58674200  0.72115565  1
  O  O61  1  0.84943743  0.91325800  0.22115565  1
  O  O62  1  0.91349869  0.34132274  0.97233339  1
  O  O63  1  0.91349869  0.15867726  0.47233339  1
