# generated using pymatgen
data_Fe6O7F5
_symmetry_space_group_name_H-M   'P 1'
_cell_length_a   7.67712389
_cell_length_b   5.67210097
_cell_length_c   5.67210097
_cell_angle_alpha   69.79104831
_cell_angle_beta   68.84161463
_cell_angle_gamma   68.84161463
_symmetry_Int_Tables_number   1
_chemical_formula_structural   Fe6O7F5
_chemical_formula_sum   'Fe6 O7 F5'
_cell_volume   208.13744386
_cell_formula_units_Z   1
loop_
 _symmetry_equiv_pos_site_id
 _symmetry_equiv_pos_as_xyz
  1  'x, y, z'
loop_
 _atom_site_type_symbol
 _atom_site_label
 _atom_site_symmetry_multiplicity
 _atom_site_fract_x
 _atom_site_fract_y
 _atom_site_fract_z
 _atom_site_occupancy
  Fe  Fe0  1  0.85400040  0.68085447  0.69912837  1
  Fe  Fe1  1  0.67646362  0.33154480  0.34313761  1
  Fe  Fe2  1  0.32353638  0.65686239  0.66845520  1
  Fe  Fe3  1  0.14599960  0.30087163  0.31914553  1
  Fe  Fe4  1  0.50000000  0.99723286  0.00276714  1
  Fe  Fe5  1  0.00000000  0.02778771  0.97221229  1
  O  O6  1  0.66290469  0.03331479  0.65412886  1
  O  O7  1  0.33709531  0.34587114  0.96668521  1
  O  O8  1  0.95488197  0.22845834  0.22227671  1
  O  O9  1  0.04511803  0.77772329  0.77154166  1
  O  O10  1  0.34003778  0.95580513  0.35219624  1
  O  O11  1  0.65996222  0.64780376  0.04419487  1
  O  O12  1  0.00000000  0.32282899  0.67717101  1
  F  F13  1  0.29735999  0.89167881  0.89604806  1
  F  F14  1  0.62153217  0.56582791  0.57337094  1
  F  F15  1  0.37846783  0.42662906  0.43417209  1
  F  F16  1  0.70264001  0.10395194  0.10832119  1
  F  F17  1  0.00000000  0.70495398  0.29504602  1
