# generated using pymatgen
data_Li3Fe2(SiO4)2
_symmetry_space_group_name_H-M   'P 1'
_cell_length_a   6.62236625
_cell_length_b   5.11104363
_cell_length_c   10.74845127
_cell_angle_alpha   90.00000000
_cell_angle_beta   89.33925546
_cell_angle_gamma   90.00000000
_symmetry_Int_Tables_number   1
_chemical_formula_structural   Li3Fe2(SiO4)2
_chemical_formula_sum   'Li6 Fe4 Si4 O16'
_cell_volume   363.78081925
_cell_formula_units_Z   2
loop_
 _symmetry_equiv_pos_site_id
 _symmetry_equiv_pos_as_xyz
  1  'x, y, z'
loop_
 _atom_site_type_symbol
 _atom_site_label
 _atom_site_symmetry_multiplicity
 _atom_site_fract_x
 _atom_site_fract_y
 _atom_site_fract_z
 _atom_site_occupancy
  Li  Li0  1  0.00912728  0.81922593  0.08235633  1
  Li  Li1  1  0.00912728  0.68077407  0.58235633  1
  Li  Li2  1  0.78539516  0.31636550  0.17736000  1
  Li  Li3  1  0.78539516  0.18363450  0.67736000  1
  Li  Li4  1  0.00611231  0.31415489  0.41336185  1
  Li  Li5  1  0.00611231  0.18584511  0.91336185  1
  Fe  Fe6  1  0.49097849  0.29974764  0.40065232  1
  Fe  Fe7  1  0.50265174  0.81328364  0.09453036  1
  Fe  Fe8  1  0.49097849  0.20025236  0.90065232  1
  Fe  Fe9  1  0.50265174  0.68671636  0.59453036  1
  Si  Si10  1  0.23967238  0.32270488  0.16181679  1
  Si  Si11  1  0.23967238  0.17729512  0.66181679  1
  Si  Si12  1  0.76048349  0.81491833  0.34243045  1
  Si  Si13  1  0.76048349  0.68508167  0.84243045  1
  O  O14  1  0.03776226  0.21069808  0.09765121  1
  O  O15  1  0.03776226  0.28930192  0.59765121  1
  O  O16  1  0.26343197  0.63983206  0.13356280  1
  O  O17  1  0.24637285  0.25905728  0.31008068  1
  O  O18  1  0.26343197  0.86016794  0.63356280  1
  O  O19  1  0.24637285  0.24094272  0.81008068  1
  O  O20  1  0.45605424  0.19106672  0.09788908  1
  O  O21  1  0.45605424  0.30893328  0.59788908  1
  O  O22  1  0.55036464  0.71104622  0.41826414  1
  O  O23  1  0.55036464  0.78895378  0.91826414  1
  O  O24  1  0.73353158  0.71791814  0.19256523  1
  O  O25  1  0.74831873  0.14033387  0.34226723  1
  O  O26  1  0.73353158  0.78208186  0.69256523  1
  O  O27  1  0.74831873  0.35966613  0.84226723  1
  O  O28  1  0.95035787  0.69060709  0.40787454  1
  O  O29  1  0.95035787  0.80939291  0.90787454  1
