# generated using pymatgen
data_Fe10O11F9
_symmetry_space_group_name_H-M   'P 1'
_cell_length_a   4.72831471
_cell_length_b   4.74058630
_cell_length_c   15.37061875
_cell_angle_alpha   90.16176239
_cell_angle_beta   89.86416930
_cell_angle_gamma   92.23748759
_symmetry_Int_Tables_number   1
_chemical_formula_structural   Fe10O11F9
_chemical_formula_sum   'Fe10 O11 F9'
_cell_volume   344.26724355
_cell_formula_units_Z   1
loop_
 _symmetry_equiv_pos_site_id
 _symmetry_equiv_pos_as_xyz
  1  'x, y, z'
loop_
 _atom_site_type_symbol
 _atom_site_label
 _atom_site_symmetry_multiplicity
 _atom_site_fract_x
 _atom_site_fract_y
 _atom_site_fract_z
 _atom_site_occupancy
  Fe  Fe0  1  0.01981052  0.02311145  0.99985646  1
  Fe  Fe1  1  0.98545019  0.99914577  0.19703748  1
  Fe  Fe2  1  0.00288498  0.98532018  0.40338359  1
  Fe  Fe3  1  0.04145951  0.99778376  0.60004241  1
  Fe  Fe4  1  0.04120893  0.99308448  0.80009712  1
  Fe  Fe5  1  0.51914300  0.45598890  0.10812771  1
  Fe  Fe6  1  0.46679809  0.51088808  0.49191204  1
  Fe  Fe7  1  0.49726284  0.49544974  0.30006862  1
  Fe  Fe8  1  0.46012678  0.49747521  0.69758735  1
  Fe  Fe9  1  0.45324956  0.51099844  0.90260380  1
  O  O10  1  0.18902325  0.80992926  0.49742410  1
  O  O11  1  0.19862157  0.80959259  0.69924393  1
  O  O12  1  0.19076567  0.81661010  0.90305181  1
  O  O13  1  0.31617890  0.31305376  0.00463339  1
  O  O14  1  0.30435517  0.29392315  0.20809952  1
  O  O15  1  0.29916534  0.30101014  0.39215747  1
  O  O16  1  0.30831933  0.31557909  0.59496844  1
  O  O17  1  0.30451393  0.31612499  0.80046327  1
  O  O18  1  0.69395543  0.68287076  0.20636746  1
  O  O19  1  0.68887425  0.69037731  0.39344900  1
  O  O20  1  0.81635862  0.17996819  0.10071965  1
  F  F21  1  0.20311924  0.79793836  0.10201120  1
  F  F22  1  0.18549886  0.80283899  0.29862211  1
  F  F23  1  0.70455082  0.69938352  0.00165281  1
  F  F24  1  0.69863918  0.70607515  0.59762300  1
  F  F25  1  0.69585419  0.70819841  0.80007806  1
  F  F26  1  0.80097954  0.19723175  0.49933709  1
  F  F27  1  0.80556562  0.18229194  0.30185623  1
  F  F28  1  0.80373346  0.20673703  0.89964542  1
  F  F29  1  0.80453124  0.20101951  0.69788043  1
