# generated using pymatgen
data_Na4Bi2B4SO16
_symmetry_space_group_name_H-M   'P 1'
_cell_length_a   10.26549164
_cell_length_b   10.04705747
_cell_length_c   10.26549107
_cell_angle_alpha   61.02246492
_cell_angle_beta   92.96260144
_cell_angle_gamma   61.02246179
_symmetry_Int_Tables_number   1
_chemical_formula_structural   Na4Bi2B4SO16
_chemical_formula_sum   'Na8 Bi4 B8 S2 O32'
_cell_volume   751.38656683
_cell_formula_units_Z   2
loop_
 _symmetry_equiv_pos_site_id
 _symmetry_equiv_pos_as_xyz
  1  'x, y, z'
loop_
 _atom_site_type_symbol
 _atom_site_label
 _atom_site_symmetry_multiplicity
 _atom_site_fract_x
 _atom_site_fract_y
 _atom_site_fract_z
 _atom_site_occupancy
  Na  Na0  1  0.07899626  0.84200748  0.82899626  1
  Na  Na1  1  0.07961938  0.25000000  0.82961938  1
  Na  Na2  1  0.32961938  0.75000000  0.57961938  1
  Na  Na3  1  0.32899626  0.34200748  0.57899626  1
  Na  Na4  1  0.67100374  0.65799252  0.42100374  1
  Na  Na5  1  0.67038062  0.25000000  0.42038062  1
  Na  Na6  1  0.92038062  0.75000000  0.17038062  1
  Na  Na7  1  0.92100374  0.15799252  0.17100374  1
  Bi  Bi8  1  0.00000000  0.50000000  0.00000000  1
  Bi  Bi9  1  0.50000000  0.00000000  0.50000000  1
  Bi  Bi10  1  0.50000000  0.50000000  0.00000000  1
  Bi  Bi11  1  0.50000000  0.00000000  0.00000000  1
  B  B12  1  0.35008979  0.93627929  0.77444813  1
  B  B13  1  0.27444813  0.43627929  0.85008979  1
  B  B14  1  0.71363092  0.93627929  0.78927158  1
  B  B15  1  0.71072842  0.56372071  0.78636908  1
  B  B16  1  0.28927258  0.43627929  0.21363092  1
  B  B17  1  0.28636908  0.06372071  0.21072842  1
  B  B18  1  0.72555187  0.56372071  0.14991021  1
  B  B19  1  0.64991021  0.06372071  0.22555187  1
  S  S20  1  0.12500000  0.75000000  0.37500000  1
  S  S21  1  0.87500000  0.25000000  0.62500000  1
  O  O22  1  0.34309531  0.79726374  0.89585725  1
  O  O23  1  0.06894543  0.87317081  0.43182608  1
  O  O24  1  0.35724916  0.94506489  0.63697953  1
  O  O25  1  0.13697953  0.44506489  0.85724916  1
  O  O26  1  0.69768595  0.94506489  0.91795559  1
  O  O27  1  0.29148870  0.56859756  0.84278341  1
  O  O28  1  0.05788376  0.87317081  0.19500311  1
  O  O29  1  0.06817392  0.62682919  0.43105457  1
  O  O30  1  0.41138197  0.93140244  0.36008626  1
  O  O31  1  0.58204441  0.55493511  0.80231405  1
  O  O32  1  0.39585725  0.29726374  0.84309531  1
  O  O33  1  0.30499689  0.62682919  0.44211624  1
  O  O34  1  0.85964094  0.79726374  0.80687901  1
  O  O35  1  0.69312099  0.70273626  0.64035906  1
  O  O36  1  0.34278341  0.06859756  0.79148870  1
  O  O37  1  0.13991374  0.56859756  0.08861803  1
  O  O38  1  0.86008626  0.43140244  0.91138197  1
  O  O39  1  0.65721659  0.93140244  0.20851130  1
  O  O40  1  0.30687901  0.29726374  0.35964094  1
  O  O41  1  0.14035906  0.20273626  0.19312099  1
  O  O42  1  0.69500311  0.37317081  0.55788376  1
  O  O43  1  0.60414275  0.70273626  0.15690469  1
  O  O44  1  0.41795559  0.44506489  0.19768595  1
  O  O45  1  0.58861803  0.06859756  0.63991374  1
  O  O46  1  0.93182608  0.37317081  0.56894543  1
  O  O47  1  0.94211624  0.12682919  0.80499689  1
  O  O48  1  0.70851130  0.43140244  0.15721659  1
  O  O49  1  0.30231405  0.05493511  0.08204441  1
  O  O50  1  0.86302047  0.55493511  0.14275084  1
  O  O51  1  0.64275084  0.05493511  0.36302047  1
  O  O52  1  0.93105457  0.12682919  0.56817392  1
  O  O53  1  0.65690469  0.20273626  0.10414275  1
