# generated using pymatgen
data_Mn2O3F
_symmetry_space_group_name_H-M   'P 1'
_cell_length_a   4.58671998
_cell_length_b   9.67614904
_cell_length_c   6.04681475
_cell_angle_alpha   71.79247236
_cell_angle_beta   90.00000000
_cell_angle_gamma   87.86285685
_symmetry_Int_Tables_number   1
_chemical_formula_structural   Mn2O3F
_chemical_formula_sum   'Mn8 O12 F4'
_cell_volume   254.73498615
_cell_formula_units_Z   4
loop_
 _symmetry_equiv_pos_site_id
 _symmetry_equiv_pos_as_xyz
  1  'x, y, z'
loop_
 _atom_site_type_symbol
 _atom_site_label
 _atom_site_symmetry_multiplicity
 _atom_site_fract_x
 _atom_site_fract_y
 _atom_site_fract_z
 _atom_site_occupancy
  Mn  Mn0  1  0.47529665  0.23748745  0.63125577  1
  Mn  Mn1  1  0.52470335  0.26251255  0.11874423  1
  Mn  Mn2  1  0.50000000  0.75000000  0.37500000  1
  Mn  Mn3  1  0.50000000  0.75000000  0.87500000  1
  Mn  Mn4  1  0.00126519  0.00119757  0.49517523  1
  Mn  Mn5  1  0.99873481  0.49880243  0.74637281  1
  Mn  Mn6  1  0.00126519  0.00119757  0.00362719  1
  Mn  Mn7  1  0.99873481  0.49880243  0.25482477  1
  O  O8  1  0.81050576  0.40747728  0.04626086  1
  O  O9  1  0.81128743  0.90616930  0.29691535  1
  O  O10  1  0.69276342  0.15497052  0.92303740  1
  O  O11  1  0.69276342  0.15497052  0.42199208  1
  O  O12  1  0.69201289  0.65432584  0.67381304  1
  O  O13  1  0.69201289  0.65432584  0.17186112  1
  O  O14  1  0.30723658  0.34502948  0.82696260  1
  O  O15  1  0.30798711  0.84567416  0.57813888  1
  O  O16  1  0.30798711  0.84567416  0.07618696  1
  O  O17  1  0.30723658  0.34502948  0.32800792  1
  O  O18  1  0.18871257  0.59383070  0.45308465  1
  O  O19  1  0.18949424  0.09252272  0.70373914  1
  F  F20  1  0.77758409  0.38835124  0.55582388  1
  F  F21  1  0.78630156  0.89313184  0.80343458  1
  F  F22  1  0.21369844  0.60686816  0.94656542  1
  F  F23  1  0.22241591  0.11164876  0.19417612  1
