# generated using pymatgen
data_Ni3OF5
_symmetry_space_group_name_H-M   'P 1'
_cell_length_a   4.70213348
_cell_length_b   7.77387008
_cell_length_c   5.63157848
_cell_angle_alpha   93.83759059
_cell_angle_beta   88.98076219
_cell_angle_gamma   90.75336602
_symmetry_Int_Tables_number   1
_chemical_formula_structural   Ni3OF5
_chemical_formula_sum   'Ni6 O2 F10'
_cell_volume   205.34662562
_cell_formula_units_Z   2
loop_
 _symmetry_equiv_pos_site_id
 _symmetry_equiv_pos_as_xyz
  1  'x, y, z'
loop_
 _atom_site_type_symbol
 _atom_site_label
 _atom_site_symmetry_multiplicity
 _atom_site_fract_x
 _atom_site_fract_y
 _atom_site_fract_z
 _atom_site_occupancy
  Ni  Ni0  1  0.50811558  0.00151252  0.49587814  1
  Ni  Ni1  1  0.49768428  0.66653665  0.16641168  1
  Ni  Ni2  1  0.50946706  0.33705663  0.82748733  1
  Ni  Ni3  1  0.99535921  0.66207203  0.66692139  1
  Ni  Ni4  1  0.98812932  0.32888304  0.34028333  1
  Ni  Ni5  1  0.99731021  0.00268791  0.00564423  1
  O  O6  1  0.80357114  0.43501138  0.63141724  1
  O  O7  1  0.80425893  0.10036486  0.29670289  1
  F  F8  1  0.80361012  0.76818684  0.96499534  1
  F  F9  1  0.69601743  0.10074399  0.79915225  1
  F  F10  1  0.69608613  0.76684929  0.46423030  1
  F  F11  1  0.69727404  0.43523573  0.13096351  1
  F  F12  1  0.30349806  0.56625812  0.86815676  1
  F  F13  1  0.30278433  0.23141706  0.53595719  1
  F  F14  1  0.30286636  0.89917168  0.20255543  1
  F  F15  1  0.20193241  0.23650023  0.03430396  1
  F  F16  1  0.19658394  0.56236977  0.36748363  1
  F  F17  1  0.19545045  0.89914227  0.70145640  1
