# generated using pymatgen
data_Mn6O7F5
_symmetry_space_group_name_H-M   'P 1'
_cell_length_a   4.67097086
_cell_length_b   7.72329981
_cell_length_c   5.61875786
_cell_angle_alpha   94.22777154
_cell_angle_beta   91.85101954
_cell_angle_gamma   88.94257827
_symmetry_Int_Tables_number   1
_chemical_formula_structural   Mn6O7F5
_chemical_formula_sum   'Mn6 O7 F5'
_cell_volume   202.01510033
_cell_formula_units_Z   1
loop_
 _symmetry_equiv_pos_site_id
 _symmetry_equiv_pos_as_xyz
  1  'x, y, z'
loop_
 _atom_site_type_symbol
 _atom_site_label
 _atom_site_symmetry_multiplicity
 _atom_site_fract_x
 _atom_site_fract_y
 _atom_site_fract_z
 _atom_site_occupancy
  Mn  Mn0  1  0.50048537  0.99957703  0.49936360  1
  Mn  Mn1  1  0.53703902  0.65785536  0.15743938  1
  Mn  Mn2  1  0.47835203  0.34813088  0.82972891  1
  Mn  Mn3  1  0.00803506  0.68628523  0.67189897  1
  Mn  Mn4  1  0.98505884  0.31932409  0.33928850  1
  Mn  Mn5  1  0.98638174  0.99051715  0.00357193  1
  O  O6  1  0.80672557  0.77039457  0.95454589  1
  O  O7  1  0.80649016  0.09097399  0.29174977  1
  O  O8  1  0.69532649  0.76529239  0.46112758  1
  O  O9  1  0.69364736  0.42808925  0.12778220  1
  O  O10  1  0.30132343  0.57368276  0.87715566  1
  O  O11  1  0.30662486  0.23548472  0.53462478  1
  O  O12  1  0.18341608  0.90434614  0.70733759  1
  F  F13  1  0.81658276  0.45410352  0.64280433  1
  F  F14  1  0.69695112  0.12356742  0.80513303  1
  F  F15  1  0.30981579  0.87905249  0.19150174  1
  F  F16  1  0.18904157  0.56224714  0.37469471  1
  F  F17  1  0.19870271  0.21107684  0.03025342  1
