# generated using pymatgen
data_Li3MnSi2O7
_symmetry_space_group_name_H-M   'P 1'
_cell_length_a   4.99454232
_cell_length_b   8.97578413
_cell_length_c   12.48482231
_cell_angle_alpha   90.00000000
_cell_angle_beta   90.00000000
_cell_angle_gamma   90.00000000
_symmetry_Int_Tables_number   1
_chemical_formula_structural   Li3MnSi2O7
_chemical_formula_sum   'Li12 Mn4 Si8 O28'
_cell_volume   559.69375632
_cell_formula_units_Z   4
loop_
 _symmetry_equiv_pos_site_id
 _symmetry_equiv_pos_as_xyz
  1  'x, y, z'
loop_
 _atom_site_type_symbol
 _atom_site_label
 _atom_site_symmetry_multiplicity
 _atom_site_fract_x
 _atom_site_fract_y
 _atom_site_fract_z
 _atom_site_occupancy
  Li  Li0  1  0.02003036  0.33605899  0.09343625  1
  Li  Li1  1  0.02003036  0.33605899  0.40656375  1
  Li  Li2  1  0.01137043  0.02919963  0.25000000  1
  Li  Li3  1  0.48862957  0.52919963  0.25000000  1
  Li  Li4  1  0.47996964  0.83605899  0.09343625  1
  Li  Li5  1  0.47996964  0.83605899  0.40656375  1
  Li  Li6  1  0.52003036  0.16394101  0.59343625  1
  Li  Li7  1  0.52003036  0.16394101  0.90656375  1
  Li  Li8  1  0.51137043  0.47080037  0.75000000  1
  Li  Li9  1  0.98862957  0.97080037  0.75000000  1
  Li  Li10  1  0.97996964  0.66394101  0.90656375  1
  Li  Li11  1  0.97996964  0.66394101  0.59343625  1
  Mn  Mn12  1  0.00000000  0.00000000  0.00000000  1
  Mn  Mn13  1  0.00000000  0.00000000  0.50000000  1
  Mn  Mn14  1  0.50000000  0.50000000  0.50000000  1
  Mn  Mn15  1  0.50000000  0.50000000  0.00000000  1
  Si  Si16  1  0.99577949  0.31191653  0.63158061  1
  Si  Si17  1  0.99577949  0.31191653  0.86841939  1
  Si  Si18  1  0.50422051  0.81191653  0.63158061  1
  Si  Si19  1  0.50422051  0.81191653  0.86841939  1
  Si  Si20  1  0.49577949  0.18808347  0.13158061  1
  Si  Si21  1  0.49577949  0.18808347  0.36841939  1
  Si  Si22  1  0.00422051  0.68808347  0.13158061  1
  Si  Si23  1  0.00422051  0.68808347  0.36841939  1
  O  O24  1  0.07906784  0.86739635  0.12439486  1
  O  O25  1  0.07906784  0.86739635  0.37560514  1
  O  O26  1  0.12372996  0.62832976  0.25000000  1
  O  O27  1  0.17411889  0.60601333  0.03632114  1
  O  O28  1  0.17411889  0.60601333  0.46367886  1
  O  O29  1  0.18764696  0.84709844  0.62529847  1
  O  O30  1  0.18764696  0.84709844  0.87470153  1
  O  O31  1  0.31235304  0.34709844  0.62529847  1
  O  O32  1  0.31235304  0.34709844  0.87470153  1
  O  O33  1  0.32588111  0.10601333  0.03632114  1
  O  O34  1  0.32588111  0.10601333  0.46367886  1
  O  O35  1  0.37627004  0.12832976  0.25000000  1
  O  O36  1  0.42093216  0.36739635  0.12439486  1
  O  O37  1  0.42093216  0.36739635  0.37560514  1
  O  O38  1  0.57906784  0.63260365  0.62439486  1
  O  O39  1  0.57906784  0.63260365  0.87560514  1
  O  O40  1  0.62372996  0.87167024  0.75000000  1
  O  O41  1  0.67411889  0.89398667  0.53632114  1
  O  O42  1  0.67411889  0.89398667  0.96367886  1
  O  O43  1  0.68764696  0.65290156  0.12529847  1
  O  O44  1  0.68764696  0.65290156  0.37470153  1
  O  O45  1  0.81235304  0.15290156  0.37470153  1
  O  O46  1  0.81235304  0.15290156  0.12529847  1
  O  O47  1  0.82588111  0.39398667  0.53632114  1
  O  O48  1  0.82588111  0.39398667  0.96367886  1
  O  O49  1  0.87627004  0.37167024  0.75000000  1
  O  O50  1  0.92093216  0.13260365  0.62439486  1
  O  O51  1  0.92093216  0.13260365  0.87560514  1
