# generated using pymatgen
data_LiMnPH2O5
_symmetry_space_group_name_H-M   'P 1'
_cell_length_a   11.18708003
_cell_length_b   8.20120018
_cell_length_c   5.15745565
_cell_angle_alpha   90.00000000
_cell_angle_beta   90.00000000
_cell_angle_gamma   90.00000000
_symmetry_Int_Tables_number   1
_chemical_formula_structural   LiMnPH2O5
_chemical_formula_sum   'Li4 Mn4 P4 H8 O20'
_cell_volume   473.18357331
_cell_formula_units_Z   4
loop_
 _symmetry_equiv_pos_site_id
 _symmetry_equiv_pos_as_xyz
  1  'x, y, z'
loop_
 _atom_site_type_symbol
 _atom_site_label
 _atom_site_symmetry_multiplicity
 _atom_site_fract_x
 _atom_site_fract_y
 _atom_site_fract_z
 _atom_site_occupancy
  Li  Li0  1  0.11556641  0.12253186  0.19504175  1
  Li  Li1  1  0.38443359  0.62253186  0.69504175  1
  Li  Li2  1  0.61556641  0.37746814  0.19504175  1
  Li  Li3  1  0.88443359  0.87746814  0.69504175  1
  Mn  Mn4  1  0.19597848  0.31159400  0.70132616  1
  Mn  Mn5  1  0.30402152  0.81159400  0.20132616  1
  Mn  Mn6  1  0.69597848  0.18840600  0.70132616  1
  Mn  Mn7  1  0.80402152  0.68840600  0.20132616  1
  P  P8  1  0.16429579  0.91166383  0.69113353  1
  P  P9  1  0.33570421  0.41166383  0.19113353  1
  P  P10  1  0.66429579  0.58833617  0.69113353  1
  P  P11  1  0.83570421  0.08833617  0.19113353  1
  H  H12  1  0.00972142  0.57046978  0.37328945  1
  H  H13  1  0.04040649  0.68786906  0.14365070  1
  H  H14  1  0.45959351  0.18786906  0.64365070  1
  H  H15  1  0.49027858  0.07046978  0.87328945  1
  H  H16  1  0.50972142  0.92953022  0.37328945  1
  H  H17  1  0.54040649  0.81213094  0.14365070  1
  H  H18  1  0.95959351  0.31213094  0.64365070  1
  H  H19  1  0.99027858  0.42953022  0.87328945  1
  O  O20  1  0.01108416  0.40362968  0.69207903  1
  O  O21  1  0.04847526  0.82285599  0.62701075  1
  O  O22  1  0.16785737  0.08363032  0.55756858  1
  O  O23  1  0.18015746  0.93671105  0.99114753  1
  O  O24  1  0.22303042  0.31480962  0.09402053  1
  O  O25  1  0.27696958  0.81480962  0.59402053  1
  O  O26  1  0.31984254  0.43671105  0.49114753  1
  O  O27  1  0.33214263  0.58363032  0.05756858  1
  O  O28  1  0.45152474  0.32285599  0.12701075  1
  O  O29  1  0.48891584  0.90362968  0.19207903  1
  O  O30  1  0.51108416  0.09637032  0.69207903  1
  O  O31  1  0.54847526  0.67714401  0.62701075  1
  O  O32  1  0.66785737  0.41636968  0.55756858  1
  O  O33  1  0.68015746  0.56328895  0.99114753  1
  O  O34  1  0.72303042  0.18519038  0.09402053  1
  O  O35  1  0.77696958  0.68519038  0.59402053  1
  O  O36  1  0.81984254  0.06328895  0.49114753  1
  O  O37  1  0.83214263  0.91636968  0.05756858  1
  O  O38  1  0.95152474  0.17714401  0.12701075  1
  O  O39  1  0.98891584  0.59637032  0.19207903  1
