# generated using pymatgen
data_Sr22Nb10O47
_symmetry_space_group_name_H-M   'P 1'
_cell_length_a   6.00792711
_cell_length_b   6.52284143
_cell_length_c   50.17583712
_cell_angle_alpha   54.69572739
_cell_angle_beta   62.96240165
_cell_angle_gamma   60.21875885
_symmetry_Int_Tables_number   1
_chemical_formula_structural   Sr22Nb10O47
_chemical_formula_sum   'Sr22 Nb10 O47'
_cell_volume   1353.25568156
_cell_formula_units_Z   1
loop_
 _symmetry_equiv_pos_site_id
 _symmetry_equiv_pos_as_xyz
  1  'x, y, z'
loop_
 _atom_site_type_symbol
 _atom_site_label
 _atom_site_symmetry_multiplicity
 _atom_site_fract_x
 _atom_site_fract_y
 _atom_site_fract_z
 _atom_site_occupancy
  Sr  Sr0  1  0.15238436  0.23497576  0.02800597  1
  Sr  Sr1  1  0.51607914  0.57970018  0.05802361  1
  Sr  Sr2  1  0.16026803  0.28084504  0.15709869  1
  Sr  Sr3  1  0.49528572  0.56999742  0.19376155  1
  Sr  Sr4  1  0.11823974  0.26066387  0.30423975  1
  Sr  Sr5  1  0.71165227  0.80958106  0.09279867  1
  Sr  Sr6  1  0.11957278  0.27333832  0.40693550  1
  Sr  Sr7  1  0.41088268  0.60504367  0.31878996  1
  Sr  Sr8  1  0.61064374  0.83347000  0.22990012  1
  Sr  Sr9  1  0.39216102  0.48278745  0.44750313  1
  Sr  Sr10  1  0.58846074  0.77242906  0.36144875  1
  Sr  Sr11  1  0.24922632  0.24605993  0.54144821  1
  Sr  Sr12  1  0.70258608  0.71270328  0.47369482  1
  Sr  Sr13  1  0.19854079  0.29053637  0.64966490  1
  Sr  Sr14  1  0.70489714  0.76303274  0.60088437  1
  Sr  Sr15  1  0.12084934  0.28813819  0.79896888  1
  Sr  Sr16  1  0.38545245  0.60637690  0.81895629  1
  Sr  Sr17  1  0.81267910  0.85250379  0.71539098  1
  Sr  Sr18  1  0.12556575  0.34121086  0.90900750  1
  Sr  Sr19  1  0.37676086  0.64921454  0.94994119  1
  Sr  Sr20  1  0.61061467  0.79391131  0.85990070  1
  Sr  Sr21  1  0.66931002  0.88610356  0.96417180  1
  Nb  Nb22  1  0.86863597  0.02371898  0.00619910  1
  Nb  Nb23  1  0.82208955  0.05618206  0.13140367  1
  Nb  Nb24  1  0.82969264  0.04719954  0.25885238  1
  Nb  Nb25  1  0.85592976  0.01306372  0.38424899  1
  Nb  Nb26  1  0.96206210  0.94237954  0.49793911  1
  Nb  Nb27  1  0.86884914  0.07065425  0.62928820  1
  Nb  Nb28  1  0.56656156  0.52926190  0.56397735  1
  Nb  Nb29  1  0.85870354  0.07650752  0.76049097  1
  Nb  Nb30  1  0.61107034  0.57982699  0.69498892  1
  Nb  Nb31  1  0.89005625  0.05764867  0.87930483  1
  O  O32  1  0.54351896  0.96723883  0.04914217  1
  O  O33  1  0.81251411  0.37866633  0.99620970  1
  O  O34  1  0.08099183  0.83626760  0.04220563  1
  O  O35  1  0.87751378  0.68221022  0.01239560  1
  O  O36  1  0.84659696  0.14611564  0.08624969  1
  O  O37  1  0.55695429  0.96613888  0.17766981  1
  O  O38  1  0.56986877  0.41553322  0.12181196  1
  O  O39  1  0.13190907  0.02588824  0.13717534  1
  O  O40  1  0.83446038  0.69748228  0.14346706  1
  O  O41  1  0.84044687  0.14691407  0.21111955  1
  O  O42  1  0.58115174  0.42062663  0.24611913  1
  O  O43  1  0.59397511  0.97055207  0.30223942  1
  O  O44  1  0.15727610  0.01743729  0.26069353  1
  O  O45  1  0.17252442  0.79882482  0.35561430  1
  O  O46  1  0.84813545  0.69690017  0.26860396  1
  O  O47  1  0.66924704  0.17001218  0.34766146  1
  O  O48  1  0.56137231  0.19394242  0.41050031  1
  O  O49  1  0.99954346  0.34461028  0.35169677  1
  O  O50  1  0.10818258  0.86411375  0.41131665  1
  O  O51  1  0.28284943  0.70223707  0.48179427  1
  O  O52  1  0.74200133  0.68913267  0.40942477  1
  O  O53  1  0.77133872  0.10296079  0.46590201  1
  O  O54  1  0.71835787  0.95181118  0.53916614  1
  O  O55  1  0.08032950  0.22879480  0.48140430  1
  O  O56  1  0.27441592  0.75588620  0.58101104  1
  O  O57  1  0.40567413  0.50865900  0.54216905  1
  O  O58  1  0.22073676  0.90511746  0.62750002  1
  O  O59  1  0.84946182  0.59126144  0.52164630  1
  O  O60  1  0.57342700  0.17842607  0.60480851  1
  O  O61  1  0.55474842  0.94733683  0.68014581  1
  O  O62  1  0.89812570  0.38511451  0.58471639  1
  O  O63  1  0.79838863  0.27780453  0.64898884  1
  O  O64  1  0.28459376  0.58341342  0.70174042  1
  O  O65  1  0.83814174  0.69007539  0.64794638  1
  O  O66  1  0.88939699  0.21148764  0.70865556  1
  O  O67  1  0.59040597  0.06598842  0.79891879  1
  O  O68  1  0.64791973  0.48664829  0.73895163  1
  O  O69  1  0.14965141  0.01270680  0.77193583  1
  O  O70  1  0.20482748  0.81370756  0.85568768  1
  O  O71  1  0.86456330  0.75125924  0.76757962  1
  O  O72  1  0.72051846  0.20435011  0.84166032  1
  O  O73  1  0.58551181  0.25318780  0.90252895  1
  O  O74  1  0.05122549  0.36788187  0.84784802  1
  O  O75  1  0.09119454  0.90766451  0.91316634  1
  O  O76  1  0.18570903  0.00226125  0.96798185  1
  O  O77  1  0.57907953  0.19669844  0.98103909  1
  O  O78  1  0.74645874  0.74298534  0.90563516  1
