# generated using pymatgen
data_Fe2OF3
_symmetry_space_group_name_H-M   'P 1'
_cell_length_a   9.30734220
_cell_length_b   5.76828019
_cell_length_c   5.76828019
_cell_angle_alpha   72.11552479
_cell_angle_beta   84.73166152
_cell_angle_gamma   84.73166152
_symmetry_Int_Tables_number   1
_chemical_formula_structural   Fe2OF3
_chemical_formula_sum   'Fe8 O4 F12'
_cell_volume   292.81192488
_cell_formula_units_Z   4
loop_
 _symmetry_equiv_pos_site_id
 _symmetry_equiv_pos_as_xyz
  1  'x, y, z'
loop_
 _atom_site_type_symbol
 _atom_site_label
 _atom_site_symmetry_multiplicity
 _atom_site_fract_x
 _atom_site_fract_y
 _atom_site_fract_z
 _atom_site_occupancy
  Fe  Fe0  1  0.62395944  0.85175628  0.89959343  1
  Fe  Fe1  1  0.87433191  0.62633125  0.62632270  1
  Fe  Fe2  1  0.50000000  0.50830449  0.49169551  1
  Fe  Fe3  1  0.24918835  0.77583843  0.72958049  1
  Fe  Fe4  1  0.75081165  0.27041951  0.22416157  1
  Fe  Fe5  1  0.12566809  0.37367730  0.37366875  1
  Fe  Fe6  1  0.37604056  0.10040657  0.14824372  1
  Fe  Fe7  1  0.00000000  0.96542352  0.03457648  1
  O  O8  1  0.75405242  0.57027439  0.92263080  1
  O  O9  1  0.24594758  0.07736920  0.42972561  1
  O  O10  1  0.50000000  0.81146055  0.18853945  1
  O  O11  1  0.00000000  0.67007626  0.32992374  1
  F  F12  1  0.50000000  0.19266808  0.80733192  1
  F  F13  1  0.74890852  0.95147707  0.54579046  1
  F  F14  1  0.22927318  0.98577287  0.97091054  1
  F  F15  1  0.47680346  0.73447830  0.72436510  1
  F  F16  1  0.72641470  0.47042477  0.47981965  1
  F  F17  1  0.97656037  0.22690763  0.23054018  1
  F  F18  1  0.27358530  0.52018035  0.52957523  1
  F  F19  1  0.02343963  0.76945982  0.77309237  1
  F  F20  1  0.52319654  0.27563490  0.26552170  1
  F  F21  1  0.77072682  0.02908946  0.01422713  1
  F  F22  1  0.00000000  0.28836044  0.71163956  1
  F  F23  1  0.25109148  0.45420954  0.04852293  1
