# generated using pymatgen
data_Mn6O7F5
_symmetry_space_group_name_H-M   'P 1'
_cell_length_a   4.69303799
_cell_length_b   7.67017445
_cell_length_c   5.64089959
_cell_angle_alpha   94.70252423
_cell_angle_beta   94.06830102
_cell_angle_gamma   87.79214476
_symmetry_Int_Tables_number   1
_chemical_formula_structural   Mn6O7F5
_chemical_formula_sum   'Mn6 O7 F5'
_cell_volume   201.74945155
_cell_formula_units_Z   1
loop_
 _symmetry_equiv_pos_site_id
 _symmetry_equiv_pos_as_xyz
  1  'x, y, z'
loop_
 _atom_site_type_symbol
 _atom_site_label
 _atom_site_symmetry_multiplicity
 _atom_site_fract_x
 _atom_site_fract_y
 _atom_site_fract_z
 _atom_site_occupancy
  Mn  Mn0  1  0.50524916  0.00305070  0.50774699  1
  Mn  Mn1  1  0.51245626  0.65393235  0.16845405  1
  Mn  Mn2  1  0.49718559  0.33791915  0.83243558  1
  Mn  Mn3  1  0.02076921  0.68214907  0.66253623  1
  Mn  Mn4  1  0.98127890  0.31665793  0.34129636  1
  Mn  Mn5  1  0.98346323  0.00678167  0.98864542  1
  O  O6  1  0.81223458  0.09465170  0.28142895  1
  O  O7  1  0.69333814  0.10944293  0.79281401  1
  O  O8  1  0.68859664  0.76826305  0.46818212  1
  O  O9  1  0.70181165  0.42712542  0.12705501  1
  O  O10  1  0.30510504  0.56762248  0.87659438  1
  O  O11  1  0.31266665  0.23226760  0.53109011  1
  O  O12  1  0.18607677  0.90513580  0.71739292  1
  F  F13  1  0.81409227  0.45235375  0.63885207  1
  F  F14  1  0.79976910  0.77848733  0.97576207  1
  F  F15  1  0.29865161  0.89291693  0.20133527  1
  F  F16  1  0.18715367  0.54959688  0.36139685  1
  F  F17  1  0.20009952  0.22164424  0.02698063  1
