# generated using pymatgen
data_Li2MnCSO7
_symmetry_space_group_name_H-M   'P 1'
_cell_length_a   9.35344009
_cell_length_b   6.49271249
_cell_length_c   4.93651621
_cell_angle_alpha   90.00000000
_cell_angle_beta   82.02407067
_cell_angle_gamma   90.00000000
_symmetry_Int_Tables_number   1
_chemical_formula_structural   Li2MnCSO7
_chemical_formula_sum   'Li4 Mn2 C2 S2 O14'
_cell_volume   296.89062678
_cell_formula_units_Z   2
loop_
 _symmetry_equiv_pos_site_id
 _symmetry_equiv_pos_as_xyz
  1  'x, y, z'
loop_
 _atom_site_type_symbol
 _atom_site_label
 _atom_site_symmetry_multiplicity
 _atom_site_fract_x
 _atom_site_fract_y
 _atom_site_fract_z
 _atom_site_occupancy
  Li  Li0  1  0.16450427  0.51456991  0.20721473  1
  Li  Li1  1  0.16450427  0.98543009  0.20721473  1
  Li  Li2  1  0.83549573  0.01456991  0.79278527  1
  Li  Li3  1  0.83549573  0.48543009  0.79278527  1
  Mn  Mn4  1  0.36250669  0.75000000  0.74838000  1
  Mn  Mn5  1  0.63749331  0.25000000  0.25162000  1
  C  C6  1  0.07598934  0.75000000  0.72500629  1
  C  C7  1  0.92401066  0.25000000  0.27499371  1
  S  S8  1  0.40072506  0.25000000  0.77201299  1
  S  S9  1  0.59927494  0.75000000  0.22798701  1
  O  O10  1  0.05782342  0.25000000  0.30683405  1
  O  O11  1  0.11738397  0.75000000  0.96677210  1
  O  O12  1  0.17866850  0.75000000  0.51221904  1
  O  O13  1  0.31496721  0.06572079  0.87428334  1
  O  O14  1  0.31496721  0.43427921  0.87428334  1
  O  O15  1  0.45493786  0.75000000  0.13742238  1
  O  O16  1  0.42233571  0.25000000  0.46580541  1
  O  O17  1  0.57766429  0.75000000  0.53419459  1
  O  O18  1  0.54506214  0.25000000  0.86257762  1
  O  O19  1  0.68503279  0.56572079  0.12571666  1
  O  O20  1  0.68503279  0.93427921  0.12571666  1
  O  O21  1  0.82133150  0.25000000  0.48778096  1
  O  O22  1  0.88261603  0.25000000  0.03322790  1
  O  O23  1  0.94217658  0.75000000  0.69316595  1
