# generated using pymatgen
data_LiSbP2O7
_symmetry_space_group_name_H-M   'P 1'
_cell_length_a   8.30004209
_cell_length_b   8.38308793
_cell_length_c   17.22302238
_cell_angle_alpha   89.99904349
_cell_angle_beta   89.99985574
_cell_angle_gamma   89.99897189
_symmetry_Int_Tables_number   1
_chemical_formula_structural   LiSbP2O7
_chemical_formula_sum   'Li8 Sb8 P16 O56'
_cell_volume   1198.37759843
_cell_formula_units_Z   8
loop_
 _symmetry_equiv_pos_site_id
 _symmetry_equiv_pos_as_xyz
  1  'x, y, z'
loop_
 _atom_site_type_symbol
 _atom_site_label
 _atom_site_symmetry_multiplicity
 _atom_site_fract_x
 _atom_site_fract_y
 _atom_site_fract_z
 _atom_site_occupancy
  Li  Li0  1  0.81719136  0.12970381  0.75613541  1
  Li  Li1  1  0.80006914  0.57446494  0.74688729  1
  Li  Li2  1  0.69995416  0.07446213  0.24688782  1
  Li  Li3  1  0.68285120  0.62970611  0.25613360  1
  Li  Li4  1  0.31717564  0.12970020  0.74386491  1
  Li  Li5  1  0.30005073  0.57445961  0.75310444  1
  Li  Li6  1  0.19996289  0.07444091  0.25309667  1
  Li  Li7  1  0.18285684  0.62972732  0.24386470  1
  Sb  Sb8  1  0.98726383  0.26671207  0.11197663  1
  Sb  Sb9  1  0.98581566  0.76531006  0.38238345  1
  Sb  Sb10  1  0.51418295  0.26533019  0.88238131  1
  Sb  Sb11  1  0.51272556  0.76671966  0.61197039  1
  Sb  Sb12  1  0.48727673  0.26669883  0.38802877  1
  Sb  Sb13  1  0.48581241  0.76532726  0.11761941  1
  Sb  Sb14  1  0.01417462  0.26533867  0.61761580  1
  Sb  Sb15  1  0.01273401  0.76670702  0.88802818  1
  P  P16  1  0.90705090  0.16471922  0.92432936  1
  P  P17  1  0.91621368  0.87133300  0.68130164  1
  P  P18  1  0.90787218  0.85980089  0.19171767  1
  P  P19  1  0.87884695  0.15812307  0.41916408  1
  P  P20  1  0.62116469  0.65811355  0.91916165  1
  P  P21  1  0.59211069  0.35981930  0.69171040  1
  P  P22  1  0.58379618  0.37131323  0.18130833  1
  P  P23  1  0.59293644  0.66469245  0.42432099  1
  P  P24  1  0.40703561  0.16475893  0.57566766  1
  P  P25  1  0.41619261  0.87131493  0.81870039  1
  P  P26  1  0.40789621  0.85979750  0.30828099  1
  P  P27  1  0.37883254  0.15809799  0.08085138  1
  P  P28  1  0.12115998  0.65812871  0.58083765  1
  P  P29  1  0.09211210  0.35980594  0.80828933  1
  P  P30  1  0.08382138  0.37129313  0.31869188  1
  P  P31  1  0.09294986  0.66475704  0.07566827  1
  O  O32  1  0.99652806  0.01668385  0.20079255  1
  O  O33  1  0.00195154  0.14070201  0.48343263  1
  O  O34  1  0.01644746  0.49994065  0.07116051  1
  O  O35  1  0.92322799  0.31115577  0.36225785  1
  O  O36  1  0.95571889  0.77958860  0.11051807  1
  O  O37  1  0.95257782  0.73519454  0.25593779  1
  O  O38  1  0.95081541  0.89487954  0.76811120  1
  O  O39  1  0.86231813  0.23425231  0.00245896  1
  O  O40  1  0.87555225  0.03919814  0.64775947  1
  O  O41  1  0.86695518  0.01242627  0.36343826  1
  O  O42  1  0.79002108  0.70749209  0.94797661  1
  O  O43  1  0.77508973  0.37645672  0.68825942  1
  O  O44  1  0.76157715  0.17006762  0.86710986  1
  O  O45  1  0.71621121  0.24757720  0.16832541  1
  O  O46  1  0.78381756  0.74758500  0.66834457  1
  O  O47  1  0.73842934  0.67002733  0.36711976  1
  O  O48  1  0.72489748  0.87643308  0.18825716  1
  O  O49  1  0.71000785  0.20753706  0.44797963  1
  O  O50  1  0.63303112  0.51243130  0.86342394  1
  O  O51  1  0.62443990  0.53919327  0.14777973  1
  O  O52  1  0.63764737  0.73420651  0.50246377  1
  O  O53  1  0.54923431  0.39481235  0.26811871  1
  O  O54  1  0.54739878  0.23523685  0.75594593  1
  O  O55  1  0.54430375  0.27954777  0.61052160  1
  O  O56  1  0.57680114  0.81116460  0.86226159  1
  O  O57  1  0.48352782  0.99993705  0.57114200  1
  O  O58  1  0.49807409  0.64069776  0.98342528  1
  O  O59  1  0.50342863  0.51668407  0.70076223  1
  O  O60  1  0.49655457  0.01664969  0.29921823  1
  O  O61  1  0.50194814  0.14065777  0.01659165  1
  O  O62  1  0.51645079  0.49992255  0.42884943  1
  O  O63  1  0.42319564  0.31115637  0.13774706  1
  O  O64  1  0.45571019  0.77952837  0.38947369  1
  O  O65  1  0.45259412  0.73519069  0.24405418  1
  O  O66  1  0.45079083  0.89488957  0.73188722  1
  O  O67  1  0.36231939  0.23426065  0.49755154  1
  O  O68  1  0.37554689  0.03919467  0.85224761  1
  O  O69  1  0.36693025  0.01243149  0.13659022  1
  O  O70  1  0.29002480  0.70749577  0.55201807  1
  O  O71  1  0.27507604  0.37645350  0.81174444  1
  O  O72  1  0.26157746  0.17007515  0.63289332  1
  O  O73  1  0.21621428  0.24757299  0.33163836  1
  O  O74  1  0.28380512  0.74758709  0.83164921  1
  O  O75  1  0.23841703  0.67006898  0.13288660  1
  O  O76  1  0.22490451  0.87641698  0.31173751  1
  O  O77  1  0.20999195  0.20751584  0.05202240  1
  O  O78  1  0.13301660  0.51244725  0.63657053  1
  O  O79  1  0.12446710  0.53918141  0.35221033  1
  O  O80  1  0.13766101  0.73422736  0.99754316  1
  O  O81  1  0.04919164  0.39481869  0.23186638  1
  O  O82  1  0.04739866  0.23523119  0.74405634  1
  O  O83  1  0.04429364  0.27953139  0.88947930  1
  O  O84  1  0.07681762  0.81118224  0.63773631  1
  O  O85  1  0.98351071  -0.00007010  0.92886274  1
  O  O86  1  0.99806014  0.64071651  0.51657361  1
  O  O87  1  0.00341808  0.51668198  0.79923464  1
