# generated using pymatgen
data_Cu3Sb(PO4)4
_symmetry_space_group_name_H-M   'P 1'
_cell_length_a   4.88927588
_cell_length_b   9.85941564
_cell_length_c   5.97833896
_cell_angle_alpha   90.00000000
_cell_angle_beta   90.00000000
_cell_angle_gamma   88.78534899
_symmetry_Int_Tables_number   1
_chemical_formula_structural   Cu3Sb(PO4)4
_chemical_formula_sum   'Cu3 Sb1 P4 O16'
_cell_volume   288.12348228
_cell_formula_units_Z   1
loop_
 _symmetry_equiv_pos_site_id
 _symmetry_equiv_pos_as_xyz
  1  'x, y, z'
loop_
 _atom_site_type_symbol
 _atom_site_label
 _atom_site_symmetry_multiplicity
 _atom_site_fract_x
 _atom_site_fract_y
 _atom_site_fract_z
 _atom_site_occupancy
  Cu  Cu0  1  0.04149964  0.72728345  0.75000000  1
  Cu  Cu1  1  0.41958372  0.21283246  0.75000000  1
  Cu  Cu2  1  0.56623990  0.77441674  0.25000000  1
  Sb  Sb3  1  0.96419960  0.28229101  0.25000000  1
  P  P4  1  0.08959745  0.60434977  0.25000000  1
  P  P5  1  0.40895531  0.09064518  0.25000000  1
  P  P6  1  0.58166689  0.90233984  0.75000000  1
  P  P7  1  0.92261618  0.40954047  0.75000000  1
  O  O8  1  0.18445042  0.44569042  0.25000000  1
  O  O9  1  0.22878286  0.66883050  0.04521692  1
  O  O10  1  0.22878286  0.66883050  0.45478308  1
  O  O11  1  0.22945879  0.38449044  0.75000000  1
  O  O12  1  0.27073722  0.88876612  0.75000000  1
  O  O13  1  0.25191009  0.17149169  0.05510676  1
  O  O14  1  0.25191009  0.17149169  0.44489324  1
  O  O15  1  0.35321205  0.94181491  0.25000000  1
  O  O16  1  0.64799603  0.05553784  0.75000000  1
  O  O17  1  0.73555524  0.82864374  0.55022156  1
  O  O18  1  0.73555524  0.82864374  0.94977844  1
  O  O19  1  0.72042277  0.11929787  0.25000000  1
  O  O20  1  0.77617839  0.60447253  0.25000000  1
  O  O21  1  0.78018650  0.33123518  0.54265410  1
  O  O22  1  0.78018650  0.33123518  0.95734590  1
  O  O23  1  0.83031728  0.55582672  0.75000000  1
