# generated using pymatgen
data_Mn8O13F3
_symmetry_space_group_name_H-M   'P 1'
_cell_length_a   6.74861331
_cell_length_b   5.52282000
_cell_length_c   6.70285450
_cell_angle_alpha   89.68715210
_cell_angle_beta   96.06566959
_cell_angle_gamma   89.35955428
_symmetry_Int_Tables_number   1
_chemical_formula_structural   Mn8O13F3
_chemical_formula_sum   'Mn8 O13 F3'
_cell_volume   248.40489463
_cell_formula_units_Z   1
loop_
 _symmetry_equiv_pos_site_id
 _symmetry_equiv_pos_as_xyz
  1  'x, y, z'
loop_
 _atom_site_type_symbol
 _atom_site_label
 _atom_site_symmetry_multiplicity
 _atom_site_fract_x
 _atom_site_fract_y
 _atom_site_fract_z
 _atom_site_occupancy
  Mn  Mn0  1  0.37486820  0.35276459  0.12703113  1
  Mn  Mn1  1  0.11551146  0.66667587  0.37703133  1
  Mn  Mn2  1  0.87759362  0.17137467  0.13503361  1
  Mn  Mn3  1  0.37491690  0.11660495  0.62206296  1
  Mn  Mn4  1  0.13425154  0.85768291  0.87956552  1
  Mn  Mn5  1  0.62752397  0.85338053  0.36841552  1
  Mn  Mn6  1  0.62575072  0.64754639  0.87105907  1
  Mn  Mn7  1  0.87567831  0.35777579  0.62720070  1
  O  O8  1  0.15474595  0.11534838  0.08007218  1
  O  O9  1  0.17072420  0.61656101  0.09871265  1
  O  O10  1  0.57348896  0.61160366  0.15097378  1
  O  O11  1  0.07714315  0.61545680  0.65941601  1
  O  O12  1  0.34620718  0.88447953  0.42044524  1
  O  O13  1  0.09698355  0.10418600  0.67208700  1
  O  O14  1  0.59820909  0.11397261  0.16895847  1
  O  O15  1  0.40400975  0.88376174  0.82923626  1
  O  O16  1  0.65375568  0.10213597  0.57742779  1
  O  O17  1  0.89960874  0.89560793  0.32114899  1
  O  O18  1  0.92896562  0.39326564  0.35082119  1
  O  O19  1  0.67227125  0.60898427  0.58851168  1
  O  O20  1  0.82267203  0.38701895  0.90416287  1
  F  F21  1  0.32908897  0.38007142  0.42909992  1
  F  F22  1  0.41185787  0.36875368  0.82118444  1
  F  F23  1  0.85417427  0.89498769  0.92034070  1
