# generated using pymatgen
data_Li5FeO4
_symmetry_space_group_name_H-M   'P 1'
_cell_length_a   8.11567702
_cell_length_b   7.06914267
_cell_length_c   6.93479401
_cell_angle_alpha   90.00000000
_cell_angle_beta   90.00000000
_cell_angle_gamma   90.00000000
_symmetry_Int_Tables_number   1
_chemical_formula_structural   Li5FeO4
_chemical_formula_sum   'Li20 Fe4 O16'
_cell_volume   397.85522608
_cell_formula_units_Z   4
loop_
 _symmetry_equiv_pos_site_id
 _symmetry_equiv_pos_as_xyz
  1  'x, y, z'
loop_
 _atom_site_type_symbol
 _atom_site_label
 _atom_site_symmetry_multiplicity
 _atom_site_fract_x
 _atom_site_fract_y
 _atom_site_fract_z
 _atom_site_occupancy
  Li  Li0  1  0.00000000  0.50000000  0.27507169  1
  Li  Li1  1  0.00000000  0.50000000  0.72492831  1
  Li  Li2  1  0.07659157  0.75955889  0.50000000  1
  Li  Li3  1  0.15262751  0.98645266  0.25369014  1
  Li  Li4  1  0.15262751  0.98645266  0.74630986  1
  Li  Li5  1  0.25261978  0.74643831  0.00000000  1
  Li  Li6  1  0.24738022  0.24643831  0.50000000  1
  Li  Li7  1  0.34737249  0.48645266  0.24630986  1
  Li  Li8  1  0.34737249  0.48645266  0.75369014  1
  Li  Li9  1  0.42340843  0.25955889  0.00000000  1
  Li  Li10  1  0.50000000  0.00000000  0.77507169  1
  Li  Li11  1  0.50000000  0.00000000  0.22492831  1
  Li  Li12  1  0.57659157  0.74044111  0.00000000  1
  Li  Li13  1  0.65262751  0.51354734  0.24630986  1
  Li  Li14  1  0.65262751  0.51354734  0.75369014  1
  Li  Li15  1  0.75261978  0.75356169  0.50000000  1
  Li  Li16  1  0.74738022  0.25356169  0.00000000  1
  Li  Li17  1  0.84737249  0.01354734  0.25369014  1
  Li  Li18  1  0.84737249  0.01354734  0.74630986  1
  Li  Li19  1  0.92340843  0.24044111  0.50000000  1
  Fe  Fe20  1  0.11707562  0.24190066  0.00000000  1
  Fe  Fe21  1  0.38292438  0.74190066  0.50000000  1
  Fe  Fe22  1  0.61707562  0.25809934  0.50000000  1
  Fe  Fe23  1  0.88292438  0.75809934  0.00000000  1
  O  O24  1  0.01059917  0.22084653  0.24222922  1
  O  O25  1  0.01059917  0.22084653  0.75777078  1
  O  O26  1  0.22610149  0.52979539  0.50000000  1
  O  O27  1  0.23902909  0.46964294  0.00000000  1
  O  O28  1  0.26097091  0.96964294  0.50000000  1
  O  O29  1  0.27389851  0.02979539  0.00000000  1
  O  O30  1  0.48940083  0.72084653  0.74222922  1
  O  O31  1  0.48940083  0.72084653  0.25777078  1
  O  O32  1  0.51059917  0.27915347  0.25777078  1
  O  O33  1  0.51059917  0.27915347  0.74222922  1
  O  O34  1  0.72610149  0.97020461  0.00000000  1
  O  O35  1  0.73902909  0.03035706  0.50000000  1
  O  O36  1  0.76097091  0.53035706  0.00000000  1
  O  O37  1  0.77389851  0.47020461  0.50000000  1
  O  O38  1  0.98940083  0.77915347  0.24222922  1
  O  O39  1  0.98940083  0.77915347  0.75777078  1
