# generated using pymatgen
data_Mn2OF3
_symmetry_space_group_name_H-M   'P 1'
_cell_length_a   4.83055032
_cell_length_b   13.64285087
_cell_length_c   5.80410528
_cell_angle_alpha   101.12777977
_cell_angle_beta   88.97626542
_cell_angle_gamma   90.84811586
_symmetry_Int_Tables_number   1
_chemical_formula_structural   Mn2OF3
_chemical_formula_sum   'Mn10 O5 F15'
_cell_volume   375.22848356
_cell_formula_units_Z   5
loop_
 _symmetry_equiv_pos_site_id
 _symmetry_equiv_pos_as_xyz
  1  'x, y, z'
loop_
 _atom_site_type_symbol
 _atom_site_label
 _atom_site_symmetry_multiplicity
 _atom_site_fract_x
 _atom_site_fract_y
 _atom_site_fract_z
 _atom_site_occupancy
  Mn  Mn0  1  0.49563442  0.99810363  0.50266630  1
  Mn  Mn1  1  0.49728425  0.40001007  0.29988969  1
  Mn  Mn2  1  0.54839846  0.59535638  0.68613690  1
  Mn  Mn3  1  0.47786401  0.21361780  0.90434165  1
  Mn  Mn4  1  0.49644354  0.79890696  0.09694894  1
  Mn  Mn5  1  0.97035676  0.18585909  0.40099394  1
  Mn  Mn6  1  0.01464056  0.40415835  0.79221395  1
  Mn  Mn7  1  0.00992256  0.80194959  0.60716677  1
  Mn  Mn8  1  0.98737907  0.60160218  0.22077958  1
  Mn  Mn9  1  0.99263694  0.00035039  0.99704909  1
  O  O10  1  0.81789662  0.66570779  0.52981545  1
  O  O11  1  0.79290093  0.05154987  0.30263213  1
  O  O12  1  0.69195173  0.45987344  0.59103458  1
  O  O13  1  0.31210614  0.34411236  0.00064584  1
  O  O14  1  0.19237647  0.93951073  0.69444053  1
  F  F15  1  0.80877904  0.86028675  0.92217355  1
  F  F16  1  0.80346727  0.26192790  0.72708805  1
  F  F17  1  0.79731334  0.46082737  0.10700700  1
  F  F18  1  0.68763751  0.07325319  0.82144157  1
  F  F19  1  0.69573218  0.26193640  0.22737726  1
  F  F20  1  0.69083010  0.86038076  0.42644169  1
  F  F21  1  0.70163793  0.65985268  0.02413631  1
  F  F22  1  0.30532295  0.13953301  0.57738120  1
  F  F23  1  0.29503248  0.93905628  0.18569917  1
  F  F24  1  0.32390550  0.72963133  0.76834645  1
  F  F25  1  0.29964081  0.53531072  0.37081808  1
  F  F26  1  0.21138072  0.54712124  0.88377093  1
  F  F27  1  0.19845093  0.32810666  0.47661115  1
  F  F28  1  0.19322499  0.13846399  0.07080511  1
  F  F29  1  0.18985181  0.74364308  0.28414713  1
