# generated using pymatgen
data_Mn6O5F7
_symmetry_space_group_name_H-M   'P 1'
_cell_length_a   4.70102613
_cell_length_b   5.71429816
_cell_length_c   15.62877234
_cell_angle_alpha   89.33083054
_cell_angle_beta   89.60923525
_cell_angle_gamma   90.05582057
_symmetry_Int_Tables_number   1
_chemical_formula_structural   Mn6O5F7
_chemical_formula_sum   'Mn12 O10 F14'
_cell_volume   419.79809674
_cell_formula_units_Z   2
loop_
 _symmetry_equiv_pos_site_id
 _symmetry_equiv_pos_as_xyz
  1  'x, y, z'
loop_
 _atom_site_type_symbol
 _atom_site_label
 _atom_site_symmetry_multiplicity
 _atom_site_fract_x
 _atom_site_fract_y
 _atom_site_fract_z
 _atom_site_occupancy
  Mn  Mn0  1  0.00149929  0.15503640  0.41049759  1
  Mn  Mn1  1  0.98747764  0.84488278  0.24642943  1
  Mn  Mn2  1  0.00101948  0.17010729  0.07145592  1
  Mn  Mn3  1  0.04924682  0.15749238  0.74964467  1
  Mn  Mn4  1  0.04610504  0.83960990  0.58331169  1
  Mn  Mn5  1  0.02747811  0.86176415  0.91182035  1
  Mn  Mn6  1  0.49100649  0.33904835  0.59127791  1
  Mn  Mn7  1  0.49318124  0.34531798  0.91772415  1
  Mn  Mn8  1  0.50378466  0.34144038  0.25963049  1
  Mn  Mn9  1  0.53197517  0.63491321  0.08907134  1
  Mn  Mn10  1  0.48453152  0.65799859  0.41910955  1
  Mn  Mn11  1  0.48053404  0.65310135  0.75114849  1
  O  O12  1  0.20260867  0.11312881  0.30162299  1
  O  O13  1  0.23648553  0.10658291  0.64177635  1
  O  O14  1  0.21899465  0.12139970  0.96709448  1
  O  O15  1  0.22335026  0.89328651  0.46762218  1
  O  O16  1  0.22854452  0.89575839  0.80572487  1
  O  O17  1  0.29223930  0.59717064  0.64445988  1
  O  O18  1  0.29095748  0.39893999  0.81040886  1
  O  O19  1  0.71598445  0.37407398  0.02435153  1
  O  O20  1  0.72386551  0.60538923  0.19981327  1
  O  O21  1  0.70043127  0.38739267  0.36699008  1
  F  F22  1  0.23444202  0.88667592  0.13036969  1
  F  F23  1  0.26853291  0.37256702  0.15001814  1
  F  F24  1  0.23229999  0.61739379  0.30902009  1
  F  F25  1  0.24982916  0.40606798  0.47751144  1
  F  F26  1  0.27043298  0.61877983  0.98304853  1
  F  F27  1  0.73819045  0.60783038  0.53372952  1
  F  F28  1  0.73094103  0.63375807  0.86172791  1
  F  F29  1  0.77046014  0.37810586  0.69919453  1
  F  F30  1  0.76472212  0.10080575  0.18085372  1
  F  F31  1  0.76491951  0.12002925  0.52684453  1
  F  F32  1  0.73000115  0.88637446  0.35727469  1
  F  F33  1  0.77473323  0.87376970  0.01559717  1
  F  F34  1  0.77583256  0.13319388  0.85028287  1
  F  F35  1  0.76336161  0.87081352  0.69354210  1
