# generated using pymatgen
data_LiMn2(BO3)2
_symmetry_space_group_name_H-M   'P 1'
_cell_length_a   5.81712211
_cell_length_b   9.18098381
_cell_length_c   5.27460707
_cell_angle_alpha   90.27649072
_cell_angle_beta   112.80882179
_cell_angle_gamma   104.81320521
_symmetry_Int_Tables_number   1
_chemical_formula_structural   LiMn2(BO3)2
_chemical_formula_sum   'Li2 Mn4 B4 O12'
_cell_volume   249.32881511
_cell_formula_units_Z   2
loop_
 _symmetry_equiv_pos_site_id
 _symmetry_equiv_pos_as_xyz
  1  'x, y, z'
loop_
 _atom_site_type_symbol
 _atom_site_label
 _atom_site_symmetry_multiplicity
 _atom_site_fract_x
 _atom_site_fract_y
 _atom_site_fract_z
 _atom_site_occupancy
  Li  Li0  1  0.66299946  0.18851187  0.25327325  1
  Li  Li1  1  0.33700054  0.81148813  0.74672675  1
  Mn  Mn2  1  0.74747605  0.39836885  0.76574494  1
  Mn  Mn3  1  0.75341053  0.87389789  0.27981586  1
  Mn  Mn4  1  0.24658947  0.12610211  0.72018414  1
  Mn  Mn5  1  0.25252395  0.60163115  0.23425506  1
  B  B6  1  0.74374780  0.05402372  0.77679819  1
  B  B7  1  0.74032205  0.53004745  0.27276391  1
  B  B8  1  0.25967795  0.46995255  0.72723609  1
  B  B9  1  0.25625220  0.94597628  0.22320181  1
  O  O10  1  0.83554436  0.07174008  0.56370310  1
  O  O11  1  0.86700718  0.56053281  0.09185653  1
  O  O12  1  0.72495033  0.39669337  0.38430692  1
  O  O13  1  0.67029480  0.17448284  0.85970213  1
  O  O14  1  0.62815839  0.63861491  0.31800751  1
  O  O15  1  0.29370108  0.08009243  0.11676531  1
  O  O16  1  0.70629892  0.91990757  0.88323469  1
  O  O17  1  0.37184161  0.36138509  0.68199249  1
  O  O18  1  0.32970520  0.82551716  0.14029787  1
  O  O19  1  0.27504967  0.60330663  0.61569308  1
  O  O20  1  0.13299282  0.43946719  0.90814347  1
  O  O21  1  0.16445564  0.92825992  0.43629690  1
