# generated using pymatgen
data_Li4Fe2C4SO16
_symmetry_space_group_name_H-M   'P 1'
_cell_length_a   9.64650170
_cell_length_b   9.31366346
_cell_length_c   9.64650154
_cell_angle_alpha   61.71886013
_cell_angle_beta   94.88170540
_cell_angle_gamma   61.71886654
_symmetry_Int_Tables_number   1
_chemical_formula_structural   Li4Fe2C4SO16
_chemical_formula_sum   'Li8 Fe4 C8 S2 O32'
_cell_volume   616.24856412
_cell_formula_units_Z   2
loop_
 _symmetry_equiv_pos_site_id
 _symmetry_equiv_pos_as_xyz
  1  'x, y, z'
loop_
 _atom_site_type_symbol
 _atom_site_label
 _atom_site_symmetry_multiplicity
 _atom_site_fract_x
 _atom_site_fract_y
 _atom_site_fract_z
 _atom_site_occupancy
  Li  Li0  1  0.07745950  0.84508199  0.82745950  1
  Li  Li1  1  0.07920266  0.25000000  0.82920266  1
  Li  Li2  1  0.32920266  0.75000000  0.57920266  1
  Li  Li3  1  0.32745950  0.34508199  0.57745950  1
  Li  Li4  1  0.67254050  0.65491801  0.42254050  1
  Li  Li5  1  0.67079734  0.25000000  0.42079734  1
  Li  Li6  1  0.92079734  0.75000000  0.17079734  1
  Li  Li7  1  0.92254050  0.15491801  0.17254050  1
  Fe  Fe8  1  0.00000000  0.50000000  0.00000000  1
  Fe  Fe9  1  0.50000000  0.00000000  0.50000000  1
  Fe  Fe10  1  0.50000000  0.50000000  0.00000000  1
  Fe  Fe11  1  0.50000000  0.00000000  0.00000000  1
  C  C12  1  0.34667827  0.93867078  0.76927418  1
  C  C13  1  0.26927418  0.43867078  0.84667927  1
  C  C14  1  0.71465096  0.93867078  0.79205504  1
  C  C15  1  0.70794496  0.56132922  0.78534904  1
  C  C16  1  0.29205504  0.43867078  0.21465096  1
  C  C17  1  0.28534904  0.06132922  0.20794496  1
  C  C18  1  0.73072582  0.56132922  0.15332073  1
  C  C19  1  0.65332073  0.06132922  0.23072582  1
  S  S20  1  0.12500000  0.75000000  0.37500000  1
  S  S21  1  0.87500000  0.25000000  0.62500000  1
  O  O22  1  0.34217477  0.79856262  0.88945674  1
  O  O23  1  0.06910620  0.88429456  0.43295419  1
  O  O24  1  0.35561229  0.94817529  0.63269156  1
  O  O25  1  0.13269156  0.44817529  0.85561229  1
  O  O26  1  0.69621242  0.94817529  0.91913216  1
  O  O27  1  0.28740247  0.57097127  0.84113633  1
  O  O28  1  0.04659924  0.88429456  0.18275125  1
  O  O29  1  0.06704581  0.61570544  0.43089380  1
  O  O30  1  0.41210761  0.92902873  0.35837475  1
  O  O31  1  0.58086784  0.55182471  0.80378758  1
  O  O32  1  0.38945674  0.29856262  0.84217477  1
  O  O33  1  0.31724875  0.61570544  0.45340076  1
  O  O34  1  0.85926261  0.79856262  0.81198064  1
  O  O35  1  0.68801936  0.70143738  0.64073739  1
  O  O36  1  0.34113633  0.07097127  0.78740247  1
  O  O37  1  0.14162525  0.57097127  0.08789239  1
  O  O38  1  0.85837475  0.42902873  0.91210761  1
  O  O39  1  0.65886367  0.92902873  0.21259753  1
  O  O40  1  0.31198064  0.29856262  0.35926261  1
  O  O41  1  0.14073739  0.20143738  0.18801936  1
  O  O42  1  0.68275125  0.38429456  0.54659924  1
  O  O43  1  0.61054326  0.70143738  0.15782523  1
  O  O44  1  0.41913216  0.44817529  0.19621242  1
  O  O45  1  0.58789239  0.07097127  0.64162525  1
  O  O46  1  0.93295419  0.38429456  0.56910620  1
  O  O47  1  0.95340076  0.11570544  0.81724875  1
  O  O48  1  0.71259753  0.42902873  0.15886367  1
  O  O49  1  0.30378758  0.05182471  0.08086784  1
  O  O50  1  0.86730844  0.55182471  0.14438771  1
  O  O51  1  0.64438771  0.05182471  0.36730844  1
  O  O52  1  0.93089380  0.11570544  0.56704581  1
  O  O53  1  0.65782523  0.20143738  0.11054326  1
