# generated using pymatgen
data_Li3Ti2(PO4)3
_symmetry_space_group_name_H-M   'P 1'
_cell_length_a   8.46079308
_cell_length_b   9.12672393
_cell_length_c   8.46620471
_cell_angle_alpha   117.40268676
_cell_angle_beta   60.07406929
_cell_angle_gamma   117.60818964
_symmetry_Int_Tables_number   1
_chemical_formula_structural   Li3Ti2(PO4)3
_chemical_formula_sum   'Li6 Ti4 P6 O24'
_cell_volume   479.22687868
_cell_formula_units_Z   2
loop_
 _symmetry_equiv_pos_site_id
 _symmetry_equiv_pos_as_xyz
  1  'x, y, z'
loop_
 _atom_site_type_symbol
 _atom_site_label
 _atom_site_symmetry_multiplicity
 _atom_site_fract_x
 _atom_site_fract_y
 _atom_site_fract_z
 _atom_site_occupancy
  Li  Li0  1  0.24264052  0.64974170  0.57434139  1
  Li  Li1  1  0.43238185  0.34978740  0.16160078  1
  Li  Li2  1  0.07747235  0.13393724  0.73133266  1
  Li  Li3  1  0.92810062  0.86455227  0.26795974  1
  Li  Li4  1  0.66964328  0.86170178  0.92236710  1
  Li  Li5  1  0.73014564  0.13927380  0.33310885  1
  Ti  Ti6  1  0.14222331  0.43689436  0.13840424  1
  Ti  Ti7  1  0.34320106  0.04134107  0.34605831  1
  Ti  Ti8  1  0.64177205  0.95945770  0.65794203  1
  Ti  Ti9  1  0.84810856  0.56410435  0.85365467  1
  P  P10  1  0.04428435  0.25110100  0.45749476  1
  P  P11  1  0.54489387  0.75090799  0.25171006  1
  P  P12  1  0.25072654  0.75004978  0.95919311  1
  P  P13  1  0.74839135  0.24902652  0.04328809  1
  P  P14  1  0.45982333  0.24801354  0.74597707  1
  P  P15  1  0.95690003  0.75156865  0.53954171  1
  O  O16  1  0.20145222  0.89039624  0.15678964  1
  O  O17  1  0.15083208  0.90150402  0.53357712  1
  O  O18  1  0.01641467  0.42408851  0.60797156  1
  O  O19  1  0.14857756  0.27718704  0.25686969  1
  O  O20  1  0.12739384  0.72189941  0.85488909  1
  O  O21  1  0.53927131  0.89644371  0.20638936  1
  O  O22  1  0.39255917  0.57609760  0.20586248  1
  O  O23  1  0.16562155  0.19514952  0.49646909  1
  O  O24  1  0.50296156  0.80062153  0.46742676  1
  O  O25  1  0.20208072  0.57948625  0.99480056  1
  O  O26  1  0.74932457  0.73478072  0.12987396  1
  O  O27  1  0.46594467  0.80574367  0.83705016  1
  O  O28  1  0.53221179  0.19618332  0.17060522  1
  O  O29  1  0.25617407  0.26674887  0.86848996  1
  O  O30  1  0.79159204  0.41644665  0.00955222  1
  O  O31  1  0.49506438  0.19204540  0.53076896  1
  O  O32  1  0.82902542  0.80904855  0.50897088  1
  O  O33  1  0.61124949  0.42052622  0.80203783  1
  O  O34  1  0.47947109  0.10894827  0.78825229  1
  O  O35  1  0.87083023  0.26688183  0.14330501  1
  O  O36  1  0.85630228  0.73220456  0.74433446  1
  O  O37  1  0.99674492  0.58385750  0.38953511  1
  O  O38  1  0.84932089  0.10286332  0.45737964  1
  O  O39  1  0.79187075  0.09938614  0.85082441  1
