# generated using pymatgen
data_Eu2Al42O65
_symmetry_space_group_name_H-M   'P 1'
_cell_length_a   11.46718934
_cell_length_b   11.44100761
_cell_length_c   45.57283388
_cell_angle_alpha   29.04523690
_cell_angle_beta   28.84120493
_cell_angle_gamma   28.76267144
_symmetry_Int_Tables_number   1
_chemical_formula_structural   Eu2Al42O65
_chemical_formula_sum   'Eu2 Al42 O65'
_cell_volume   1233.56165350
_cell_formula_units_Z   1
loop_
 _symmetry_equiv_pos_site_id
 _symmetry_equiv_pos_as_xyz
  1  'x, y, z'
loop_
 _atom_site_type_symbol
 _atom_site_label
 _atom_site_symmetry_multiplicity
 _atom_site_fract_x
 _atom_site_fract_y
 _atom_site_fract_z
 _atom_site_occupancy
  Eu  Eu0  1  0.51440935  0.00024139  0.49618979  1
  Eu  Eu1  1  0.48310860  0.00180090  0.75889483  1
  Al  Al2  1  0.00015903  0.99835652  0.00053363  1
  Al  Al3  1  0.09314486  0.09320260  0.14788035  1
  Al  Al4  1  0.08907249  0.58981263  0.02498881  1
  Al  Al5  1  0.59120867  0.08815904  0.02501809  1
  Al  Al6  1  0.34787488  0.34911509  0.08896725  1
  Al  Al7  1  0.45333949  0.45374225  0.11269105  1
  Al  Al8  1  0.54836739  0.54781105  0.13599162  1
  Al  Al9  1  0.09421598  0.10187460  0.39644442  1
  Al  Al10  1  0.10186120  0.59773831  0.27068717  1
  Al  Al11  1  0.59428794  0.10631615  0.27051242  1
  Al  Al12  1  0.64907375  0.65003273  0.16272072  1
  Al  Al13  1  0.35405536  0.36003824  0.33681457  1
  Al  Al14  1  0.99948496  0.00103851  0.25152393  1
  Al  Al15  1  0.41331376  0.90140179  0.22872507  1
  Al  Al16  1  0.90328180  0.41490431  0.22776308  1
  Al  Al17  1  0.90449161  0.90462402  0.10325106  1
  Al  Al18  1  0.56492711  0.57964267  0.38110001  1
  Al  Al19  1  0.09021610  0.08360507  0.64333877  1
  Al  Al20  1  0.08104769  0.58576198  0.52503614  1
  Al  Al21  1  0.58985214  0.08894624  0.52606304  1
  Al  Al22  1  0.64864437  0.65250361  0.41279988  1
  Al  Al23  1  0.35239794  0.35019977  0.58522522  1
  Al  Al24  1  0.00158575  0.99929848  0.49947018  1
  Al  Al25  1  0.41212462  0.91409024  0.47227398  1
  Al  Al26  1  0.92117048  0.41562613  0.47289860  1
  Al  Al27  1  0.91595809  0.91969335  0.35395257  1
  Al  Al28  1  0.43280710  0.42627214  0.61383563  1
  Al  Al29  1  0.09429113  0.09240796  0.89942398  1
  Al  Al30  1  0.10450198  0.57811113  0.77155018  1
  Al  Al31  1  0.59280753  0.10225519  0.77412028  1
  Al  Al32  1  0.64666587  0.64404085  0.66127998  1
  Al  Al33  1  0.35203073  0.34881630  0.83821193  1
  Al  Al34  1  0.00338198  0.99573573  0.74855516  1
  Al  Al35  1  0.40440301  0.89190466  0.72823090  1
  Al  Al36  1  0.89764266  0.40202800  0.72921061  1
  Al  Al37  1  0.90645503  0.90124566  0.60246868  1
  Al  Al38  1  0.44731883  0.44528308  0.86489299  1
  Al  Al39  1  0.55040088  0.53859124  0.89082291  1
  Al  Al40  1  0.65011107  0.64777133  0.91247613  1
  Al  Al41  1  0.40701524  0.90244887  0.97767472  1
  Al  Al42  1  0.90407701  0.40425937  0.97778472  1
  Al  Al43  1  0.90375858  0.90112923  0.85372709  1
  O  O44  1  0.09481856  0.09581029  0.02481163  1
  O  O45  1  0.29132498  0.29199830  0.07537026  1
  O  O46  1  0.18754946  0.19288997  0.18057833  1
  O  O47  1  0.19784882  0.71893600  0.04614502  1
  O  O48  1  0.71858362  0.19717537  0.04658996  1
  O  O49  1  0.10075250  0.10661735  0.27270387  1
  O  O50  1  0.10276838  0.60317757  0.14866153  1
  O  O51  1  0.60046855  0.10334022  0.14932332  1
  O  O52  1  0.60330845  0.60382700  0.02365028  1
  O  O53  1  0.40041091  0.40110799  0.22444250  1
  O  O54  1  0.40027423  0.90024647  0.09949890  1
  O  O55  1  0.90109457  0.39836840  0.09992812  1
  O  O56  1  0.29156436  0.29723445  0.32461648  1
  O  O57  1  0.27870389  0.80660963  0.20292465  1
  O  O58  1  0.80887399  0.80822662  0.06993553  1
  O  O59  1  0.80371049  0.27950564  0.20376978  1
  O  O60  1  0.19036915  0.18420296  0.43216221  1
  O  O61  1  0.18808801  0.72210065  0.29834812  1
  O  O62  1  0.71717451  0.18323321  0.30154698  1
  O  O63  1  0.71200406  0.71239518  0.17227156  1
  O  O64  1  0.09978393  0.08754271  0.52730293  1
  O  O65  1  0.08301156  0.60559637  0.40462230  1
  O  O66  1  0.60874609  0.61008136  0.27076889  1
  O  O67  1  0.60440712  0.06519158  0.41213139  1
  O  O68  1  0.40355239  0.40036401  0.46942935  1
  O  O69  1  0.39151289  0.92520201  0.34504272  1
  O  O70  1  0.91346840  0.39890877  0.34623213  1
  O  O71  1  0.90326323  0.90386697  0.22553052  1
  O  O72  1  0.30830993  0.30628409  0.56711817  1
  O  O73  1  0.27848073  0.80725291  0.45138371  1
  O  O74  1  0.80272921  0.80524659  0.32182750  1
  O  O75  1  0.80660242  0.28048362  0.45201952  1
  O  O76  1  0.20089337  0.19325174  0.67764503  1
  O  O77  1  0.18777563  0.71539151  0.55061258  1
  O  O78  1  0.71438991  0.18932252  0.55188619  1
  O  O79  1  0.68379168  0.68396166  0.43641810  1
  O  O80  1  0.10395932  0.09343662  0.77437075  1
  O  O81  1  0.08221374  0.60176808  0.65509729  1
  O  O82  1  0.60475165  0.07780449  0.65738746  1
  O  O83  1  0.59936345  0.60433382  0.52829505  1
  O  O84  1  0.39931029  0.93125799  0.58778093  1
  O  O85  1  0.38879063  0.35235756  0.73635003  1
  O  O86  1  0.90994343  0.39900481  0.59646376  1
  O  O87  1  0.89868508  0.91269739  0.47254880  1
  O  O88  1  0.29668420  0.29846652  0.82368217  1
  O  O89  1  0.27873107  0.80581617  0.70046264  1
  O  O90  1  0.80475109  0.27745085  0.70351686  1
  O  O91  1  0.80659477  0.81708997  0.56831408  1
  O  O92  1  0.19319190  0.18940548  0.92969576  1
  O  O93  1  0.19626142  0.72381922  0.79497037  1
  O  O94  1  0.72761623  0.19382382  0.79583496  1
  O  O95  1  0.70548009  0.70661383  0.67471506  1
  O  O96  1  0.09699549  0.59510467  0.90008382  1
  O  O97  1  0.59622688  0.60406728  0.77369871  1
  O  O98  1  0.60017404  0.09429241  0.90070430  1
  O  O99  1  0.50567019  0.56963709  0.85668559  1
  O  O100  1  0.39714513  0.39176328  0.97851936  1
  O  O101  1  0.40708597  0.89933896  0.85019302  1
  O  O102  1  0.90403869  0.39510405  0.85195256  1
  O  O103  1  0.89255951  0.89481753  0.72744936  1
  O  O104  1  0.28206623  0.80934147  0.95151578  1
  O  O105  1  0.80697650  0.81563332  0.81902541  1
  O  O106  1  0.81006670  0.27970298  0.95231429  1
  O  O107  1  0.70736091  0.70693109  0.92488325  1
  O  O108  1  0.90655137  0.90228913  0.97521339  1
