# generated using pymatgen
data_LiFe5(OF2)4
_symmetry_space_group_name_H-M   'P 1'
_cell_length_a   5.51820962
_cell_length_b   5.66088950
_cell_length_c   8.73528265
_cell_angle_alpha   81.11755593
_cell_angle_beta   108.40752042
_cell_angle_gamma   119.22923946
_symmetry_Int_Tables_number   1
_chemical_formula_structural   LiFe5(OF2)4
_chemical_formula_sum   'Li1 Fe5 O4 F8'
_cell_volume   225.94454304
_cell_formula_units_Z   1
loop_
 _symmetry_equiv_pos_site_id
 _symmetry_equiv_pos_as_xyz
  1  'x, y, z'
loop_
 _atom_site_type_symbol
 _atom_site_label
 _atom_site_symmetry_multiplicity
 _atom_site_fract_x
 _atom_site_fract_y
 _atom_site_fract_z
 _atom_site_occupancy
  Li  Li0  1  0.33331197  0.00024405  0.66649770  1
  Fe  Fe1  1  0.99483435  0.00008286  0.98923514  1
  Fe  Fe2  1  0.67177811  0.99977744  0.34389955  1
  Fe  Fe3  1  0.58356915  0.49998122  0.16699175  1
  Fe  Fe4  1  0.24188972  0.49993857  0.48457580  1
  Fe  Fe5  1  0.92464118  0.50005912  0.84928768  1
  O  O6  1  0.79785250  0.60386930  0.00083177  1
  O  O7  1  0.20291007  0.39626052  0.00101422  1
  O  O8  1  0.85950650  0.39590047  0.33317574  1
  O  O9  1  0.47310402  0.60368574  0.33316464  1
  F  F10  1  0.80715026  0.94477504  0.16724171  1
  F  F11  1  0.36212850  0.05507615  0.16545216  1
  F  F12  1  0.44861212  0.91667827  0.50190268  1
  F  F13  1  0.05156651  0.08335436  0.50344143  1
  F  F14  1  0.55582634  0.44498006  0.66690735  1
  F  F15  1  0.69844500  0.08323414  0.82962404  1
  F  F16  1  0.11138268  0.55532701  0.66707935  1
  F  F17  1  0.13149202  0.91677769  0.82967729  1
