# generated using pymatgen
data_Li2Fe3CuO8
_symmetry_space_group_name_H-M   'P 1'
_cell_length_a   5.89414906
_cell_length_b   5.86246789
_cell_length_c   5.97364799
_cell_angle_alpha   60.90324313
_cell_angle_beta   61.35359389
_cell_angle_gamma   90.51701316
_symmetry_Int_Tables_number   1
_chemical_formula_structural   Li2Fe3CuO8
_chemical_formula_sum   'Li2 Fe3 Cu1 O8'
_cell_volume   150.18875328
_cell_formula_units_Z   1
loop_
 _symmetry_equiv_pos_site_id
 _symmetry_equiv_pos_as_xyz
  1  'x, y, z'
loop_
 _atom_site_type_symbol
 _atom_site_label
 _atom_site_symmetry_multiplicity
 _atom_site_fract_x
 _atom_site_fract_y
 _atom_site_fract_z
 _atom_site_occupancy
  Li  Li0  1  0.50002407  0.00003505  0.00000172  1
  Li  Li1  1  0.49996191  0.49995793  0.49999893  1
  Fe  Fe2  1  -0.00000589  -0.00001307  0.50000825  1
  Fe  Fe3  1  0.00000943  0.50000585  0.99999632  1
  Fe  Fe4  1  -0.00000468  0.50003078  0.49997720  1
  Cu  Cu5  1  0.00000094  0.99996546  0.00003203  1
  O  O6  1  0.21211517  0.22297743  0.02381573  1
  O  O7  1  0.21044418  0.75528031  0.02429472  1
  O  O8  1  0.21600056  0.26115908  0.51374020  1
  O  O9  1  0.21583805  0.72622632  0.52296463  1
  O  O10  1  0.78416162  0.27377654  0.47703501  1
  O  O11  1  0.78398373  0.73883977  0.48625578  1
  O  O12  1  0.78957938  0.24474191  0.97568444  1
  O  O13  1  0.78788953  0.77701864  0.97619405  1
