# generated using pymatgen
data_Li2Mn3(BO3)3
_symmetry_space_group_name_H-M   'P 1'
_cell_length_a   8.30294027
_cell_length_b   9.51408796
_cell_length_c   8.80610272
_cell_angle_alpha   69.71027694
_cell_angle_beta   62.16251458
_cell_angle_gamma   90.40216836
_symmetry_Int_Tables_number   1
_chemical_formula_structural   Li2Mn3(BO3)3
_chemical_formula_sum   'Li6 Mn9 B9 O27'
_cell_volume   564.87000587
_cell_formula_units_Z   3
loop_
 _symmetry_equiv_pos_site_id
 _symmetry_equiv_pos_as_xyz
  1  'x, y, z'
loop_
 _atom_site_type_symbol
 _atom_site_label
 _atom_site_symmetry_multiplicity
 _atom_site_fract_x
 _atom_site_fract_y
 _atom_site_fract_z
 _atom_site_occupancy
  Li  Li0  1  0.01169443  0.74026335  0.28239371  1
  Li  Li1  1  0.02400174  0.41140639  0.27886012  1
  Li  Li2  1  0.27986376  0.26370385  0.69315980  1
  Li  Li3  1  0.28244562  0.60190268  0.70658934  1
  Li  Li4  1  0.70744727  0.82634036  0.01940159  1
  Li  Li5  1  0.69895975  0.15437491  0.01695566  1
  Mn  Mn6  1  0.63496547  0.54312340  0.36552819  1
  Mn  Mn7  1  0.62073246  0.87451923  0.39508057  1
  Mn  Mn8  1  0.66063450  0.21819540  0.34772240  1
  Mn  Mn9  1  0.35331411  0.00209862  0.98539263  1
  Mn  Mn10  1  0.36778033  0.33184301  0.99176099  1
  Mn  Mn11  1  0.39238138  0.66706792  0.99022126  1
  Mn  Mn12  1  0.97657955  0.44734875  0.65774357  1
  Mn  Mn13  1  0.99342747  0.11881275  0.63331502  1
  Mn  Mn14  1  0.99891929  0.78605504  0.64285568  1
  B  B15  1  0.01146256  0.66940160  0.00344596  1
  B  B16  1  0.32476980  0.39198274  0.33482434  1
  B  B17  1  0.33227858  0.72026352  0.33440990  1
  B  B18  1  0.01317404  0.33845728  0.98656840  1
  B  B19  1  0.34111982  0.05042568  0.32808624  1
  B  B20  1  0.98074289  0.99878350  0.01190528  1
  B  B21  1  0.66782671  0.62414961  0.66358735  1
  B  B22  1  0.66376947  0.27684724  0.66253488  1
  B  B23  1  0.66203584  0.93043278  0.67869172  1
  O  O24  1  0.07548779  0.94822750  0.10655640  1
  O  O25  1  0.09071812  0.31804703  0.09900926  1
  O  O26  1  0.10392431  0.63230998  0.10676121  1
  O  O27  1  0.13407544  0.35092714  0.44968007  1
  O  O28  1  0.14255947  0.68402774  0.43833379  1
  O  O29  1  0.15635932  0.00946532  0.45823111  1
  O  O30  1  0.39569827  0.46191250  0.14155057  1
  O  O31  1  0.40823893  0.11444369  0.13727465  1
  O  O32  1  0.42481881  0.77218833  0.13977418  1
  O  O33  1  0.07847940  0.08436492  0.82107953  1
  O  O34  1  0.10720855  0.71451325  0.81265479  1
  O  O35  1  0.12901034  0.40385345  0.79185415  1
  O  O36  1  0.44265715  0.36209694  0.40722354  1
  O  O37  1  0.44088018  0.70640332  0.42029756  1
  O  O38  1  0.47406943  0.03223069  0.38588145  1
  O  O39  1  0.78582578  0.96440613  0.10555722  1
  O  O40  1  0.82160816  0.65955637  0.09514489  1
  O  O41  1  0.82358825  0.29624246  0.06419229  1
  O  O42  1  0.47015027  0.23841822  0.77339048  1
  O  O43  1  0.47441623  0.58411756  0.78567454  1
  O  O44  1  0.46986863  0.87731262  0.80279866  1
  O  O45  1  0.72415050  0.99455424  0.48851759  1
  O  O46  1  0.73326150  0.69575421  0.46983537  1
  O  O47  1  0.74677044  0.34822610  0.46782404  1
  O  O48  1  0.77342025  0.24580644  0.74523641  1
  O  O49  1  0.78862301  0.59577176  0.72840606  1
  O  O50  1  0.78374263  0.91702145  0.74622560  1
