# generated using pymatgen
data_V4O7F5
_symmetry_space_group_name_H-M   'P 1'
_cell_length_a   5.29807815
_cell_length_b   7.13414530
_cell_length_c   5.44320481
_cell_angle_alpha   92.21313105
_cell_angle_beta   90.00000000
_cell_angle_gamma   90.00000000
_symmetry_Int_Tables_number   1
_chemical_formula_structural   V4O7F5
_chemical_formula_sum   'V4 O7 F5'
_cell_volume   205.58476186
_cell_formula_units_Z   1
loop_
 _symmetry_equiv_pos_site_id
 _symmetry_equiv_pos_as_xyz
  1  'x, y, z'
loop_
 _atom_site_type_symbol
 _atom_site_label
 _atom_site_symmetry_multiplicity
 _atom_site_fract_x
 _atom_site_fract_y
 _atom_site_fract_z
 _atom_site_occupancy
  V  V0  1  0.53441482  0.49549969  0.46578661  1
  V  V1  1  0.53441482  0.00450031  0.53421339  1
  V  V2  1  0.01862142  0.49539412  0.95599898  1
  V  V3  1  0.01862142  0.00460588  0.04400102  1
  O  O4  1  0.92442398  0.25000000  0.00000000  1
  O  O5  1  0.78704499  0.54727237  0.30543861  1
  O  O6  1  0.78704499  0.95272763  0.69456139  1
  O  O7  1  0.57730554  0.25000000  0.50000000  1
  O  O8  1  0.19916320  0.04003658  0.28731018  1
  O  O9  1  0.19916320  0.45996342  0.71268982  1
  O  O10  1  0.05623923  0.75000000  0.00000000  1
  F  F11  1  0.69616651  0.95609025  0.20636253  1
  F  F12  1  0.69616651  0.54390975  0.79363747  1
  F  F13  1  0.39193285  0.75000000  0.50000000  1
  F  F14  1  0.28963826  0.45705090  0.20212001  1
  F  F15  1  0.28963826  0.04294910  0.79787999  1
