# generated using pymatgen
data_Li11Ta37N48
_symmetry_space_group_name_H-M   'P 1'
_cell_length_a   5.26450075
_cell_length_b   5.26450104
_cell_length_c   40.35231295
_cell_angle_alpha   90.00000000
_cell_angle_beta   90.00000000
_cell_angle_gamma   119.99999815
_symmetry_Int_Tables_number   1
_chemical_formula_structural   Li11Ta37N48
_chemical_formula_sum   'Li11 Ta37 N48'
_cell_volume   968.53089924
_cell_formula_units_Z   1
loop_
 _symmetry_equiv_pos_site_id
 _symmetry_equiv_pos_as_xyz
  1  'x, y, z'
loop_
 _atom_site_type_symbol
 _atom_site_label
 _atom_site_symmetry_multiplicity
 _atom_site_fract_x
 _atom_site_fract_y
 _atom_site_fract_z
 _atom_site_occupancy
  Li  Li0  1  0.33333300  0.66666700  0.00138726  1
  Li  Li1  1  0.00000000  0.00000000  0.12571715  1
  Li  Li2  1  0.00000000  0.00000000  0.25019731  1
  Li  Li3  1  0.00000000  0.00000000  0.49813228  1
  Li  Li4  1  0.33333300  0.66666700  0.37402969  1
  Li  Li5  1  0.66666700  0.33333300  0.12646996  1
  Li  Li6  1  0.00000000  0.00000000  0.37410999  1
  Li  Li7  1  0.00000000  0.00000000  0.75009023  1
  Li  Li8  1  0.00000000  0.00000000  0.87546194  1
  Li  Li9  1  0.66666700  0.33333300  0.75012980  1
  Li  Li10  1  0.00000000  0.00000000  0.62395189  1
  Ta  Ta11  1  -0.00482392  0.66959107  0.18792919  1
  Ta  Ta12  1  0.00566245  0.67404680  0.43601169  1
  Ta  Ta13  1  -0.00554855  0.66896965  0.68754427  1
  Ta  Ta14  1  0.00331440  0.67025458  0.93824418  1
  Ta  Ta15  1  0.33141672  0.00567341  0.81214284  1
  Ta  Ta16  1  0.33333300  0.66666700  0.24935169  1
  Ta  Ta17  1  0.33333300  0.66666700  0.49761853  1
  Ta  Ta18  1  0.33333300  0.66666700  0.74996162  1
  Ta  Ta19  1  0.00000000  0.00000000  0.00196042  1
  Ta  Ta20  1  0.33333300  0.66666700  0.12622908  1
  Ta  Ta21  1  0.33333300  0.66666700  0.62590220  1
  Ta  Ta22  1  0.33333300  0.66666700  0.87356734  1
  Ta  Ta23  1  0.33040893  0.32558501  0.18792919  1
  Ta  Ta24  1  0.32595320  0.33161565  0.43601169  1
  Ta  Ta25  1  0.33103035  0.32548180  0.68754427  1
  Ta  Ta26  1  0.32974543  0.33305982  0.93824418  1
  Ta  Ta27  1  0.67441498  0.00482392  0.18792919  1
  Ta  Ta28  1  0.66838434  -0.00566245  0.43601169  1
  Ta  Ta29  1  0.67451820  0.00554855  0.68754427  1
  Ta  Ta30  1  0.66694018  -0.00331440  0.93824418  1
  Ta  Ta31  1  0.33351295  0.00367984  0.06406226  1
  Ta  Ta32  1  0.32575775  -0.00516963  0.31256345  1
  Ta  Ta33  1  0.32664418  0.00045672  0.56156245  1
  Ta  Ta34  1  0.67016688  0.66648705  0.06406226  1
  Ta  Ta35  1  0.67381255  0.67335583  0.56156245  1
  Ta  Ta36  1  0.66907263  0.67424226  0.31256345  1
  Ta  Ta37  1  0.67425669  0.66858328  0.81214284  1
  Ta  Ta38  1  0.66666700  0.33333300  0.37395903  1
  Ta  Ta39  1  0.66666700  0.33333300  0.87500340  1
  Ta  Ta40  1  0.66666700  0.33333300  0.62549970  1
  Ta  Ta41  1  0.66666700  0.33333300  0.00177304  1
  Ta  Ta42  1  0.66666700  0.33333300  0.25104735  1
  Ta  Ta43  1  0.66666700  0.33333300  0.49786379  1
  Ta  Ta44  1  -0.00367984  0.32983312  0.06406226  1
  Ta  Ta45  1  0.00516963  0.33092738  0.31256345  1
  Ta  Ta46  1  -0.00045672  0.32618745  0.56156245  1
  Ta  Ta47  1  -0.00567341  0.32574331  0.81214284  1
  N  N48  1  0.00811253  0.66654576  0.03135373  1
  N  N49  1  -0.00056388  0.66928454  0.27978423  1
  N  N50  1  0.00110411  0.66582948  0.52875781  1
  N  N51  1  0.00763319  0.66590407  0.78036339  1
  N  N52  1  0.00640482  0.34149486  0.15637345  1
  N  N53  1  -0.00605395  0.33567405  0.40445877  1
  N  N54  1  0.00271136  0.32907221  0.65452939  1
  N  N55  1  -0.00110357  0.32979844  0.90530468  1
  N  N56  1  0.34172800  0.00605395  0.40445877  1
  N  N57  1  0.33090201  0.00110357  0.90530468  1
  N  N58  1  0.65843323  0.99188747  0.03135373  1
  N  N59  1  0.65827088  -0.00763319  0.78036339  1
  N  N60  1  0.33228696  0.33904223  0.09582083  1
  N  N61  1  0.34038763  0.33408935  0.34409242  1
  N  N62  1  0.33486915  0.33532541  0.59448775  1
  N  N63  1  0.32884930  0.32933543  0.84504743  1
  N  N64  1  0.33345424  0.34156677  0.03135373  1
  N  N65  1  0.33071546  0.33015158  0.27978423  1
  N  N66  1  0.33417052  0.33527463  0.52875781  1
  N  N67  1  0.33409593  0.34172912  0.78036339  1
  N  N68  1  0.66941101  0.66960526  0.22079909  1
  N  N69  1  0.67495001  0.67120094  0.46876875  1
  N  N70  1  0.65788802  0.66503744  0.71919008  1
  N  N71  1  0.66334286  0.66399311  0.97100297  1
  N  N72  1  0.66432595  0.65827200  0.40445877  1
  N  N73  1  0.65850513  0.66490996  0.15637345  1
  N  N74  1  0.67092779  0.67363915  0.65452939  1
  N  N75  1  0.67020156  0.66909799  0.90530468  1
  N  N76  1  0.33039474  -0.00019425  0.22079909  1
  N  N77  1  0.33509005  0.99359518  0.15637345  1
  N  N78  1  0.32879906  0.00374907  0.46876875  1
  N  N79  1  0.33496256  0.99285059  0.71919008  1
  N  N80  1  0.32636085  -0.00271136  0.65452939  1
  N  N81  1  0.33600689  -0.00065025  0.97100297  1
  N  N82  1  0.66095777  -0.00675526  0.09582083  1
  N  N83  1  0.66591065  0.00629828  0.34409242  1
  N  N84  1  0.66467459  -0.00045626  0.59448775  1
  N  N85  1  0.67066457  -0.00048614  0.84504743  1
  N  N86  1  0.66984842  0.00056388  0.27978423  1
  N  N87  1  0.66472536  0.99889589  0.52875781  1
  N  N88  1  -0.00629828  0.65961237  0.34409242  1
  N  N89  1  0.00675527  0.66771304  0.09582083  1
  N  N90  1  0.00045626  0.66513085  0.59448775  1
  N  N91  1  0.00048614  0.67115070  0.84504743  1
  N  N92  1  0.99625093  0.32504998  0.46876875  1
  N  N93  1  0.00019425  0.33058899  0.22079909  1
  N  N94  1  0.00714941  0.34211197  0.71919008  1
  N  N95  1  0.00065025  0.33665714  0.97100297  1
