# generated using pymatgen
data_TiMnV4O12
_symmetry_space_group_name_H-M   'P 1'
_cell_length_a   6.95544420
_cell_length_b   6.95544428
_cell_length_c   5.80792972
_cell_angle_alpha   74.89572119
_cell_angle_beta   105.10428380
_cell_angle_gamma   95.73389768
_symmetry_Int_Tables_number   1
_chemical_formula_structural   TiMnV4O12
_chemical_formula_sum   'Ti1 Mn1 V4 O12'
_cell_volume   261.74434066
_cell_formula_units_Z   1
loop_
 _symmetry_equiv_pos_site_id
 _symmetry_equiv_pos_as_xyz
  1  'x, y, z'
loop_
 _atom_site_type_symbol
 _atom_site_label
 _atom_site_symmetry_multiplicity
 _atom_site_fract_x
 _atom_site_fract_y
 _atom_site_fract_z
 _atom_site_occupancy
  Ti  Ti0  1  0.90389356  0.90389356  0.25000000  1
  Mn  Mn1  1  0.09195852  0.09195852  0.75000000  1
  V  V2  1  0.20654947  0.61620389  0.74749006  1
  V  V3  1  0.39020546  0.80665164  0.25466486  1
  V  V4  1  0.61620389  0.20654947  0.75250994  1
  V  V5  1  0.80665164  0.39020546  0.24533514  1
  O  O6  1  0.03573059  0.81242745  0.60916382  1
  O  O7  1  0.08118116  0.39253682  0.76521647  1
  O  O8  1  0.17786994  0.95737382  0.14816299  1
  O  O9  1  0.37130257  0.63993342  0.55632058  1
  O  O10  1  0.39253682  0.08118116  0.73478353  1
  O  O11  1  0.33502142  0.63764599  0.04423051  1
  O  O12  1  0.63993342  0.37130257  0.94367942  1
  O  O13  1  0.64313488  0.90037941  0.28493086  1
  O  O14  1  0.63764599  0.33502142  0.45576949  1
  O  O15  1  0.81242745  0.03573059  0.89083618  1
  O  O16  1  0.90037941  0.64313488  0.21506914  1
  O  O17  1  0.95737382  0.17786994  0.35183701  1
