# generated using pymatgen
data_NbCr2Fe3(PO4)6
_symmetry_space_group_name_H-M   'P 1'
_cell_length_a   8.77078495
_cell_length_b   8.77078534
_cell_length_c   8.77078492
_cell_angle_alpha   59.65525170
_cell_angle_beta   59.65525165
_cell_angle_gamma   59.65525229
_symmetry_Int_Tables_number   1
_chemical_formula_structural   NbCr2Fe3(PO4)6
_chemical_formula_sum   'Nb1 Cr2 Fe3 P6 O24'
_cell_volume   473.35302271
_cell_formula_units_Z   1
loop_
 _symmetry_equiv_pos_site_id
 _symmetry_equiv_pos_as_xyz
  1  'x, y, z'
loop_
 _atom_site_type_symbol
 _atom_site_label
 _atom_site_symmetry_multiplicity
 _atom_site_fract_x
 _atom_site_fract_y
 _atom_site_fract_z
 _atom_site_occupancy
  Nb  Nb0  1  0.85532024  0.85532024  0.85532024  1
  Cr  Cr1  1  0.00869822  0.00869822  0.00869822  1
  Cr  Cr2  1  0.50071030  0.50071030  0.50071030  1
  Fe  Fe3  1  0.14898623  0.14898623  0.14898623  1
  Fe  Fe4  1  0.35473822  0.35473822  0.35473822  1
  Fe  Fe5  1  0.64426360  0.64426360  0.64426360  1
  P  P6  1  0.74786101  0.45055785  0.04383647  1
  P  P7  1  0.25405415  0.54004121  0.95640069  1
  P  P8  1  0.54004121  0.95640069  0.25405415  1
  P  P9  1  0.95640069  0.25405415  0.54004121  1
  P  P10  1  0.04383647  0.74786101  0.45055785  1
  P  P11  1  0.45055785  0.04383647  0.74786101  1
  O  O12  1  0.11309264  0.31042981  0.50504048  1
  O  O13  1  0.31042981  0.50504048  0.11309264  1
  O  O14  1  0.05972792  0.91351095  0.26159342  1
  O  O15  1  0.50504048  0.11309264  0.31042981  1
  O  O16  1  0.99018452  0.81598613  0.61385955  1
  O  O17  1  0.23649923  0.58937380  0.44513257  1
  O  O18  1  0.26159342  0.05972792  0.91351095  1
  O  O19  1  0.44513257  0.23649923  0.58937380  1
  O  O20  1  0.18356749  0.39055753  -0.00124882  1
  O  O21  1  0.58937380  0.44513257  0.23649923  1
  O  O22  1  0.08863547  0.73842130  0.93423582  1
  O  O23  1  0.39055753  -0.00124882  0.18356749  1
  O  O24  1  0.61385955  0.99018452  0.81598613  1
  O  O25  1  0.91351095  0.26159342  0.05972792  1
  O  O26  1  0.41215952  0.56048659  0.76172669  1
  O  O27  1  0.81598613  0.61385955  0.99018452  1
  O  O28  1  0.56048659  0.76172669  0.41215952  1
  O  O29  1  0.73842130  0.93423582  0.08863547  1
  O  O30  1  0.76172669  0.41215952  0.56048659  1
  O  O31  1  -0.00124882  0.18356749  0.39055753  1
  O  O32  1  0.49935147  0.88750696  0.68470077  1
  O  O33  1  0.93423582  0.08863547  0.73842130  1
  O  O34  1  0.68470077  0.49935147  0.88750696  1
  O  O35  1  0.88750696  0.68470077  0.49935147  1
