# generated using pymatgen
data_Mn12O7F17
_symmetry_space_group_name_H-M   'P 1'
_cell_length_a   4.81562881
_cell_length_b   5.78655506
_cell_length_c   15.90945732
_cell_angle_alpha   90.79702708
_cell_angle_beta   91.22760144
_cell_angle_gamma   86.24775308
_symmetry_Int_Tables_number   1
_chemical_formula_structural   Mn12O7F17
_chemical_formula_sum   'Mn12 O7 F17'
_cell_volume   442.24472253
_cell_formula_units_Z   1
loop_
 _symmetry_equiv_pos_site_id
 _symmetry_equiv_pos_as_xyz
  1  'x, y, z'
loop_
 _atom_site_type_symbol
 _atom_site_label
 _atom_site_symmetry_multiplicity
 _atom_site_fract_x
 _atom_site_fract_y
 _atom_site_fract_z
 _atom_site_occupancy
  Mn  Mn0  1  0.99449802  0.14876134  0.41756505  1
  Mn  Mn1  1  0.01898250  0.83553399  0.23808335  1
  Mn  Mn2  1  0.99566503  0.15503268  0.07884134  1
  Mn  Mn3  1  0.04662411  0.15788157  0.75509830  1
  Mn  Mn4  1  0.03791041  0.83924183  0.58090103  1
  Mn  Mn5  1  0.99703639  0.83439249  0.90838184  1
  Mn  Mn6  1  0.50205885  0.35263677  0.58703841  1
  Mn  Mn7  1  0.49546188  0.34072645  0.91946119  1
  Mn  Mn8  1  0.51370796  0.33142179  0.26018493  1
  Mn  Mn9  1  0.49455491  0.65203217  0.08312523  1
  Mn  Mn10  1  0.50520154  0.65752914  0.41946518  1
  Mn  Mn11  1  0.45498606  0.64695367  0.75170344  1
  O  O12  1  0.22802589  0.88626782  0.12867455  1
  O  O13  1  0.22369113  0.88294557  0.46966538  1
  O  O14  1  0.23105435  0.88835248  0.80425884  1
  O  O15  1  0.29006466  0.62082875  0.64345955  1
  O  O16  1  0.27826499  0.37369358  0.81326357  1
  O  O17  1  0.70671548  0.38296438  0.02714844  1
  O  O18  1  0.72378346  0.38383036  0.37063743  1
  F  F19  1  0.21496696  0.11494304  0.30654371  1
  F  F20  1  0.24780143  0.12262538  0.63776112  1
  F  F21  1  0.21777865  0.11706434  0.97108872  1
  F  F22  1  0.25917394  0.39060042  0.14703200  1
  F  F23  1  0.27319470  0.61766439  0.31208895  1
  F  F24  1  0.25425542  0.38545694  0.47518907  1
  F  F25  1  0.25867637  0.60575472  0.97522827  1
  F  F26  1  0.71586976  0.61214632  0.19355236  1
  F  F27  1  0.73064350  0.61499658  0.52848470  1
  F  F28  1  0.70182349  0.61926301  0.85638580  1
  F  F29  1  0.75866814  0.39522756  0.70236203  1
  F  F30  1  0.76877878  0.11806952  0.18586189  1
  F  F31  1  0.77319218  0.10842163  0.52914561  1
  F  F32  1  0.76227378  0.89080973  0.35228402  1
  F  F33  1  0.75286083  0.87812125  0.01973552  1
  F  F34  1  0.76295431  0.12308883  0.86069283  1
  F  F35  1  0.80880012  0.91472153  0.68960634  1
