# generated using pymatgen
data_Ni3OF5
_symmetry_space_group_name_H-M   'P 1'
_cell_length_a   4.69517942
_cell_length_b   14.08967361
_cell_length_c   3.09224314
_cell_angle_alpha   90.00000000
_cell_angle_beta   90.00000000
_cell_angle_gamma   91.03443579
_symmetry_Int_Tables_number   1
_chemical_formula_structural   Ni3OF5
_chemical_formula_sum   'Ni6 O2 F10'
_cell_volume   204.52950898
_cell_formula_units_Z   2
loop_
 _symmetry_equiv_pos_site_id
 _symmetry_equiv_pos_as_xyz
  1  'x, y, z'
loop_
 _atom_site_type_symbol
 _atom_site_label
 _atom_site_symmetry_multiplicity
 _atom_site_fract_x
 _atom_site_fract_y
 _atom_site_fract_z
 _atom_site_occupancy
  Ni  Ni0  1  0.00000000  0.00000000  0.00000000  1
  Ni  Ni1  1  0.99028736  0.33101528  0.00000000  1
  Ni  Ni2  1  0.00971264  0.66898472  0.00000000  1
  Ni  Ni3  1  0.51306816  0.17066858  0.50000000  1
  Ni  Ni4  1  0.50000000  0.50000000  0.50000000  1
  Ni  Ni5  1  0.48693184  0.82933142  0.50000000  1
  O  O6  1  0.30126046  0.76710170  0.00000000  1
  O  O7  1  0.69873954  0.23289830  0.00000000  1
  F  F8  1  0.19779509  0.26869401  0.50000000  1
  F  F9  1  0.19575313  0.59941079  0.50000000  1
  F  F10  1  0.19735841  0.93527224  0.50000000  1
  F  F11  1  0.30490405  0.10311674  0.00000000  1
  F  F12  1  0.30125042  0.43261049  0.00000000  1
  F  F13  1  0.69874958  0.56738951  0.00000000  1
  F  F14  1  0.69509595  0.89688326  0.00000000  1
  F  F15  1  0.80264159  0.06472776  0.50000000  1
  F  F16  1  0.80424687  0.40058921  0.50000000  1
  F  F17  1  0.80220491  0.73130599  0.50000000  1
