# generated using pymatgen
data_Li2Mn2P2(H4O5)3
_symmetry_space_group_name_H-M   'P 1'
_cell_length_a   4.89574368
_cell_length_b   11.46328397
_cell_length_c   12.17377323
_cell_angle_alpha   86.05898392
_cell_angle_beta   90.00069260
_cell_angle_gamma   77.59526839
_symmetry_Int_Tables_number   1
_chemical_formula_structural   Li2Mn2P2(H4O5)3
_chemical_formula_sum   'Li4 Mn4 P4 H24 O30'
_cell_volume   665.60377918
_cell_formula_units_Z   2
loop_
 _symmetry_equiv_pos_site_id
 _symmetry_equiv_pos_as_xyz
  1  'x, y, z'
loop_
 _atom_site_type_symbol
 _atom_site_label
 _atom_site_symmetry_multiplicity
 _atom_site_fract_x
 _atom_site_fract_y
 _atom_site_fract_z
 _atom_site_occupancy
  Li  Li0  1  0.98029784  0.78116307  0.92916871  1
  Li  Li1  1  0.24455840  0.78111319  0.42945784  1
  Li  Li2  1  0.75361045  0.21873081  0.56996549  1
  Li  Li3  1  0.02481580  0.21752799  0.07198210  1
  Mn  Mn4  1  0.07558365  0.49936540  0.87631353  1
  Mn  Mn5  1  0.57437449  0.50060773  0.62226717  1
  Mn  Mn6  1  0.42525551  0.49910785  0.37588464  1
  Mn  Mn7  1  0.92441077  0.49999556  0.12315653  1
  P  P8  1  0.51014067  0.66878267  0.78694253  1
  P  P9  1  0.82051212  0.66836351  0.28736291  1
  P  P10  1  0.17734430  0.33153080  0.71154851  1
  P  P11  1  0.49110383  0.32979365  0.21305166  1
  H  H12  1  0.56693538  0.96393929  0.85073083  1
  H  H13  1  0.23186053  0.92913828  0.77036395  1
  H  H14  1  0.46954688  0.96311111  0.34811187  1
  H  H15  1  0.11721343  0.86638318  0.62526502  1
  H  H16  1  0.84323381  0.92429016  0.27325793  1
  H  H17  1  0.01365555  0.86832073  0.12421103  1
  H  H18  1  0.96581153  0.76482307  0.60638005  1
  H  H19  1  0.27610837  0.76869019  0.10899328  1
  H  H20  1  0.63449171  0.46565338  0.93414930  1
  H  H21  1  0.10018472  0.53550364  0.56676260  1
  H  H22  1  0.90097976  0.46473398  0.43249564  1
  H  H23  1  0.36492467  0.53442415  0.06977218  1
  H  H24  1  0.73879049  0.23406114  0.89067005  1
  H  H25  1  0.03199833  0.23755151  0.39275732  1
  H  H26  1  0.98714860  0.12885948  0.87473957  1
  H  H27  1  0.16076795  0.07576883  0.72624855  1
  H  H28  1  0.88279236  0.13512570  0.37444537  1
  H  H29  1  0.53192497  0.03587320  0.65039582  1
  H  H30  1  0.72940276  0.00845537  0.94270294  1
  H  H31  1  0.77140686  0.07048294  0.22820120  1
  H  H32  1  0.74219121  0.98891171  0.55996129  1
  H  H33  1  0.43617483  0.03453947  0.14943232  1
  H  H34  1  0.26877297  0.01041082  0.44140185  1
  H  H35  1  0.27351697  0.99136798  0.05675854  1
  O  O36  1  0.71467376  0.93532397  0.90765559  1
  O  O37  1  0.34750319  0.93699233  0.40544147  1
  O  O38  1  0.01820679  0.83428805  0.56873702  1
  O  O39  1  0.28737384  0.77647784  0.81394571  1
  O  O40  1  0.14877680  0.83538446  0.06883998  1
  O  O41  1  0.58432044  0.66588868  0.66164999  1
  O  O42  1  0.93634821  0.77465586  0.31609396  1
  O  O43  1  0.78574914  0.65552925  0.85627051  1
  O  O44  1  0.74861796  0.66589899  0.16208936  1
  O  O45  1  0.55665514  0.65548898  0.35607419  1
  O  O46  1  0.40374306  0.54742065  0.80975703  1
  O  O47  1  0.25032717  0.56609412  0.52954546  1
  O  O48  1  0.04770748  0.54634208  0.30980466  1
  O  O49  1  0.81832047  0.43399371  0.97003346  1
  O  O50  1  0.18432453  0.56449230  0.03104159  1
  O  O51  1  0.95035368  0.45328984  0.68872348  1
  O  O52  1  0.74884037  0.43413334  0.46923561  1
  O  O53  1  0.59582449  0.45187081  0.18980748  1
  O  O54  1  0.43935020  0.34411712  0.64192843  1
  O  O55  1  0.24942836  0.33429765  0.83656914  1
  O  O56  1  0.21424698  0.34305064  0.14406333  1
  O  O57  1  0.05930269  0.22461696  0.68442729  1
  O  O58  1  0.41602534  0.33351190  0.33834288  1
  O  O59  1  0.85557289  0.16389930  0.93023137  1
  O  O60  1  0.71351190  0.22308153  0.18623607  1
  O  O61  1  0.98252218  0.16685571  0.43075457  1
  O  O62  1  0.65655471  0.06250206  0.59461845  1
  O  O63  1  0.30277614  0.00224862  0.74984125  1
  O  O64  1  0.28471944  0.06327394  0.09400518  1
  O  O65  1  0.70131821  0.99693577  0.24737443  1
