# generated using pymatgen
data_Li3Fe3(WO6)2
_symmetry_space_group_name_H-M   'P 1'
_cell_length_a   9.03901668
_cell_length_b   12.56147272
_cell_length_c   9.34298724
_cell_angle_alpha   90.00000000
_cell_angle_beta   90.00000000
_cell_angle_gamma   91.63799977
_symmetry_Int_Tables_number   1
_chemical_formula_structural   Li3Fe3(WO6)2
_chemical_formula_sum   'Li12 Fe12 W8 O48'
_cell_volume   1060.40069632
_cell_formula_units_Z   4
loop_
 _symmetry_equiv_pos_site_id
 _symmetry_equiv_pos_as_xyz
  1  'x, y, z'
loop_
 _atom_site_type_symbol
 _atom_site_label
 _atom_site_symmetry_multiplicity
 _atom_site_fract_x
 _atom_site_fract_y
 _atom_site_fract_z
 _atom_site_occupancy
  Li  Li0  1  0.06617458  0.70137793  0.08704692  1
  Li  Li1  1  0.06932222  0.34746967  0.51512848  1
  Li  Li2  1  0.18286117  0.18228617  0.77884978  1
  Li  Li3  1  0.31713883  0.31771383  0.27884978  1
  Li  Li4  1  0.43382542  0.79862207  0.58704692  1
  Li  Li5  1  0.43067778  0.15253033  0.01512848  1
  Li  Li6  1  0.56932222  0.84746967  0.98487152  1
  Li  Li7  1  0.56617458  0.20137793  0.41295308  1
  Li  Li8  1  0.68286117  0.68228617  0.72115022  1
  Li  Li9  1  0.81713883  0.81771383  0.22115022  1
  Li  Li10  1  0.93067778  0.65253033  0.48487152  1
  Li  Li11  1  0.93382542  0.29862207  0.91295308  1
  Fe  Fe12  1  0.03005948  0.48682713  0.24591869  1
  Fe  Fe13  1  0.11496802  0.85090718  0.38217007  1
  Fe  Fe14  1  0.10936066  0.13273393  0.12132232  1
  Fe  Fe15  1  0.38503198  0.64909282  0.88217007  1
  Fe  Fe16  1  0.39063934  0.36726607  0.62132232  1
  Fe  Fe17  1  0.46994052  0.01317287  0.74591869  1
  Fe  Fe18  1  0.53005948  0.98682713  0.25408131  1
  Fe  Fe19  1  0.60936066  0.63273393  0.37867768  1
  Fe  Fe20  1  0.61496802  0.35090718  0.11782993  1
  Fe  Fe21  1  0.89063934  0.86726607  0.87867768  1
  Fe  Fe22  1  0.88503198  0.14909282  0.61782993  1
  Fe  Fe23  1  0.96994052  0.51317287  0.75408131  1
  W  W24  1  0.25333878  0.88912927  0.01811204  1
  W  W25  1  0.24666122  0.61087073  0.51811204  1
  W  W26  1  0.75333878  0.38912927  0.48188796  1
  W  W27  1  0.74666122  0.11087073  0.98188796  1
  W  W28  1  0.25079359  0.37793503  0.97134396  1
  W  W29  1  0.24920641  0.12206497  0.47134396  1
  W  W30  1  0.75079359  0.87793503  0.52865604  1
  W  W31  1  0.74920641  0.62206497  0.02865604  1
  O  O32  1  0.07026824  0.43037152  0.89025834  1
  O  O33  1  0.08970937  0.91127826  0.89543166  1
  O  O34  1  0.07076454  0.61733250  0.64544324  1
  O  O35  1  0.08485517  0.19399988  0.57592727  1
  O  O36  1  0.10154599  0.60051485  0.36413275  1
  O  O37  1  0.12536240  0.84988975  0.17918930  1
  O  O38  1  0.14495433  0.99611872  0.42961322  1
  O  O39  1  0.12883008  0.24156470  0.98240925  1
  O  O40  1  0.18167533  0.18855228  0.29548138  1
  O  O41  1  0.19294740  0.41800955  0.16359043  1
  O  O42  1  0.24834022  0.76637176  0.48286394  1
  O  O43  1  0.25165978  0.73362824  0.98286394  1
  O  O44  1  0.26265931  0.04294998  0.05476098  1
  O  O45  1  0.23734069  0.45705002  0.55476098  1
  O  O46  1  0.30705260  0.08199045  0.66359043  1
  O  O47  1  0.31832467  0.31144772  0.79548138  1
  O  O48  1  0.35504567  0.50388128  0.92961322  1
  O  O49  1  0.37116992  0.25843530  0.48240925  1
  O  O50  1  0.37463760  0.65011025  0.67918930  1
  O  O51  1  0.39845401  0.89948515  0.86413275  1
  O  O52  1  0.42923546  0.88266750  0.14544324  1
  O  O53  1  0.41029063  0.58872174  0.39543166  1
  O  O54  1  0.41514483  0.30600012  0.07592727  1
  O  O55  1  0.42973176  0.06962848  0.39025834  1
  O  O56  1  0.57026824  0.93037152  0.60974166  1
  O  O57  1  0.58485517  0.69399988  0.92407273  1
  O  O58  1  0.58970937  0.41127826  0.60456834  1
  O  O59  1  0.57076454  0.11733250  0.85455676  1
  O  O60  1  0.60154599  0.10051485  0.13586725  1
  O  O61  1  0.62536240  0.34988975  0.32081070  1
  O  O62  1  0.62883008  0.74156470  0.51759075  1
  O  O63  1  0.64495433  0.49611872  0.07038678  1
  O  O64  1  0.68167533  0.68855228  0.20451862  1
  O  O65  1  0.69294740  0.91800955  0.33640957  1
  O  O66  1  0.76265931  0.54294998  0.44523902  1
  O  O67  1  0.73734069  0.95705002  0.94523902  1
  O  O68  1  0.74834022  0.26637176  0.01713606  1
  O  O69  1  0.75165978  0.23362824  0.51713606  1
  O  O70  1  0.80705260  0.58199045  0.83640957  1
  O  O71  1  0.81832467  0.81144772  0.70451862  1
  O  O72  1  0.87116992  0.75843530  0.01759075  1
  O  O73  1  0.85504567  0.00388128  0.57038678  1
  O  O74  1  0.87463760  0.15011025  0.82081070  1
  O  O75  1  0.89845401  0.39948515  0.63586725  1
  O  O76  1  0.91514483  0.80600012  0.42407273  1
  O  O77  1  0.92923546  0.38266750  0.35455676  1
  O  O78  1  0.91029063  0.08872174  0.10456834  1
  O  O79  1  0.92973176  0.56962848  0.10974166  1
