# generated using pymatgen
data_Mn3Cu2Sn(PO4)6
_symmetry_space_group_name_H-M   'P 1'
_cell_length_a   8.60244206
_cell_length_b   8.60244163
_cell_length_c   8.60244223
_cell_angle_alpha   59.62346412
_cell_angle_beta   59.62345997
_cell_angle_gamma   59.62346486
_symmetry_Int_Tables_number   1
_chemical_formula_structural   Mn3Cu2Sn(PO4)6
_chemical_formula_sum   'Mn3 Cu2 Sn1 P6 O24'
_cell_volume   446.29086719
_cell_formula_units_Z   1
loop_
 _symmetry_equiv_pos_site_id
 _symmetry_equiv_pos_as_xyz
  1  'x, y, z'
loop_
 _atom_site_type_symbol
 _atom_site_label
 _atom_site_symmetry_multiplicity
 _atom_site_fract_x
 _atom_site_fract_y
 _atom_site_fract_z
 _atom_site_occupancy
  Mn  Mn0  1  0.14326607  0.14326607  0.14326607  1
  Mn  Mn1  1  0.35723844  0.35723844  0.35723844  1
  Mn  Mn2  1  0.64260718  0.64260718  0.64260718  1
  Cu  Cu3  1  0.00244438  0.00244438  0.00244438  1
  Cu  Cu4  1  0.49949469  0.49949469  0.49949469  1
  Sn  Sn5  1  0.85728366  0.85728366  0.85728366  1
  P  P6  1  0.74738760  0.45254083  0.04345892  1
  P  P7  1  0.04345892  0.74738760  0.45254083  1
  P  P8  1  0.45254083  0.04345892  0.74738760  1
  P  P9  1  0.25497111  0.53580626  0.96232795  1
  P  P10  1  0.53580626  0.96232795  0.25497111  1
  P  P11  1  0.96232795  0.25497111  0.53580626  1
  O  O12  1  0.12400172  0.30970411  0.50200592  1
  O  O13  1  0.30970411  0.50200592  0.12400172  1
  O  O14  1  0.05943877  0.91603746  0.25866937  1
  O  O15  1  0.50200592  0.12400172  0.30970411  1
  O  O16  1  0.01982357  0.80041845  0.61107934  1
  O  O17  1  0.24030631  0.57849006  0.43729661  1
  O  O18  1  0.25866937  0.05943877  0.91603746  1
  O  O19  1  0.43729661  0.24030631  0.57849006  1
  O  O20  1  0.19559210  0.38060238  0.99193363  1
  O  O21  1  0.57849006  0.43729661  0.24030631  1
  O  O22  1  0.08900037  0.73476191  0.94764446  1
  O  O23  1  0.38060238  0.99193363  0.19559210  1
  O  O24  1  0.61107934  0.01982357  0.80041845  1
  O  O25  1  0.91603746  0.25866937  0.05943877  1
  O  O26  1  0.42099143  0.55215631  0.76525537  1
  O  O27  1  0.80041845  0.61107934  0.01982357  1
  O  O28  1  0.55215631  0.76525537  0.42099143  1
  O  O29  1  0.73476191  0.94764446  0.08900037  1
  O  O30  1  0.76525537  0.42099143  0.55215631  1
  O  O31  1  0.99193363  0.19559210  0.38060238  1
  O  O32  1  0.48988668  0.87955501  0.69652057  1
  O  O33  1  0.94764446  0.08900037  0.73476191  1
  O  O34  1  0.69652057  0.48988668  0.87955501  1
  O  O35  1  0.87955501  0.69652057  0.48988668  1
