# generated using pymatgen
data_LiFe4(BO3)4
_symmetry_space_group_name_H-M   'P 1'
_cell_length_a   5.31760872
_cell_length_b   9.03237902
_cell_length_c   10.27883746
_cell_angle_alpha   89.99999842
_cell_angle_beta   90.36066736
_cell_angle_gamma   90.00000236
_symmetry_Int_Tables_number   1
_chemical_formula_structural   LiFe4(BO3)4
_chemical_formula_sum   'Li2 Fe8 B8 O24'
_cell_volume   493.68953989
_cell_formula_units_Z   2
loop_
 _symmetry_equiv_pos_site_id
 _symmetry_equiv_pos_as_xyz
  1  'x, y, z'
loop_
 _atom_site_type_symbol
 _atom_site_label
 _atom_site_symmetry_multiplicity
 _atom_site_fract_x
 _atom_site_fract_y
 _atom_site_fract_z
 _atom_site_occupancy
  Li  Li0  1  0.35617755  0.00722928  0.82882953  1
  Li  Li1  1  0.35617755  0.99277072  0.32882953  1
  Fe  Fe2  1  0.13797818  0.16819077  0.11750399  1
  Fe  Fe3  1  0.84311221  0.17241940  0.37131278  1
  Fe  Fe4  1  0.34021025  0.34025565  0.87288860  1
  Fe  Fe5  1  0.66305646  0.33212253  0.62521278  1
  Fe  Fe6  1  0.34021025  0.65974435  0.37288860  1
  Fe  Fe7  1  0.13797818  0.83180923  0.61750399  1
  Fe  Fe8  1  0.66305646  0.66787747  0.12521278  1
  Fe  Fe9  1  0.84311221  0.82758060  0.87131278  1
  B  B10  1  0.16904198  0.17393185  0.62807851  1
  B  B11  1  0.33527644  0.32397476  0.37628315  1
  B  B12  1  0.83485974  0.16452491  0.86691410  1
  B  B13  1  0.64894962  0.33447808  0.12366406  1
  B  B14  1  0.33527644  0.67602524  0.87628315  1
  B  B15  1  0.64894962  0.66552192  0.62366406  1
  B  B16  1  0.16904198  0.82606815  0.12807851  1
  B  B17  1  0.83485974  0.83547509  0.36691410  1
  O  O18  1  0.25976915  0.03557517  0.64439606  1
  O  O19  1  0.08675371  0.17790842  0.90452837  1
  O  O20  1  0.71812880  0.02828178  0.87023410  1
  O  O21  1  0.20383192  0.19701728  0.33461127  1
  O  O22  1  0.30600632  0.29658349  0.67480659  1
  O  O23  1  0.77560338  0.21580793  0.18307217  1
  O  O24  1  0.93616046  0.20093024  0.56792036  1
  O  O25  1  0.42286379  0.30786589  0.05936375  1
  O  O26  1  0.24196417  0.46114374  0.36291810  1
  O  O27  1  0.57193978  0.29914413  0.43284870  1
  O  O28  1  0.70170175  0.28921799  0.82471976  1
  O  O29  1  0.24196417  0.53885626  0.86291810  1
  O  O30  1  0.75478434  0.47117616  0.12773226  1
  O  O31  1  0.30600632  0.70341651  0.17480659  1
  O  O32  1  0.42286379  0.69213411  0.55936375  1
  O  O33  1  0.75478434  0.52882384  0.62773226  1
  O  O34  1  0.57193978  0.70085587  0.93284870  1
  O  O35  1  0.08675371  0.82209158  0.40452837  1
  O  O36  1  0.20383192  0.80298272  0.83461127  1
  O  O37  1  0.70170175  0.71078201  0.32471976  1
  O  O38  1  0.77560338  0.78419207  0.68307217  1
  O  O39  1  0.25976915  0.96442483  0.14439606  1
  O  O40  1  0.93616046  0.79906976  0.06792036  1
  O  O41  1  0.71812880  0.97171822  0.37023410  1
