# generated using pymatgen
data_Li7Mn(PO4)4
_symmetry_space_group_name_H-M   'P 1'
_cell_length_a   4.76276667
_cell_length_b   10.22078784
_cell_length_c   5.95103668
_cell_angle_alpha   90.00000000
_cell_angle_beta   90.00000000
_cell_angle_gamma   90.17599644
_symmetry_Int_Tables_number   1
_chemical_formula_structural   Li7Mn(PO4)4
_chemical_formula_sum   'Li7 Mn1 P4 O16'
_cell_volume   289.69050254
_cell_formula_units_Z   1
loop_
 _symmetry_equiv_pos_site_id
 _symmetry_equiv_pos_as_xyz
  1  'x, y, z'
loop_
 _atom_site_type_symbol
 _atom_site_label
 _atom_site_symmetry_multiplicity
 _atom_site_fract_x
 _atom_site_fract_y
 _atom_site_fract_z
 _atom_site_occupancy
  Li  Li0  1  0.98678640  0.01704953  0.01190482  1
  Li  Li1  1  0.98678640  0.01704953  0.48809518  1
  Li  Li2  1  0.47779813  0.22417344  0.75000000  1
  Li  Li3  1  0.49755141  0.48897801  0.48817738  1
  Li  Li4  1  0.49755141  0.48897801  0.01182262  1
  Li  Li5  1  0.52415216  0.77617296  0.25000000  1
  Li  Li6  1  0.97365427  0.28012057  0.25000000  1
  Mn  Mn7  1  0.00857942  0.72029632  0.75000000  1
  P  P8  1  0.06075812  0.59434277  0.25000000  1
  P  P9  1  0.42767209  0.09348449  0.25000000  1
  P  P10  1  0.58795316  0.89611498  0.75000000  1
  P  P11  1  0.93035168  0.41061803  0.75000000  1
  O  O12  1  0.20399081  0.46018059  0.25000000  1
  O  O13  1  0.19304147  0.66888932  0.03741317  1
  O  O14  1  0.19304147  0.66888932  0.46258683  1
  O  O15  1  0.25038609  0.41526513  0.75000000  1
  O  O16  1  0.26408816  0.88257071  0.75000000  1
  O  O17  1  0.29337366  0.16054430  0.04143326  1
  O  O18  1  0.29337366  0.16054430  0.45856674  1
  O  O19  1  0.30721195  0.95074648  0.25000000  1
  O  O20  1  0.68970854  0.03730119  0.75000000  1
  O  O21  1  0.73562191  0.82098831  0.54964443  1
  O  O22  1  0.73562191  0.82098831  0.95035557  1
  O  O23  1  0.74838246  0.09520640  0.25000000  1
  O  O24  1  0.74210617  0.59606767  0.25000000  1
  O  O25  1  0.79458694  0.34763572  0.54168764  1
  O  O26  1  0.79458694  0.34763572  0.95831236  1
  O  O27  1  0.80128520  0.55916990  0.75000000  1
