# generated using pymatgen
data_Li4Ni2P4H3O16
_symmetry_space_group_name_H-M   'P 1'
_cell_length_a   4.97592003
_cell_length_b   8.17299957
_cell_length_c   7.56302788
_cell_angle_alpha   88.24440002
_cell_angle_beta   101.35338080
_cell_angle_gamma   88.20721619
_symmetry_Int_Tables_number   1
_chemical_formula_structural   Li4Ni2P4H3O16
_chemical_formula_sum   'Li4 Ni2 P4 H3 O16'
_cell_volume   301.19580019
_cell_formula_units_Z   1
loop_
 _symmetry_equiv_pos_site_id
 _symmetry_equiv_pos_as_xyz
  1  'x, y, z'
loop_
 _atom_site_type_symbol
 _atom_site_label
 _atom_site_symmetry_multiplicity
 _atom_site_fract_x
 _atom_site_fract_y
 _atom_site_fract_z
 _atom_site_occupancy
  Li  Li0  1  0.12095491  0.35348583  0.68663073  1
  Li  Li1  1  0.38570752  0.86949914  0.84210503  1
  Li  Li2  1  0.60364910  0.13028212  0.16237251  1
  Li  Li3  1  0.87794647  0.64842807  0.31404765  1
  Ni  Ni4  1  0.00075063  0.99708229  0.49617569  1
  Ni  Ni5  1  0.49813588  0.50143701  0.00159167  1
  P  P6  1  0.10089061  0.33316657  0.24635312  1
  P  P7  1  0.37511060  0.84949682  0.23696242  1
  P  P8  1  0.62397595  0.15359968  0.75497536  1
  P  P9  1  0.89654280  0.66770905  0.75452030  1
  H  H10  1  0.41515677  0.43149215  0.43480852  1
  H  H11  1  0.58233918  0.57200348  0.56320192  1
  H  H12  1  0.95045833  0.01394397  0.97800669  1
  O  O13  1  0.12303294  0.54682281  0.84499015  1
  O  O14  1  0.98559505  0.17066874  0.29834878  1
  O  O15  1  0.15126014  0.82420109  0.35572838  1
  O  O16  1  0.22225216  0.41796740  0.43831994  1
  O  O17  1  0.39428806  0.04860041  0.66119051  1
  O  O18  1  0.51463483  0.32125390  0.80129263  1
  O  O19  1  0.24796736  0.93982940  0.05739279  1
  O  O20  1  0.34505525  0.31658033  0.15288672  1
  O  O21  1  0.65231021  0.68446942  0.84806924  1
  O  O22  1  0.75232491  0.06159230  0.94369724  1
  O  O23  1  0.48231778  0.67570110  0.20267949  1
  O  O24  1  0.61050593  0.94855419  0.34002755  1
  O  O25  1  0.77706935  0.58155672  0.56310372  1
  O  O26  1  0.85406032  0.17550805  0.64516689  1
  O  O27  1  0.00913317  0.83083213  0.70189454  1
  O  O28  1  0.87545479  0.45413583  0.15536183  1
