# generated using pymatgen
data_Sc10Mn17S32
_symmetry_space_group_name_H-M   'P 1'
_cell_length_a   7.34757659
_cell_length_b   7.39468898
_cell_length_c   28.90377956
_cell_angle_alpha   60.81505151
_cell_angle_beta   60.75839875
_cell_angle_gamma   61.20909474
_symmetry_Int_Tables_number   1
_chemical_formula_structural   Sc10Mn17S32
_chemical_formula_sum   'Sc10 Mn17 S32'
_cell_volume   1133.63263727
_cell_formula_units_Z   1
loop_
 _symmetry_equiv_pos_site_id
 _symmetry_equiv_pos_as_xyz
  1  'x, y, z'
loop_
 _atom_site_type_symbol
 _atom_site_label
 _atom_site_symmetry_multiplicity
 _atom_site_fract_x
 _atom_site_fract_y
 _atom_site_fract_z
 _atom_site_occupancy
  Sc  Sc0  1  0.99766311  0.50632566  0.12260958  1
  Sc  Sc1  1  0.50755751  0.00767226  0.12460638  1
  Sc  Sc2  1  0.51054779  0.48820425  0.00377052  1
  Sc  Sc3  1  0.00824464  0.46010518  0.25611249  1
  Sc  Sc4  1  0.01055432  0.46082263  0.50348476  1
  Sc  Sc5  1  0.50702594  0.99190001  0.37572442  1
  Sc  Sc6  1  0.50778303  0.99289785  0.62432558  1
  Sc  Sc7  1  0.00920730  0.46313210  0.75108997  1
  Sc  Sc8  1  0.00973992  0.50127158  0.87517219  1
  Sc  Sc9  1  0.50485013  0.00454288  0.87345359  1
  Mn  Mn10  1  0.41719288  0.02614312  0.00784121  1
  Mn  Mn11  1  0.50047465  0.49368538  0.12079616  1
  Mn  Mn12  1  0.43655444  0.00658966  0.25849703  1
  Mn  Mn13  1  0.00165524  0.50539469  0.37430499  1
  Mn  Mn14  1  0.49682371  0.49417575  0.25583940  1
  Mn  Mn15  1  0.44563921  0.00401107  0.50632008  1
  Mn  Mn16  1  0.49808846  0.49490112  0.37213446  1
  Mn  Mn17  1  0.00361036  0.50623329  0.62340303  1
  Mn  Mn18  1  0.91069653  0.93209966  0.20745963  1
  Mn  Mn19  1  0.49836329  0.49583959  0.50457968  1
  Mn  Mn20  1  0.50035470  0.49640215  0.62092078  1
  Mn  Mn21  1  0.90698375  0.93649274  0.45722566  1
  Mn  Mn22  1  0.49897353  0.49863204  0.75371616  1
  Mn  Mn23  1  0.50068262  0.48504564  0.87365721  1
  Mn  Mn24  1  0.44258267  0.01097475  0.75422601  1
  Mn  Mn25  1  0.90865162  0.93664364  0.70695874  1
  Mn  Mn26  1  0.91976874  0.87721765  0.96374506  1
  S  S27  1  0.25291819  0.24946503  0.06552365  1
  S  S28  1  0.23669068  0.23905924  0.18999230  1
  S  S29  1  0.25882537  0.73167369  0.06530543  1
  S  S30  1  0.73184073  0.25472644  0.06820157  1
  S  S31  1  0.28047481  0.70925230  0.18901757  1
  S  S32  1  0.24463111  0.23575327  0.31797805  1
  S  S33  1  0.70804548  0.29888169  0.18682077  1
  S  S34  1  0.24697370  0.23754904  0.43801612  1
  S  S35  1  0.26417069  0.71830710  0.31502364  1
  S  S36  1  0.73688242  0.76079848  0.06379816  1
  S  S37  1  0.76095468  0.74635822  0.18987975  1
  S  S38  1  0.72994694  0.25574188  0.31477374  1
  S  S39  1  0.27917300  0.71397536  0.43856503  1
  S  S40  1  0.24776092  0.23781390  0.56556738  1
  S  S41  1  0.71970666  0.30711245  0.43443760  1
  S  S42  1  0.24830919  0.23989910  0.68578462  1
  S  S43  1  0.26640612  0.71914646  0.56406839  1
  S  S44  1  0.75593222  0.75523985  0.30882631  1
  S  S45  1  0.75661929  0.75412411  0.43921653  1
  S  S46  1  0.73044827  0.25888383  0.56371833  1
  S  S47  1  0.24776877  0.24364656  0.81357452  1
  S  S48  1  0.28141091  0.71526939  0.68675738  1
  S  S49  1  0.71981795  0.30683186  0.68348937  1
  S  S50  1  0.25729837  0.24473951  0.93433624  1
  S  S51  1  0.26896060  0.72658738  0.81211171  1
  S  S52  1  0.75774867  0.75475766  0.55798396  1
  S  S53  1  0.73721957  0.25900070  0.81061444  1
  S  S54  1  0.75869952  0.75755967  0.68749803  1
  S  S55  1  0.29961873  0.72754790  0.93180898  1
  S  S56  1  0.73992325  0.26460749  0.93548202  1
  S  S57  1  0.76756553  0.74558846  0.80785903  1
  S  S58  1  0.74698756  0.75274563  0.93699463  1
