# generated using pymatgen
data_LiFe4(BO3)4
_symmetry_space_group_name_H-M   'P 1'
_cell_length_a   5.23343477
_cell_length_b   9.15704953
_cell_length_c   10.08004731
_cell_angle_alpha   90.09707810
_cell_angle_beta   90.59051759
_cell_angle_gamma   89.06187864
_symmetry_Int_Tables_number   1
_chemical_formula_structural   LiFe4(BO3)4
_chemical_formula_sum   'Li2 Fe8 B8 O24'
_cell_volume   482.97334200
_cell_formula_units_Z   2
loop_
 _symmetry_equiv_pos_site_id
 _symmetry_equiv_pos_as_xyz
  1  'x, y, z'
loop_
 _atom_site_type_symbol
 _atom_site_label
 _atom_site_symmetry_multiplicity
 _atom_site_fract_x
 _atom_site_fract_y
 _atom_site_fract_z
 _atom_site_occupancy
  Li  Li0  1  0.66458320  0.67682676  0.89814485  1
  Li  Li1  1  0.34194939  0.32263627  0.65282361  1
  Fe  Fe2  1  0.85104802  0.15274762  0.62779167  1
  Fe  Fe3  1  0.82929292  0.49798626  0.13077446  1
  Fe  Fe4  1  0.67860827  0.01243516  0.87666880  1
  Fe  Fe5  1  0.66523361  0.33434778  0.38016616  1
  Fe  Fe6  1  0.32422909  0.66654799  0.62903779  1
  Fe  Fe7  1  0.32781351  0.00057755  0.12684556  1
  Fe  Fe8  1  0.16477511  0.83992639  0.37704895  1
  Fe  Fe9  1  0.17689167  0.49264917  0.88298731  1
  B  B10  1  0.82662698  0.49583388  0.62795358  1
  B  B11  1  0.82877219  0.17127835  0.12815040  1
  B  B12  1  0.66011336  0.00130074  0.37314429  1
  B  B13  1  0.67525636  0.33413653  0.87332988  1
  B  B14  1  0.35133820  0.00118003  0.62793581  1
  B  B15  1  0.33141210  0.66967473  0.12717793  1
  B  B16  1  0.15861016  0.50274736  0.38116361  1
  B  B17  1  0.17195785  0.83261891  0.87999951  1
  O  O18  1  0.90473847  0.49566234  0.33486726  1
  O  O19  1  0.91191482  0.84439086  0.88265602  1
  O  O20  1  0.81526269  0.20726921  0.84261765  1
  O  O21  1  0.74498868  0.13326274  0.42211523  1
  O  O22  1  0.81619553  0.88134827  0.37074616  1
  O  O23  1  0.80142550  0.45598549  0.92880747  1
  O  O24  1  0.67349151  0.61527385  0.65081275  1
  O  O25  1  0.66911996  0.06332150  0.07617002  1
  O  O26  1  0.72170135  0.36606331  0.58040951  1
  O  O27  1  0.71280596  0.30036498  0.17567078  1
  O  O28  1  0.58964628  0.65573411  0.10806807  1
  O  O29  1  0.59449878  0.99424383  0.68633137  1
  O  O30  1  0.40571222  0.99496648  0.32754553  1
  O  O31  1  0.42323182  0.34094912  0.84392644  1
  O  O32  1  0.29511703  0.70685154  0.82939490  1
  O  O33  1  0.24649868  0.63775981  0.42911485  1
  O  O34  1  0.31520702  0.38424102  0.38283072  1
  O  O35  1  0.33059255  0.94125191  0.93022544  1
  O  O36  1  0.17351069  0.55570929  0.08976206  1
  O  O37  1  0.22054936  0.12824107  0.62045188  1
  O  O38  1  0.25288679  0.86984666  0.57561048  1
  O  O39  1  0.21965773  0.79851652  0.17499232  1
  O  O40  1  0.08474055  0.15103983  0.13105206  1
  O  O41  1  0.08934603  0.49855177  0.65860186  1
