# generated using pymatgen
data_LiMnP2O7
_symmetry_space_group_name_H-M   'P 1'
_cell_length_a   9.79540396
_cell_length_b   9.74282850
_cell_length_c   11.12347087
_cell_angle_alpha   89.96443833
_cell_angle_beta   101.58971259
_cell_angle_gamma   88.51050466
_symmetry_Int_Tables_number   1
_chemical_formula_structural   LiMnP2O7
_chemical_formula_sum   'Li8 Mn8 P16 O56'
_cell_volume   1039.55395104
_cell_formula_units_Z   8
loop_
 _symmetry_equiv_pos_site_id
 _symmetry_equiv_pos_as_xyz
  1  'x, y, z'
loop_
 _atom_site_type_symbol
 _atom_site_label
 _atom_site_symmetry_multiplicity
 _atom_site_fract_x
 _atom_site_fract_y
 _atom_site_fract_z
 _atom_site_occupancy
  Li  Li0  1  0.11538258  0.70806045  0.45178658  1
  Li  Li1  1  0.08917584  0.10300877  0.02192437  1
  Li  Li2  1  0.41736718  0.59668956  0.97423082  1
  Li  Li3  1  0.40498736  0.96815245  0.50648060  1
  Li  Li4  1  0.65288657  0.10883173  0.04132270  1
  Li  Li5  1  0.90966978  0.89080360  0.97930052  1
  Li  Li6  1  0.83006638  0.57815207  0.45911366  1
  Li  Li7  1  0.88697975  0.28303859  0.54976662  1
  Mn  Mn8  1  0.19726993  0.92783002  0.67112765  1
  Mn  Mn9  1  0.27686345  0.22753627  0.83621830  1
  Mn  Mn10  1  0.23678757  0.70856950  0.17115669  1
  Mn  Mn11  1  0.29986673  0.42266705  0.33265461  1
  Mn  Mn12  1  0.70081745  0.57607396  0.67633000  1
  Mn  Mn13  1  0.76018752  0.29279122  0.82806599  1
  Mn  Mn14  1  0.72001766  0.77048068  0.16331639  1
  Mn  Mn15  1  0.80345224  0.07022672  0.33497590  1
  P  P16  1  0.02069921  0.44726929  0.75027496  1
  P  P17  1  0.11981231  0.71106065  0.88071925  1
  P  P18  1  0.06064996  0.93050831  0.24503021  1
  P  P19  1  0.12891720  0.14914774  0.43520986  1
  P  P20  1  0.37989204  0.65016183  0.57916262  1
  P  P21  1  0.42993324  0.42313685  0.75851802  1
  P  P22  1  0.52912340  0.06033039  0.75460005  1
  P  P23  1  0.38105499  0.20889576  0.11549368  1
  P  P24  1  0.61439666  0.78964581  0.88290871  1
  P  P25  1  0.46279061  0.93585273  0.23970709  1
  P  P26  1  0.56665600  0.57525912  0.24079949  1
  P  P27  1  0.62242106  0.34928079  0.41760771  1
  P  P28  1  0.87295201  0.85263799  0.56485877  1
  P  P29  1  0.93624989  0.06835520  0.75617426  1
  P  P30  1  0.88217312  0.28687689  0.11850246  1
  P  P31  1  0.97432748  0.55438658  0.24179320  1
  O  O32  1  0.00688528  0.42692318  0.61511428  1
  O  O33  1  0.02636903  0.83876790  0.55312846  1
  O  O34  1  0.08510805  0.07855000  0.72823824  1
  O  O35  1  0.10347091  0.33995570  0.83838270  1
  O  O36  1  0.09696343  0.58942084  0.78020219  1
  O  O37  1  0.19114064  0.82199979  0.81626884  1
  O  O38  1  0.22626407  0.65374975  0.99491965  1
  O  O39  1  0.02332776  0.25035425  0.09729332  1
  O  O40  1  0.12663576  0.06634281  0.30717146  1
  O  O41  1  0.06327917  0.93664178  0.11016055  1
  O  O42  1  0.12944930  0.54118042  0.21788009  1
  O  O43  1  0.19033503  0.28453539  0.41438481  1
  O  O44  1  0.15525008  0.80717622  0.30281935  1
  O  O45  1  0.22059585  0.05536643  0.53455532  1
  O  O46  1  0.28966546  0.57987057  0.46910364  1
  O  O47  1  0.33182418  0.31059814  0.69469412  1
  O  O48  1  0.32181283  0.79664052  0.59430114  1
  O  O49  1  0.38595847  0.05818667  0.79833555  1
  O  O50  1  0.36724327  0.56926151  0.70183521  1
  O  O51  1  0.41520242  0.42111951  0.89136589  1
  O  O52  1  0.47664110  0.75881981  0.91052908  1
  O  O53  1  0.26887237  0.16296678  0.00155831  1
  O  O54  1  0.32188288  0.33127105  0.17883904  1
  O  O55  1  0.39151343  0.08640527  0.21521076  1
  O  O56  1  0.41908381  0.58946638  0.26734154  1
  O  O57  1  0.37023516  0.84092177  0.14600852  1
  O  O58  1  0.52145477  0.08499911  0.62152935  1
  O  O59  1  0.47033846  0.34537582  0.43155275  1
  O  O60  1  0.53553422  0.65338538  0.57386190  1
  O  O61  1  0.46888222  0.90284891  0.37114574  1
  O  O62  1  0.62707964  0.15258481  0.84885302  1
  O  O63  1  0.57960250  0.41184787  0.73392836  1
  O  O64  1  0.60005805  0.90954205  0.78218940  1
  O  O65  1  0.69162276  0.67333461  0.82751072  1
  O  O66  1  0.71827914  0.84955822  0.99913559  1
  O  O67  1  0.51828252  0.22587288  0.08072211  1
  O  O68  1  0.57709013  0.59286792  0.10780570  1
  O  O69  1  0.62594728  0.42605810  0.28914144  1
  O  O70  1  0.60848503  0.94078012  0.19897218  1
  O  O71  1  0.68914627  0.20801962  0.40632184  1
  O  O72  1  0.67622204  0.67802090  0.30967008  1
  O  O73  1  0.71564681  0.43258021  0.51952099  1
  O  O74  1  0.78162967  0.93851100  0.46180892  1
  O  O75  1  0.84307335  0.19287122  0.69913367  1
  O  O76  1  0.81341792  0.71293294  0.58283910  1
  O  O77  1  0.86638006  0.45973161  0.78353721  1
  O  O78  1  0.93253999  0.05896696  0.89081773  1
  O  O79  1  0.86961123  0.93282516  0.69176370  1
  O  O80  1  0.98127091  0.74734241  0.90869494  1
  O  O81  1  0.77529757  0.33508175  0.00284850  1
  O  O82  1  0.80813128  0.17323198  0.18098319  1
  O  O83  1  0.89891323  0.41075313  0.21725944  1
  O  O84  1  0.89135100  0.65936603  0.15042791  1
  O  O85  1  0.91084041  0.92007800  0.27193754  1
  O  O86  1  0.97669148  0.15996048  0.44990270  1
  O  O87  1  0.97674414  0.58424877  0.37483747  1
