# generated using pymatgen
data_Li2Mn(Si2O5)2
_symmetry_space_group_name_H-M   'P 1'
_cell_length_a   7.11627603
_cell_length_b   10.02385105
_cell_length_c   13.80168836
_cell_angle_alpha   90.00000000
_cell_angle_beta   85.07875944
_cell_angle_gamma   90.00000000
_symmetry_Int_Tables_number   1
_chemical_formula_structural   Li2Mn(Si2O5)2
_chemical_formula_sum   'Li8 Mn4 Si16 O40'
_cell_volume   980.87947972
_cell_formula_units_Z   4
loop_
 _symmetry_equiv_pos_site_id
 _symmetry_equiv_pos_as_xyz
  1  'x, y, z'
loop_
 _atom_site_type_symbol
 _atom_site_label
 _atom_site_symmetry_multiplicity
 _atom_site_fract_x
 _atom_site_fract_y
 _atom_site_fract_z
 _atom_site_occupancy
  Li  Li0  1  0.11852575  0.66039253  0.91366409  1
  Li  Li1  1  0.19577903  0.41222412  0.25787555  1
  Li  Li2  1  0.30422097  0.91222412  0.24212445  1
  Li  Li3  1  0.38147425  0.16039253  0.58633591  1
  Li  Li4  1  0.61852575  0.83960747  0.41366409  1
  Li  Li5  1  0.69577903  0.08777588  0.75787555  1
  Li  Li6  1  0.80422097  0.58777588  0.74212445  1
  Li  Li7  1  0.88147425  0.33960747  0.08633591  1
  Mn  Mn8  1  0.05197086  0.63810059  0.15563406  1
  Mn  Mn9  1  0.44802914  0.13810059  0.34436594  1
  Mn  Mn10  1  0.55197086  0.86189941  0.65563406  1
  Mn  Mn11  1  0.94802914  0.36189941  0.84436594  1
  Si  Si12  1  0.99056031  0.77288440  0.36501013  1
  Si  Si13  1  0.98548960  0.05111524  0.33540386  1
  Si  Si14  1  0.23989380  0.47413781  0.66887737  1
  Si  Si15  1  0.25427121  0.23219801  0.96033600  1
  Si  Si16  1  0.24572879  0.73219801  0.53966400  1
  Si  Si17  1  0.26010620  0.97413781  0.83112263  1
  Si  Si18  1  0.49056031  0.72711560  0.86501013  1
  Si  Si19  1  0.48548960  0.44888476  0.83540386  1
  Si  Si20  1  0.51451040  0.55111524  0.16459614  1
  Si  Si21  1  0.50943969  0.27288440  0.13498987  1
  Si  Si22  1  0.73989380  0.02586219  0.16887737  1
  Si  Si23  1  0.75427121  0.26780199  0.46033600  1
  Si  Si24  1  0.74572879  0.76780199  0.03966400  1
  Si  Si25  1  0.76010620  0.52586219  0.33112263  1
  Si  Si26  1  0.01451040  0.94888476  0.66459614  1
  Si  Si27  1  0.00943969  0.22711560  0.63498987  1
  O  O28  1  0.06208500  0.95307573  0.77940842  1
  O  O29  1  0.10140190  0.80875389  0.62137778  1
  O  O30  1  0.05559102  0.31237593  0.97527075  1
  O  O31  1  0.06580426  0.51429575  0.74726809  1
  O  O32  1  0.11781364  0.08103489  0.60605005  1
  O  O33  1  0.09356152  0.78228948  0.25686585  1
  O  O34  1  0.20018790  0.32395329  0.62120238  1
  O  O35  1  0.22624598  0.07989633  0.92084776  1
  O  O36  1  0.14085231  0.72354216  0.43951210  1
  O  O37  1  0.27375402  0.57989633  0.57915224  1
  O  O38  1  0.29981210  0.82395329  0.87879762  1
  O  O39  1  0.29385447  0.53328049  0.15497920  1
  O  O40  1  0.20614553  0.03328049  0.34502080  1
  O  O41  1  0.35914769  0.22354216  0.06048790  1
  O  O42  1  0.38218636  0.58103489  0.89394995  1
  O  O43  1  0.43419574  0.01429575  0.75273191  1
  O  O44  1  0.44440898  0.81237593  0.52472925  1
  O  O45  1  0.39859810  0.30875389  0.87862222  1
  O  O46  1  0.43791500  0.45307573  0.72059158  1
  O  O47  1  0.40643848  0.28228948  0.24313415  1
  O  O48  1  0.59356152  0.71771052  0.75686585  1
  O  O49  1  0.56208500  0.54692427  0.27940842  1
  O  O50  1  0.60140190  0.69124611  0.12137778  1
  O  O51  1  0.55559102  0.18762407  0.47527075  1
  O  O52  1  0.56580426  0.98570425  0.24726809  1
  O  O53  1  0.61781364  0.41896511  0.10605005  1
  O  O54  1  0.64085231  0.77645784  0.93951210  1
  O  O55  1  0.79385447  0.96671951  0.65497920  1
  O  O56  1  0.70614553  0.46671951  0.84502080  1
  O  O57  1  0.70018790  0.17604671  0.12120238  1
  O  O58  1  0.72624598  0.42010367  0.42084776  1
  O  O59  1  0.85914769  0.27645784  0.56048790  1
  O  O60  1  0.77375402  0.92010367  0.07915224  1
  O  O61  1  0.79981210  0.67604671  0.37879762  1
  O  O62  1  0.90643848  0.21771052  0.74313415  1
  O  O63  1  0.88218636  0.91896511  0.39394995  1
  O  O64  1  0.93419574  0.48570425  0.25273191  1
  O  O65  1  0.94440898  0.68762407  0.02472925  1
  O  O66  1  0.89859810  0.19124611  0.37862222  1
  O  O67  1  0.93791500  0.04692427  0.22059158  1
