# generated using pymatgen
data_Li2V3CrO8
_symmetry_space_group_name_H-M   'P 1'
_cell_length_a   6.42832334
_cell_length_b   6.42832315
_cell_length_c   6.49447544
_cell_angle_alpha   73.62816090
_cell_angle_beta   106.37184021
_cell_angle_gamma   143.44953024
_symmetry_Int_Tables_number   1
_chemical_formula_structural   Li2V3CrO8
_chemical_formula_sum   'Li2 V3 Cr1 O8'
_cell_volume   152.62074008
_cell_formula_units_Z   1
loop_
 _symmetry_equiv_pos_site_id
 _symmetry_equiv_pos_as_xyz
  1  'x, y, z'
loop_
 _atom_site_type_symbol
 _atom_site_label
 _atom_site_symmetry_multiplicity
 _atom_site_fract_x
 _atom_site_fract_y
 _atom_site_fract_z
 _atom_site_occupancy
  Li  Li0  1  0.05750569  0.94249431  0.35084877  1
  Li  Li1  1  0.94416155  0.05583845  0.64690182  1
  V  V2  1  0.38932686  0.61067314  0.28034995  1
  V  V3  1  0.60911550  0.39088450  0.71866360  1
  V  V4  1  0.28873868  0.71126132  0.69018151  1
  Cr  Cr5  1  0.71187004  0.28812996  0.30979776  1
  O  O6  1  0.11856605  0.88143395  0.67867563  1
  O  O7  1  0.23261691  0.76738309  0.34582473  1
  O  O8  1  0.35090145  0.64909855  0.00747103  1
  O  O9  1  0.44074689  0.55925311  0.64012870  1
  O  O10  1  0.55945360  0.44054640  0.36596382  1
  O  O11  1  0.64960968  0.35039032  0.99384050  1
  O  O12  1  0.76792973  0.23207027  0.64971161  1
  O  O13  1  0.87945637  0.12054363  0.32164156  1
