# generated using pymatgen
data_Li3Fe9O5F11
_symmetry_space_group_name_H-M   'P 1'
_cell_length_a   6.14335601
_cell_length_b   10.33002796
_cell_length_c   6.22469312
_cell_angle_alpha   104.63700659
_cell_angle_beta   61.35659293
_cell_angle_gamma   105.65921094
_symmetry_Int_Tables_number   1
_chemical_formula_structural   Li3Fe9O5F11
_chemical_formula_sum   'Li3 Fe9 O5 F11'
_cell_volume   330.24189602
_cell_formula_units_Z   1
loop_
 _symmetry_equiv_pos_site_id
 _symmetry_equiv_pos_as_xyz
  1  'x, y, z'
loop_
 _atom_site_type_symbol
 _atom_site_label
 _atom_site_symmetry_multiplicity
 _atom_site_fract_x
 _atom_site_fract_y
 _atom_site_fract_z
 _atom_site_occupancy
  Li  Li0  1  0.19815384  0.57278960  0.17401889  1
  Li  Li1  1  0.99863468  0.00555562  0.00367164  1
  Li  Li2  1  0.81674206  0.42325899  0.81706504  1
  Fe  Fe3  1  0.99876500  0.00322608  0.49987215  1
  Fe  Fe4  1  0.25113364  0.74804105  0.72787931  1
  Fe  Fe5  1  0.24219583  0.24932719  0.25218086  1
  Fe  Fe6  1  0.73460757  0.73865676  0.26037792  1
  Fe  Fe7  1  0.27592883  0.25478774  0.74735161  1
  Fe  Fe8  1  0.49333138  0.00920123  0.99127572  1
  Fe  Fe9  1  0.75147020  0.25501732  0.27417557  1
  Fe  Fe10  1  0.76777221  0.74574491  0.72939240  1
  Fe  Fe11  1  0.48979009  0.00960049  0.52546749  1
  O  O12  1  0.11401156  0.88228846  0.65062018  1
  O  O13  1  0.62598143  0.87369329  0.62282516  1
  O  O14  1  0.37459541  0.12116136  0.37003309  1
  O  O15  1  0.34024934  0.12510516  0.90304688  1
  O  O16  1  0.86465163  0.11207503  0.36073631  1
  F  F17  1  0.09428571  0.86802643  0.12259373  1
  F  F18  1  0.12542480  0.37642224  0.11234022  1
  F  F19  1  0.13098656  0.35439313  0.61319791  1
  F  F20  1  0.38449093  0.63512436  0.36481365  1
  F  F21  1  0.63789412  0.87804243  0.10025052  1
  F  F22  1  0.38716883  0.64550609  0.86702320  1
  F  F23  1  0.62706532  0.35913042  0.12954397  1
  F  F24  1  0.88823472  0.63384708  0.37805628  1
  F  F25  1  0.63454756  0.37151736  0.62772621  1
  F  F26  1  0.87763138  0.62663316  0.88914999  1
  F  F27  1  0.87425537  0.12183105  0.88531313  1
