# generated using pymatgen
data_LiMnP2O7
_symmetry_space_group_name_H-M   'P 1'
_cell_length_a   8.54449059
_cell_length_b   5.17566091
_cell_length_c   12.71510251
_cell_angle_alpha   90.00000000
_cell_angle_beta   98.51506909
_cell_angle_gamma   90.00000000
_symmetry_Int_Tables_number   1
_chemical_formula_structural   LiMnP2O7
_chemical_formula_sum   'Li4 Mn4 P8 O28'
_cell_volume   556.10657307
_cell_formula_units_Z   4
loop_
 _symmetry_equiv_pos_site_id
 _symmetry_equiv_pos_as_xyz
  1  'x, y, z'
loop_
 _atom_site_type_symbol
 _atom_site_label
 _atom_site_symmetry_multiplicity
 _atom_site_fract_x
 _atom_site_fract_y
 _atom_site_fract_z
 _atom_site_occupancy
  Li  Li0  1  0.21663300  0.18514001  0.97840326  1
  Li  Li1  1  0.28336700  0.68514001  0.52159674  1
  Li  Li2  1  0.71663300  0.31485999  0.47840326  1
  Li  Li3  1  0.78336700  0.81485999  0.02159674  1
  Mn  Mn4  1  0.17438932  0.28444654  0.64204928  1
  Mn  Mn5  1  0.32561068  0.78444654  0.85795072  1
  Mn  Mn6  1  0.67438932  0.21555346  0.14204928  1
  Mn  Mn7  1  0.82561068  0.71555346  0.35795072  1
  P  P8  1  0.01593520  0.72896473  0.84054324  1
  P  P9  1  0.06116153  0.20788599  0.38661339  1
  P  P10  1  0.48406480  0.22896473  0.65945676  1
  P  P11  1  0.56116153  0.29211401  0.88661339  1
  P  P12  1  0.43883847  0.70788599  0.11338661  1
  P  P13  1  0.51593520  0.77103527  0.34054324  1
  P  P14  1  0.93883847  0.79211401  0.61338661  1
  P  P15  1  0.98406480  0.27103527  0.15945676  1
  O  O16  1  0.12462650  0.97627371  0.83902869  1
  O  O17  1  0.15049029  0.52030403  0.83311574  1
  O  O18  1  0.08841554  0.63190953  0.60436046  1
  O  O19  1  0.02076068  0.91656474  0.38522926  1
  O  O20  1  0.10609814  0.27720992  0.26959616  1
  O  O21  1  0.20185016  0.27819471  0.46747551  1
  O  O22  1  0.07884630  0.28819802  0.07184107  1
  O  O23  1  0.41158446  0.13190953  0.89563954  1
  O  O24  1  0.34950971  0.02030403  0.66688426  1
  O  O25  1  0.37537350  0.47627371  0.66097131  1
  O  O26  1  0.42115370  0.78819802  0.42815893  1
  O  O27  1  0.52076068  0.58343526  0.88522926  1
  O  O28  1  0.29814984  0.77819471  0.03252449  1
  O  O29  1  0.39390186  0.77720992  0.23040384  1
  O  O30  1  0.60609814  0.22279008  0.76959616  1
  O  O31  1  0.70185016  0.22180529  0.96747551  1
  O  O32  1  0.47923932  0.41656474  0.11477074  1
  O  O33  1  0.57884630  0.21180198  0.57184107  1
  O  O34  1  0.62462650  0.52372629  0.33902869  1
  O  O35  1  0.65049029  0.97969597  0.33311574  1
  O  O36  1  0.58841554  0.86809047  0.10436046  1
  O  O37  1  0.92115370  0.71180198  0.92815893  1
  O  O38  1  0.79814984  0.72180529  0.53252449  1
  O  O39  1  0.89390186  0.72279008  0.73040384  1
  O  O40  1  0.97923932  0.08343526  0.61477074  1
  O  O41  1  0.91158446  0.36809047  0.39563954  1
  O  O42  1  0.84950971  0.47969597  0.16688426  1
  O  O43  1  0.87537350  0.02372629  0.16097131  1
