# generated using pymatgen
data_LiMn2(BO3)2
_symmetry_space_group_name_H-M   'P 1'
_cell_length_a   5.81930278
_cell_length_b   9.23018551
_cell_length_c   9.87394219
_cell_angle_alpha   99.67094827
_cell_angle_beta   80.64460604
_cell_angle_gamma   104.58473057
_symmetry_Int_Tables_number   1
_chemical_formula_structural   LiMn2(BO3)2
_chemical_formula_sum   'Li4 Mn8 B8 O24'
_cell_volume   501.94121977
_cell_formula_units_Z   4
loop_
 _symmetry_equiv_pos_site_id
 _symmetry_equiv_pos_as_xyz
  1  'x, y, z'
loop_
 _atom_site_type_symbol
 _atom_site_label
 _atom_site_symmetry_multiplicity
 _atom_site_fract_x
 _atom_site_fract_y
 _atom_site_fract_z
 _atom_site_occupancy
  Li  Li0  1  0.46485595  0.80745274  0.86466153  1
  Li  Li1  1  0.03514405  0.19254726  0.63533847  1
  Li  Li2  1  0.30726150  0.69118920  0.38409153  1
  Li  Li3  1  0.19273850  0.30881080  0.11590847  1
  Mn  Mn4  1  0.86057840  0.40853103  0.88822859  1
  Mn  Mn5  1  0.87442288  0.09875279  0.37403307  1
  Mn  Mn6  1  0.40539545  0.13033100  0.85412507  1
  Mn  Mn7  1  0.63942160  0.59146897  0.61177141  1
  Mn  Mn8  1  0.37041335  0.35743389  0.37528324  1
  Mn  Mn9  1  0.62557712  0.90124721  0.12596693  1
  Mn  Mn10  1  0.09460455  0.86966900  0.64587493  1
  Mn  Mn11  1  0.12958665  0.64256611  0.12471676  1
  B  B12  1  0.86591460  0.05479553  0.87685138  1
  B  B13  1  0.90516301  0.44330614  0.35747170  1
  B  B14  1  0.38594869  0.47158858  0.86886383  1
  B  B15  1  0.63408540  0.94520447  0.62314862  1
  B  B16  1  0.34627950  0.02668181  0.39887463  1
  B  B17  1  0.59483699  0.55669386  0.14252830  1
  B  B18  1  0.11405131  0.52841142  0.63113617  1
  B  B19  1  0.15372050  0.97331819  0.10112537  1
  O  O20  1  0.74865437  0.17278915  0.90177188  1
  O  O21  1  0.98078065  0.63950809  0.65909997  1
  O  O22  1  0.72507918  0.07821130  0.57065470  1
  O  O23  1  0.00323174  0.57870848  0.31097553  1
  O  O24  1  0.77492082  0.92178870  0.92934530  1
  O  O25  1  0.69468192  0.42533908  0.45193514  1
  O  O26  1  0.94861073  0.94590463  0.19895150  1
  O  O27  1  0.51921935  0.36049191  0.84090003  1
  O  O28  1  0.75134563  0.82721085  0.59822812  1
  O  O29  1  0.55138927  0.05409537  0.30104850  1
  O  O30  1  0.80531808  0.57466092  0.04806486  1
  O  O31  1  0.45909127  0.59982368  0.80862271  1
  O  O32  1  0.49676826  0.42129152  0.18902447  1
  O  O33  1  0.18021352  0.44666733  0.96770680  1
  O  O34  1  0.42619637  0.92729790  0.72153800  1
  O  O35  1  0.21904961  0.14326266  0.43589314  1
  O  O36  1  0.48321388  0.67886572  0.17908259  1
  O  O37  1  0.07380363  0.07270210  0.77846200  1
  O  O38  1  0.31978648  0.55333267  0.53229320  1
  O  O39  1  0.22878637  0.10548143  0.04901137  1
  O  O40  1  0.04090873  0.40017632  0.69137729  1
  O  O41  1  0.27121363  0.89451857  0.45098863  1
  O  O42  1  0.01678612  0.32113428  0.32091741  1
  O  O43  1  0.28095039  0.85673734  0.06410686  1
