# generated using pymatgen
data_Mn8O13F3
_symmetry_space_group_name_H-M   'P 1'
_cell_length_a   4.51698576
_cell_length_b   5.54137070
_cell_length_c   9.99298017
_cell_angle_alpha   89.62126314
_cell_angle_beta   89.88212698
_cell_angle_gamma   89.00395015
_symmetry_Int_Tables_number   1
_chemical_formula_structural   Mn8O13F3
_chemical_formula_sum   'Mn8 O13 F3'
_cell_volume   250.08348613
_cell_formula_units_Z   1
loop_
 _symmetry_equiv_pos_site_id
 _symmetry_equiv_pos_as_xyz
  1  'x, y, z'
loop_
 _atom_site_type_symbol
 _atom_site_label
 _atom_site_symmetry_multiplicity
 _atom_site_fract_x
 _atom_site_fract_y
 _atom_site_fract_z
 _atom_site_occupancy
  Mn  Mn0  1  0.02354199  0.16318333  0.61942364  1
  Mn  Mn1  1  0.01309703  0.85061954  0.36798919  1
  Mn  Mn2  1  0.98618442  0.14061735  0.11932174  1
  Mn  Mn3  1  0.00922749  0.84081741  0.87338573  1
  Mn  Mn4  1  0.48762266  0.36366814  0.88301170  1
  Mn  Mn5  1  0.51529756  0.35266900  0.38003336  1
  Mn  Mn6  1  0.51710680  0.66181731  0.12556926  1
  Mn  Mn7  1  0.48549569  0.64041026  0.63007529  1
  O  O8  1  0.23727730  0.10910839  0.45585948  1
  O  O9  1  0.22427752  0.11654345  0.95849699  1
  O  O10  1  0.23295767  0.88938718  0.20655783  1
  O  O11  1  0.22752214  0.88566025  0.70761700  1
  O  O12  1  0.26749952  0.60615695  0.46137492  1
  O  O13  1  0.27144838  0.39671268  0.71794755  1
  O  O14  1  0.27220344  0.61417132  0.96779634  1
  O  O15  1  0.72837901  0.38552302  0.04185378  1
  O  O16  1  0.73466407  0.61221069  0.29025067  1
  O  O17  1  0.72951184  0.38585917  0.54201492  1
  O  O18  1  0.72448330  0.61058168  0.79124233  1
  O  O19  1  0.76736423  0.10824105  0.28800146  1
  O  O20  1  0.77357392  0.89000023  0.03360873  1
  F  F21  1  0.26012406  0.37909444  0.21225809  1
  F  F22  1  0.75437805  0.12074720  0.78702860  1
  F  F23  1  0.75676191  0.87620096  0.53928339  1
