# generated using pymatgen
data_Mn12O7F17
_symmetry_space_group_name_H-M   'P 1'
_cell_length_a   4.79426480
_cell_length_b   5.80726074
_cell_length_c   15.86193859
_cell_angle_alpha   89.48393969
_cell_angle_beta   90.22276479
_cell_angle_gamma   89.44443573
_symmetry_Int_Tables_number   1
_chemical_formula_structural   Mn12O7F17
_chemical_formula_sum   'Mn12 O7 F17'
_cell_volume   441.57872534
_cell_formula_units_Z   1
loop_
 _symmetry_equiv_pos_site_id
 _symmetry_equiv_pos_as_xyz
  1  'x, y, z'
loop_
 _atom_site_type_symbol
 _atom_site_label
 _atom_site_symmetry_multiplicity
 _atom_site_fract_x
 _atom_site_fract_y
 _atom_site_fract_z
 _atom_site_occupancy
  Mn  Mn0  1  0.99301549  0.16473878  0.40801057  1
  Mn  Mn1  1  0.02848077  0.86101699  0.24257454  1
  Mn  Mn2  1  0.98563381  0.16341850  0.08079184  1
  Mn  Mn3  1  0.04781953  0.17189341  0.74868508  1
  Mn  Mn4  1  0.02866128  0.84033236  0.59049358  1
  Mn  Mn5  1  0.99455386  0.83429791  0.91657024  1
  Mn  Mn6  1  0.47610158  0.33522800  0.58795726  1
  Mn  Mn7  1  0.51303047  0.34395904  0.91888789  1
  Mn  Mn8  1  0.49080396  0.32844569  0.26000563  1
  Mn  Mn9  1  0.49512741  0.65610144  0.08765907  1
  Mn  Mn10  1  0.51974592  0.64966809  0.41602445  1
  Mn  Mn11  1  0.48377506  0.63570156  0.74660912  1
  O  O12  1  0.21428233  0.11714429  0.30363671  1
  O  O13  1  0.22812772  0.11027475  0.64312530  1
  O  O14  1  0.20747535  0.89397207  0.13435051  1
  O  O15  1  0.28523280  0.60071624  0.64218654  1
  O  O16  1  0.29800206  0.38662243  0.80598647  1
  O  O17  1  0.72260194  0.38702425  0.02938317  1
  O  O18  1  0.70907783  0.36689649  0.36151772  1
  F  F19  1  0.21931536  0.11950292  0.97388097  1
  F  F20  1  0.22953739  0.89954084  0.46829667  1
  F  F21  1  0.24598232  0.88806100  0.81005430  1
  F  F22  1  0.26425090  0.38739261  0.14992242  1
  F  F23  1  0.26121102  0.61768688  0.30831070  1
  F  F24  1  0.25308978  0.39666252  0.47368948  1
  F  F25  1  0.26799897  0.60683181  0.97512232  1
  F  F26  1  0.72958958  0.61341427  0.20106708  1
  F  F27  1  0.73987853  0.61229216  0.53211937  1
  F  F28  1  0.71871275  0.62470054  0.85330283  1
  F  F29  1  0.75425638  0.37726774  0.69098954  1
  F  F30  1  0.75074784  0.11987519  0.18667152  1
  F  F31  1  0.76125409  0.11234221  0.52379767  1
  F  F32  1  0.78025665  0.87189158  0.34926753  1
  F  F33  1  0.73993895  0.89460417  0.02246772  1
  F  F34  1  0.80059383  0.13515836  0.85504735  1
  F  F35  1  0.76183747  0.87532491  0.70153483  1
