# generated using pymatgen
data_Li3CrCo3O8
_symmetry_space_group_name_H-M   'P 1'
_cell_length_a   5.84796427
_cell_length_b   5.69088757
_cell_length_c   5.69088759
_cell_angle_alpha   59.99999643
_cell_angle_beta   60.88461656
_cell_angle_gamma   89.99999561
_symmetry_Int_Tables_number   1
_chemical_formula_structural   Li3CrCo3O8
_chemical_formula_sum   'Li3 Cr1 Co3 O8'
_cell_volume   135.68413030
_cell_formula_units_Z   1
loop_
 _symmetry_equiv_pos_site_id
 _symmetry_equiv_pos_as_xyz
  1  'x, y, z'
loop_
 _atom_site_type_symbol
 _atom_site_label
 _atom_site_symmetry_multiplicity
 _atom_site_fract_x
 _atom_site_fract_y
 _atom_site_fract_z
 _atom_site_occupancy
  Li  Li0  1  0.50000000  0.00000000  0.00000000  1
  Li  Li1  1  0.50000000  0.00000000  0.50000000  1
  Li  Li2  1  0.50000000  0.50000000  0.50000000  1
  Cr  Cr3  1  0.00000000  0.00000000  0.00000000  1
  Co  Co4  1  0.00000000  0.00000000  0.50000000  1
  Co  Co5  1  0.00000000  0.50000000  0.00000000  1
  Co  Co6  1  0.00000000  0.50000000  0.50000000  1
  O  O7  1  0.21360185  0.23656040  0.02295754  1
  O  O8  1  0.21360185  0.23656040  0.52688020  1
  O  O9  1  0.21360185  0.74048206  0.02295754  1
  O  O10  1  0.21362195  0.73787398  0.52425203  1
  O  O11  1  0.78637805  0.26212602  0.47574797  1
  O  O12  1  0.78639815  0.25951794  0.97704246  1
  O  O13  1  0.78639815  0.76343960  0.47311980  1
  O  O14  1  0.78639815  0.76343960  0.97704246  1
