# generated using pymatgen
data_Mn8O13F3
_symmetry_space_group_name_H-M   'P 1'
_cell_length_a   4.51998968
_cell_length_b   11.07718352
_cell_length_c   5.00121104
_cell_angle_alpha   89.95180954
_cell_angle_beta   89.66195475
_cell_angle_gamma   89.25791148
_symmetry_Int_Tables_number   1
_chemical_formula_structural   Mn8O13F3
_chemical_formula_sum   'Mn8 O13 F3'
_cell_volume   250.37897758
_cell_formula_units_Z   1
loop_
 _symmetry_equiv_pos_site_id
 _symmetry_equiv_pos_as_xyz
  1  'x, y, z'
loop_
 _atom_site_type_symbol
 _atom_site_label
 _atom_site_symmetry_multiplicity
 _atom_site_fract_x
 _atom_site_fract_y
 _atom_site_fract_z
 _atom_site_occupancy
  Mn  Mn0  1  0.03061182  0.42419132  0.75586114  1
  Mn  Mn1  1  0.01049001  0.08180250  0.25662177  1
  Mn  Mn2  1  0.00529818  0.57398926  0.23761538  1
  Mn  Mn3  1  0.00058471  0.92466524  0.73578967  1
  Mn  Mn4  1  0.48203832  0.81693117  0.26117689  1
  Mn  Mn5  1  0.49642931  0.16545919  0.75888423  1
  Mn  Mn6  1  0.50192504  0.32392647  0.23896825  1
  Mn  Mn7  1  0.48572122  0.68373723  0.76052381  1
  O  O8  1  0.22203175  0.05219168  0.92478003  1
  O  O9  1  0.23878042  0.44600322  0.41745170  1
  O  O10  1  0.23477437  0.56054197  0.91623378  1
  O  O11  1  0.22846928  0.94233564  0.41780325  1
  O  O12  1  0.28190286  0.19670921  0.42623028  1
  O  O13  1  0.28654605  0.30289984  0.92066856  1
  O  O14  1  0.25849616  0.69541514  0.42758738  1
  O  O15  1  0.25631245  0.80552291  0.92712056  1
  O  O16  1  0.73673410  0.19355422  0.07749704  1
  O  O17  1  0.72294485  0.69484499  0.07963784  1
  O  O18  1  0.71882404  0.80560205  0.57875802  1
  O  O19  1  0.77121018  0.05540304  0.57603342  1
  O  O20  1  0.78091863  0.44454790  0.07181355  1
  F  F21  1  0.74528011  0.31083810  0.57457868  1
  F  F22  1  0.75359613  0.56112713  0.57954020  1
  F  F23  1  0.75008103  0.93776159  0.07882555  1
