# generated using pymatgen
data_Cd4Bi2O7
_symmetry_space_group_name_H-M   'P 1'
_cell_length_a   9.26682413
_cell_length_b   10.42377365
_cell_length_c   10.60707287
_cell_angle_alpha   79.85635357
_cell_angle_beta   65.80277455
_cell_angle_gamma   67.85059006
_symmetry_Int_Tables_number   1
_chemical_formula_structural   Cd4Bi2O7
_chemical_formula_sum   'Cd16 Bi8 O28'
_cell_volume   865.32199232
_cell_formula_units_Z   4
loop_
 _symmetry_equiv_pos_site_id
 _symmetry_equiv_pos_as_xyz
  1  'x, y, z'
loop_
 _atom_site_type_symbol
 _atom_site_label
 _atom_site_symmetry_multiplicity
 _atom_site_fract_x
 _atom_site_fract_y
 _atom_site_fract_z
 _atom_site_occupancy
  Cd  Cd0  1  0.00867501  0.10318798  0.40668444  1
  Cd  Cd1  1  0.04690645  0.46792413  0.21294767  1
  Cd  Cd2  1  0.36414619  0.10164509  0.12879200  1
  Cd  Cd3  1  0.18428545  0.85681230  0.14280167  1
  Cd  Cd4  1  0.21761407  0.63012531  0.34444011  1
  Cd  Cd5  1  0.50542099  0.38048627  0.11055481  1
  Cd  Cd6  1  0.37693958  0.32420877  0.85200586  1
  Cd  Cd7  1  0.32226118  0.60866194  0.63293466  1
  Cd  Cd8  1  0.57748688  0.13458483  0.58899989  1
  Cd  Cd9  1  0.38684286  0.86980113  0.44518394  1
  Cd  Cd10  1  0.59119047  0.41022287  0.37876303  1
  Cd  Cd11  1  0.27692796  0.95056866  0.74554062  1
  Cd  Cd12  1  0.95563685  0.26544518  0.09036205  1
  Cd  Cd13  1  0.48308963  0.61416870  0.88215823  1
  Cd  Cd14  1  0.63341333  0.87760574  0.86412216  1
  Cd  Cd15  1  0.01307392  0.83574610  0.56598382  1
  Bi  Bi16  1  0.22791342  0.26891133  0.47913402  1
  Bi  Bi17  1  0.04620413  0.75317406  0.94354911  1
  Bi  Bi18  1  0.73210715  0.04198711  0.22715537  1
  Bi  Bi19  1  0.62078823  0.68631392  0.16353621  1
  Bi  Bi20  1  0.76123024  0.38806724  0.60866490  1
  Bi  Bi21  1  0.80261404  0.14693143  0.85609405  1
  Bi  Bi22  1  0.73318492  0.73658219  0.52975958  1
  Bi  Bi23  1  0.95190854  0.51303629  0.79046994  1
  O  O24  1  0.96214665  0.05677615  0.23096234  1
  O  O25  1  0.99072767  0.32843745  0.41127463  1
  O  O26  1  0.19143008  0.28471726  0.05827843  1
  O  O27  1  0.26831937  0.42089243  0.28396420  1
  O  O28  1  0.28231818  0.08175164  0.36611811  1
  O  O29  1  0.31476055  0.13905682  0.66786494  1
  O  O30  1  0.48531728  0.60012830  0.10188467  1
  O  O31  1  0.19697715  0.55276965  0.85746026  1
  O  O32  1  0.55480180  0.21466774  0.37636076  1
  O  O33  1  0.75620900  0.22974990  0.05843539  1
  O  O34  1  0.43412395  0.88298933  0.08765111  1
  O  O35  1  0.42966210  0.64844507  0.38950002  1
  O  O36  1  0.49791484  0.38354485  0.61363506  1
  O  O37  1  0.57122464  0.10189491  0.91603833  1
  O  O38  1  0.26409795  0.80632866  0.92446059  1
  O  O39  1  0.47567201  0.75007647  0.62668541  1
  O  O40  1  0.79514884  0.46719249  0.20561551  1
  O  O41  1  0.58725271  0.37677377  0.86710187  1
  O  O42  1  0.65188388  0.86934739  0.37134592  1
  O  O43  1  0.79863335  0.16889515  0.61297918  1
  O  O44  1  0.04029991  0.69028715  0.14982695  1
  O  O45  1  0.72118324  0.90755747  0.62847062  1
  O  O46  1  0.72591158  0.64744988  0.75760868  1
  O  O47  1  0.95853362  0.32880841  0.69629280  1
  O  O48  1  0.90005997  0.96093913  0.99914480  1
  O  O49  1  0.83050738  0.71389482  0.94319083  1
  O  O50  1  0.09464739  0.58993199  0.59649268  1
  O  O51  1  0.10637343  0.84149717  0.72771778  1
