# generated using pymatgen
data_LiMnP2O7
_symmetry_space_group_name_H-M   'P 1'
_cell_length_a   9.83945290
_cell_length_b   9.73094989
_cell_length_c   11.07438603
_cell_angle_alpha   89.95243995
_cell_angle_beta   100.32974013
_cell_angle_gamma   89.21043606
_symmetry_Int_Tables_number   1
_chemical_formula_structural   LiMnP2O7
_chemical_formula_sum   'Li8 Mn8 P16 O56'
_cell_volume   1043.05087287
_cell_formula_units_Z   8
loop_
 _symmetry_equiv_pos_site_id
 _symmetry_equiv_pos_as_xyz
  1  'x, y, z'
loop_
 _atom_site_type_symbol
 _atom_site_label
 _atom_site_symmetry_multiplicity
 _atom_site_fract_x
 _atom_site_fract_y
 _atom_site_fract_z
 _atom_site_occupancy
  Li  Li0  1  0.11971916  0.71001948  0.45267529  1
  Li  Li1  1  0.08806702  0.10612234  0.02089200  1
  Li  Li2  1  0.41671091  0.59563646  0.97535097  1
  Li  Li3  1  0.39112456  0.20448051  0.54369338  1
  Li  Li4  1  0.64984978  0.11109370  0.04781371  1
  Li  Li5  1  0.90962094  0.89017367  0.97936454  1
  Li  Li6  1  0.82786975  0.58310880  0.45456958  1
  Li  Li7  1  0.88987850  0.28417949  0.55014347  1
  Mn  Mn8  1  0.19932793  0.92710198  0.66536878  1
  Mn  Mn9  1  0.27805581  0.22591295  0.83915345  1
  Mn  Mn10  1  0.22716550  0.71311445  0.16484081  1
  Mn  Mn11  1  0.30654917  0.42693915  0.33501821  1
  Mn  Mn12  1  0.69995142  0.57674900  0.67326158  1
  Mn  Mn13  1  0.76505306  0.29210361  0.83180184  1
  Mn  Mn14  1  0.71263829  0.77394778  0.16308422  1
  Mn  Mn15  1  0.80609828  0.07174679  0.33601183  1
  P  P16  1  0.02392493  0.44367034  0.75117577  1
  P  P17  1  0.12049686  0.71120392  0.87858227  1
  P  P18  1  0.06057090  0.93178474  0.24374241  1
  P  P19  1  0.13259161  0.15049738  0.43225204  1
  P  P20  1  0.37850827  0.64742919  0.57584108  1
  P  P21  1  0.43223992  0.42224513  0.75859380  1
  P  P22  1  0.53696530  0.06468168  0.76277278  1
  P  P23  1  0.38093132  0.20880136  0.12096907  1
  P  P24  1  0.61421523  0.79126126  0.88097549  1
  P  P25  1  0.46130095  0.93420919  0.24726836  1
  P  P26  1  0.56389420  0.56957252  0.24274523  1
  P  P27  1  0.62943659  0.34732754  0.42550261  1
  P  P28  1  0.87402093  0.85513400  0.56398767  1
  P  P29  1  0.93931763  0.06773048  0.75699049  1
  P  P30  1  0.88173267  0.29001444  0.11895496  1
  P  P31  1  0.96802720  0.56242420  0.23622205  1
  O  O32  1  0.01475884  0.42275315  0.61624969  1
  O  O33  1  0.02562238  0.84540560  0.54843878  1
  O  O34  1  0.08807378  0.07637122  0.72765073  1
  O  O35  1  0.10591857  0.33729669  0.83904795  1
  O  O36  1  0.09918713  0.58736586  0.78036110  1
  O  O37  1  0.19014697  0.82260779  0.81125881  1
  O  O38  1  0.22814431  0.65834807  0.99164233  1
  O  O39  1  0.02126581  0.25319322  0.09643388  1
  O  O40  1  0.13070947  0.06632151  0.30643243  1
  O  O41  1  0.06433096  0.93818803  0.10854444  1
  O  O42  1  0.11556646  0.55299495  0.20109034  1
  O  O43  1  0.20681704  0.28390157  0.41407829  1
  O  O44  1  0.15116151  0.80748868  0.29978029  1
  O  O45  1  0.22386344  0.06806147  0.53655455  1
  O  O46  1  0.29087696  0.57097668  0.46672485  1
  O  O47  1  0.33793196  0.30653614  0.69293974  1
  O  O48  1  0.30767479  0.78546119  0.58966770  1
  O  O49  1  0.39210881  0.06143575  0.80388130  1
  O  O50  1  0.36758652  0.56388400  0.69963259  1
  O  O51  1  0.41071816  0.41916537  0.89033680  1
  O  O52  1  0.47777698  0.75767908  0.91106692  1
  O  O53  1  0.27054623  0.16558074  0.00633317  1
  O  O54  1  0.31874055  0.32884311  0.18604849  1
  O  O55  1  0.39003611  0.08489050  0.21801114  1
  O  O56  1  0.41411671  0.57844110  0.26991524  1
  O  O57  1  0.37172499  0.83808024  0.15257418  1
  O  O58  1  0.53808566  0.10465358  0.63315067  1
  O  O59  1  0.48214101  0.33660892  0.44647476  1
  O  O60  1  0.53247971  0.65319230  0.57057609  1
  O  O61  1  0.46852536  0.90656253  0.37941496  1
  O  O62  1  0.63571402  0.14943172  0.86177505  1
  O  O63  1  0.58238613  0.41089505  0.73678053  1
  O  O64  1  0.59884864  0.91117644  0.77952858  1
  O  O65  1  0.69136621  0.67607223  0.82274495  1
  O  O66  1  0.71662111  0.85039739  0.99608082  1
  O  O67  1  0.51779905  0.23207054  0.08633078  1
  O  O68  1  0.57159383  0.58679221  0.10881345  1
  O  O69  1  0.62490598  0.42334193  0.29427765  1
  O  O70  1  0.60558499  0.94105892  0.19923597  1
  O  O71  1  0.70069675  0.21025351  0.41169503  1
  O  O72  1  0.66789190  0.67708447  0.31021963  1
  O  O73  1  0.72316925  0.43622377  0.52287273  1
  O  O74  1  0.78328775  0.94107194  0.46343120  1
  O  O75  1  0.84854696  0.19239866  0.70106184  1
  O  O76  1  0.81562649  0.71397956  0.58176076  1
  O  O77  1  0.87093020  0.45626926  0.78526537  1
  O  O78  1  0.93416181  0.05883484  0.89187683  1
  O  O79  1  0.87061228  0.93273979  0.69287249  1
  O  O80  1  0.98436357  0.74567324  0.91087616  1
  O  O81  1  0.77677893  0.33841370  0.00464794  1
  O  O82  1  0.80692425  0.17537945  0.18213560  1
  O  O83  1  0.89622338  0.41507193  0.21656256  1
  O  O84  1  0.87791445  0.66446127  0.14899125  1
  O  O85  1  0.91171964  0.92370045  0.27222881  1
  O  O86  1  0.98213614  0.16848610  0.44525555  1
  O  O87  1  0.97584355  0.59062207  0.37115657  1
