# generated using pymatgen
data_FeOF
_symmetry_space_group_name_H-M   'P 1'
_cell_length_a   4.75922549
_cell_length_b   14.30328871
_cell_length_c   3.09064058
_cell_angle_alpha   90.00000000
_cell_angle_beta   90.00000000
_cell_angle_gamma   92.14168332
_symmetry_Int_Tables_number   1
_chemical_formula_structural   FeOF
_chemical_formula_sum   'Fe6 O6 F6'
_cell_volume   210.24090439
_cell_formula_units_Z   6
loop_
 _symmetry_equiv_pos_site_id
 _symmetry_equiv_pos_as_xyz
  1  'x, y, z'
loop_
 _atom_site_type_symbol
 _atom_site_label
 _atom_site_symmetry_multiplicity
 _atom_site_fract_x
 _atom_site_fract_y
 _atom_site_fract_z
 _atom_site_occupancy
  Fe  Fe0  1  0.06309948  0.00035113  0.00000000  1
  Fe  Fe1  1  0.98306352  0.33182682  0.00000000  1
  Fe  Fe2  1  0.03250860  0.66531302  0.00000000  1
  Fe  Fe3  1  0.51891562  0.16515038  0.50000000  1
  Fe  Fe4  1  0.43395722  0.49821319  0.50000000  1
  Fe  Fe5  1  0.46490784  0.83399124  0.50000000  1
  O  O6  1  0.18113179  0.60057631  0.50000000  1
  O  O7  1  0.21120707  0.93646332  0.50000000  1
  O  O8  1  0.32302971  0.10608206  0.00000000  1
  O  O9  1  0.30776971  0.76907170  0.00000000  1
  O  O10  1  0.28417047  0.43015940  0.00000000  1
  O  O11  1  0.70336945  0.23574692  0.00000000  1
  F  F12  1  0.18622587  0.27020878  0.50000000  1
  F  F13  1  0.68051567  0.56359311  0.00000000  1
  F  F14  1  0.70893134  0.89875119  0.00000000  1
  F  F15  1  0.82277747  0.06262550  0.50000000  1
  F  F16  1  0.79102165  0.40166139  0.50000000  1
  F  F17  1  0.80339652  0.73021455  0.50000000  1
