# generated using pymatgen
data_LiFePH2O5
_symmetry_space_group_name_H-M   'P 1'
_cell_length_a   11.04421361
_cell_length_b   8.22803720
_cell_length_c   5.10976508
_cell_angle_alpha   90.00000000
_cell_angle_beta   90.00000000
_cell_angle_gamma   90.00000000
_symmetry_Int_Tables_number   1
_chemical_formula_structural   LiFePH2O5
_chemical_formula_sum   'Li4 Fe4 P4 H8 O20'
_cell_volume   464.33559649
_cell_formula_units_Z   4
loop_
 _symmetry_equiv_pos_site_id
 _symmetry_equiv_pos_as_xyz
  1  'x, y, z'
loop_
 _atom_site_type_symbol
 _atom_site_label
 _atom_site_symmetry_multiplicity
 _atom_site_fract_x
 _atom_site_fract_y
 _atom_site_fract_z
 _atom_site_occupancy
  Li  Li0  1  0.11582187  0.12272365  0.19570881  1
  Li  Li1  1  0.38417813  0.62272365  0.69570881  1
  Li  Li2  1  0.61582187  0.37727635  0.19570881  1
  Li  Li3  1  0.88417813  0.87727635  0.69570881  1
  Fe  Fe4  1  0.19654947  0.31287889  0.69919403  1
  Fe  Fe5  1  0.30345053  0.81287889  0.19919403  1
  Fe  Fe6  1  0.69654947  0.18712111  0.69919403  1
  Fe  Fe7  1  0.80345053  0.68712111  0.19919403  1
  P  P8  1  0.16738839  0.91282797  0.68923614  1
  P  P9  1  0.33261161  0.41282797  0.18923614  1
  P  P10  1  0.66738839  0.58717203  0.68923614  1
  P  P11  1  0.83261161  0.08717203  0.18923614  1
  H  H12  1  0.00731187  0.56929634  0.37573812  1
  H  H13  1  0.03819776  0.68640431  0.14308106  1
  H  H14  1  0.46180224  0.18640431  0.64308106  1
  H  H15  1  0.49268813  0.06929634  0.87573812  1
  H  H16  1  0.50731187  0.93070366  0.37573812  1
  H  H17  1  0.53819776  0.81359569  0.14308106  1
  H  H18  1  0.96180224  0.31359569  0.64308106  1
  H  H19  1  0.99268813  0.43070366  0.87573812  1
  O  O20  1  0.01458979  0.40437899  0.69357024  1
  O  O21  1  0.04993454  0.82456867  0.62603190  1
  O  O22  1  0.17029783  0.08561058  0.56053524  1
  O  O23  1  0.18399333  0.93596999  0.99295149  1
  O  O24  1  0.21853923  0.31633412  0.09022396  1
  O  O25  1  0.28146077  0.81633412  0.59022396  1
  O  O26  1  0.31600667  0.43596999  0.49295149  1
  O  O27  1  0.32970217  0.58561058  0.06053524  1
  O  O28  1  0.45006546  0.32456867  0.12603190  1
  O  O29  1  0.48541021  0.90437899  0.19357024  1
  O  O30  1  0.51458979  0.09562101  0.69357024  1
  O  O31  1  0.54993454  0.67543133  0.62603190  1
  O  O32  1  0.67029783  0.41438942  0.56053524  1
  O  O33  1  0.68399333  0.56403001  0.99295149  1
  O  O34  1  0.71853923  0.18366588  0.09022396  1
  O  O35  1  0.78146077  0.68366588  0.59022396  1
  O  O36  1  0.81600667  0.06403001  0.49295149  1
  O  O37  1  0.82970217  0.91438942  0.06053524  1
  O  O38  1  0.95006546  0.17543133  0.12603190  1
  O  O39  1  0.98541021  0.59562101  0.19357024  1
