# generated using pymatgen
data_Sn5W8O23
_symmetry_space_group_name_H-M   'P 1'
_cell_length_a   8.15596452
_cell_length_b   8.15596434
_cell_length_c   19.49138672
_cell_angle_alpha   90.00000000
_cell_angle_beta   90.00000000
_cell_angle_gamma   120.00000080
_symmetry_Int_Tables_number   1
_chemical_formula_structural   Sn5W8O23
_chemical_formula_sum   'Sn10 W16 O46'
_cell_volume   1122.85586630
_cell_formula_units_Z   2
loop_
 _symmetry_equiv_pos_site_id
 _symmetry_equiv_pos_as_xyz
  1  'x, y, z'
loop_
 _atom_site_type_symbol
 _atom_site_label
 _atom_site_symmetry_multiplicity
 _atom_site_fract_x
 _atom_site_fract_y
 _atom_site_fract_z
 _atom_site_occupancy
  Sn  Sn0  1  0.20034354  0.29579058  0.25000000  1
  Sn  Sn1  1  0.90455295  0.20034354  0.75000000  1
  Sn  Sn2  1  0.29579058  0.09544705  0.75000000  1
  Sn  Sn3  1  0.70420942  0.90455295  0.25000000  1
  Sn  Sn4  1  0.09544705  0.79965646  0.25000000  1
  Sn  Sn5  1  0.79965646  0.70420942  0.75000000  1
  Sn  Sn6  1  0.33333300  0.66666700  0.06038401  1
  Sn  Sn7  1  0.66666700  0.33333300  0.56038401  1
  Sn  Sn8  1  0.66666700  0.33333300  0.93961599  1
  Sn  Sn9  1  0.33333300  0.66666700  0.43961599  1
  W  W10  1  0.74871560  0.94361560  0.56990379  1
  W  W11  1  0.80510000  0.74871560  0.06990379  1
  W  W12  1  0.94361560  0.19490000  0.06990379  1
  W  W13  1  0.05638440  0.80510000  0.56990379  1
  W  W14  1  0.19490000  0.25128440  0.56990379  1
  W  W15  1  0.25128440  0.05638440  0.06990379  1
  W  W16  1  0.74871560  0.94361560  0.93009621  1
  W  W17  1  0.80510000  0.74871560  0.43009621  1
  W  W18  1  0.94361560  0.19490000  0.43009621  1
  W  W19  1  0.05638440  0.80510000  0.93009621  1
  W  W20  1  0.19490000  0.25128440  0.93009621  1
  W  W21  1  0.25128440  0.05638440  0.43009621  1
  W  W22  1  0.33333300  0.66666700  0.67444617  1
  W  W23  1  0.66666700  0.33333300  0.17444617  1
  W  W24  1  0.66666700  0.33333300  0.32555383  1
  W  W25  1  0.33333300  0.66666700  0.82555383  1
  O  O26  1  0.00000000  0.00000000  0.75000000  1
  O  O27  1  0.00000000  0.00000000  0.25000000  1
  O  O28  1  0.17621071  0.22398821  0.37764648  1
  O  O29  1  0.95222250  0.17621071  0.87764648  1
  O  O30  1  0.22398821  0.04777750  0.87764648  1
  O  O31  1  0.77601179  0.95222250  0.37764648  1
  O  O32  1  0.04777750  0.82378929  0.37764648  1
  O  O33  1  0.82378929  0.77601179  0.87764648  1
  O  O34  1  0.82378929  0.77601179  0.62235352  1
  O  O35  1  0.04777750  0.82378929  0.12235352  1
  O  O36  1  0.77601179  0.95222250  0.12235352  1
  O  O37  1  0.22398821  0.04777750  0.62235352  1
  O  O38  1  0.95222250  0.17621071  0.62235352  1
  O  O39  1  0.17621071  0.22398821  0.12235352  1
  O  O40  1  0.00000000  0.00000000  0.50000000  1
  O  O41  1  0.00000000  0.00000000  0.00000000  1
  O  O42  1  0.14543866  0.40478426  0.49605754  1
  O  O43  1  0.74065440  0.14543866  0.50394246  1
  O  O44  1  0.74065440  0.14543866  0.99605754  1
  O  O45  1  0.59521574  0.74065440  0.49605754  1
  O  O46  1  0.25934560  0.85456134  0.49605754  1
  O  O47  1  0.85456134  0.59521574  0.99605754  1
  O  O48  1  0.85456134  0.59521574  0.50394246  1
  O  O49  1  0.25934560  0.85456134  0.00394246  1
  O  O50  1  0.59521574  0.74065440  0.00394246  1
  O  O51  1  0.40478426  0.25934560  0.50394246  1
  O  O52  1  0.46791930  0.29115789  0.25000000  1
  O  O53  1  0.17676141  0.46791930  0.75000000  1
  O  O54  1  0.29115789  0.82323859  0.75000000  1
  O  O55  1  0.70884211  0.17676141  0.25000000  1
  O  O56  1  0.82323859  0.53208070  0.25000000  1
  O  O57  1  0.53208070  0.70884211  0.75000000  1
  O  O58  1  0.48236890  0.12129201  0.12922407  1
  O  O59  1  0.36107690  0.48236890  0.62922407  1
  O  O60  1  0.12129201  0.63892310  0.62922407  1
  O  O61  1  0.87870799  0.36107690  0.12922407  1
  O  O62  1  0.63892310  0.51763110  0.12922407  1
  O  O63  1  0.51763110  0.87870799  0.62922407  1
  O  O64  1  0.51763110  0.87870799  0.87077593  1
  O  O65  1  0.63892310  0.51763110  0.37077593  1
  O  O66  1  0.87870799  0.36107690  0.37077593  1
  O  O67  1  0.12129201  0.63892310  0.87077593  1
  O  O68  1  0.36107690  0.48236890  0.87077593  1
  O  O69  1  0.48236890  0.12129201  0.37077593  1
  O  O70  1  0.14543866  0.40478426  0.00394246  1
  O  O71  1  0.40478426  0.25934560  0.99605754  1
