# generated using pymatgen
data_Li2Cu2F7
_symmetry_space_group_name_H-M   'P 1'
_cell_length_a   7.09358466
_cell_length_b   7.09358507
_cell_length_c   7.09358491
_cell_angle_alpha   119.99999985
_cell_angle_beta   59.99999651
_cell_angle_gamma   120.00000277
_symmetry_Int_Tables_number   1
_chemical_formula_structural   Li2Cu2F7
_chemical_formula_sum   'Li4 Cu4 F14'
_cell_volume   252.39589731
_cell_formula_units_Z   2
loop_
 _symmetry_equiv_pos_site_id
 _symmetry_equiv_pos_as_xyz
  1  'x, y, z'
loop_
 _atom_site_type_symbol
 _atom_site_label
 _atom_site_symmetry_multiplicity
 _atom_site_fract_x
 _atom_site_fract_y
 _atom_site_fract_z
 _atom_site_occupancy
  Li  Li0  1  0.00000000  0.00000000  0.50000000  1
  Li  Li1  1  0.50000000  0.00000000  0.00000000  1
  Li  Li2  1  0.50000000  0.50000000  0.50000000  1
  Li  Li3  1  0.50000000  0.00000000  0.50000000  1
  Cu  Cu4  1  0.00000000  0.50000000  0.00000000  1
  Cu  Cu5  1  0.00000000  0.00000000  0.00000000  1
  Cu  Cu6  1  0.00000000  0.50000000  0.50000000  1
  Cu  Cu7  1  0.50000000  0.50000000  0.00000000  1
  F  F8  1  0.07879012  0.82879012  0.07879012  1
  F  F9  1  0.07879012  0.82879012  0.67120988  1
  F  F10  1  0.07879012  0.42120988  0.67120988  1
  F  F11  1  0.32879012  0.57879012  0.32879012  1
  F  F12  1  0.67120988  0.82879012  0.07879012  1
  F  F13  1  0.37500000  0.12500000  0.37500000  1
  F  F14  1  0.32879012  0.57879012  0.92120988  1
  F  F15  1  0.67120988  0.42120988  0.07879012  1
  F  F16  1  0.62500000  0.87500000  0.62500000  1
  F  F17  1  0.32879012  0.17120988  0.92120988  1
  F  F18  1  0.67120988  0.42120988  0.67120988  1
  F  F19  1  0.92120988  0.57879012  0.32879012  1
  F  F20  1  0.92120988  0.17120988  0.32879012  1
  F  F21  1  0.92120988  0.17120988  0.92120988  1
