# generated using pymatgen
data_PaP3
_symmetry_space_group_name_H-M   'P 1'
_cell_length_a   5.55766912
_cell_length_b   5.55766959
_cell_length_c   5.46204902
_cell_angle_alpha   90.00000000
_cell_angle_beta   90.00000000
_cell_angle_gamma   119.99999718
_symmetry_Int_Tables_number   1
_chemical_formula_structural   PaP3
_chemical_formula_sum   'Pa2 P6'
_cell_volume   146.10721035
_cell_formula_units_Z   2
loop_
 _symmetry_equiv_pos_site_id
 _symmetry_equiv_pos_as_xyz
  1  'x, y, z'
loop_
 _atom_site_type_symbol
 _atom_site_label
 _atom_site_symmetry_multiplicity
 _atom_site_fract_x
 _atom_site_fract_y
 _atom_site_fract_z
 _atom_site_occupancy
  Pa  Pa0  1  0.33333200  0.66666500  0.75000100  1
  Pa  Pa1  1  0.66666700  0.33333200  0.25000100  1
  P  P2  1  0.18987868  0.37975836  0.25000100  1
  P  P3  1  0.62023964  0.81011932  0.25000100  1
  P  P4  1  0.18987968  0.81011932  0.25000100  1
  P  P5  1  0.81012132  0.62024064  0.75000100  1
  P  P6  1  0.37975836  0.18987968  0.75000100  1
  P  P7  1  0.81012132  0.18987968  0.75000100  1
