# generated using pymatgen
data_Co3Ni3(TeO8)2
_symmetry_space_group_name_H-M   'P 1'
_cell_length_a   5.83413896
_cell_length_b   5.72122360
_cell_length_c   9.13350647
_cell_angle_alpha   90.00330877
_cell_angle_beta   92.57294887
_cell_angle_gamma   119.34832425
_symmetry_Int_Tables_number   1
_chemical_formula_structural   Co3Ni3(TeO8)2
_chemical_formula_sum   'Co3 Ni3 Te2 O16'
_cell_volume   265.38172313
_cell_formula_units_Z   1
loop_
 _symmetry_equiv_pos_site_id
 _symmetry_equiv_pos_as_xyz
  1  'x, y, z'
loop_
 _atom_site_type_symbol
 _atom_site_label
 _atom_site_symmetry_multiplicity
 _atom_site_fract_x
 _atom_site_fract_y
 _atom_site_fract_z
 _atom_site_occupancy
  Co  Co0  1  0.17874557  0.83541129  0.21511698  1
  Co  Co1  1  0.17865961  0.34331776  0.21500099  1
  Co  Co2  1  0.34065385  0.17003806  0.71829887  1
  Ni  Ni3  1  0.66634623  0.83316234  0.20947047  1
  Ni  Ni4  1  0.83334296  0.66514736  0.71126692  1
  Ni  Ni5  1  0.83409695  0.16907646  0.71106626  1
  Te  Te6  1  0.33614935  0.66779351  0.49124168  1
  Te  Te7  1  0.66708717  0.33378981  0.99125229  1
  O  O8  1  0.17599855  0.83795730  0.59477927  1
  O  O9  1  0.03787692  0.51895307  0.33343747  1
  O  O10  1  0.29917274  0.64969950  0.10928602  1
  O  O11  1  0.02989582  0.01480352  0.30226539  1
  O  O12  1  0.01923186  0.00958290  0.80204946  1
  O  O13  1  0.17573048  0.33714103  0.59459927  1
  O  O14  1  0.46490406  0.96485211  0.34537316  1
  O  O15  1  0.46492221  0.49936931  0.34550222  1
  O  O16  1  0.33323271  0.16661765  0.10024846  1
  O  O17  1  0.68176887  0.84099743  0.58986215  1
  O  O18  1  0.49422711  0.46740109  0.84612811  1
  O  O19  1  0.49589516  0.02760875  0.84625255  1
  O  O20  1  0.64879188  0.32469613  0.61867455  1
  O  O21  1  0.84374808  0.67493324  0.09141293  1
  O  O22  1  0.95556139  0.47860105  0.84172038  1
  O  O23  1  0.84396147  0.16925133  0.09141514  1
