# generated using pymatgen
data_LiMnPO4
_symmetry_space_group_name_H-M   'P 1'
_cell_length_a   8.09875759
_cell_length_b   9.18333304
_cell_length_c   5.05283215
_cell_angle_alpha   90.00000000
_cell_angle_beta   90.00000000
_cell_angle_gamma   90.00000000
_symmetry_Int_Tables_number   1
_chemical_formula_structural   LiMnPO4
_chemical_formula_sum   'Li4 Mn4 P4 O16'
_cell_volume   375.79725736
_cell_formula_units_Z   4
loop_
 _symmetry_equiv_pos_site_id
 _symmetry_equiv_pos_as_xyz
  1  'x, y, z'
loop_
 _atom_site_type_symbol
 _atom_site_label
 _atom_site_symmetry_multiplicity
 _atom_site_fract_x
 _atom_site_fract_y
 _atom_site_fract_z
 _atom_site_occupancy
  Li  Li0  1  0.04989381  0.62177672  0.92954851  1
  Li  Li1  1  0.45010619  0.12177672  0.42954851  1
  Li  Li2  1  0.54989381  0.87822328  0.92954851  1
  Li  Li3  1  0.95010619  0.37822328  0.42954851  1
  Mn  Mn4  1  0.16905982  0.02687466  0.01612399  1
  Mn  Mn5  1  0.33094018  0.52687466  0.51612399  1
  Mn  Mn6  1  0.66905982  0.47312534  0.01612399  1
  Mn  Mn7  1  0.83094018  0.97312534  0.51612399  1
  P  P8  1  0.23585554  0.86273339  0.56188658  1
  P  P9  1  0.26414446  0.36273339  0.06188658  1
  P  P10  1  0.73585554  0.63726661  0.56188658  1
  P  P11  1  0.76414446  0.13726661  0.06188658  1
  O  O12  1  0.07455340  0.94417079  0.65201026  1
  O  O13  1  0.12200820  0.45588241  0.18675865  1
  O  O14  1  0.25006218  0.85442006  0.25845438  1
  O  O15  1  0.22826303  0.70825450  0.68721663  1
  O  O16  1  0.27173697  0.20825450  0.18721663  1
  O  O17  1  0.24993782  0.35442006  0.75845438  1
  O  O18  1  0.37799180  0.95588241  0.68675865  1
  O  O19  1  0.42544660  0.44417079  0.15201026  1
  O  O20  1  0.57455340  0.55582921  0.65201026  1
  O  O21  1  0.62200820  0.04411759  0.18675865  1
  O  O22  1  0.75006218  0.64557994  0.25845438  1
  O  O23  1  0.72826303  0.79174550  0.68721663  1
  O  O24  1  0.77173697  0.29174550  0.18721663  1
  O  O25  1  0.74993782  0.14557994  0.75845438  1
  O  O26  1  0.87799180  0.54411759  0.68675865  1
  O  O27  1  0.92544660  0.05582921  0.15201026  1
