# generated using pymatgen
data_LiMnPO4
_symmetry_space_group_name_H-M   'P 1'
_cell_length_a   8.83498453
_cell_length_b   8.83471736
_cell_length_c   8.19649521
_cell_angle_alpha   89.99719786
_cell_angle_beta   90.00328206
_cell_angle_gamma   120.00151160
_symmetry_Int_Tables_number   1
_chemical_formula_structural   LiMnPO4
_chemical_formula_sum   'Li6 Mn6 P6 O24'
_cell_volume   554.05216830
_cell_formula_units_Z   6
loop_
 _symmetry_equiv_pos_site_id
 _symmetry_equiv_pos_as_xyz
  1  'x, y, z'
loop_
 _atom_site_type_symbol
 _atom_site_label
 _atom_site_symmetry_multiplicity
 _atom_site_fract_x
 _atom_site_fract_y
 _atom_site_fract_z
 _atom_site_occupancy
  Li  Li0  1  0.33332879  0.66665948  0.17319699  1
  Li  Li1  1  0.33329694  0.66669555  0.68878897  1
  Li  Li2  1  0.99999638  0.99998899  0.10700638  1
  Li  Li3  1  0.00000763  0.99999626  0.60701881  1
  Li  Li4  1  0.66666101  0.33330784  0.67320241  1
  Li  Li5  1  0.66661911  0.33332232  0.18876693  1
  Mn  Mn6  1  0.02750666  0.68630764  0.40288629  1
  Mn  Mn7  1  0.31367443  0.34120368  0.40295140  1
  Mn  Mn8  1  0.65877042  0.97246048  0.40292864  1
  Mn  Mn9  1  0.34122937  0.02755052  0.90293236  1
  Mn  Mn10  1  0.68630623  0.65879302  0.90285466  1
  Mn  Mn11  1  0.97247593  0.31367937  0.90291588  1
  P  P12  1  0.04018274  0.68496196  0.01484675  1
  P  P13  1  0.31504581  0.35529163  0.01489673  1
  P  P14  1  0.64476395  0.95966474  0.01490598  1
  P  P15  1  0.35528828  0.04033969  0.51493868  1
  P  P16  1  0.68516363  0.64473189  0.51491268  1
  P  P17  1  0.95952171  0.31484947  0.51494469  1
  O  O18  1  0.15115661  0.93059660  0.51604094  1
  O  O19  1  0.14796036  0.72953725  0.17636893  1
  O  O20  1  0.17465317  0.75451367  0.87283844  1
  O  O21  1  0.09140400  0.51383349  0.50534759  1
  O  O22  1  0.42236699  0.90860592  0.50535354  1
  O  O23  1  0.06939691  0.22057155  0.51607596  1
  O  O24  1  0.24550988  0.42016567  0.87289094  1
  O  O25  1  0.27048013  0.41842523  0.17641747  1
  O  O26  1  0.22057425  0.15120234  0.01606452  1
  O  O27  1  0.58157306  0.85205511  0.17637292  1
  O  O28  1  0.57985108  0.82540284  0.87287592  1
  O  O29  1  0.48618785  0.57759843  0.50535395  1
  O  O30  1  0.51370505  0.42239845  0.00535691  1
  O  O31  1  0.42012450  0.17462435  0.37289119  1
  O  O32  1  0.41839179  0.14789992  0.67636868  1
  O  O33  1  0.77942928  0.84878962  0.51605872  1
  O  O34  1  0.72951628  0.58157530  0.67627791  1
  O  O35  1  0.75446177  0.57987277  0.37286285  1
  O  O36  1  0.93062770  0.77941926  0.01601874  1
  O  O37  1  0.57761718  0.09139150  0.00538228  1
  O  O38  1  0.90868932  0.48631598  0.00532986  1
  O  O39  1  0.82538974  0.24552155  0.37290966  1
  O  O40  1  0.85210052  0.27049746  0.67631908  1
  O  O41  1  0.84879456  0.06938022  0.01606583  1
