# generated using pymatgen
data_LiSiBiO4
_symmetry_space_group_name_H-M   'P 1'
_cell_length_a   9.55009419
_cell_length_b   16.73178330
_cell_length_c   7.02334980
_cell_angle_alpha   90.00000000
_cell_angle_beta   90.00000000
_cell_angle_gamma   90.51621230
_symmetry_Int_Tables_number   1
_chemical_formula_structural   LiSiBiO4
_chemical_formula_sum   'Li12 Si12 Bi12 O48'
_cell_volume   1122.21626341
_cell_formula_units_Z   12
loop_
 _symmetry_equiv_pos_site_id
 _symmetry_equiv_pos_as_xyz
  1  'x, y, z'
loop_
 _atom_site_type_symbol
 _atom_site_label
 _atom_site_symmetry_multiplicity
 _atom_site_fract_x
 _atom_site_fract_y
 _atom_site_fract_z
 _atom_site_occupancy
  Li  Li0  1  0.23702375  0.91948579  0.00002811  1
  Li  Li1  1  0.25506073  0.58445422  0.98840470  1
  Li  Li2  1  0.25221425  0.25174693  0.85013783  1
  Li  Li3  1  0.24778575  0.24825307  0.35013783  1
  Li  Li4  1  0.24493927  0.91554578  0.48840470  1
  Li  Li5  1  0.26297625  0.58051421  0.50002811  1
  Li  Li6  1  0.73702375  0.41948579  0.49997189  1
  Li  Li7  1  0.75506073  0.08445422  0.51159530  1
  Li  Li8  1  0.75221425  0.75174693  0.64986217  1
  Li  Li9  1  0.74778575  0.74825307  0.14986217  1
  Li  Li10  1  0.74493927  0.41554578  0.01159530  1
  Li  Li11  1  0.76297625  0.08051421  -0.00002811  1
  Si  Si12  1  0.04901570  0.40777280  0.24683048  1
  Si  Si13  1  0.08271962  0.76446106  0.25560202  1
  Si  Si14  1  0.10281985  0.07269960  0.24857821  1
  Si  Si15  1  0.39718015  0.42730040  0.74857821  1
  Si  Si16  1  0.41728038  0.73553894  0.75560202  1
  Si  Si17  1  0.45098430  0.09222720  0.74683048  1
  Si  Si18  1  0.54901570  0.90777280  0.25316952  1
  Si  Si19  1  0.58271962  0.26446106  0.24439798  1
  Si  Si20  1  0.60281985  0.57269960  0.25142179  1
  Si  Si21  1  0.89718015  0.92730040  0.75142179  1
  Si  Si22  1  0.91728038  0.23553894  0.74439798  1
  Si  Si23  1  0.95098430  0.59222720  0.75316952  1
  Bi  Bi24  1  0.02428620  0.40500079  0.74308357  1
  Bi  Bi25  1  0.08999064  0.78079988  0.75359465  1
  Bi  Bi26  1  0.14045423  0.06499681  0.74441025  1
  Bi  Bi27  1  0.35954577  0.43500319  0.24441025  1
  Bi  Bi28  1  0.41000936  0.71920012  0.25359465  1
  Bi  Bi29  1  0.47571380  0.09499921  0.24308357  1
  Bi  Bi30  1  0.52428620  0.90500079  0.75691643  1
  Bi  Bi31  1  0.58999064  0.28079988  0.74640535  1
  Bi  Bi32  1  0.64045423  0.56499681  0.75558975  1
  Bi  Bi33  1  0.85954577  0.93500319  0.25558975  1
  Bi  Bi34  1  0.91000936  0.21920012  0.24640535  1
  Bi  Bi35  1  0.97571380  0.59499921  0.25691643  1
  O  O36  1  0.05424893  0.59584526  0.56628866  1
  O  O37  1  0.05204999  0.59997633  0.94017074  1
  O  O38  1  0.07309116  0.93169594  0.77057436  1
  O  O39  1  0.12370645  0.81923274  0.44116163  1
  O  O40  1  0.14597758  0.49306202  0.24293200  1
  O  O41  1  0.11407434  0.82013634  0.06787259  1
  O  O42  1  0.07724452  0.27268277  0.74029371  1
  O  O43  1  0.12334618  0.16960451  0.27448636  1
  O  O44  1  0.16423319  0.02316447  0.43126107  1
  O  O45  1  0.31411436  0.46200549  0.56220150  1
  O  O46  1  0.17348626  0.67777147  0.25561661  1
  O  O47  1  0.17499651  0.34223408  0.24894575  1
  O  O48  1  0.32651374  0.82222853  0.75561661  1
  O  O49  1  0.32500349  0.15776592  0.74894575  1
  O  O50  1  0.18588564  0.03799451  0.06220150  1
  O  O51  1  0.33576681  0.47683553  0.93126107  1
  O  O52  1  0.37665382  0.33039549  0.77448636  1
  O  O53  1  0.38592566  0.67986366  0.56787259  1
  O  O54  1  0.42275548  0.22731723  0.24029371  1
  O  O55  1  0.35402242  0.00693798  0.74293200  1
  O  O56  1  0.37629355  0.68076726  0.94116163  1
  O  O57  1  0.42690884  0.56830406  0.27057436  1
  O  O58  1  0.44795001  0.90002367  0.44017074  1
  O  O59  1  0.44575107  0.90415474  0.06628866  1
  O  O60  1  0.55424893  0.09584526  0.93371134  1
  O  O61  1  0.55204999  0.09997633  0.55982926  1
  O  O62  1  0.57309116  0.43169594  0.72942564  1
  O  O63  1  0.62370645  0.31923274  0.05883837  1
  O  O64  1  0.64597758  0.99306202  0.25706800  1
  O  O65  1  0.57724452  0.77268277  0.75970629  1
  O  O66  1  0.61407434  0.32013634  0.43212741  1
  O  O67  1  0.62334618  0.66960451  0.22551364  1
  O  O68  1  0.66423319  0.52316447  0.06873893  1
  O  O69  1  0.81411436  0.96200549  0.93779850  1
  O  O70  1  0.67499651  0.84223408  0.25105425  1
  O  O71  1  0.67348626  0.17777147  0.24438339  1
  O  O72  1  0.82500349  0.65776592  0.75105425  1
  O  O73  1  0.82651374  0.32222853  0.74438339  1
  O  O74  1  0.68588564  0.53799451  0.43779850  1
  O  O75  1  0.83576681  0.97683553  0.56873893  1
  O  O76  1  0.87665382  0.83039549  0.72551364  1
  O  O77  1  0.92275548  0.72731723  0.25970629  1
  O  O78  1  0.88592566  0.17986366  0.93212741  1
  O  O79  1  0.85402242  0.50693798  0.75706800  1
  O  O80  1  0.87629355  0.18076726  0.55883837  1
  O  O81  1  0.92690884  0.06830406  0.22942564  1
  O  O82  1  0.94795001  0.40002367  0.05982926  1
  O  O83  1  0.94575107  0.40415474  0.43371134  1
