# generated using pymatgen
data_Li12MnV3P4(CO7)4
_symmetry_space_group_name_H-M   'P 1'
_cell_length_a   8.50343702
_cell_length_b   10.01419878
_cell_length_c   6.62461306
_cell_angle_alpha   90.00000000
_cell_angle_beta   90.00000000
_cell_angle_gamma   85.00857326
_symmetry_Int_Tables_number   1
_chemical_formula_structural   Li12MnV3P4(CO7)4
_chemical_formula_sum   'Li12 Mn1 V3 P4 C4 O28'
_cell_volume   561.98034922
_cell_formula_units_Z   1
loop_
 _symmetry_equiv_pos_site_id
 _symmetry_equiv_pos_as_xyz
  1  'x, y, z'
loop_
 _atom_site_type_symbol
 _atom_site_label
 _atom_site_symmetry_multiplicity
 _atom_site_fract_x
 _atom_site_fract_y
 _atom_site_fract_z
 _atom_site_occupancy
  Li  Li0  1  0.09708143  0.38157182  0.25000000  1
  Li  Li1  1  0.09287295  0.88136390  0.25000000  1
  Li  Li2  1  0.27814564  0.12446142  0.02639589  1
  Li  Li3  1  0.27814564  0.12446142  0.47360411  1
  Li  Li4  1  0.27598300  0.62359830  0.02663133  1
  Li  Li5  1  0.27598300  0.62359830  0.47336867  1
  Li  Li6  1  0.72231228  0.37599975  0.52525667  1
  Li  Li7  1  0.72231228  0.37599975  0.97474333  1
  Li  Li8  1  0.72293451  0.87669179  0.52730022  1
  Li  Li9  1  0.72293451  0.87669179  0.97269978  1
  Li  Li10  1  0.90491559  0.11762883  0.75000000  1
  Li  Li11  1  0.90535632  0.61743369  0.75000000  1
  Mn  Mn12  1  0.66045564  0.61024022  0.25000000  1
  V  V13  1  0.33011930  0.39596666  0.75000000  1
  V  V14  1  0.32994977  0.89642193  0.75000000  1
  V  V15  1  0.67011042  0.10310063  0.25000000  1
  P  P16  1  0.41230123  0.35889402  0.25000000  1
  P  P17  1  0.40873073  0.86188178  0.25000000  1
  P  P18  1  0.58893419  0.13999017  0.75000000  1
  P  P19  1  0.58907687  0.63964586  0.75000000  1
  C  C20  1  0.03554758  0.34939118  0.75000000  1
  C  C21  1  0.03554118  0.84960309  0.75000000  1
  C  C22  1  0.96462937  0.15036919  0.25000000  1
  C  C23  1  0.96713088  0.64895986  0.25000000  1
  O  O24  1  0.07526848  0.47209876  0.75000000  1
  O  O25  1  0.11043971  0.17745075  0.25000000  1
  O  O26  1  0.07501452  0.97228903  0.75000000  1
  O  O27  1  0.14851559  0.25264322  0.75000000  1
  O  O28  1  0.11305975  0.67834004  0.25000000  1
  O  O29  1  0.14862851  0.75287113  0.75000000  1
  O  O30  1  0.30998316  0.41211307  0.06758599  1
  O  O31  1  0.30998316  0.41211307  0.43241401  1
  O  O32  1  0.30790834  0.91518031  0.06706409  1
  O  O33  1  0.30790834  0.91518031  0.43293591  1
  O  O34  1  0.42216349  0.08956355  0.75000000  1
  O  O35  1  0.43026967  0.20202115  0.25000000  1
  O  O36  1  0.42221210  0.58937732  0.75000000  1
  O  O37  1  0.42477242  0.70511881  0.25000000  1
  O  O38  1  0.56953433  0.29663145  0.75000000  1
  O  O39  1  0.57975177  0.40858533  0.25000000  1
  O  O40  1  0.56968121  0.79640062  0.75000000  1
  O  O41  1  0.57804049  0.90831766  0.25000000  1
  O  O42  1  0.69159870  0.08707004  0.93248277  1
  O  O43  1  0.69159870  0.08707004  0.56751723  1
  O  O44  1  0.69119732  0.58718607  0.56673870  1
  O  O45  1  0.69119732  0.58718607  0.93326130  1
  O  O46  1  0.85119661  0.24689214  0.25000000  1
  O  O47  1  0.88931962  0.32238020  0.75000000  1
  O  O48  1  0.85420253  0.74597802  0.25000000  1
  O  O49  1  0.92476525  0.02755488  0.25000000  1
  O  O50  1  0.88938040  0.82242904  0.75000000  1
  O  O51  1  0.93090119  0.52599360  0.25000000  1
