# generated using pymatgen
data_Li9Mn5(SiO8)2
_symmetry_space_group_name_H-M   'P 1'
_cell_length_a   5.07702890
_cell_length_b   10.97995504
_cell_length_c   5.32971184
_cell_angle_alpha   92.70510605
_cell_angle_beta   84.00861222
_cell_angle_gamma   99.90423785
_symmetry_Int_Tables_number   1
_chemical_formula_structural   Li9Mn5(SiO8)2
_chemical_formula_sum   'Li9 Mn5 Si2 O16'
_cell_volume   290.95137706
_cell_formula_units_Z   1
loop_
 _symmetry_equiv_pos_site_id
 _symmetry_equiv_pos_as_xyz
  1  'x, y, z'
loop_
 _atom_site_type_symbol
 _atom_site_label
 _atom_site_symmetry_multiplicity
 _atom_site_fract_x
 _atom_site_fract_y
 _atom_site_fract_z
 _atom_site_occupancy
  Li  Li0  1  0.02226281  0.99529102  0.98648244  1
  Li  Li1  1  0.11054556  0.11999573  0.51992557  1
  Li  Li2  1  0.25533332  0.24623034  0.00051508  1
  Li  Li3  1  0.37202734  0.37504315  0.49574821  1
  Li  Li4  1  0.50297266  0.49995685  0.00425179  1
  Li  Li5  1  0.61966668  0.62876966  0.49948492  1
  Li  Li6  1  0.76445444  0.75500427  0.98007443  1
  Li  Li7  1  0.85273719  0.87970898  0.51351756  1
  Li  Li8  1  0.43750000  0.93750000  0.25000000  1
  Mn  Mn9  1  0.68192133  0.17964219  0.25030380  1
  Mn  Mn10  1  0.80845697  0.30869368  0.75023093  1
  Mn  Mn11  1  0.93750000  0.43750000  0.25000000  1
  Mn  Mn12  1  0.06654303  0.56630632  0.74976907  1
  Mn  Mn13  1  0.19307867  0.69535781  0.24969620  1
  Si  Si14  1  0.55772796  0.05771601  0.75194894  1
  Si  Si15  1  0.31727204  0.81728399  0.74805106  1
  O  O16  1  0.39223312  0.08907439  0.06889240  1
  O  O17  1  0.74022208  0.03920673  0.43210399  1
  O  O18  1  0.01794839  0.27990300  0.35637160  1
  O  O19  1  0.87024373  0.14650467  0.85480572  1
  O  O20  1  0.47942619  0.20318263  0.64651476  1
  O  O21  1  0.14352752  0.40732616  0.85296098  1
  O  O22  1  0.60719586  0.34024552  0.14371258  1
  O  O23  1  0.73147248  0.46767384  0.64703902  1
  O  O24  1  0.26780414  0.53475448  0.35628742  1
  O  O25  1  0.39557381  0.67181737  0.85348524  1
  O  O26  1  0.85705161  0.59509700  0.14362840  1
  O  O27  1  0.13477792  0.83579327  0.06789601  1
  O  O28  1  0.48276688  0.78592561  0.43110760  1
  O  O29  1  0.00475627  0.72849533  0.64519428  1
  O  O30  1  0.25069690  0.96498095  0.65570420  1
  O  O31  1  0.62430310  0.91001905  0.84429580  1
