# generated using pymatgen
data_Li2V(SiO3)2
_symmetry_space_group_name_H-M   'P 1'
_cell_length_a   10.23069364
_cell_length_b   7.22423152
_cell_length_c   10.00304677
_cell_angle_alpha   90.00000000
_cell_angle_beta   90.00000000
_cell_angle_gamma   90.00000000
_symmetry_Int_Tables_number   1
_chemical_formula_structural   Li2V(SiO3)2
_chemical_formula_sum   'Li12 V6 Si12 O36'
_cell_volume   739.31417807
_cell_formula_units_Z   6
loop_
 _symmetry_equiv_pos_site_id
 _symmetry_equiv_pos_as_xyz
  1  'x, y, z'
loop_
 _atom_site_type_symbol
 _atom_site_label
 _atom_site_symmetry_multiplicity
 _atom_site_fract_x
 _atom_site_fract_y
 _atom_site_fract_z
 _atom_site_occupancy
  Li  Li0  1  0.00000000  0.77623061  0.24471260  1
  Li  Li1  1  0.00000000  0.76577975  0.76523048  1
  Li  Li2  1  0.23265966  0.28990921  0.45369463  1
  Li  Li3  1  0.23512324  0.22067398  0.03946549  1
  Li  Li4  1  0.26487676  0.77932602  0.53946549  1
  Li  Li5  1  0.26734034  0.71009079  0.95369463  1
  Li  Li6  1  0.50000000  0.23422025  0.26523048  1
  Li  Li7  1  0.50000000  0.22376939  0.74471260  1
  Li  Li8  1  0.73265966  0.71009079  0.95369463  1
  Li  Li9  1  0.73512324  0.77932602  0.53946549  1
  Li  Li10  1  0.76487676  0.22067398  0.03946549  1
  Li  Li11  1  0.76734034  0.28990921  0.45369463  1
  V  V12  1  0.00000000  0.24979682  0.24697008  1
  V  V13  1  0.00000000  0.98197167  0.01876074  1
  V  V14  1  0.00000000  0.51697056  0.47406326  1
  V  V15  1  0.50000000  0.01802833  0.51876074  1
  V  V16  1  0.50000000  0.48302944  0.97406326  1
  V  V17  1  0.50000000  0.75020318  0.74697008  1
  Si  Si18  1  0.00000000  0.98750318  0.52588344  1
  Si  Si19  1  0.00000000  0.51228453  0.96882439  1
  Si  Si20  1  0.22538585  0.02473619  0.74874444  1
  Si  Si21  1  0.22585145  0.47306599  0.74768109  1
  Si  Si22  1  0.27414855  0.52693401  0.24768109  1
  Si  Si23  1  0.27461415  0.97526381  0.24874444  1
  Si  Si24  1  0.50000000  0.48771547  0.46882439  1
  Si  Si25  1  0.50000000  0.01249682  0.02588344  1
  Si  Si26  1  0.72538585  0.97526381  0.24874444  1
  Si  Si27  1  0.72585145  0.52693401  0.24768109  1
  Si  Si28  1  0.77414855  0.47306599  0.74768109  1
  Si  Si29  1  0.77461415  0.02473619  0.74874444  1
  O  O30  1  0.00000000  0.30307301  0.02849128  1
  O  O31  1  0.00000000  0.68819400  0.06799422  1
  O  O32  1  0.00000000  0.19534527  0.46515992  1
  O  O33  1  0.00000000  0.81057684  0.42836599  1
  O  O34  1  0.13474882  0.03985714  0.18814713  1
  O  O35  1  0.12203834  0.55165552  0.86228066  1
  O  O36  1  0.12423281  0.95102063  0.63027145  1
  O  O37  1  0.13669785  0.45332361  0.30799069  1
  O  O38  1  0.17498313  0.94066791  0.88991888  1
  O  O39  1  0.18161358  0.54147920  0.60014610  1
  O  O40  1  0.27953980  0.75170171  0.25784673  1
  O  O41  1  0.22046020  0.24829829  0.75784673  1
  O  O42  1  0.31838642  0.45852080  0.10014610  1
  O  O43  1  0.32501687  0.05933209  0.38991888  1
  O  O44  1  0.36330215  0.54667639  0.80799069  1
  O  O45  1  0.37576719  0.04897937  0.13027145  1
  O  O46  1  0.37796166  0.44834448  0.36228066  1
  O  O47  1  0.36525118  0.96014286  0.68814713  1
  O  O48  1  0.50000000  0.69692699  0.52849128  1
  O  O49  1  0.50000000  0.31180600  0.56799422  1
  O  O50  1  0.50000000  0.18942316  0.92836599  1
  O  O51  1  0.50000000  0.80465473  0.96515992  1
  O  O52  1  0.63474882  0.96014286  0.68814713  1
  O  O53  1  0.62203834  0.44834448  0.36228066  1
  O  O54  1  0.62423281  0.04897937  0.13027145  1
  O  O55  1  0.63669785  0.54667639  0.80799069  1
  O  O56  1  0.67498313  0.05933209  0.38991888  1
  O  O57  1  0.68161358  0.45852080  0.10014610  1
  O  O58  1  0.77953980  0.24829829  0.75784673  1
  O  O59  1  0.72046020  0.75170171  0.25784673  1
  O  O60  1  0.81838642  0.54147920  0.60014610  1
  O  O61  1  0.82501687  0.94066791  0.88991888  1
  O  O62  1  0.86330215  0.45332361  0.30799069  1
  O  O63  1  0.87576719  0.95102063  0.63027145  1
  O  O64  1  0.87796166  0.55165552  0.86228066  1
  O  O65  1  0.86525118  0.03985714  0.18814713  1
