# generated using pymatgen
data_Li2VF5
_symmetry_space_group_name_H-M   'P 1'
_cell_length_a   9.12366169
_cell_length_b   6.16533480
_cell_length_c   6.32420548
_cell_angle_alpha   90.00000000
_cell_angle_beta   90.00000000
_cell_angle_gamma   90.00000000
_symmetry_Int_Tables_number   1
_chemical_formula_structural   Li2VF5
_chemical_formula_sum   'Li8 V4 F20'
_cell_volume   355.73927083
_cell_formula_units_Z   4
loop_
 _symmetry_equiv_pos_site_id
 _symmetry_equiv_pos_as_xyz
  1  'x, y, z'
loop_
 _atom_site_type_symbol
 _atom_site_label
 _atom_site_symmetry_multiplicity
 _atom_site_fract_x
 _atom_site_fract_y
 _atom_site_fract_z
 _atom_site_occupancy
  Li  Li0  1  0.16875921  0.54837943  0.77992043  1
  Li  Li1  1  0.17120992  0.54872341  0.22342335  1
  Li  Li2  1  0.32879008  0.04872341  0.72342335  1
  Li  Li3  1  0.33124079  0.04837943  0.27992043  1
  Li  Li4  1  0.66875921  0.95162057  0.77992043  1
  Li  Li5  1  0.67120992  0.95127659  0.22342335  1
  Li  Li6  1  0.82879008  0.45127659  0.72342335  1
  Li  Li7  1  0.83124079  0.45162057  0.27992043  1
  V  V8  1  0.01630200  0.06440442  0.00231253  1
  V  V9  1  0.48369800  0.56440442  0.50231253  1
  V  V10  1  0.51630200  0.43559558  0.00231253  1
  V  V11  1  0.98369800  0.93559558  0.50231253  1
  F  F12  1  0.05082196  0.39189440  0.00404753  1
  F  F13  1  0.06572568  0.82647833  0.21679124  1
  F  F14  1  0.06770150  0.82865854  0.78721970  1
  F  F15  1  0.18127652  0.07845478  0.50038317  1
  F  F16  1  0.23702651  0.08355300  0.00268105  1
  F  F17  1  0.26297349  0.58355300  0.50268105  1
  F  F18  1  0.31872348  0.57845478  0.00038317  1
  F  F19  1  0.43229850  0.32865854  0.28721970  1
  F  F20  1  0.43427432  0.32647833  0.71679124  1
  F  F21  1  0.44917804  0.89189440  0.50404753  1
  F  F22  1  0.55082196  0.10810560  0.00404753  1
  F  F23  1  0.56572568  0.67352167  0.21679124  1
  F  F24  1  0.56770150  0.67134146  0.78721970  1
  F  F25  1  0.68127652  0.42154522  0.50038317  1
  F  F26  1  0.73702651  0.41644700  0.00268105  1
  F  F27  1  0.76297349  0.91644700  0.50268105  1
  F  F28  1  0.81872348  0.92154522  0.00038317  1
  F  F29  1  0.93229850  0.17134146  0.28721970  1
  F  F30  1  0.93427432  0.17352167  0.71679124  1
  F  F31  1  0.94917804  0.60810560  0.50404753  1
