# generated using pymatgen
data_BaH2(CO2)2
_symmetry_space_group_name_H-M   'P 1'
_cell_length_a   9.08559185
_cell_length_b   7.70586604
_cell_length_c   6.90181066
_cell_angle_alpha   90.00000000
_cell_angle_beta   90.00000000
_cell_angle_gamma   90.00000000
_symmetry_Int_Tables_number   1
_chemical_formula_structural   BaH2(CO2)2
_chemical_formula_sum   'Ba4 H8 C8 O16'
_cell_volume   483.21200903
_cell_formula_units_Z   4
loop_
 _symmetry_equiv_pos_site_id
 _symmetry_equiv_pos_as_xyz
  1  'x, y, z'
loop_
 _atom_site_type_symbol
 _atom_site_label
 _atom_site_symmetry_multiplicity
 _atom_site_fract_x
 _atom_site_fract_y
 _atom_site_fract_z
 _atom_site_occupancy
  Ba  Ba0  1  0.91399862  0.53833257  0.32804259  1
  Ba  Ba1  1  0.58600138  0.46166743  0.82804259  1
  Ba  Ba2  1  0.41399862  0.96166743  0.67195741  1
  Ba  Ba3  1  0.08600138  0.03833257  0.17195741  1
  H  H4  1  0.44900965  0.68776675  0.25359672  1
  H  H5  1  0.05099035  0.31223325  0.75359672  1
  H  H6  1  0.94900965  0.81223325  0.74640328  1
  H  H7  1  0.55099035  0.18776675  0.24640328  1
  H  H8  1  0.74068370  0.04259122  0.98119363  1
  H  H9  1  0.75931630  0.95740878  0.48119363  1
  H  H10  1  0.24068370  0.45740878  0.01880637  1
  H  H11  1  0.25931630  0.54259122  0.51880637  1
  C  C12  1  0.54490951  0.62406371  0.32374057  1
  C  C13  1  0.95509049  0.37593629  0.82374057  1
  C  C14  1  0.04490951  0.87593629  0.67625943  1
  C  C15  1  0.45509049  0.12406371  0.17625943  1
  C  C16  1  0.73814413  0.89884071  0.99824717  1
  C  C17  1  0.76185587  0.10115929  0.49824717  1
  C  C18  1  0.23814413  0.60115929  0.00175283  1
  C  C19  1  0.26185587  0.39884071  0.50175283  1
  O  O20  1  0.57775926  0.67422535  0.49449617  1
  O  O21  1  0.92224074  0.32577465  0.99449617  1
  O  O22  1  0.07775926  0.82577465  0.50550383  1
  O  O23  1  0.42224074  0.17422535  0.00550383  1
  O  O24  1  0.61451869  0.51004383  0.22834023  1
  O  O25  1  0.88548131  0.48995617  0.72834023  1
  O  O26  1  0.11451869  0.98995617  0.77165977  1
  O  O27  1  0.38548131  0.01004383  0.27165977  1
  O  O28  1  0.83183918  0.83409196  0.11489391  1
  O  O29  1  0.66816082  0.16590804  0.61489391  1
  O  O30  1  0.33183918  0.66590804  0.88510609  1
  O  O31  1  0.16816082  0.33409196  0.38510609  1
  O  O32  1  0.64396099  0.81729575  0.89885423  1
  O  O33  1  0.85603901  0.18270425  0.39885423  1
  O  O34  1  0.14396099  0.68270425  0.10114577  1
  O  O35  1  0.35603901  0.31729575  0.60114577  1
