# generated using pymatgen
data_Li2Fe(PS3)2
_symmetry_space_group_name_H-M   'P 1'
_cell_length_a   6.03174034
_cell_length_b   6.02196651
_cell_length_c   6.67517991
_cell_angle_alpha   89.69423250
_cell_angle_beta   90.46063101
_cell_angle_gamma   120.10955485
_symmetry_Int_Tables_number   1
_chemical_formula_structural   Li2Fe(PS3)2
_chemical_formula_sum   'Li2 Fe1 P2 S6'
_cell_volume   209.73917438
_cell_formula_units_Z   1
loop_
 _symmetry_equiv_pos_site_id
 _symmetry_equiv_pos_as_xyz
  1  'x, y, z'
loop_
 _atom_site_type_symbol
 _atom_site_label
 _atom_site_symmetry_multiplicity
 _atom_site_fract_x
 _atom_site_fract_y
 _atom_site_fract_z
 _atom_site_occupancy
  Li  Li0  1  0.66691946  0.33360762  0.50000559  1
  Li  Li1  1  0.66610337  0.33337258  0.00003524  1
  Fe  Fe2  1  0.31963832  0.66221514  0.50015900  1
  P  P3  1  0.00114442  0.00198727  0.66673576  1
  P  P4  1  -0.00041204  0.99777237  0.33313216  1
  S  S5  1  0.01656919  0.67863508  0.74005522  1
  S  S6  1  0.01592688  0.33702732  0.25997181  1
  S  S7  1  0.32470366  0.33760749  0.73699931  1
  S  S8  1  0.32408119  0.98623067  0.26373205  1
  S  S9  1  0.66556171  0.67773089  0.25958382  1
  S  S10  1  0.66626583  0.98711156  0.73959005  1
