# generated using pymatgen
data_V5CoO15
_symmetry_space_group_name_H-M   'P 1'
_cell_length_a   9.22100539
_cell_length_b   9.86254185
_cell_length_c   9.86161660
_cell_angle_alpha   56.95427428
_cell_angle_beta   62.17941852
_cell_angle_gamma   62.28377288
_symmetry_Int_Tables_number   1
_chemical_formula_structural   V5CoO15
_chemical_formula_sum   'V10 Co2 O30'
_cell_volume   637.47944473
_cell_formula_units_Z   2
loop_
 _symmetry_equiv_pos_site_id
 _symmetry_equiv_pos_as_xyz
  1  'x, y, z'
loop_
 _atom_site_type_symbol
 _atom_site_label
 _atom_site_symmetry_multiplicity
 _atom_site_fract_x
 _atom_site_fract_y
 _atom_site_fract_z
 _atom_site_occupancy
  V  V0  1  0.00008738  0.65561294  0.31329343  1
  V  V1  1  0.22462509  0.23045640  0.36592534  1
  V  V2  1  0.27731054  0.63858808  0.76393466  1
  V  V3  1  0.48124037  0.69307358  0.35839017  1
  V  V4  1  0.53178580  0.30701751  0.64177341  1
  V  V5  1  0.68088352  0.36108449  0.23566470  1
  V  V6  1  0.53921612  0.34786339  0.96550244  1
  V  V7  1  0.85180986  0.65387517  0.03400456  1
  V  V8  1  0.82101292  0.77004624  0.63363546  1
  V  V9  1  0.96935005  0.34513005  0.68653878  1
  Co  Co10  1  0.63796213  0.98240040  0.34349915  1
  Co  Co11  1  0.96202144  0.01844309  0.65721352  1
  O  O12  1  0.08047615  0.12345269  0.42924522  1
  O  O13  1  0.09093271  0.40201735  0.43872977  1
  O  O14  1  0.01952413  0.13327553  0.70910850  1
  O  O15  1  0.29986445  0.31289331  0.15494219  1
  O  O16  1  0.08007136  0.30950023  0.79461662  1
  O  O17  1  0.18330030  0.69089497  0.20432668  1
  O  O18  1  0.41121851  0.09877768  0.42595294  1
  O  O19  1  0.63052860  0.11164003  0.13737435  1
  O  O20  1  0.08941865  0.58750466  0.88815691  1
  O  O21  1  0.29994149  0.81590543  0.31979067  1
  O  O22  1  0.43210605  0.18670641  0.67910834  1
  O  O23  1  0.56431993  0.41121531  0.11326360  1
  O  O24  1  0.22331695  0.84690629  0.66984652  1
  O  O25  1  0.48642761  0.28068779  0.86906134  1
  O  O26  1  0.39657401  0.55256732  0.60503981  1
  O  O27  1  0.55780012  0.44678800  0.39471201  1
  O  O28  1  0.63577558  0.71937463  0.13092610  1
  O  O29  1  0.74197113  0.15246294  0.32947119  1
  O  O30  1  0.42016128  0.56703760  0.88223468  1
  O  O31  1  0.57376290  0.79379603  0.38002843  1
  O  O32  1  0.74563799  0.20309906  0.62264884  1
  O  O33  1  0.86876602  0.43391037  0.11444083  1
  O  O34  1  0.63370738  0.87857311  0.57023088  1
  O  O35  1  0.74635373  0.36330167  0.82162153  1
  O  O36  1  0.93019946  0.63432039  0.18028857  1
  O  O37  1  0.76645453  0.68824328  0.84427944  1
  O  O38  1  0.86252913  0.86674197  0.29028859  1
  O  O39  1  0.93023907  0.59795994  0.56168138  1
  O  O40  1  0.93775634  0.90030521  0.57471123  1
  O  O41  1  0.87895922  0.88654943  0.86449723  1
