# generated using pymatgen
data_CrO2
_symmetry_space_group_name_H-M   'P 1'
_cell_length_a   2.99884793
_cell_length_b   7.14697334
_cell_length_c   7.14864041
_cell_angle_alpha   87.73894407
_cell_angle_beta   77.88992772
_cell_angle_gamma   77.89866174
_symmetry_Int_Tables_number   1
_chemical_formula_structural   CrO2
_chemical_formula_sum   'Cr4 O8'
_cell_volume   146.47442817
_cell_formula_units_Z   4
loop_
 _symmetry_equiv_pos_site_id
 _symmetry_equiv_pos_as_xyz
  1  'x, y, z'
loop_
 _atom_site_type_symbol
 _atom_site_label
 _atom_site_symmetry_multiplicity
 _atom_site_fract_x
 _atom_site_fract_y
 _atom_site_fract_z
 _atom_site_occupancy
  Cr  Cr0  1  0.65551157  0.18209183  0.51247027  1
  Cr  Cr1  1  0.16754422  0.48719757  0.18255482  1
  Cr  Cr2  1  0.83622871  0.51315725  0.81952807  1
  Cr  Cr3  1  0.34832938  0.81826045  0.48971835  1
  O  O4  1  0.83895313  0.70067426  0.62621170  1
  O  O5  1  0.46403428  0.37722813  0.69994058  1
  O  O6  1  0.53975291  0.62317036  0.30217342  1
  O  O7  1  0.16485406  0.29968574  0.37593223  1
  O  O8  1  0.16052856  0.04832225  0.63585236  1
  O  O9  1  0.79659183  0.36471584  0.04693037  1
  O  O10  1  0.84329705  0.95204193  0.36635079  1
  O  O11  1  0.20722631  0.63563038  0.95515305  1
