# generated using pymatgen
data_Y8Cu3(GeS7)3
_symmetry_space_group_name_H-M   'P 1'
_cell_length_a   9.84123889
_cell_length_b   9.81806317
_cell_length_c   17.68645244
_cell_angle_alpha   90.00000000
_cell_angle_beta   90.00000000
_cell_angle_gamma   119.83668121
_symmetry_Int_Tables_number   1
_chemical_formula_structural   Y8Cu3(GeS7)3
_chemical_formula_sum   'Y16 Cu6 Ge6 S42'
_cell_volume   1482.37926155
_cell_formula_units_Z   2
loop_
 _symmetry_equiv_pos_site_id
 _symmetry_equiv_pos_as_xyz
  1  'x, y, z'
loop_
 _atom_site_type_symbol
 _atom_site_label
 _atom_site_symmetry_multiplicity
 _atom_site_fract_x
 _atom_site_fract_y
 _atom_site_fract_z
 _atom_site_occupancy
  Y  Y0  1  0.13159339  0.77257015  0.24812558  1
  Y  Y1  1  0.13559258  0.77214716  0.58332446  1
  Y  Y2  1  0.77593527  0.63953298  0.08366165  1
  Y  Y3  1  0.76898368  0.63344777  0.41807555  1
  Y  Y4  1  0.77676263  0.63864982  0.75461752  1
  Y  Y5  1  0.35508129  0.12539145  0.08241644  1
  Y  Y6  1  0.36842850  0.13792664  0.41944302  1
  Y  Y7  1  0.36065303  0.13006881  0.75430887  1
  Y  Y8  1  0.63934697  0.86993119  0.25430887  1
  Y  Y9  1  0.64491871  0.87460855  0.58241644  1
  Y  Y10  1  0.63157150  0.86207336  0.91944302  1
  Y  Y11  1  0.86440742  0.22785284  0.08332446  1
  Y  Y12  1  0.86840661  0.22742985  0.74812558  1
  Y  Y13  1  0.22323737  0.36135018  0.25461752  1
  Y  Y14  1  0.22406473  0.36046702  0.58366165  1
  Y  Y15  1  0.23101632  0.36655223  0.91807555  1
  Cu  Cu16  1  0.99947130  0.99848964  0.06587571  1
  Cu  Cu17  1  0.99613999  0.00931068  0.39850332  1
  Cu  Cu18  1  0.00082602  0.00326534  0.72887099  1
  Cu  Cu19  1  0.99917398  0.99673466  0.22887099  1
  Cu  Cu20  1  0.00052870  0.00151036  0.56587571  1
  Cu  Cu21  1  0.00386001  0.99068932  0.89850332  1
  Ge  Ge22  1  0.67205714  0.33207002  0.27847228  1
  Ge  Ge23  1  0.66347453  0.33476307  0.60767689  1
  Ge  Ge24  1  0.66923107  0.33320767  0.94537952  1
  Ge  Ge25  1  0.33652547  0.66523693  0.10767689  1
  Ge  Ge26  1  0.33076893  0.66679233  0.44537952  1
  Ge  Ge27  1  0.32794286  0.66792998  0.77847228  1
  S  S28  1  0.48250849  0.57967884  0.16703930  1
  S  S29  1  0.48202975  0.58104305  0.49786006  1
  S  S30  1  0.48209277  0.58128190  0.83044903  1
  S  S31  1  0.90481983  0.48817268  0.33037399  1
  S  S32  1  0.89986344  0.48163278  0.66326812  1
  S  S33  1  0.90297092  0.48137532  0.99604922  1
  S  S34  1  0.90182554  0.15786357  0.23247440  1
  S  S35  1  0.90697176  0.16276549  0.58127149  1
  S  S36  1  0.90521794  0.15532839  0.90334953  1
  S  S37  1  0.09302824  0.83723451  0.08127149  1
  S  S38  1  0.09478206  0.84467161  0.40334953  1
  S  S39  1  0.09817446  0.84213643  0.73247440  1
  S  S40  1  0.10013656  0.51836722  0.16326812  1
  S  S41  1  0.09702908  0.51862468  0.49604922  1
  S  S42  1  0.09518017  0.51182732  0.83037399  1
  S  S43  1  0.33364036  0.66888625  0.31954916  1
  S  S44  1  0.33454530  0.66734230  0.65226359  1
  S  S45  1  0.33481897  0.66526545  0.98477842  1
  S  S46  1  0.74077123  0.90146669  0.07031117  1
  S  S47  1  0.74009309  0.89558486  0.40517379  1
  S  S48  1  0.74198960  0.89906287  0.73774455  1
  S  S49  1  0.66545470  0.33265770  0.15226359  1
  S  S50  1  0.66518103  0.33473455  0.48477842  1
  S  S51  1  0.66635964  0.33111375  0.81954916  1
  S  S52  1  0.56918399  0.09103476  0.32687711  1
  S  S53  1  0.58029521  0.09939846  0.66369674  1
  S  S54  1  0.57780468  0.09457821  0.99685660  1
  S  S55  1  0.25801040  0.10093713  0.23774455  1
  S  S56  1  0.25922877  0.09853331  0.57031117  1
  S  S57  1  0.25990691  0.10441514  0.90517379  1
  S  S58  1  0.15947640  0.25768084  0.07010209  1
  S  S59  1  0.16630952  0.25889431  0.40697152  1
  S  S60  1  0.16418204  0.25964258  0.73926134  1
  S  S61  1  0.41970479  0.90060154  0.16369674  1
  S  S62  1  0.42219532  0.90542179  0.49685660  1
  S  S63  1  0.43081601  0.90896524  0.82687711  1
  S  S64  1  0.83581796  0.74035742  0.23926134  1
  S  S65  1  0.84052360  0.74231916  0.57010209  1
  S  S66  1  0.83369048  0.74110569  0.90697152  1
  S  S67  1  0.51790723  0.41871810  0.33044903  1
  S  S68  1  0.51749151  0.42032116  0.66703930  1
  S  S69  1  0.51797025  0.41895695  0.99786006  1
