# generated using pymatgen
data_CuO2F
_symmetry_space_group_name_H-M   'P 1'
_cell_length_a   3.95810296
_cell_length_b   5.21529815
_cell_length_c   5.21529821
_cell_angle_alpha   103.56085869
_cell_angle_beta   90.00000000
_cell_angle_gamma   90.00000000
_symmetry_Int_Tables_number   1
_chemical_formula_structural   CuO2F
_chemical_formula_sum   'Cu2 O4 F2'
_cell_volume   104.65642201
_cell_formula_units_Z   2
loop_
 _symmetry_equiv_pos_site_id
 _symmetry_equiv_pos_as_xyz
  1  'x, y, z'
loop_
 _atom_site_type_symbol
 _atom_site_label
 _atom_site_symmetry_multiplicity
 _atom_site_fract_x
 _atom_site_fract_y
 _atom_site_fract_z
 _atom_site_occupancy
  Cu  Cu0  1  -0.00000000  0.71615885  0.71615885  1
  Cu  Cu1  1  0.50000000  0.28384115  0.28384115  1
  O  O2  1  0.71942577  0.01390575  0.78669154  1
  O  O3  1  0.78057423  0.21330846  0.98609425  1
  O  O4  1  0.21942577  0.98609425  0.21330846  1
  O  O5  1  0.28057423  0.78669154  0.01390575  1
  F  F6  1  0.25000000  0.39152224  0.60847776  1
  F  F7  1  0.75000000  0.60847776  0.39152224  1
