# generated using pymatgen
data_MgCu2(MoO4)2
_symmetry_space_group_name_H-M   'P 1'
_cell_length_a   6.74731981
_cell_length_b   8.56239950
_cell_length_c   12.32876443
_cell_angle_alpha   90.00000000
_cell_angle_beta   91.18543353
_cell_angle_gamma   90.00000000
_symmetry_Int_Tables_number   1
_chemical_formula_structural   MgCu2(MoO4)2
_chemical_formula_sum   'Mg4 Cu8 Mo8 O32'
_cell_volume   712.12031894
_cell_formula_units_Z   4
loop_
 _symmetry_equiv_pos_site_id
 _symmetry_equiv_pos_as_xyz
  1  'x, y, z'
loop_
 _atom_site_type_symbol
 _atom_site_label
 _atom_site_symmetry_multiplicity
 _atom_site_fract_x
 _atom_site_fract_y
 _atom_site_fract_z
 _atom_site_occupancy
  Mg  Mg0  1  0.11314002  0.16097465  0.05008013  1
  Mg  Mg1  1  0.88685998  0.83902535  0.94991987  1
  Mg  Mg2  1  0.88685998  0.66097465  0.44991987  1
  Mg  Mg3  1  0.11314002  0.33902535  0.55008013  1
  Cu  Cu4  1  0.76667451  0.18155905  0.87033181  1
  Cu  Cu5  1  0.37854152  0.05462342  0.62221692  1
  Cu  Cu6  1  0.62145848  0.94537658  0.37778308  1
  Cu  Cu7  1  0.23332549  0.81844095  0.12966819  1
  Cu  Cu8  1  0.76667451  0.31844095  0.37033181  1
  Cu  Cu9  1  0.37854152  0.44537658  0.12221692  1
  Cu  Cu10  1  0.23332549  0.68155905  0.62966819  1
  Cu  Cu11  1  0.62145848  0.55462342  0.87778308  1
  Mo  Mo12  1  0.10235307  0.45961595  0.84567419  1
  Mo  Mo13  1  0.10235307  0.04038405  0.34567419  1
  Mo  Mo14  1  0.61213072  0.08395014  0.13192216  1
  Mo  Mo15  1  0.89764693  0.95961595  0.65432581  1
  Mo  Mo16  1  0.38786928  0.91604986  0.86807784  1
  Mo  Mo17  1  0.38786928  0.58395014  0.36807784  1
  Mo  Mo18  1  0.61213072  0.41604986  0.63192216  1
  Mo  Mo19  1  0.89764693  0.54038405  0.15432581  1
  O  O20  1  0.04339546  0.23435655  0.39905426  1
  O  O21  1  0.66117170  0.01364819  0.59804501  1
  O  O22  1  0.18103054  0.57242503  0.46722805  1
  O  O23  1  0.81896946  0.07242503  0.03277195  1
  O  O24  1  0.04339546  0.26564345  0.89905426  1
  O  O25  1  0.95660454  0.76564345  0.60094574  1
  O  O26  1  0.07814557  0.10856353  0.61322692  1
  O  O27  1  0.50784096  0.89485244  0.13720020  1
  O  O28  1  0.50784096  0.60514756  0.63720020  1
  O  O29  1  0.30824666  0.86902984  0.72919276  1
  O  O30  1  0.69175334  0.36902984  0.77080724  1
  O  O31  1  0.49215904  0.10514756  0.86279980  1
  O  O32  1  0.92185443  0.89143647  0.38677308  1
  O  O33  1  0.87821546  0.54258026  0.30101939  1
  O  O34  1  0.41171746  0.28741275  0.58505864  1
  O  O35  1  0.41171746  0.21258725  0.08505864  1
  O  O36  1  0.12178454  0.04258026  0.19898061  1
  O  O37  1  0.49215904  0.39485244  0.36279980  1
  O  O38  1  0.12178454  0.45741974  0.69898061  1
  O  O39  1  0.81896946  0.42757497  0.53277195  1
  O  O40  1  0.66117170  0.48635181  0.09804501  1
  O  O41  1  0.69175334  0.13097016  0.27080724  1
  O  O42  1  0.95660454  0.73435655  0.10094574  1
  O  O43  1  0.07814557  0.39143647  0.11322692  1
  O  O44  1  0.18103054  0.92757497  0.96722805  1
  O  O45  1  0.58828254  0.78741275  0.91494136  1
  O  O46  1  0.33882830  0.98635181  0.40195499  1
  O  O47  1  0.33882830  0.51364819  0.90195499  1
  O  O48  1  0.92185443  0.60856353  0.88677308  1
  O  O49  1  0.58828254  0.71258725  0.41494136  1
  O  O50  1  0.30824666  0.63097016  0.22919276  1
  O  O51  1  0.87821546  0.95741974  0.80101939  1
