# generated using pymatgen
data_Mn4ZnS8
_symmetry_space_group_name_H-M   'P 1'
_cell_length_a   7.02155925
_cell_length_b   6.90746812
_cell_length_c   6.90746885
_cell_angle_alpha   60.00000098
_cell_angle_beta   60.53605907
_cell_angle_gamma   60.53605339
_symmetry_Int_Tables_number   1
_chemical_formula_structural   Mn4ZnS8
_chemical_formula_sum   'Mn4 Zn1 S8'
_cell_volume   238.79660388
_cell_formula_units_Z   1
loop_
 _symmetry_equiv_pos_site_id
 _symmetry_equiv_pos_as_xyz
  1  'x, y, z'
loop_
 _atom_site_type_symbol
 _atom_site_label
 _atom_site_symmetry_multiplicity
 _atom_site_fract_x
 _atom_site_fract_y
 _atom_site_fract_z
 _atom_site_occupancy
  Mn  Mn0  1  0.00000000  0.50000000  0.50000000  1
  Mn  Mn1  1  0.50000000  0.50000000  0.00000000  1
  Mn  Mn2  1  0.50000000  0.50000000  0.50000000  1
  Mn  Mn3  1  0.50000000  0.00000000  0.50000000  1
  Zn  Zn4  1  0.50000000  0.00000000  0.00000000  1
  S  S5  1  0.26932639  0.25220857  0.25220857  1
  S  S6  1  0.26932639  0.25220857  0.72625647  1
  S  S7  1  0.26932639  0.72625647  0.25220857  1
  S  S8  1  0.71986428  0.26004491  0.26004491  1
  S  S9  1  0.28013572  0.73995509  0.73995509  1
  S  S10  1  0.73067361  0.74779143  0.27374353  1
  S  S11  1  0.73067361  0.27374353  0.74779143  1
  S  S12  1  0.73067361  0.74779143  0.74779143  1
