# generated using pymatgen
data_V2Zn3(P2O9)2
_symmetry_space_group_name_H-M   'P 1'
_cell_length_a   7.81506849
_cell_length_b   7.84327134
_cell_length_c   7.84327112
_cell_angle_alpha   106.30393814
_cell_angle_beta   111.19912983
_cell_angle_gamma   111.19912079
_symmetry_Int_Tables_number   1
_chemical_formula_structural   V2Zn3(P2O9)2
_chemical_formula_sum   'V2 Zn3 P4 O18'
_cell_volume   368.10140564
_cell_formula_units_Z   1
loop_
 _symmetry_equiv_pos_site_id
 _symmetry_equiv_pos_as_xyz
  1  'x, y, z'
loop_
 _atom_site_type_symbol
 _atom_site_label
 _atom_site_symmetry_multiplicity
 _atom_site_fract_x
 _atom_site_fract_y
 _atom_site_fract_z
 _atom_site_occupancy
  V  V0  1  0.00021198  0.60522016  0.60679521  1
  V  V1  1  0.00021198  0.10679521  0.10522016  1
  Zn  Zn2  1  0.28658700  0.17248603  0.67248603  1
  Zn  Zn3  1  0.50022402  0.88747276  0.14974865  1
  Zn  Zn4  1  0.50022402  0.64974865  0.38747276  1
  P  P5  1  0.50007128  0.92948715  0.80733918  1
  P  P6  1  0.10406983  0.42185107  0.92185107  1
  P  P7  1  0.88230663  0.80393575  0.30393575  1
  P  P8  1  0.50007128  0.30733918  0.42948715  1
  O  O9  1  0.00152952  0.93601086  0.93747771  1
  O  O10  1  0.49728040  0.34246320  0.62632632  1
  O  O11  1  0.96869211  0.28001349  0.98640123  1
  O  O12  1  0.96869211  0.48640123  0.78001349  1
  O  O13  1  0.69571492  0.51715137  0.48043626  1
  O  O14  1  0.00152952  0.43747771  0.43601086  1
  O  O15  1  0.03443209  0.82205533  0.52162467  1
  O  O16  1  0.18782119  0.31411573  0.81411573  1
  O  O17  1  0.71288070  0.84341936  0.34341936  1
  O  O18  1  0.03443209  0.02162467  0.32205533  1
  O  O19  1  0.50001070  0.11894815  0.31525505  1
  O  O20  1  0.69571492  0.98043626  0.01715137  1
  O  O21  1  0.30360601  0.78075276  0.81977340  1
  O  O22  1  0.49728040  0.12632632  0.84246320  1
  O  O23  1  0.30360601  0.31977340  0.28075276  1
  O  O24  1  0.28325711  0.62696545  0.12696545  1
  O  O25  1  0.80149151  0.61646672  0.11646672  1
  O  O26  1  0.50001070  0.81525505  0.61894815  1
