# generated using pymatgen
data_MgTiF5
_symmetry_space_group_name_H-M   'P 1'
_cell_length_a   5.34868861
_cell_length_b   5.34868820
_cell_length_c   7.51569850
_cell_angle_alpha   97.99002145
_cell_angle_beta   111.12898486
_cell_angle_gamma   107.34782018
_symmetry_Int_Tables_number   1
_chemical_formula_structural   MgTiF5
_chemical_formula_sum   'Mg2 Ti2 F10'
_cell_volume   183.95266146
_cell_formula_units_Z   2
loop_
 _symmetry_equiv_pos_site_id
 _symmetry_equiv_pos_as_xyz
  1  'x, y, z'
loop_
 _atom_site_type_symbol
 _atom_site_label
 _atom_site_symmetry_multiplicity
 _atom_site_fract_x
 _atom_site_fract_y
 _atom_site_fract_z
 _atom_site_occupancy
  Mg  Mg0  1  0.27319890  0.52319890  0.75000000  1
  Mg  Mg1  1  0.72680110  0.47680110  0.25000000  1
  Ti  Ti2  1  0.00000000  0.00000000  0.00000000  1
  Ti  Ti3  1  0.50000000  0.00000000  0.50000000  1
  F  F4  1  0.38658717  0.13658717  0.25000000  1
  F  F5  1  0.61341283  0.86341283  0.75000000  1
  F  F6  1  0.59300258  0.73004260  0.37192830  1
  F  F7  1  0.85811330  0.22107428  0.12807170  1
  F  F8  1  0.75257095  0.68075636  0.05048520  1
  F  F9  1  0.13027116  0.70208575  0.44951480  1
  F  F10  1  0.24742905  0.31924364  0.94951480  1
  F  F11  1  0.86972884  0.29791425  0.55048520  1
  F  F12  1  0.14188670  0.77892572  0.87192830  1
  F  F13  1  0.40699742  0.26995740  0.62807170  1
