# generated using pymatgen
data_Ca3Co2(WO6)2
_symmetry_space_group_name_H-M   'P 1'
_cell_length_a   5.38825511
_cell_length_b   5.51132622
_cell_length_c   7.79898081
_cell_angle_alpha   89.38808430
_cell_angle_beta   90.41444778
_cell_angle_gamma   88.35739441
_symmetry_Int_Tables_number   1
_chemical_formula_structural   Ca3Co2(WO6)2
_chemical_formula_sum   'Ca3 Co2 W2 O12'
_cell_volume   231.48694156
_cell_formula_units_Z   1
loop_
 _symmetry_equiv_pos_site_id
 _symmetry_equiv_pos_as_xyz
  1  'x, y, z'
loop_
 _atom_site_type_symbol
 _atom_site_label
 _atom_site_symmetry_multiplicity
 _atom_site_fract_x
 _atom_site_fract_y
 _atom_site_fract_z
 _atom_site_occupancy
  Ca  Ca0  1  0.98412538  0.05422399  0.25208512  1
  Ca  Ca1  1  0.50374547  0.54382629  0.25000697  1
  Ca  Ca2  1  0.49065499  0.45302949  0.75139027  1
  Co  Co3  1  0.99276660  0.50892797  0.50168365  1
  Co  Co4  1  0.48717855  0.00787277  0.99669967  1
  W  W5  1  0.49264005  0.99765997  0.50996512  1
  W  W6  1  0.99597089  0.51898261  0.99356415  1
  O  O7  1  0.70529684  0.27662769  0.45714169  1
  O  O8  1  0.78716155  0.79154705  0.05139898  1
  O  O9  1  0.31522833  0.70076470  0.53254522  1
  O  O10  1  0.22087055  0.21862794  0.96530061  1
  O  O11  1  0.21508660  0.21686486  0.53363321  1
  O  O12  1  0.29799547  0.69183252  0.96878082  1
  O  O13  1  0.79123347  0.78224623  0.44811124  1
  O  O14  1  0.72020344  0.30178101  0.03995417  1
  O  O15  1  0.07863674  0.47763049  0.24128880  1
  O  O16  1  0.41559514  0.98153135  0.25920126  1
  O  O17  1  0.92045539  0.52060864  0.75695377  1
  O  O18  1  0.57080954  0.01120842  0.74392927  1
