# generated using pymatgen
data_Ca5Cu2(IrO6)2
_symmetry_space_group_name_H-M   'P 1'
_cell_length_a   6.54819079
_cell_length_b   6.53722348
_cell_length_c   6.56897290
_cell_angle_alpha   91.88189832
_cell_angle_beta   90.75894167
_cell_angle_gamma   91.11121845
_symmetry_Int_Tables_number   1
_chemical_formula_structural   Ca5Cu2(IrO6)2
_chemical_formula_sum   'Ca5 Cu2 Ir2 O12'
_cell_volume   280.96629480
_cell_formula_units_Z   1
loop_
 _symmetry_equiv_pos_site_id
 _symmetry_equiv_pos_as_xyz
  1  'x, y, z'
loop_
 _atom_site_type_symbol
 _atom_site_label
 _atom_site_symmetry_multiplicity
 _atom_site_fract_x
 _atom_site_fract_y
 _atom_site_fract_z
 _atom_site_occupancy
  Ca  Ca0  1  0.75565470  0.58781074  0.39853399  1
  Ca  Ca1  1  0.24083112  0.39719115  0.59458761  1
  Ca  Ca2  1  0.62063816  0.74398270  0.89484549  1
  Ca  Ca3  1  0.38428503  0.25318288  0.11163170  1
  Ca  Ca4  1  0.11574782  0.89394851  0.73582008  1
  Cu  Cu5  1  0.23909268  0.81396990  0.19272970  1
  Cu  Cu6  1  0.75318802  0.18787855  0.81915440  1
  Ir  Ir7  1  0.00155726  0.49558948  0.00172213  1
  Ir  Ir8  1  0.50891618  0.00164721  0.49763264  1
  O  O9  1  0.53110867  0.89569657  0.20933834  1
  O  O10  1  0.95512866  0.78246960  0.09058580  1
  O  O11  1  0.45508756  0.09608384  0.79113949  1
  O  O12  1  0.05107542  0.21293890  0.88588551  1
  O  O13  1  0.21908497  0.03231275  0.40566437  1
  O  O14  1  0.29100383  0.59696923  0.96564845  1
  O  O15  1  0.78848387  0.96406606  0.61469598  1
  O  O16  1  0.70382509  0.41479842  0.02807975  1
  O  O17  1  0.44024007  0.71491388  0.57554159  1
  O  O18  1  0.07513634  0.43732001  0.28294375  1
  O  O19  1  0.55074484  0.29210621  0.43110394  1
  O  O20  1  0.93686172  0.57486039  0.71278729  1
