# generated using pymatgen
data_Ca3Fe2(MoO6)2
_symmetry_space_group_name_H-M   'P 1'
_cell_length_a   5.41881500
_cell_length_b   5.53495191
_cell_length_c   7.76284890
_cell_angle_alpha   89.97735365
_cell_angle_beta   89.88016647
_cell_angle_gamma   89.74660809
_symmetry_Int_Tables_number   1
_chemical_formula_structural   Ca3Fe2(MoO6)2
_chemical_formula_sum   'Ca3 Fe2 Mo2 O12'
_cell_volume   232.82739530
_cell_formula_units_Z   1
loop_
 _symmetry_equiv_pos_site_id
 _symmetry_equiv_pos_as_xyz
  1  'x, y, z'
loop_
 _atom_site_type_symbol
 _atom_site_label
 _atom_site_symmetry_multiplicity
 _atom_site_fract_x
 _atom_site_fract_y
 _atom_site_fract_z
 _atom_site_occupancy
  Ca  Ca0  1  0.99071127  0.95196712  0.75104010  1
  Ca  Ca1  1  0.00655645  0.04362316  0.24940513  1
  Ca  Ca2  1  0.48617790  0.55230417  0.25194410  1
  Fe  Fe3  1  0.49403436  0.01063725  0.49893185  1
  Fe  Fe4  1  0.99830977  0.50328067  0.00335261  1
  Mo  Mo5  1  0.50334602  0.00999007  0.99043242  1
  Mo  Mo6  1  0.99360533  0.49637072  0.51171876  1
  O  O7  1  0.72391637  0.71031851  0.53401103  1
  O  O8  1  0.80017104  0.19624262  0.96645313  1
  O  O9  1  0.27934528  0.29266118  0.44569103  1
  O  O10  1  0.21089471  0.79931196  0.03875558  1
  O  O11  1  0.20541301  0.78395559  0.45880156  1
  O  O12  1  0.29761088  0.28267015  0.05401859  1
  O  O13  1  0.81019564  0.19969279  0.53388786  1
  O  O14  1  0.70843075  0.72774381  0.96316785  1
  O  O15  1  0.06944222  0.51327166  0.74518290  1
  O  O16  1  0.41780048  0.02400959  0.75583692  1
  O  O17  1  0.57592315  0.97840467  0.24623229  1
  O  O18  1  0.91235737  0.48193930  0.25380526  1
