# generated using pymatgen
data_LiFeP2O7
_symmetry_space_group_name_H-M   'P 1'
_cell_length_a   8.81214606
_cell_length_b   4.99489062
_cell_length_c   8.22459390
_cell_angle_alpha   72.21729288
_cell_angle_beta   68.54498308
_cell_angle_gamma   89.91949924
_symmetry_Int_Tables_number   1
_chemical_formula_structural   LiFeP2O7
_chemical_formula_sum   'Li2 Fe2 P4 O14'
_cell_volume   318.33327141
_cell_formula_units_Z   2
loop_
 _symmetry_equiv_pos_site_id
 _symmetry_equiv_pos_as_xyz
  1  'x, y, z'
loop_
 _atom_site_type_symbol
 _atom_site_label
 _atom_site_symmetry_multiplicity
 _atom_site_fract_x
 _atom_site_fract_y
 _atom_site_fract_z
 _atom_site_occupancy
  Li  Li0  1  0.54898260  0.85865916  0.10376262  1
  Li  Li1  1  0.04891810  0.53513106  0.10277173  1
  Fe  Fe2  1  0.50281181  0.48963821  0.50700784  1
  Fe  Fe3  1  0.00044261  0.49987259  0.50780797  1
  P  P4  1  0.31267825  0.23032026  0.30365452  1
  P  P5  1  0.18849400  0.02959866  0.70102600  1
  P  P6  1  0.68772108  0.77029001  0.70052179  1
  P  P7  1  0.81079315  0.96711293  0.30321051  1
  O  O8  1  0.84405478  0.62256735  0.68926272  1
  O  O9  1  0.25202170  0.96357161  0.50147139  1
  O  O10  1  0.93578832  0.74601822  0.31457055  1
  O  O11  1  0.56099659  0.57508264  0.68542809  1
  O  O12  1  0.05946750  0.23639511  0.68607991  1
  O  O13  1  0.74656210  0.03710757  0.50103468  1
  O  O14  1  0.38177247  0.10537432  0.15377523  1
  O  O15  1  0.34294503  0.19178271  0.69090170  1
  O  O16  1  0.88048694  0.24214115  0.15422415  1
  O  O17  1  0.62585781  0.88857407  0.85356216  1
  O  O18  1  0.43717164  0.44041600  0.31480687  1
  O  O19  1  0.15669508  0.38092590  0.30518269  1
  O  O20  1  0.12645488  0.75696759  0.85362071  1
  O  O21  1  0.65555953  0.81319487  0.30483418  1
