# generated using pymatgen
data_ZnSbF5
_symmetry_space_group_name_H-M   'P 1'
_cell_length_a   5.64594626
_cell_length_b   5.63757000
_cell_length_c   8.44283182
_cell_angle_alpha   101.79230649
_cell_angle_beta   103.66661269
_cell_angle_gamma   109.39419327
_symmetry_Int_Tables_number   1
_chemical_formula_structural   ZnSbF5
_chemical_formula_sum   'Zn2 Sb2 F10'
_cell_volume   234.28532941
_cell_formula_units_Z   2
loop_
 _symmetry_equiv_pos_site_id
 _symmetry_equiv_pos_as_xyz
  1  'x, y, z'
loop_
 _atom_site_type_symbol
 _atom_site_label
 _atom_site_symmetry_multiplicity
 _atom_site_fract_x
 _atom_site_fract_y
 _atom_site_fract_z
 _atom_site_occupancy
  Zn  Zn0  1  0.24020771  0.50031069  0.74324567  1
  Zn  Zn1  1  0.74770310  0.50193289  0.24711755  1
  Sb  Sb2  1  0.00448268  0.02151682  -0.01105548  1
  Sb  Sb3  1  0.46834654  0.98508253  0.48781362  1
  F  F4  1  0.33501899  0.14159662  0.19102167  1
  F  F5  1  0.55109515  0.85645706  0.69170653  1
  F  F6  1  0.57047140  0.67495264  0.36892374  1
  F  F7  1  0.85855228  0.22152866  0.16864772  1
  F  F8  1  0.84450643  0.69949368  0.08598688  1
  F  F9  1  0.08738309  0.69170817  0.45648075  1
  F  F10  1  0.26394740  0.36840286  0.95307600  1
  F  F11  1  0.88310394  0.24555901  0.58418858  1
  F  F12  1  0.19014643  0.79929058  0.86830602  1
  F  F13  1  0.43697286  0.30395681  0.66248375  1
