# generated using pymatgen
data_Ca3Nd4Nb6(FeO14)2
_symmetry_space_group_name_H-M   'P 1'
_cell_length_a   7.36144413
_cell_length_b   14.96199842
_cell_length_c   12.90044112
_cell_angle_alpha   30.24964733
_cell_angle_beta   54.77353616
_cell_angle_gamma   60.16063257
_symmetry_Int_Tables_number   1
_chemical_formula_structural   Ca3Nd4Nb6(FeO14)2
_chemical_formula_sum   'Ca3 Nd4 Nb6 Fe2 O28'
_cell_volume   584.71630547
_cell_formula_units_Z   1
loop_
 _symmetry_equiv_pos_site_id
 _symmetry_equiv_pos_as_xyz
  1  'x, y, z'
loop_
 _atom_site_type_symbol
 _atom_site_label
 _atom_site_symmetry_multiplicity
 _atom_site_fract_x
 _atom_site_fract_y
 _atom_site_fract_z
 _atom_site_occupancy
  Ca  Ca0  1  0.47727622  0.25437039  0.99987970  1
  Ca  Ca1  1  0.52272378  0.74562961  0.00012030  1
  Ca  Ca2  1  0.50000000  0.50000000  0.50000000  1
  Nd  Nd3  1  0.52359717  0.25201382  0.49396379  1
  Nd  Nd4  1  0.47640283  0.74798618  0.50603621  1
  Nd  Nd5  1  0.50000000  0.00000000  0.50000000  1
  Nd  Nd6  1  0.00000000  0.50000000  0.50000000  1
  Nb  Nb7  1  0.50000000  0.00000000  0.00000000  1
  Nb  Nb8  1  0.00000000  0.50000000  0.00000000  1
  Nb  Nb9  1  0.01243355  0.74969247  0.99912717  1
  Nb  Nb10  1  0.01725949  0.25015555  0.49906328  1
  Nb  Nb11  1  0.98756645  0.25030753  0.00087283  1
  Nb  Nb12  1  0.98274051  0.74984445  0.50093672  1
  Fe  Fe13  1  0.00000000  0.00000000  0.00000000  1
  Fe  Fe14  1  0.50000000  0.50000000  0.00000000  1
  O  O15  1  0.07379172  0.31860790  0.04847762  1
  O  O16  1  0.08076011  0.00136337  0.68751713  1
  O  O17  1  0.40731432  0.00085793  0.36570812  1
  O  O18  1  0.68231822  0.99589401  0.07337367  1
  O  O19  1  0.07915253  0.20709684  0.66908019  1
  O  O20  1  0.06972689  0.79819398  0.08195595  1
  O  O21  1  0.33031905  0.29912661  0.32387851  1
  O  O22  1  0.67425789  0.30157344  0.07510001  1
  O  O23  1  0.06911094  0.49999074  0.67181762  1
  O  O24  1  0.31768178  0.00410599  0.92662633  1
  O  O25  1  0.38380992  0.49793325  0.37331211  1
  O  O26  1  0.91923989  0.99863663  0.31248287  1
  O  O27  1  0.67583581  0.49480995  0.07825798  1
  O  O28  1  0.07526524  0.68360244  0.68329035  1
  O  O29  1  0.32220013  0.19293411  0.93299079  1
  O  O30  1  0.32062594  0.80514804  0.32296960  1
  O  O31  1  0.92473476  0.31639756  0.31670965  1
  O  O32  1  0.67937406  0.19485196  0.67703040  1
  O  O33  1  0.67779987  0.80706589  0.06700921  1
  O  O34  1  0.32416419  0.50519005  0.92174202  1
  O  O35  1  0.93088906  0.50000926  0.32818238  1
  O  O36  1  0.61619008  0.50206675  0.62668789  1
  O  O37  1  0.32574211  0.69842656  0.92489999  1
  O  O38  1  0.66968095  0.70087339  0.67612149  1
  O  O39  1  0.93027311  0.20180602  0.91804405  1
  O  O40  1  0.92084747  0.79290316  0.33091981  1
  O  O41  1  0.59268568  0.99914207  0.63429188  1
  O  O42  1  0.92620828  0.68139210  0.95152238  1
