# generated using pymatgen
data_CaTi2O4
_symmetry_space_group_name_H-M   'P 1'
_cell_length_a   2.99500911
_cell_length_b   9.41910662
_cell_length_c   10.93460295
_cell_angle_alpha   90.00198043
_cell_angle_beta   89.99973094
_cell_angle_gamma   89.99999436
_symmetry_Int_Tables_number   1
_chemical_formula_structural   CaTi2O4
_chemical_formula_sum   'Ca4 Ti8 O16'
_cell_volume   308.46854033
_cell_formula_units_Z   4
loop_
 _symmetry_equiv_pos_site_id
 _symmetry_equiv_pos_as_xyz
  1  'x, y, z'
loop_
 _atom_site_type_symbol
 _atom_site_label
 _atom_site_symmetry_multiplicity
 _atom_site_fract_x
 _atom_site_fract_y
 _atom_site_fract_z
 _atom_site_occupancy
  Ca  Ca0  1  0.74999727  0.24035824  0.34248334  1
  Ca  Ca1  1  0.25000219  0.75952172  0.65754642  1
  Ca  Ca2  1  0.75000218  0.74044012  0.15740523  1
  Ca  Ca3  1  0.24999876  0.25960040  0.84253888  1
  Ti  Ti4  1  0.25000038  0.41717129  0.10266057  1
  Ti  Ti5  1  0.74999817  0.08278655  0.60270262  1
  Ti  Ti6  1  0.24999928  0.91710178  0.39725220  1
  Ti  Ti7  1  0.75000008  0.58282490  0.89729190  1
  Ti  Ti8  1  0.75000274  0.56250207  0.39139102  1
  Ti  Ti9  1  0.24999740  0.43754967  0.60872388  1
  Ti  Ti10  1  0.75000130  0.06244200  0.10860347  1
  Ti  Ti11  1  0.24999902  0.93756065  0.89141151  1
  O  O12  1  0.24999776  0.91115091  0.07486524  1
  O  O13  1  0.75000030  0.08892418  0.92514629  1
  O  O14  1  0.25000155  0.41117501  0.42513561  1
  O  O15  1  0.74999763  0.58894002  0.57483400  1
  O  O16  1  0.24999856  0.02125545  0.71803602  1
  O  O17  1  0.75000114  0.97880854  0.28192115  1
  O  O18  1  0.24999794  0.52123212  0.78193535  1
  O  O19  1  0.75000071  0.47874902  0.21801820  1
  O  O20  1  0.25000045  0.61793436  0.02699513  1
  O  O21  1  0.74999923  0.38206474  0.97301499  1
  O  O22  1  0.24999876  0.11792431  0.47305212  1
  O  O23  1  0.74999845  0.88209804  0.52704125  1
  O  O24  1  0.74999780  0.79078197  0.83868769  1
  O  O25  1  0.24999932  0.20917886  0.16128855  1
  O  O26  1  0.24999914  0.70916630  0.33869590  1
  O  O27  1  0.74999848  0.29075579  0.66132148  1
