# generated using pymatgen
data_Y8Cu3(GeSe7)3
_symmetry_space_group_name_H-M   'P 1'
_cell_length_a   10.28276690
_cell_length_b   10.31427080
_cell_length_c   18.55353333
_cell_angle_alpha   90.00000000
_cell_angle_beta   90.00000000
_cell_angle_gamma   120.04716260
_symmetry_Int_Tables_number   1
_chemical_formula_structural   Y8Cu3(GeSe7)3
_chemical_formula_sum   'Y16 Cu6 Ge6 Se42'
_cell_volume   1703.33154750
_cell_formula_units_Z   2
loop_
 _symmetry_equiv_pos_site_id
 _symmetry_equiv_pos_as_xyz
  1  'x, y, z'
loop_
 _atom_site_type_symbol
 _atom_site_label
 _atom_site_symmetry_multiplicity
 _atom_site_fract_x
 _atom_site_fract_y
 _atom_site_fract_z
 _atom_site_occupancy
  Y  Y0  1  0.85911110  0.63478160  0.08552936  1
  Y  Y1  1  0.86642775  0.64067315  0.42109682  1
  Y  Y2  1  0.87180467  0.64742737  0.74886684  1
  Y  Y3  1  0.22253615  0.86104643  0.24889567  1
  Y  Y4  1  0.22256814  0.86649096  0.91397353  1
  Y  Y5  1  0.64286790  0.78131692  0.24919848  1
  Y  Y6  1  0.63638836  0.77128447  0.58406536  1
  Y  Y7  1  0.64076412  0.78126200  0.92152946  1
  Y  Y8  1  0.36361164  0.22871553  0.08406536  1
  Y  Y9  1  0.35923588  0.21873800  0.42152946  1
  Y  Y10  1  0.35713210  0.21868308  0.74919848  1
  Y  Y11  1  0.77743186  0.13350904  0.41397353  1
  Y  Y12  1  0.77746385  0.13895357  0.74889567  1
  Y  Y13  1  0.12819533  0.35257263  0.24886684  1
  Y  Y14  1  0.14088890  0.36521840  0.58552936  1
  Y  Y15  1  0.13357225  0.35932685  0.92109682  1
  Cu  Cu16  1  0.99872001  0.00002156  0.23249478  1
  Cu  Cu17  1  0.00348844  0.99742313  0.56402097  1
  Cu  Cu18  1  0.00281082  0.00044593  0.89423230  1
  Cu  Cu19  1  0.99651156  0.00257687  0.06402097  1
  Cu  Cu20  1  0.99718918  0.99955407  0.39423230  1
  Cu  Cu21  1  0.00127999  0.99997844  0.73249478  1
  Ge  Ge22  1  0.66532707  0.33760111  0.27512165  1
  Ge  Ge23  1  0.66886113  0.33123030  0.61268557  1
  Ge  Ge24  1  0.66670462  0.32771652  0.94519965  1
  Ge  Ge25  1  0.33113887  0.66876970  0.11268557  1
  Ge  Ge26  1  0.33329538  0.67228348  0.44519965  1
  Ge  Ge27  1  0.33467293  0.66239889  0.77512165  1
  Se  Se28  1  0.57720766  0.48495440  0.99773543  1
  Se  Se29  1  0.57551468  0.48427530  0.33549589  1
  Se  Se30  1  0.57751721  0.48347687  0.66572300  1
  Se  Se31  1  0.48273929  0.91058026  0.16302670  1
  Se  Se32  1  0.49073581  0.91109536  0.50043755  1
  Se  Se33  1  0.48366821  0.90499192  0.83127279  1
  Se  Se34  1  0.91429155  0.43500755  0.99514749  1
  Se  Se35  1  0.90626292  0.42395850  0.33250771  1
  Se  Se36  1  0.91409669  0.42920525  0.66494548  1
  Se  Se37  1  0.08590331  0.57079475  0.16494548  1
  Se  Se38  1  0.08570845  0.56499245  0.49514749  1
  Se  Se39  1  0.09373708  0.57604150  0.83250771  1
  Se  Se40  1  0.50926419  0.08890464  0.00043755  1
  Se  Se41  1  0.51633179  0.09500808  0.33127279  1
  Se  Se42  1  0.51726071  0.08941974  0.66302670  1
  Se  Se43  1  0.42248279  0.51652313  0.16572300  1
  Se  Se44  1  0.42279234  0.51504560  0.49773543  1
  Se  Se45  1  0.42448532  0.51572470  0.83549589  1
  Se  Se46  1  0.33400803  0.66624757  0.31637967  1
  Se  Se47  1  0.33377174  0.66872848  0.64886187  1
  Se  Se48  1  0.33106258  0.66685337  0.98446762  1
  Se  Se49  1  0.66622826  0.33127152  0.14886187  1
  Se  Se50  1  0.66893742  0.33314663  0.48446762  1
  Se  Se51  1  0.66599197  0.33375243  0.81637967  1
  Se  Se52  1  0.83573220  0.09731726  0.24682427  1
  Se  Se53  1  0.84174967  0.10001398  0.56944634  1
  Se  Se54  1  0.84209439  0.10240352  0.89873993  1
  Se  Se55  1  0.73878633  0.83607051  0.07449489  1
  Se  Se56  1  0.73525664  0.83514173  0.40587667  1
  Se  Se57  1  0.73740633  0.83973427  0.73616825  1
  Se  Se58  1  0.10334077  0.26245528  0.07203708  1
  Se  Se59  1  0.10501294  0.26247556  0.40396772  1
  Se  Se60  1  0.10306780  0.26363449  0.73677721  1
  Se  Se61  1  0.89693220  0.73636551  0.23677721  1
  Se  Se62  1  0.89665923  0.73754472  0.57203708  1
  Se  Se63  1  0.89498706  0.73752444  0.90396772  1
  Se  Se64  1  0.26259367  0.16026573  0.23616825  1
  Se  Se65  1  0.26121367  0.16392949  0.57449489  1
  Se  Se66  1  0.26474336  0.16485827  0.90587667  1
  Se  Se67  1  0.15825033  0.89998602  0.06944634  1
  Se  Se68  1  0.15790561  0.89759648  0.39873993  1
  Se  Se69  1  0.16426780  0.90268274  0.74682427  1
