# generated using pymatgen
data_SnO2
_symmetry_space_group_name_H-M   'P 1'
_cell_length_a   3.23246653
_cell_length_b   7.76134160
_cell_length_c   7.77540447
_cell_angle_alpha   87.81406301
_cell_angle_beta   78.00948136
_cell_angle_gamma   78.01990174
_symmetry_Int_Tables_number   1
_chemical_formula_structural   SnO2
_chemical_formula_sum   'Sn4 O8'
_cell_volume   186.65689508
_cell_formula_units_Z   4
loop_
 _symmetry_equiv_pos_site_id
 _symmetry_equiv_pos_as_xyz
  1  'x, y, z'
loop_
 _atom_site_type_symbol
 _atom_site_label
 _atom_site_symmetry_multiplicity
 _atom_site_fract_x
 _atom_site_fract_y
 _atom_site_fract_z
 _atom_site_occupancy
  Sn  Sn0  1  0.65114684  0.18309558  0.52117011  1
  Sn  Sn1  1  0.17115116  0.47858148  0.18339936  1
  Sn  Sn2  1  0.83240418  0.52184746  0.81901688  1
  Sn  Sn3  1  0.35253055  0.81717069  0.48148194  1
  O  O4  1  0.83980525  0.70495618  0.61924596  1
  O  O5  1  0.45827752  0.38486417  0.70403795  1
  O  O6  1  0.54538707  0.61659772  0.29704791  1
  O  O7  1  0.16513265  0.29419239  0.38213699  1
  O  O8  1  0.15680885  0.05162477  0.64063171  1
  O  O9  1  0.79706070  0.36026549  0.04972970  1
  O  O10  1  0.84656116  0.94877365  0.36249586  1
  O  O11  1  0.20658607  0.64020643  0.95242163  1
