# generated using pymatgen
data_Ca(SbO2)2
_symmetry_space_group_name_H-M   'P 1'
_cell_length_a   7.13489587
_cell_length_b   6.49190318
_cell_length_c   21.29852475
_cell_angle_alpha   63.80189551
_cell_angle_beta   63.85220038
_cell_angle_gamma   63.85897278
_symmetry_Int_Tables_number   1
_chemical_formula_structural   Ca(SbO2)2
_chemical_formula_sum   'Ca6 Sb12 O24'
_cell_volume   756.61806942
_cell_formula_units_Z   6
loop_
 _symmetry_equiv_pos_site_id
 _symmetry_equiv_pos_as_xyz
  1  'x, y, z'
loop_
 _atom_site_type_symbol
 _atom_site_label
 _atom_site_symmetry_multiplicity
 _atom_site_fract_x
 _atom_site_fract_y
 _atom_site_fract_z
 _atom_site_occupancy
  Ca  Ca0  1  0.12041848  0.09858440  0.02626556  1
  Ca  Ca1  1  0.42502392  0.39857484  0.34783423  1
  Ca  Ca2  1  -0.00931798  0.49831552  0.16747045  1
  Ca  Ca3  1  0.53550490  0.42424420  0.67349644  1
  Ca  Ca4  1  -0.01629040  0.45809995  0.50907133  1
  Ca  Ca5  1  0.08521849  0.43221608  0.83348610  1
  Sb  Sb6  1  0.52870231  0.00112031  0.15952558  1
  Sb  Sb7  1  0.03000099  0.18547782  0.36186159  1
  Sb  Sb8  1  0.41427380  0.49950411  0.01567729  1
  Sb  Sb9  1  0.48535549  0.49782516  0.17540950  1
  Sb  Sb10  1  0.43100938  -0.02799902  0.55066762  1
  Sb  Sb11  1  0.18363915  0.03848648  0.72881259  1
  Sb  Sb12  1  0.53661751  0.61936239  0.43946627  1
  Sb  Sb13  1  0.63044269  0.93432343  0.83454451  1
  Sb  Sb14  1  0.85088459  0.91242785  0.27443885  1
  Sb  Sb15  1  0.51843500  0.48282719  0.84041207  1
  Sb  Sb16  1  0.91805267  0.82649227  0.64662340  1
  Sb  Sb17  1  0.81755822  0.94047280  0.95940309  1
  O  O18  1  0.21065768  0.30286571  0.07487920  1
  O  O19  1  0.14507879  0.36951114  0.25995619  1
  O  O20  1  0.29150254  0.68093162  0.09143183  1
  O  O21  1  0.67475893  0.22032310  0.05498391  1
  O  O22  1  0.08666806  0.33508348  0.41146494  1
  O  O23  1  0.35595556  0.69431001  0.24203376  1
  O  O24  1  0.38017685  0.12465504  0.62144308  1
  O  O25  1  0.74638752  0.26871042  0.24368277  1
  O  O26  1  0.27551511  0.59056248  0.44281703  1
  O  O27  1  0.68702709  0.71781299  0.11870042  1
  O  O28  1  0.71009721  0.40471401  0.37525173  1
  O  O29  1  0.80242814  0.87860824  0.19354364  1
  O  O30  1  0.32520350  0.16947525  0.75850001  1
  O  O31  1  0.24851957  0.74360269  0.61879415  1
  O  O32  1  0.85965287  0.17246106  0.61051638  1
  O  O33  1  0.34345957  0.68089554  0.75428434  1
  O  O34  1  0.31441076  0.28633276  0.90660296  1
  O  O35  1  0.54800341  0.92716661  0.35418217  1
  O  O36  1  0.67074364  0.26360301  0.77549643  1
  O  O37  1  0.69187274  0.70955976  0.56630210  1
  O  O38  1  0.10151800  0.88456447  0.96553859  1
  O  O39  1  0.79150011  0.27598330  0.88749529  1
  O  O40  1  0.86054983  0.77527459  0.75383808  1
  O  O41  1  0.89278233  0.80263496  0.87379554  1
