# generated using pymatgen
data_V2ZnCoO7
_symmetry_space_group_name_H-M   'P 1'
_cell_length_a   6.56920617
_cell_length_b   11.89791706
_cell_length_c   14.24786442
_cell_angle_alpha   90.00000000
_cell_angle_beta   90.00000000
_cell_angle_gamma   101.73553010
_symmetry_Int_Tables_number   1
_chemical_formula_structural   V2ZnCoO7
_chemical_formula_sum   'V16 Zn8 Co8 O56'
_cell_volume   1090.33327323
_cell_formula_units_Z   8
loop_
 _symmetry_equiv_pos_site_id
 _symmetry_equiv_pos_as_xyz
  1  'x, y, z'
loop_
 _atom_site_type_symbol
 _atom_site_label
 _atom_site_symmetry_multiplicity
 _atom_site_fract_x
 _atom_site_fract_y
 _atom_site_fract_z
 _atom_site_occupancy
  V  V0  1  0.82058087  0.98792735  0.90041837  1
  V  V1  1  0.43347592  0.68163383  0.01573543  1
  V  V2  1  0.43347592  0.18163383  0.48426457  1
  V  V3  1  0.56652408  0.31836617  0.98426457  1
  V  V4  1  0.50268298  0.78565462  0.71050481  1
  V  V5  1  0.49731702  0.71434538  0.21050481  1
  V  V6  1  0.49731702  0.21434538  0.28949519  1
  V  V7  1  0.50268298  0.28565462  0.78949519  1
  V  V8  1  0.56652408  0.81836617  0.51573543  1
  V  V9  1  0.86652509  0.49279300  0.14250053  1
  V  V10  1  0.13347491  0.00720700  0.64250053  1
  V  V11  1  0.13347491  0.50720700  0.85749947  1
  V  V12  1  0.17941913  0.51207265  0.40041837  1
  V  V13  1  0.82058087  0.48792735  0.59958163  1
  V  V14  1  0.17941913  0.01207265  0.09958163  1
  V  V15  1  0.86652509  0.99279300  0.35749947  1
  Zn  Zn16  1  0.03363704  0.73063298  0.50100776  1
  Zn  Zn17  1  0.30214213  0.93494519  0.86609908  1
  Zn  Zn18  1  0.69785787  0.56505481  0.36609908  1
  Zn  Zn19  1  0.69785787  0.06505481  0.13390092  1
  Zn  Zn20  1  0.30214213  0.43494519  0.63390092  1
  Zn  Zn21  1  0.03363704  0.23063298  0.99899224  1
  Zn  Zn22  1  0.96636296  0.26936702  0.49899224  1
  Zn  Zn23  1  0.96636296  0.76936702  0.00100776  1
  Co  Co24  1  0.63691891  0.05870151  0.69430728  1
  Co  Co25  1  0.36308109  0.44129849  0.19430728  1
  Co  Co26  1  0.36308109  0.94129849  0.30569272  1
  Co  Co27  1  0.63691891  0.55870151  0.80569272  1
  Co  Co28  1  0.99147855  0.23009749  0.76468805  1
  Co  Co29  1  0.00852145  0.26990251  0.26468805  1
  Co  Co30  1  0.00852145  0.76990251  0.23531195  1
  Co  Co31  1  0.99147855  0.73009749  0.73531195  1
  O  O32  1  0.71806926  0.98189785  0.00875267  1
  O  O33  1  0.28193074  0.51810215  0.50875267  1
  O  O34  1  0.28193074  0.01810215  0.99124733  1
  O  O35  1  0.71806926  0.48189785  0.49124733  1
  O  O36  1  0.98143842  0.88429658  0.88657973  1
  O  O37  1  0.01856158  0.61570342  0.38657973  1
  O  O38  1  0.01856158  0.11570342  0.11342027  1
  O  O39  1  0.98143842  0.38429658  0.61342027  1
  O  O40  1  0.96681769  0.12850196  0.88370796  1
  O  O41  1  0.03318231  0.37149804  0.38370796  1
  O  O42  1  0.03318231  0.87149804  0.11629204  1
  O  O43  1  0.96681769  0.62850196  0.61629204  1
  O  O44  1  0.68459963  0.96939203  0.26841127  1
  O  O45  1  0.31540037  0.53060797  0.76841127  1
  O  O46  1  0.31540037  0.03060797  0.73158873  1
  O  O47  1  0.68459963  0.46939203  0.23158873  1
  O  O48  1  0.97317311  0.13742504  0.36565962  1
  O  O49  1  0.02682689  0.36257496  0.86565962  1
  O  O50  1  0.02682689  0.86257496  0.63434038  1
  O  O51  1  0.97317311  0.63742504  0.13434038  1
  O  O52  1  0.05231274  0.90941113  0.32781957  1
  O  O53  1  0.33069094  0.80753210  0.46196040  1
  O  O54  1  0.94768726  0.59058887  0.82781957  1
  O  O55  1  0.05231274  0.40941113  0.17218043  1
  O  O56  1  0.72151920  0.72921523  0.47376926  1
  O  O57  1  0.27848080  0.77078477  0.97376926  1
  O  O58  1  0.27848080  0.27078477  0.52623074  1
  O  O59  1  0.72151920  0.22921523  0.02623074  1
  O  O60  1  0.72901877  0.95117876  0.46305749  1
  O  O61  1  0.27098123  0.54882124  0.96305749  1
  O  O62  1  0.27098123  0.04882124  0.53694251  1
  O  O63  1  0.72901877  0.45117876  0.03694251  1
  O  O64  1  0.43735702  0.20300122  0.88732160  1
  O  O65  1  0.56264298  0.29699878  0.38732160  1
  O  O66  1  0.56264298  0.79699878  0.11267840  1
  O  O67  1  0.43735702  0.70300122  0.61267840  1
  O  O68  1  0.69034892  0.22275319  0.73554261  1
  O  O69  1  0.30965108  0.27724681  0.23554261  1
  O  O70  1  0.30965108  0.77724681  0.26445739  1
  O  O71  1  0.69034892  0.72275319  0.76445739  1
  O  O72  1  0.61085720  0.45691667  0.68045471  1
  O  O73  1  0.38914280  0.04308333  0.18045471  1
  O  O74  1  0.38914280  0.54308333  0.31954529  1
  O  O75  1  0.61085720  0.95691667  0.81954529  1
  O  O76  1  0.28148399  0.28699095  0.72314972  1
  O  O77  1  0.71851601  0.21300905  0.22314972  1
  O  O78  1  0.71851601  0.71300905  0.27685028  1
  O  O79  1  0.28148399  0.78699095  0.77685028  1
  O  O80  1  0.59686491  0.40533155  0.86766173  1
  O  O81  1  0.40313509  0.09466845  0.36766173  1
  O  O82  1  0.40313509  0.59466845  0.13233827  1
  O  O83  1  0.59686491  0.90533155  0.63233827  1
  O  O84  1  0.33069094  0.30753210  0.03803960  1
  O  O85  1  0.66930906  0.19246790  0.53803960  1
  O  O86  1  0.66930906  0.69246790  0.96196040  1
  O  O87  1  0.94768726  0.09058887  0.67218043  1
