# generated using pymatgen
data_MgCr4(CuO4)3
_symmetry_space_group_name_H-M   'P 1'
_cell_length_a   6.34356155
_cell_length_b   6.35495101
_cell_length_c   6.35483154
_cell_angle_alpha   109.50437977
_cell_angle_beta   109.43267753
_cell_angle_gamma   109.43538718
_symmetry_Int_Tables_number   1
_chemical_formula_structural   MgCr4(CuO4)3
_chemical_formula_sum   'Mg1 Cr4 Cu3 O12'
_cell_volume   197.30953460
_cell_formula_units_Z   1
loop_
 _symmetry_equiv_pos_site_id
 _symmetry_equiv_pos_as_xyz
  1  'x, y, z'
loop_
 _atom_site_type_symbol
 _atom_site_label
 _atom_site_symmetry_multiplicity
 _atom_site_fract_x
 _atom_site_fract_y
 _atom_site_fract_z
 _atom_site_occupancy
  Mg  Mg0  1  0.00000660  0.00000032  0.00000070  1
  Cr  Cr1  1  -0.00000066  -0.00000042  0.50000087  1
  Cr  Cr2  1  0.99999543  0.50000275  0.99999828  1
  Cr  Cr3  1  0.49999367  0.49999877  0.49999853  1
  Cr  Cr4  1  0.50000176  -0.00000077  0.99999396  1
  Cu  Cu5  1  0.49999728  0.49999505  0.00000307  1
  Cu  Cu6  1  0.00000398  0.50000441  0.50000299  1
  Cu  Cu7  1  0.49999912  0.99999652  0.49999673  1
  O  O8  1  0.83226043  0.30895570  0.13992900  1
  O  O9  1  0.16774017  0.69104889  0.86007531  1
  O  O10  1  0.83125152  0.69121403  0.52234285  1
  O  O11  1  0.30883670  0.47767922  0.16881448  1
  O  O12  1  0.47669092  0.16901722  0.30893720  1
  O  O13  1  0.14005581  0.83123849  0.30888391  1
  O  O14  1  0.69234599  0.86002984  0.16901822  1
  O  O15  1  0.52331352  0.83098525  0.69106690  1
  O  O16  1  0.16874674  0.30878016  0.47765767  1
  O  O17  1  0.69116193  0.52232162  0.83118634  1
  O  O18  1  0.85994433  0.16876289  0.69111374  1
  O  O19  1  0.30765476  0.13997005  0.83097926  1
