# generated using pymatgen
data_Mg3Mn2(Si2O7)2
_symmetry_space_group_name_H-M   'P 1'
_cell_length_a   7.64750482
_cell_length_b   9.51315801
_cell_length_c   9.35536845
_cell_angle_alpha   63.63869859
_cell_angle_beta   65.87537091
_cell_angle_gamma   66.30026334
_symmetry_Int_Tables_number   1
_chemical_formula_structural   Mg3Mn2(Si2O7)2
_chemical_formula_sum   'Mg6 Mn4 Si8 O28'
_cell_volume   535.97251011
_cell_formula_units_Z   2
loop_
 _symmetry_equiv_pos_site_id
 _symmetry_equiv_pos_as_xyz
  1  'x, y, z'
loop_
 _atom_site_type_symbol
 _atom_site_label
 _atom_site_symmetry_multiplicity
 _atom_site_fract_x
 _atom_site_fract_y
 _atom_site_fract_z
 _atom_site_occupancy
  Mg  Mg0  1  0.92602415  0.88870226  0.44782696  1
  Mg  Mg1  1  0.26255337  0.61129774  0.05217304  1
  Mg  Mg2  1  0.73744663  0.38870226  0.94782696  1
  Mg  Mg3  1  0.60861381  0.25000000  0.75000000  1
  Mg  Mg4  1  0.07397585  0.11129774  0.55217304  1
  Mg  Mg5  1  0.39138619  0.75000000  0.25000000  1
  Mn  Mn6  1  0.21263717  0.25000000  0.75000000  1
  Mn  Mn7  1  0.78736283  0.75000000  0.25000000  1
  Mn  Mn8  1  0.00000000  0.00000000  0.00000000  1
  Mn  Mn9  1  0.00000000  0.50000000  0.50000000  1
  Si  Si10  1  0.45152827  0.29467708  0.33407058  1
  Si  Si11  1  0.91972306  0.79467708  0.83407058  1
  Si  Si12  1  0.48737517  0.89371374  0.86834103  1
  Si  Si13  1  0.75057107  0.39371374  0.36834103  1
  Si  Si14  1  0.08027694  0.20532292  0.16592942  1
  Si  Si15  1  0.51262483  0.10628626  0.13165897  1
  Si  Si16  1  0.24942893  0.60628626  0.63165897  1
  Si  Si17  1  0.54847173  0.70532292  0.66592942  1
  O  O18  1  0.17106859  0.68069729  0.46494027  1
  O  O19  1  0.03218240  0.58732320  0.26898840  1
  O  O20  1  0.54305829  0.91253209  0.17843725  1
  O  O21  1  0.11150599  0.08732320  0.76898840  1
  O  O22  1  0.76925255  0.69279125  0.53033615  1
  O  O23  1  0.92726191  0.37596832  0.19722041  1
  O  O24  1  0.36597138  0.41253209  0.67843725  1
  O  O25  1  0.99237996  0.80720875  0.96966385  1
  O  O26  1  0.07273809  0.62403168  0.80277959  1
  O  O27  1  0.38543460  0.72950443  0.57886771  1
  O  O28  1  0.96781760  0.41267680  0.73101160  1
  O  O29  1  0.23074745  0.30720875  0.46966385  1
  O  O30  1  0.50045163  0.12403168  0.30277959  1
  O  O31  1  0.68329286  0.18069729  0.96494027  1
  O  O32  1  0.30619326  0.22950443  0.07886771  1
  O  O33  1  0.00762004  0.19279125  0.03033615  1
  O  O34  1  0.08081065  0.05854658  0.34200100  1
  O  O35  1  0.61456540  0.27049557  0.42113229  1
  O  O36  1  0.48135724  0.44145342  0.15799900  1
  O  O37  1  0.69380674  0.77049557  0.92113229  1
  O  O38  1  0.49954837  0.87596832  0.69722041  1
  O  O39  1  0.88849401  0.91267680  0.23101160  1
  O  O40  1  0.51864276  0.55854658  0.84200100  1
  O  O41  1  0.45694171  0.08746791  0.82156275  1
  O  O42  1  0.91918935  0.94145342  0.65799900  1
  O  O43  1  0.63402862  0.58746791  0.32156275  1
  O  O44  1  0.31670714  0.81930271  0.03505973  1
  O  O45  1  0.82893141  0.31930271  0.53505973  1
