# generated using pymatgen
data_MgMn4O8
_symmetry_space_group_name_H-M   'P 1'
_cell_length_a   6.03853645
_cell_length_b   9.41733696
_cell_length_c   10.61952094
_cell_angle_alpha   88.35263657
_cell_angle_beta   90.00014676
_cell_angle_gamma   89.99662319
_symmetry_Int_Tables_number   1
_chemical_formula_structural   MgMn4O8
_chemical_formula_sum   'Mg4 Mn16 O32'
_cell_volume   603.64998316
_cell_formula_units_Z   4
loop_
 _symmetry_equiv_pos_site_id
 _symmetry_equiv_pos_as_xyz
  1  'x, y, z'
loop_
 _atom_site_type_symbol
 _atom_site_label
 _atom_site_symmetry_multiplicity
 _atom_site_fract_x
 _atom_site_fract_y
 _atom_site_fract_z
 _atom_site_occupancy
  Mg  Mg0  1  0.50620821  0.48391512  0.33948540  1
  Mg  Mg1  1  0.74386990  0.98301938  0.83946804  1
  Mg  Mg2  1  0.00631928  0.51608175  0.66053316  1
  Mg  Mg3  1  0.24382237  0.01695527  0.16056285  1
  Mn  Mn4  1  0.50946525  0.17124784  0.35627527  1
  Mn  Mn5  1  0.00912989  0.18411233  0.36292341  1
  Mn  Mn6  1  0.49212743  0.34437471  0.84078077  1
  Mn  Mn7  1  0.98776554  0.32672528  0.85335747  1
  Mn  Mn8  1  0.99207882  0.65564989  0.15919928  1
  Mn  Mn9  1  0.48768115  0.67328459  0.14661315  1
  Mn  Mn10  1  0.00940854  0.82878631  0.64379656  1
  Mn  Mn11  1  0.50931427  0.81606321  0.63705373  1
  Mn  Mn12  1  0.74049282  0.67059298  0.85585694  1
  Mn  Mn13  1  0.24082350  0.68357588  0.86249651  1
  Mn  Mn14  1  0.75794149  0.84508113  0.34037329  1
  Mn  Mn15  1  0.26220457  0.82724496  0.35304663  1
  Mn  Mn16  1  0.76213342  0.17280320  0.64700163  1
  Mn  Mn17  1  0.25782674  0.15494022  0.65964528  1
  Mn  Mn18  1  0.74087047  0.31649523  0.13736003  1
  Mn  Mn19  1  0.24047166  0.32931186  0.14411922  1
  O  O20  1  0.76823422  0.96492556  0.64093478  1
  O  O21  1  0.25837933  0.95236924  0.63937772  1
  O  O22  1  0.72872778  0.70170554  0.03214458  1
  O  O23  1  0.23735736  0.70492732  0.04190359  1
  O  O24  1  0.73742136  0.29505211  0.95805711  1
  O  O25  1  0.22876753  0.29823026  0.96783919  1
  O  O26  1  0.75839287  0.04762267  0.36066100  1
  O  O27  1  0.26818625  0.03505606  0.35910499  1
  O  O28  1  0.99149801  0.45290378  0.13942024  1
  O  O29  1  0.48180491  0.46545649  0.14097299  1
  O  O30  1  0.01256106  0.20477172  0.54231250  1
  O  O31  1  0.52116257  0.20146478  0.53262624  1
  O  O32  1  0.51260237  0.79526470  0.45767999  1
  O  O33  1  0.02115733  0.79854572  0.46740780  1
  O  O34  1  0.49154261  0.54706683  0.86057217  1
  O  O35  1  0.98191875  0.53452203  0.85903695  1
  O  O36  1  0.52520997  0.82049308  0.82461663  1
  O  O37  1  0.97573154  0.81862643  0.83730024  1
  O  O38  1  0.02033362  0.85458694  0.22430658  1
  O  O39  1  0.47002916  0.86459675  0.20797637  1
  O  O40  1  0.02513800  0.17947477  0.17538887  1
  O  O41  1  0.47568889  0.18135563  0.16273705  1
  O  O42  1  0.52034461  0.14539216  0.77566230  1
  O  O43  1  0.97006544  0.13537726  0.79202229  1
  O  O44  1  0.72478900  0.32122270  0.32508723  1
  O  O45  1  0.27436069  0.31937992  0.33776304  1
  O  O46  1  0.77995408  0.36392785  0.70836772  1
  O  O47  1  0.22976869  0.35379535  0.72471712  1
  O  O48  1  0.77442882  0.68058698  0.66227886  1
  O  O49  1  0.22487718  0.67878242  0.67490276  1
  O  O50  1  0.72972877  0.64618700  0.27525901  1
  O  O51  1  0.27987890  0.63605083  0.29162944  1
