# generated using pymatgen
data_Sr5La3Mn8(O2F)8
_symmetry_space_group_name_H-M   'P 1'
_cell_length_a   5.78299714
_cell_length_b   5.85185419
_cell_length_c   15.71062489
_cell_angle_alpha   89.97025689
_cell_angle_beta   90.29872496
_cell_angle_gamma   89.45279928
_symmetry_Int_Tables_number   1
_chemical_formula_structural   Sr5La3Mn8(O2F)8
_chemical_formula_sum   'Sr5 La3 Mn8 O16 F8'
_cell_volume   531.63572056
_cell_formula_units_Z   1
loop_
 _symmetry_equiv_pos_site_id
 _symmetry_equiv_pos_as_xyz
  1  'x, y, z'
loop_
 _atom_site_type_symbol
 _atom_site_label
 _atom_site_symmetry_multiplicity
 _atom_site_fract_x
 _atom_site_fract_y
 _atom_site_fract_z
 _atom_site_occupancy
  Sr  Sr0  1  0.01203366  0.50943291  0.12108847  1
  Sr  Sr1  1  0.00945342  0.49952457  0.62491597  1
  Sr  Sr2  1  0.46683125  0.00281192  0.38175271  1
  Sr  Sr3  1  0.49282482  0.00893291  0.87337891  1
  Sr  Sr4  1  0.48683703  0.99929102  0.11798675  1
  La  La5  1  0.54707793  0.01339993  0.61861214  1
  La  La6  1  0.03398167  0.49792109  0.38471687  1
  La  La7  1  0.98804416  0.49423446  0.87696987  1
  Mn  Mn8  1  0.00197206  0.00348639  0.00014130  1
  Mn  Mn9  1  0.01405773  0.01339410  0.50175206  1
  Mn  Mn10  1  0.48555506  0.51428099  0.25030213  1
  Mn  Mn11  1  0.49713960  0.49919458  0.74935545  1
  Mn  Mn12  1  0.50396911  0.50214628  -0.00009229  1
  Mn  Mn13  1  0.49414872  0.49016702  0.50273918  1
  Mn  Mn14  1  0.00763426  0.98618562  0.25000708  1
  Mn  Mn15  1  0.99590829  0.99514262  0.74926465  1
  O  O16  1  0.02782625  0.09356711  0.37451317  1
  O  O17  1  0.00218827  0.08882940  0.87337219  1
  O  O18  1  0.23960446  0.27492194  0.01207715  1
  O  O19  1  0.28054816  0.23501233  0.52657607  1
  O  O20  1  0.22063378  0.74257393  0.48432551  1
  O  O21  1  0.21338631  0.72070651  0.27285592  1
  O  O22  1  0.20950389  0.70854759  0.77112554  1
  O  O23  1  0.49402522  0.57974712  0.12344299  1
  O  O24  1  0.52008793  0.59497499  0.62373876  1
  O  O25  1  0.52398937  0.42691203  0.87585941  1
  O  O26  1  0.46345743  0.42886838  0.37731374  1
  O  O27  1  0.77237240  0.25130184  0.51513063  1
  O  O28  1  0.75344377  0.25234998  0.72921069  1
  O  O29  1  0.77600703  0.72444749  0.97946033  1
  O  O30  1  0.95497894  0.92182116  0.62310957  1
  O  O31  1  0.00773990  0.93291560  0.12502735  1
  F  F32  1  0.26970530  0.23026921  0.22412384  1
  F  F33  1  0.27377626  0.21604544  0.72014802  1
  F  F34  1  0.26440592  0.76652380  0.97078038  1
  F  F35  1  0.74120347  0.23793999  0.02851973  1
  F  F36  1  0.76122095  0.26159872  0.23024619  1
  F  F37  1  0.73010430  0.75424977  0.47182610  1
  F  F38  1  0.73306291  0.76237536  0.28499266  1
  F  F39  1  0.72925898  0.76395388  0.77933281  1
