# generated using pymatgen
data_NaMg6Cd
_symmetry_space_group_name_H-M   'P 1'
_cell_length_a   6.42027046
_cell_length_b   6.41891361
_cell_length_c   5.25773659
_cell_angle_alpha   90.00000000
_cell_angle_beta   90.00000000
_cell_angle_gamma   119.99301472
_symmetry_Int_Tables_number   1
_chemical_formula_structural   NaMg6Cd
_chemical_formula_sum   'Na1 Mg6 Cd1'
_cell_volume   187.66136685
_cell_formula_units_Z   1
loop_
 _symmetry_equiv_pos_site_id
 _symmetry_equiv_pos_as_xyz
  1  'x, y, z'
loop_
 _atom_site_type_symbol
 _atom_site_label
 _atom_site_symmetry_multiplicity
 _atom_site_fract_x
 _atom_site_fract_y
 _atom_site_fract_z
 _atom_site_occupancy
  Na  Na0  1  0.16639830  0.33319865  0.25000000  1
  Mg  Mg1  1  0.66685022  0.33242865  0.25000000  1
  Mg  Mg2  1  0.66685022  0.83442057  0.25000000  1
  Mg  Mg3  1  0.33355883  0.16547912  0.75000000  1
  Mg  Mg4  1  0.33355883  0.66808071  0.75000000  1
  Mg  Mg5  1  0.83185598  0.16592849  0.75000000  1
  Mg  Mg6  1  0.83362646  0.66681373  0.75000000  1
  Cd  Cd7  1  0.16730116  0.83365008  0.25000000  1
