# generated using pymatgen
data_SnS2
_symmetry_space_group_name_H-M   'P 1'
_cell_length_a   5.99264281
_cell_length_b   5.99264133
_cell_length_c   6.54368262
_cell_angle_alpha   117.25139415
_cell_angle_beta   117.25138289
_cell_angle_gamma   89.99998951
_symmetry_Int_Tables_number   1
_chemical_formula_structural   SnS2
_chemical_formula_sum   'Sn2 S4'
_cell_volume   179.06932484
_cell_formula_units_Z   2
loop_
 _symmetry_equiv_pos_site_id
 _symmetry_equiv_pos_as_xyz
  1  'x, y, z'
loop_
 _atom_site_type_symbol
 _atom_site_label
 _atom_site_symmetry_multiplicity
 _atom_site_fract_x
 _atom_site_fract_y
 _atom_site_fract_z
 _atom_site_occupancy
  Sn  Sn0  1  0.25000000  0.75000000  0.50000000  1
  Sn  Sn1  1  0.00000000  0.00000000  0.00000000  1
  S  S2  1  0.88206551  0.87500000  0.25000000  1
  S  S3  1  0.62500000  0.11793449  0.75000000  1
  S  S4  1  0.36793449  0.37500000  0.25000000  1
  S  S5  1  0.12500000  0.63206551  0.75000000  1
