# generated using pymatgen
data_W2O5
_symmetry_space_group_name_H-M   'P 1'
_cell_length_a   4.03412985
_cell_length_b   3.86830399
_cell_length_c   12.91263892
_cell_angle_alpha   90.00041613
_cell_angle_beta   89.99716436
_cell_angle_gamma   89.99598171
_symmetry_Int_Tables_number   1
_chemical_formula_structural   W2O5
_chemical_formula_sum   'W4 O10'
_cell_volume   201.50483675
_cell_formula_units_Z   2
loop_
 _symmetry_equiv_pos_site_id
 _symmetry_equiv_pos_as_xyz
  1  'x, y, z'
loop_
 _atom_site_type_symbol
 _atom_site_label
 _atom_site_symmetry_multiplicity
 _atom_site_fract_x
 _atom_site_fract_y
 _atom_site_fract_z
 _atom_site_occupancy
  W  W0  1  0.01849673  0.98269580  0.15112639  1
  W  W1  1  0.51844335  0.01741765  0.34886025  1
  W  W2  1  0.51864880  0.01737510  0.65112069  1
  W  W3  1  0.01859738  0.98256037  0.84889131  1
  O  O4  1  0.51859119  0.00632681  0.18306555  1
  O  O5  1  0.01860048  0.99367793  0.31693090  1
  O  O6  1  0.01856109  0.99357652  0.68308268  1
  O  O7  1  0.51856029  0.00630863  0.81693843  1
  O  O8  1  0.01864364  0.49100190  0.84602830  1
  O  O9  1  0.51875038  0.50902530  0.65398524  1
  O  O10  1  0.51841615  0.50912736  0.34596519  1
  O  O11  1  0.51857050  0.01523907  0.49999178  1
  O  O12  1  0.01851705  0.98464667  0.00000403  1
  O  O13  1  0.01859496  0.49101989  0.15400727  1
