# generated using pymatgen
data_CeScSi
_symmetry_space_group_name_H-M   'P 1'
_cell_length_a   4.24015443
_cell_length_b   4.24015443
_cell_length_c   8.48675703
_cell_angle_alpha   104.46627241
_cell_angle_beta   104.46627238
_cell_angle_gamma   89.99999995
_symmetry_Int_Tables_number   1
_chemical_formula_structural   CeScSi
_chemical_formula_sum   'Ce2 Sc2 Si2'
_cell_volume   142.74347302
_cell_formula_units_Z   2
loop_
 _symmetry_equiv_pos_site_id
 _symmetry_equiv_pos_as_xyz
  1  'x, y, z'
loop_
 _atom_site_type_symbol
 _atom_site_label
 _atom_site_symmetry_multiplicity
 _atom_site_fract_x
 _atom_site_fract_y
 _atom_site_fract_z
 _atom_site_occupancy
  Si  Si0  1  0.87710024  0.87710024  0.75420047  1
  Si  Si1  1  0.12289976  0.12289976  0.24579953  1
  Sc  Sc2  1  0.50000000  0.00000000  0.00000000  1
  Sc  Sc3  1  0.00000000  0.50000000  0.00000000  1
  Ce  Ce4  1  0.67894577  0.67894577  0.35789155  1
  Ce  Ce5  1  0.32105423  0.32105423  0.64210845  1
