# generated using pymatgen
data_Mg6AlZn
_symmetry_space_group_name_H-M   'P 1'
_cell_length_a   6.22171334
_cell_length_b   6.22171286
_cell_length_c   4.98368278
_cell_angle_alpha   90.00000000
_cell_angle_beta   90.00000000
_cell_angle_gamma   120.36770043
_symmetry_Int_Tables_number   1
_chemical_formula_structural   Mg6AlZn
_chemical_formula_sum   'Mg6 Al1 Zn1'
_cell_volume   166.44849972
_cell_formula_units_Z   1
loop_
 _symmetry_equiv_pos_site_id
 _symmetry_equiv_pos_as_xyz
  1  'x, y, z'
loop_
 _atom_site_type_symbol
 _atom_site_label
 _atom_site_symmetry_multiplicity
 _atom_site_fract_x
 _atom_site_fract_y
 _atom_site_fract_z
 _atom_site_occupancy
  Mg  Mg0  1  0.16922489  0.84066297  0.25000000  1
  Mg  Mg1  1  0.65933703  0.33077511  0.25000000  1
  Mg  Mg2  1  0.66685620  0.83314380  0.25000000  1
  Mg  Mg3  1  0.33159896  0.66129575  0.75000000  1
  Mg  Mg4  1  0.83870425  0.16840104  0.75000000  1
  Mg  Mg5  1  0.83307649  0.66692351  0.75000000  1
  Al  Al6  1  0.16817269  0.33182731  0.25000000  1
  Zn  Zn7  1  0.33302950  0.16697050  0.75000000  1
