# generated using pymatgen
data_NaMg6Cd
_symmetry_space_group_name_H-M   'P 1'
_cell_length_a   6.42329283
_cell_length_b   6.42329230
_cell_length_c   5.24288655
_cell_angle_alpha   90.00000000
_cell_angle_beta   90.00000000
_cell_angle_gamma   119.63766082
_symmetry_Int_Tables_number   1
_chemical_formula_structural   NaMg6Cd
_chemical_formula_sum   'Na1 Mg6 Cd1'
_cell_volume   188.01419120
_cell_formula_units_Z   1
loop_
 _symmetry_equiv_pos_site_id
 _symmetry_equiv_pos_as_xyz
  1  'x, y, z'
loop_
 _atom_site_type_symbol
 _atom_site_label
 _atom_site_symmetry_multiplicity
 _atom_site_fract_x
 _atom_site_fract_y
 _atom_site_fract_z
 _atom_site_occupancy
  Na  Na0  1  0.16744677  0.33255323  0.25000000  1
  Mg  Mg1  1  0.16816601  0.83450783  0.25000000  1
  Mg  Mg2  1  0.66549217  0.33183399  0.25000000  1
  Mg  Mg3  1  0.66574787  0.83425213  0.25000000  1
  Mg  Mg4  1  0.33538288  0.66951855  0.75000000  1
  Mg  Mg5  1  0.83048145  0.16461712  0.75000000  1
  Mg  Mg6  1  0.83313104  0.66686896  0.75000000  1
  Cd  Cd7  1  0.33415181  0.16584819  0.75000000  1
