# generated using pymatgen
data_SrYMg6
_symmetry_space_group_name_H-M   'P 1'
_cell_length_a   6.75270652
_cell_length_b   9.54946497
_cell_length_c   4.84789583
_cell_angle_alpha   90.00000000
_cell_angle_beta   90.00000000
_cell_angle_gamma   134.99818379
_symmetry_Int_Tables_number   1
_chemical_formula_structural   SrYMg6
_chemical_formula_sum   'Sr1 Y1 Mg6'
_cell_volume   221.05938767
_cell_formula_units_Z   1
loop_
 _symmetry_equiv_pos_site_id
 _symmetry_equiv_pos_as_xyz
  1  'x, y, z'
loop_
 _atom_site_type_symbol
 _atom_site_label
 _atom_site_symmetry_multiplicity
 _atom_site_fract_x
 _atom_site_fract_y
 _atom_site_fract_z
 _atom_site_occupancy
  Sr  Sr0  1  0.24817089  0.87408494  0.25000000  1
  Y  Y1  1  0.25108076  0.37554038  0.25000000  1
  Mg  Mg2  1  0.75036709  0.37404528  0.25000000  1
  Mg  Mg3  1  0.75036709  0.87632081  0.25000000  1
  Mg  Mg4  1  0.25047815  0.13836772  0.75000000  1
  Mg  Mg5  1  0.25047815  0.61211143  0.75000000  1
  Mg  Mg6  1  0.77592164  0.13796132  0.75000000  1
  Mg  Mg7  1  0.72313722  0.61156911  0.75000000  1
