# generated using pymatgen
data_Na4P2H4CO9
_symmetry_space_group_name_H-M   'P 1'
_cell_length_a   8.53862904
_cell_length_b   8.53862904
_cell_length_c   6.50524946
_cell_angle_alpha   90.00000000
_cell_angle_beta   90.00000000
_cell_angle_gamma   90.00000000
_symmetry_Int_Tables_number   1
_chemical_formula_structural   Na4P2H4CO9
_chemical_formula_sum   'Na8 P4 H8 C2 O18'
_cell_volume   474.28593684
_cell_formula_units_Z   2
loop_
 _symmetry_equiv_pos_site_id
 _symmetry_equiv_pos_as_xyz
  1  'x, y, z'
loop_
 _atom_site_type_symbol
 _atom_site_label
 _atom_site_symmetry_multiplicity
 _atom_site_fract_x
 _atom_site_fract_y
 _atom_site_fract_z
 _atom_site_occupancy
  Na  Na0  1  0.81874650  0.07072126  0.70110427  1
  Na  Na1  1  0.18125350  0.92927874  0.70110427  1
  Na  Na2  1  0.92927874  0.81874650  0.29889573  1
  Na  Na3  1  0.07072126  0.18125350  0.29889573  1
  Na  Na4  1  0.79994958  0.46092217  0.13712361  1
  Na  Na5  1  0.20005042  0.53907783  0.13712361  1
  Na  Na6  1  0.53907783  0.79994958  0.86287639  1
  Na  Na7  1  0.46092217  0.20005042  0.86287639  1
  P  P8  1  0.09028331  0.33142443  0.79309985  1
  P  P9  1  0.90971669  0.66857557  0.79309985  1
  P  P10  1  0.66857557  0.09028331  0.20690015  1
  P  P11  1  0.33142443  0.90971669  0.20690015  1
  H  H12  1  0.67848770  0.42206173  0.71089471  1
  H  H13  1  0.32151230  0.57793827  0.71089471  1
  H  H14  1  0.57793827  0.67848770  0.28910529  1
  H  H15  1  0.42206173  0.32151230  0.28910529  1
  H  H16  1  0.64422270  0.31046093  0.52017399  1
  H  H17  1  0.35577730  0.68953907  0.52017399  1
  H  H18  1  0.68953907  0.64422270  0.47982601  1
  H  H19  1  0.31046093  0.35577730  0.47982601  1
  C  C20  1  0.00000000  0.50000000  0.64823118  1
  C  C21  1  0.50000000  0.00000000  0.35176882  1
  O  O22  1  0.00000000  0.50000000  0.45596147  1
  O  O23  1  0.50000000  0.00000000  0.54403853  1
  O  O24  1  0.26338913  0.38877586  0.80524228  1
  O  O25  1  0.73661087  0.61122414  0.80524228  1
  O  O26  1  0.61122414  0.26338913  0.19475772  1
  O  O27  1  0.38877586  0.73661087  0.19475772  1
  O  O28  1  0.07007006  0.18403885  0.66281056  1
  O  O29  1  0.92992994  0.81596115  0.66281056  1
  O  O30  1  0.81596115  0.07007006  0.33718944  1
  O  O31  1  0.18403885  0.92992994  0.33718944  1
  O  O32  1  0.01114203  0.32418234  0.00405550  1
  O  O33  1  0.98885797  0.67581766  0.00405550  1
  O  O34  1  0.67581766  0.01114203  0.99594450  1
  O  O35  1  0.32418234  0.98885797  0.99594450  1
  O  O36  1  0.65251053  0.31285911  0.67075517  1
  O  O37  1  0.34748947  0.68714089  0.67075517  1
  O  O38  1  0.68714089  0.65251053  0.32924483  1
  O  O39  1  0.31285911  0.34748947  0.32924483  1
