# generated using pymatgen
data_Mg15Ti
_symmetry_space_group_name_H-M   'P 1'
_cell_length_a   6.38272548
_cell_length_b   6.38272496
_cell_length_c   10.14419369
_cell_angle_alpha   90.00000000
_cell_angle_beta   90.00000000
_cell_angle_gamma   120.00000270
_symmetry_Int_Tables_number   1
_chemical_formula_structural   Mg15Ti
_chemical_formula_sum   'Mg15 Ti1'
_cell_volume   357.89897052
_cell_formula_units_Z   1
loop_
 _symmetry_equiv_pos_site_id
 _symmetry_equiv_pos_as_xyz
  1  'x, y, z'
loop_
 _atom_site_type_symbol
 _atom_site_label
 _atom_site_symmetry_multiplicity
 _atom_site_fract_x
 _atom_site_fract_y
 _atom_site_fract_z
 _atom_site_occupancy
  Mg  Mg0  1  0.16666700  0.33333300  0.62500000  1
  Mg  Mg1  1  0.16954125  0.83477012  0.12500000  1
  Mg  Mg2  1  0.16684439  0.83342169  0.62500000  1
  Mg  Mg3  1  0.66522988  0.33045875  0.12500000  1
  Mg  Mg4  1  0.66657831  0.33315561  0.62500000  1
  Mg  Mg5  1  0.66522988  0.83477012  0.12500000  1
  Mg  Mg6  1  0.66657831  0.83342169  0.62500000  1
  Mg  Mg7  1  0.33016740  0.16983260  0.37140964  1
  Mg  Mg8  1  0.33016740  0.16983260  0.87859036  1
  Mg  Mg9  1  0.33016740  0.66033580  0.37140964  1
  Mg  Mg10  1  0.33016740  0.66033580  0.87859036  1
  Mg  Mg11  1  0.83966420  0.16983260  0.37140964  1
  Mg  Mg12  1  0.83966420  0.16983260  0.87859036  1
  Mg  Mg13  1  0.83333300  0.66666700  0.37455733  1
  Mg  Mg14  1  0.83333300  0.66666700  0.87544267  1
  Ti  Ti15  1  0.16666700  0.33333300  0.12500000  1
