# generated using pymatgen
data_Mg6AlGa
_symmetry_space_group_name_H-M   'P 1'
_cell_length_a   6.18752039
_cell_length_b   6.18751992
_cell_length_c   5.12933539
_cell_angle_alpha   90.00000000
_cell_angle_beta   90.00000000
_cell_angle_gamma   120.39403514
_symmetry_Int_Tables_number   1
_chemical_formula_structural   Mg6AlGa
_chemical_formula_sum   'Mg6 Al1 Ga1'
_cell_volume   169.38964580
_cell_formula_units_Z   1
loop_
 _symmetry_equiv_pos_site_id
 _symmetry_equiv_pos_as_xyz
  1  'x, y, z'
loop_
 _atom_site_type_symbol
 _atom_site_label
 _atom_site_symmetry_multiplicity
 _atom_site_fract_x
 _atom_site_fract_y
 _atom_site_fract_z
 _atom_site_occupancy
  Mg  Mg0  1  0.16721340  0.83631598  0.25000000  1
  Mg  Mg1  1  0.66368402  0.33278660  0.25000000  1
  Mg  Mg2  1  0.66700683  0.83299317  0.25000000  1
  Mg  Mg3  1  0.33231042  0.66272375  0.75000000  1
  Mg  Mg4  1  0.83727625  0.16768958  0.75000000  1
  Mg  Mg5  1  0.83307970  0.66692030  0.75000000  1
  Al  Al6  1  0.16637898  0.33362102  0.25000000  1
  Ga  Ga7  1  0.33305039  0.16694961  0.75000000  1
