# generated using pymatgen
data_Mg14TiCd
_symmetry_space_group_name_H-M   'P 1'
_cell_length_a   6.35459429
_cell_length_b   6.35459378
_cell_length_c   10.19354832
_cell_angle_alpha   90.00000000
_cell_angle_beta   90.00000000
_cell_angle_gamma   120.00000273
_symmetry_Int_Tables_number   1
_chemical_formula_structural   Mg14TiCd
_chemical_formula_sum   'Mg14 Ti1 Cd1'
_cell_volume   356.47709248
_cell_formula_units_Z   1
loop_
 _symmetry_equiv_pos_site_id
 _symmetry_equiv_pos_as_xyz
  1  'x, y, z'
loop_
 _atom_site_type_symbol
 _atom_site_label
 _atom_site_symmetry_multiplicity
 _atom_site_fract_x
 _atom_site_fract_y
 _atom_site_fract_z
 _atom_site_occupancy
  Mg  Mg0  1  0.17026022  0.83512961  0.12500000  1
  Mg  Mg1  1  0.16517035  0.83258468  0.62500000  1
  Mg  Mg2  1  0.66487039  0.32973978  0.12500000  1
  Mg  Mg3  1  0.66741532  0.33482965  0.62500000  1
  Mg  Mg4  1  0.66487039  0.83512961  0.12500000  1
  Mg  Mg5  1  0.66741532  0.83258468  0.62500000  1
  Mg  Mg6  1  0.33008879  0.16991121  0.37282333  1
  Mg  Mg7  1  0.33008879  0.16991121  0.87717667  1
  Mg  Mg8  1  0.33008879  0.66017859  0.37282333  1
  Mg  Mg9  1  0.33008879  0.66017859  0.87717667  1
  Mg  Mg10  1  0.83982141  0.16991121  0.37282333  1
  Mg  Mg11  1  0.83982141  0.16991121  0.87717667  1
  Mg  Mg12  1  0.83333300  0.66666700  0.37317863  1
  Mg  Mg13  1  0.83333300  0.66666700  0.87682137  1
  Ti  Ti14  1  0.16666700  0.33333300  0.12500000  1
  Cd  Cd15  1  0.16666700  0.33333300  0.62500000  1
