# generated using pymatgen
data_Te2W3(SeS)2
_symmetry_space_group_name_H-M   'P 1'
_cell_length_a   3.34767927
_cell_length_b   3.34769202
_cell_length_c   31.04127892
_cell_angle_alpha   90.00004994
_cell_angle_beta   90.00000345
_cell_angle_gamma   119.99985925
_symmetry_Int_Tables_number   1
_chemical_formula_structural   Te2W3(SeS)2
_chemical_formula_sum   'Te2 W3 Se2 S2'
_cell_volume   301.27298735
_cell_formula_units_Z   1
loop_
 _symmetry_equiv_pos_site_id
 _symmetry_equiv_pos_as_xyz
  1  'x, y, z'
loop_
 _atom_site_type_symbol
 _atom_site_label
 _atom_site_symmetry_multiplicity
 _atom_site_fract_x
 _atom_site_fract_y
 _atom_site_fract_z
 _atom_site_occupancy
  Te  Te0  1  0.33336072  0.66672195  0.40832024  1
  Te  Te1  1  0.33334773  0.66669593  0.28559960  1
  W  W2  1  0.33330900  0.66661726  0.11563354  1
  W  W3  1  0.33331121  0.66662174  0.57836211  1
  W  W4  1  0.66668884  0.33337848  0.34694405  1
  Se  Se5  1  0.66664580  0.33329130  0.52449087  1
  Se  Se6  1  0.66664822  0.33329585  0.63220330  1
  S  S7  1  0.66664350  0.33328626  0.06663154  1
  S  S8  1  0.66664598  0.33329122  0.16465575  1
