# generated using pymatgen
data_Te2W3(SeS)2
_symmetry_space_group_name_H-M   'P 1'
_cell_length_a   3.34808550
_cell_length_b   3.34809017
_cell_length_c   31.01786267
_cell_angle_alpha   90.00026168
_cell_angle_beta   90.00000000
_cell_angle_gamma   119.99995386
_symmetry_Int_Tables_number   1
_chemical_formula_structural   Te2W3(SeS)2
_chemical_formula_sum   'Te2 W3 Se2 S2'
_cell_volume   301.11777199
_cell_formula_units_Z   1
loop_
 _symmetry_equiv_pos_site_id
 _symmetry_equiv_pos_as_xyz
  1  'x, y, z'
loop_
 _atom_site_type_symbol
 _atom_site_label
 _atom_site_symmetry_multiplicity
 _atom_site_fract_x
 _atom_site_fract_y
 _atom_site_fract_z
 _atom_site_occupancy
  Te  Te0  1  0.66664650  0.33329200  0.51692111  1
  Te  Te1  1  0.66664218  0.33328336  0.63969592  1
  W  W2  1  0.33330678  0.66661355  0.11565338  1
  W  W3  1  0.33331092  0.66662184  0.57834490  1
  W  W4  1  0.66669001  0.33338002  0.34698238  1
  Se  Se5  1  0.66664625  0.33329149  0.06176025  1
  Se  Se6  1  0.66664143  0.33328186  0.16953484  1
  S  S7  1  0.33336024  0.66672148  0.39601341  1
  S  S8  1  0.33335669  0.66671438  0.29793481  1
