# generated using pymatgen
data_Mg14GaSi
_symmetry_space_group_name_H-M   'P 1'
_cell_length_a   6.24051880
_cell_length_b   6.24051831
_cell_length_c   10.23150070
_cell_angle_alpha   90.00000000
_cell_angle_beta   90.00000000
_cell_angle_gamma   120.00000259
_symmetry_Int_Tables_number   1
_chemical_formula_structural   Mg14GaSi
_chemical_formula_sum   'Mg14 Ga1 Si1'
_cell_volume   345.07326769
_cell_formula_units_Z   1
loop_
 _symmetry_equiv_pos_site_id
 _symmetry_equiv_pos_as_xyz
  1  'x, y, z'
loop_
 _atom_site_type_symbol
 _atom_site_label
 _atom_site_symmetry_multiplicity
 _atom_site_fract_x
 _atom_site_fract_y
 _atom_site_fract_z
 _atom_site_occupancy
  Mg  Mg0  1  0.16603874  0.83301887  0.12500000  1
  Mg  Mg1  1  0.16690509  0.83345205  0.62500000  1
  Mg  Mg2  1  0.66698113  0.33396126  0.12500000  1
  Mg  Mg3  1  0.66654795  0.33309491  0.62500000  1
  Mg  Mg4  1  0.66698113  0.83301887  0.12500000  1
  Mg  Mg5  1  0.66654795  0.83345205  0.62500000  1
  Mg  Mg6  1  0.33222782  0.16777218  0.37459264  1
  Mg  Mg7  1  0.33222782  0.16777218  0.87540736  1
  Mg  Mg8  1  0.33222782  0.66445665  0.37459264  1
  Mg  Mg9  1  0.33222782  0.66445665  0.87540736  1
  Mg  Mg10  1  0.83554335  0.16777218  0.37459264  1
  Mg  Mg11  1  0.83554335  0.16777218  0.87540736  1
  Mg  Mg12  1  0.83333300  0.66666700  0.37532949  1
  Mg  Mg13  1  0.83333300  0.66666700  0.87467051  1
  Ga  Ga14  1  0.16666700  0.33333300  0.62500000  1
  Si  Si15  1  0.16666700  0.33333300  0.12500000  1
