# generated using pymatgen
data_Fe2NiO4
_symmetry_space_group_name_H-M   'P 1'
_cell_length_a   6.00262380
_cell_length_b   5.98753840
_cell_length_c   29.98170241
_cell_angle_alpha   59.84726340
_cell_angle_beta   59.67897077
_cell_angle_gamma   59.86266725
_symmetry_Int_Tables_number   1
_chemical_formula_structural   Fe2NiO4
_chemical_formula_sum   'Fe20 Ni10 O40'
_cell_volume   758.42915525
_cell_formula_units_Z   10
loop_
 _symmetry_equiv_pos_site_id
 _symmetry_equiv_pos_as_xyz
  1  'x, y, z'
loop_
 _atom_site_type_symbol
 _atom_site_label
 _atom_site_symmetry_multiplicity
 _atom_site_fract_x
 _atom_site_fract_y
 _atom_site_fract_z
 _atom_site_occupancy
  Fe  Fe0  1  0.25073577  0.24779266  0.05082205  1
  Fe  Fe1  1  0.12203313  0.62780724  0.12450876  1
  Fe  Fe2  1  0.62756452  0.12301596  0.12441826  1
  Fe  Fe3  1  0.99330085  0.99303763  0.40130301  1
  Fe  Fe4  1  0.25189687  0.25225273  0.25041215  1
  Fe  Fe5  1  0.62754990  0.62741883  0.12450831  1
  Fe  Fe6  1  0.25553188  0.25676803  0.44845422  1
  Fe  Fe7  1  0.62466438  0.62478684  0.22499340  1
  Fe  Fe8  1  0.99337018  0.99252634  0.60166759  1
  Fe  Fe9  1  0.62825576  0.62820517  0.32453466  1
  Fe  Fe10  1  0.99494252  0.99584587  0.79983698  1
  Fe  Fe11  1  0.25566769  0.25582341  0.64942430  1
  Fe  Fe12  1  0.62393282  0.62634269  0.42537281  1
  Fe  Fe13  1  0.62459196  0.62484782  0.52507266  1
  Fe  Fe14  1  0.62572559  0.62487478  0.62516045  1
  Fe  Fe15  1  0.25897924  0.24913291  0.84915305  1
  Fe  Fe16  1  0.62400804  0.62453273  0.72549335  1
  Fe  Fe17  1  0.62774311  0.11669171  0.92691802  1
  Fe  Fe18  1  0.62507921  0.62269576  0.82453638  1
  Fe  Fe19  1  0.62702708  0.62224927  0.92659733  1
  Ni  Ni20  1  -0.00081137  0.00481224  0.99825232  1
  Ni  Ni21  1  -0.00196950  0.99743540  0.20179431  1
  Ni  Ni22  1  0.62722057  0.62626521  0.02390387  1
  Ni  Ni23  1  0.12426422  0.62584075  0.32463560  1
  Ni  Ni24  1  0.62580869  0.12431565  0.32462265  1
  Ni  Ni25  1  0.12505935  0.62510150  0.52492058  1
  Ni  Ni26  1  0.62507570  0.12518331  0.52489804  1
  Ni  Ni27  1  0.12249771  0.62469385  0.72552620  1
  Ni  Ni28  1  0.62424352  0.12211142  0.72567636  1
  Ni  Ni29  1  0.12060230  0.62515895  0.92608371  1
  O  O30  1  0.37575079  0.37649968  0.07871369  1
  O  O31  1  0.37624294  0.85298701  0.07876942  1
  O  O32  1  0.38385077  0.38496126  0.16986405  1
  O  O33  1  0.85525437  0.37621891  0.07851510  1
  O  O34  1  0.38871530  0.38824704  0.27294257  1
  O  O35  1  0.40485155  0.86871381  0.17250974  1
  O  O36  1  0.86876781  0.40505750  0.17243052  1
  O  O37  1  0.38692515  0.38809885  0.36994626  1
  O  O38  1  0.86401319  0.86664462  0.08026765  1
  O  O39  1  0.39077474  0.85936356  0.27425568  1
  O  O40  1  0.85917463  0.39072515  0.27413085  1
  O  O41  1  0.86583489  0.86684489  0.17158633  1
  O  O42  1  0.38684244  0.38587726  0.47459339  1
  O  O43  1  0.39008938  0.86302604  0.37476350  1
  O  O44  1  0.86273589  0.39011904  0.37481008  1
  O  O45  1  0.39215712  0.39256530  0.57010776  1
  O  O46  1  0.86226303  0.86140091  0.28100834  1
  O  O47  1  0.38261828  0.86209294  0.47457355  1
  O  O48  1  0.85762348  0.38792936  0.47531091  1
  O  O49  1  0.86422216  0.86487380  0.37518624  1
  O  O50  1  0.39212500  0.86218835  0.57497933  1
  O  O51  1  0.38491719  0.38462571  0.67550455  1
  O  O52  1  0.86709410  0.38789871  0.57581020  1
  O  O53  1  0.85666311  0.85628368  0.48023846  1
  O  O54  1  0.38962094  0.38951784  0.77077541  1
  O  O55  1  0.38978598  0.85557249  0.67680448  1
  O  O56  1  0.85320591  0.39344439  0.67714779  1
  O  O57  1  0.86368069  0.86490243  0.57505424  1
  O  O58  1  0.39510821  0.38456802  0.87439655  1
  O  O59  1  0.40092585  0.85005826  0.77447435  1
  O  O60  1  0.85337046  0.39931926  0.77438112  1
  O  O61  1  0.85762638  0.85730794  0.68074920  1
  O  O62  1  0.38308959  0.37725747  0.97284627  1
  O  O63  1  0.39408629  0.84970577  0.87389033  1
  O  O64  1  0.85212247  0.38545558  0.87471920  1
  O  O65  1  0.85769569  0.85784227  0.77681536  1
  O  O66  1  0.40532920  0.87188892  0.97046297  1
  O  O67  1  0.85924242  0.40357648  0.97256441  1
  O  O68  1  0.86365115  0.87384296  0.87749500  1
  O  O69  1  0.85735977  0.87492990  0.97310377  1
