# generated using pymatgen
data_U(MoO4)2
_symmetry_space_group_name_H-M   'P 1'
_cell_length_a   17.73976247
_cell_length_b   17.73976202
_cell_length_c   6.21900047
_cell_angle_alpha   90.00000000
_cell_angle_beta   90.00000000
_cell_angle_gamma   120.00000086
_symmetry_Int_Tables_number   1
_chemical_formula_structural   U(MoO4)2
_chemical_formula_sum   'U9 Mo18 O72'
_cell_volume   1694.91064528
_cell_formula_units_Z   9
loop_
 _symmetry_equiv_pos_site_id
 _symmetry_equiv_pos_as_xyz
  1  'x, y, z'
loop_
 _atom_site_type_symbol
 _atom_site_label
 _atom_site_symmetry_multiplicity
 _atom_site_fract_x
 _atom_site_fract_y
 _atom_site_fract_z
 _atom_site_occupancy
  U  U0  1  0.00079614  0.66690898  0.75041843  1
  U  U1  1  0.33333300  0.66666700  0.00996557  1
  U  U2  1  0.99801492  0.33067621  0.26118608  1
  U  U3  1  0.33266129  0.00198508  0.26118608  1
  U  U4  1  0.66611285  0.99920386  0.75041843  1
  U  U5  1  0.66932379  0.66733871  0.26118608  1
  U  U6  1  0.66666700  0.33333300  0.00487247  1
  U  U7  1  0.00000000  0.00000000  0.52880746  1
  U  U8  1  0.33309102  0.33388715  0.75041843  1
  Mo  Mo9  1  0.59874543  0.10460780  0.25090043  1
  Mo  Mo10  1  0.17184028  0.73768770  0.25315096  1
  Mo  Mo11  1  0.22743745  0.16271637  0.25450417  1
  Mo  Mo12  1  0.93527892  0.77256255  0.25450417  1
  Mo  Mo13  1  0.16140350  0.93591345  0.75121903  1
  Mo  Mo14  1  0.26231230  0.43415258  0.25315096  1
  Mo  Mo15  1  0.06408655  0.22549005  0.75121903  1
  Mo  Mo16  1  0.82695534  0.26380429  0.76185760  1
  Mo  Mo17  1  0.56584742  0.82815972  0.25315096  1
  Mo  Mo18  1  0.73619571  0.56315104  0.76185760  1
  Mo  Mo19  1  0.39819928  0.89487940  0.76663326  1
  Mo  Mo20  1  0.43684896  0.17304466  0.76185760  1
  Mo  Mo21  1  0.89539220  0.49413763  0.25090043  1
  Mo  Mo22  1  0.77450995  0.83859650  0.75121903  1
  Mo  Mo23  1  0.10512060  0.50331988  0.76663326  1
  Mo  Mo24  1  0.83728363  0.06472108  0.25450417  1
  Mo  Mo25  1  0.50586237  0.40125457  0.25090043  1
  Mo  Mo26  1  0.49668012  0.60180072  0.76663326  1
  O  O27  1  0.08372069  0.44037198  0.52541283  1
  O  O28  1  0.17833684  0.29327250  0.73220523  1
  O  O29  1  0.35665129  0.91627931  0.52541283  1
  O  O30  1  0.26499948  0.24419306  0.46054441  1
  O  O31  1  0.41912086  0.10965167  0.52216744  1
  O  O32  1  0.78348365  0.14936958  0.75947842  1
  O  O33  1  0.70851142  0.44836505  0.79769020  1
  O  O34  1  0.55034597  0.51563606  0.25193174  1
  O  O35  1  0.31401773  0.42323482  0.48955818  1
  O  O36  1  0.43186481  0.35461421  0.02975734  1
  O  O37  1  0.48436394  0.03470991  0.25193174  1
  O  O38  1  0.97919358  0.73500052  0.46054441  1
  O  O39  1  0.89034833  0.30946919  0.52216744  1
  O  O40  1  0.30023106  0.40046606  0.02592517  1
  O  O41  1  0.11381241  0.07887712  0.32675406  1
  O  O42  1  0.36643705  0.77888156  0.80093050  1
  O  O43  1  0.59384702  0.37488906  0.21300502  1
  O  O44  1  0.03973853  0.55296304  0.77208010  1
  O  O45  1  0.63571749  0.78386310  0.27175643  1
  O  O46  1  0.89829979  0.30875717  0.98702560  1
  O  O47  1  0.35241583  0.92231507  0.98879585  1
  O  O48  1  0.44639255  0.35831627  0.49583245  1
  O  O49  1  0.55962802  0.64334871  0.52541283  1
  O  O50  1  0.82082727  0.70292290  0.24938499  1
  O  O51  1  0.22987465  0.98482946  0.52114178  1
  O  O52  1  0.51322451  0.96026147  0.77208010  1
  O  O53  1  0.10921709  0.68598227  0.48955818  1
  O  O54  1  0.21613690  0.85185439  0.27175643  1
  O  O55  1  0.23613857  0.21536757  0.00365882  1
  O  O56  1  0.64168373  0.08807628  0.49583245  1
  O  O57  1  0.03411355  0.10945476  0.74620797  1
  O  O58  1  0.88209563  0.17917273  0.24938499  1
  O  O59  1  0.41244451  0.63356295  0.80093050  1
  O  O60  1  0.22699528  0.97696670  0.98776989  1
  O  O61  1  0.89054524  0.92465879  0.74620797  1
  O  O62  1  0.69124283  0.58954262  0.98702560  1
  O  O63  1  0.07534121  0.96588645  0.74620797  1
  O  O64  1  0.69053081  0.58087914  0.52216744  1
  O  O65  1  0.25804805  0.70920393  0.20790044  1
  O  O66  1  0.29707710  0.11790437  0.24938499  1
  O  O67  1  0.74997142  0.77300472  0.98776989  1
  O  O68  1  0.56989925  0.64758417  0.98879585  1
  O  O69  1  0.07768493  0.43010075  0.98879585  1
  O  O70  1  0.78463243  0.02077099  0.00365882  1
  O  O71  1  0.29079607  0.54884412  0.20790044  1
  O  O72  1  0.92112288  0.03493528  0.32675406  1
  O  O73  1  0.14814561  0.36428251  0.27175643  1
  O  O74  1  0.10023501  0.69976894  0.02592517  1
  O  O75  1  0.55163495  0.26014637  0.79769020  1
  O  O76  1  0.70672750  0.88506434  0.73220523  1
  O  O77  1  0.64538579  0.07725060  0.02975734  1
  O  O78  1  0.97922901  0.76386143  0.00365882  1
  O  O79  1  0.01517054  0.24504520  0.52114178  1
  O  O80  1  0.02303330  0.25002858  0.98776989  1
  O  O81  1  0.59953394  0.89976499  0.02592517  1
  O  O82  1  0.22111844  0.58755549  0.80093050  1
  O  O83  1  0.78104204  0.40615298  0.21300502  1
  O  O84  1  0.92274940  0.56813519  0.02975734  1
  O  O85  1  0.57676518  0.89078291  0.48955818  1
  O  O86  1  0.62511094  0.21895796  0.21300502  1
  O  O87  1  0.36588593  0.21651635  0.75947842  1
  O  O88  1  0.73985363  0.29148858  0.79769020  1
  O  O89  1  0.44703696  0.48677549  0.77208010  1
  O  O90  1  0.75580694  0.02080642  0.46054441  1
  O  O91  1  0.96529009  0.44965403  0.25193174  1
  O  O92  1  0.11493566  0.82166316  0.73220523  1
  O  O93  1  0.96506472  0.88618759  0.32675406  1
  O  O94  1  0.45115588  0.74195195  0.20790044  1
  O  O95  1  0.75495480  0.77012535  0.52114178  1
  O  O96  1  0.91192372  0.55360745  0.49583245  1
  O  O97  1  0.41045738  0.10170021  0.98702560  1
  O  O98  1  0.85063042  0.63411407  0.75947842  1
