# generated using pymatgen
data_Te4MoW3(SeS)2
_symmetry_space_group_name_H-M   'P 1'
_cell_length_a   3.39653007
_cell_length_b   3.39654082
_cell_length_c   40.59874228
_cell_angle_alpha   90.01027192
_cell_angle_beta   90.00000000
_cell_angle_gamma   119.99989516
_symmetry_Int_Tables_number   1
_chemical_formula_structural   Te4MoW3(SeS)2
_chemical_formula_sum   'Te4 Mo1 W3 Se2 S2'
_cell_volume   405.61682717
_cell_formula_units_Z   1
loop_
 _symmetry_equiv_pos_site_id
 _symmetry_equiv_pos_as_xyz
  1  'x, y, z'
loop_
 _atom_site_type_symbol
 _atom_site_label
 _atom_site_symmetry_multiplicity
 _atom_site_fract_x
 _atom_site_fract_y
 _atom_site_fract_z
 _atom_site_occupancy
  Te  Te0  1  0.33340806  0.66681712  0.32658836  1
  Te  Te1  1  0.66657272  0.33314444  0.42421652  1
  Te  Te2  1  0.66669028  0.33337956  0.51705844  1
  Te  Te3  1  0.33326305  0.66652710  0.23431062  1
  Mo  Mo4  1  0.66666907  0.33333813  0.28045499  1
  W  W5  1  0.33328302  0.66656603  0.09378357  1
  W  W6  1  0.33329373  0.66658746  0.47065312  1
  W  W7  1  0.66675333  0.33350665  0.65804724  1
  Se  Se8  1  0.33346117  0.66692334  0.69885484  1
  Se  Se9  1  0.33337432  0.66674963  0.61724896  1
  S  S10  1  0.66655897  0.33311693  0.05668252  1
  S  S11  1  0.66667230  0.33334360  0.13084882  1
