# generated using pymatgen
data_K2B10H13O2
_symmetry_space_group_name_H-M   'P 1'
_cell_length_a   7.11785684
_cell_length_b   7.81455493
_cell_length_c   11.10562231
_cell_angle_alpha   107.07655072
_cell_angle_beta   92.38193804
_cell_angle_gamma   95.76213056
_symmetry_Int_Tables_number   1
_chemical_formula_structural   K2B10H13O2
_chemical_formula_sum   'K4 B20 H26 O4'
_cell_volume   585.86826943
_cell_formula_units_Z   2
loop_
 _symmetry_equiv_pos_site_id
 _symmetry_equiv_pos_as_xyz
  1  'x, y, z'
loop_
 _atom_site_type_symbol
 _atom_site_label
 _atom_site_symmetry_multiplicity
 _atom_site_fract_x
 _atom_site_fract_y
 _atom_site_fract_z
 _atom_site_occupancy
  K  K0  1  0.68897329  0.74881678  0.93226578  1
  K  K1  1  0.31102671  0.25118322  0.06773422  1
  K  K2  1  0.70910898  0.05727852  0.37655393  1
  K  K3  1  0.29089102  0.94272148  0.62344607  1
  B  B4  1  0.26586758  0.97679473  0.33829111  1
  B  B5  1  0.73413242  0.02320527  0.66170889  1
  B  B6  1  0.08561660  0.96342720  0.22926662  1
  B  B7  1  0.91438340  0.03657280  0.77073338  1
  B  B8  1  0.08265312  0.81501323  0.32927177  1
  B  B9  1  0.91734688  0.18498677  0.67072823  1
  B  B10  1  0.31890716  0.76041135  0.28467237  1
  B  B11  1  0.68109284  0.23958865  0.71532763  1
  B  B12  1  0.32088132  0.90808125  0.18492635  1
  B  B13  1  0.67911868  0.09191875  0.81507365  1
  B  B14  1  0.94751020  0.74405283  0.17782665  1
  B  B15  1  0.05248980  0.25594717  0.82217335  1
  B  B16  1  0.11185901  0.60133020  0.21671445  1
  B  B17  1  0.88814099  0.39866980  0.78328555  1
  B  B18  1  0.27957072  0.66809503  0.11462408  1
  B  B19  1  0.72042928  0.33190497  0.88537592  1
  B  B20  1  0.11591413  0.81010999  0.07583445  1
  B  B21  1  0.88408587  0.18989001  0.92416555  1
  B  B22  1  0.04738173  0.58694743  0.06212316  1
  B  B23  1  0.95261827  0.41305257  0.93787684  1
  H  H24  1  0.33324092  0.10331481  0.42507685  1
  H  H25  1  0.66675908  0.89668519  0.57492315  1
  H  H26  1  0.00735108  0.09507185  0.23473660  1
  H  H27  1  0.99264892  0.90492815  0.76526340  1
  H  H28  1  0.99835543  0.81375208  0.42099867  1
  H  H29  1  0.00164457  0.18624792  0.57900133  1
  H  H30  1  0.44546354  0.71098532  0.33678588  1
  H  H31  1  0.55453646  0.28901468  0.66321412  1
  H  H32  1  0.45098966  0.98923527  0.15068267  1
  H  H33  1  0.54901034  0.01076473  0.84931733  1
  H  H34  1  0.77696828  0.73788430  0.17823772  1
  H  H35  1  0.22303172  0.26211570  0.82176228  1
  H  H36  1  0.08741354  0.46642178  0.25014003  1
  H  H37  1  0.91258646  0.53357822  0.74985997  1
  H  H38  1  0.40466352  0.59447606  0.05849898  1
  H  H39  1  0.59533648  0.40552394  0.94150102  1
  H  H40  1  0.90442051  0.13768948  0.01523110  1
  H  H41  1  0.09557949  0.86231052  0.98476890  1
  H  H42  1  0.76027959  0.40339269  0.18771603  1
  H  H43  1  0.23972041  0.59660731  0.81228397  1
  H  H44  1  0.64902589  0.43908567  0.30780941  1
  H  H45  1  0.35097411  0.56091433  0.69219059  1
  H  H46  1  0.11944309  0.55096572  0.54403051  1
  H  H47  1  0.88055691  0.44903428  0.45596949  1
  H  H48  1  0.22513287  0.51894355  0.42076717  1
  H  H49  1  0.77486713  0.48105645  0.57923283  1
  O  O50  1  0.34348385  0.64933715  0.77446406  1
  O  O51  1  0.65651615  0.35066285  0.22553594  1
  O  O52  1  0.75709392  0.46586362  0.48828332  1
  O  O53  1  0.24290608  0.53413638  0.51171668  1
