# generated using pymatgen
data_Mg30NbFeO32
_symmetry_space_group_name_H-M   'P 1'
_cell_length_a   8.55258367
_cell_length_b   8.57491498
_cell_length_c   8.57491498
_cell_angle_alpha   90.00000000
_cell_angle_beta   90.00000000
_cell_angle_gamma   90.00000000
_symmetry_Int_Tables_number   1
_chemical_formula_structural   Mg30NbFeO32
_chemical_formula_sum   'Mg30 Nb1 Fe1 O32'
_cell_volume   628.86435222
_cell_formula_units_Z   1
loop_
 _symmetry_equiv_pos_site_id
 _symmetry_equiv_pos_as_xyz
  1  'x, y, z'
loop_
 _atom_site_type_symbol
 _atom_site_label
 _atom_site_symmetry_multiplicity
 _atom_site_fract_x
 _atom_site_fract_y
 _atom_site_fract_z
 _atom_site_occupancy
  Mg  Mg0  1  -0.00000000  0.00000000  0.50000000  1
  Mg  Mg1  1  -0.00000000  0.50000000  0.00000000  1
  Mg  Mg2  1  0.50000000  0.00000000  0.00000000  1
  Mg  Mg3  1  0.50000000  0.00000000  0.50000000  1
  Mg  Mg4  1  0.50000000  0.50000000  0.00000000  1
  Mg  Mg5  1  0.50000000  0.50000000  0.50000000  1
  Mg  Mg6  1  -0.00000000  0.24773240  0.24773240  1
  Mg  Mg7  1  -0.00000000  0.24773240  0.75226760  1
  Mg  Mg8  1  -0.00000000  0.75226760  0.24773240  1
  Mg  Mg9  1  -0.00000000  0.75226760  0.75226760  1
  Mg  Mg10  1  0.50000000  0.24976363  0.24976363  1
  Mg  Mg11  1  0.50000000  0.24976363  0.75023637  1
  Mg  Mg12  1  0.50000000  0.75023637  0.24976363  1
  Mg  Mg13  1  0.50000000  0.75023637  0.75023637  1
  Mg  Mg14  1  0.25010094  0.00000000  0.25082362  1
  Mg  Mg15  1  0.25010094  0.00000000  0.74917638  1
  Mg  Mg16  1  0.25142802  0.50000000  0.24808013  1
  Mg  Mg17  1  0.25142802  0.50000000  0.75191987  1
  Mg  Mg18  1  0.74989906  0.00000000  0.25082362  1
  Mg  Mg19  1  0.74989906  0.00000000  0.74917638  1
  Mg  Mg20  1  0.74857198  0.50000000  0.24808013  1
  Mg  Mg21  1  0.74857198  0.50000000  0.75191987  1
  Mg  Mg22  1  0.25010094  0.25082362  -0.00000000  1
  Mg  Mg23  1  0.25142802  0.24808013  0.50000000  1
  Mg  Mg24  1  0.25010094  0.74917638  0.00000000  1
  Mg  Mg25  1  0.25142802  0.75191987  0.50000000  1
  Mg  Mg26  1  0.74989906  0.25082362  -0.00000000  1
  Mg  Mg27  1  0.74857198  0.24808013  0.50000000  1
  Mg  Mg28  1  0.74989906  0.74917638  0.00000000  1
  Mg  Mg29  1  0.74857198  0.75191987  0.50000000  1
  Nb  Nb30  1  -0.00000000  0.50000000  0.50000000  1
  Fe  Fe31  1  -0.00000000  0.00000000  0.00000000  1
  O  O32  1  0.25117741  0.00000000  0.00000000  1
  O  O33  1  0.25209571  0.00000000  0.50000000  1
  O  O34  1  0.25209571  0.50000000  0.00000000  1
  O  O35  1  0.26254964  0.50000000  0.50000000  1
  O  O36  1  0.74882259  0.00000000  -0.00000000  1
  O  O37  1  0.74790429  0.00000000  0.50000000  1
  O  O38  1  0.74790429  0.50000000  -0.00000000  1
  O  O39  1  0.73745036  0.50000000  0.50000000  1
  O  O40  1  0.24972915  0.24972057  0.24972057  1
  O  O41  1  0.24972915  0.24972057  0.75027943  1
  O  O42  1  0.24972915  0.75027943  0.24972057  1
  O  O43  1  0.24972915  0.75027943  0.75027943  1
  O  O44  1  0.75027085  0.24972057  0.24972057  1
  O  O45  1  0.75027085  0.24972057  0.75027943  1
  O  O46  1  0.75027085  0.75027943  0.24972057  1
  O  O47  1  0.75027085  0.75027943  0.75027943  1
  O  O48  1  -0.00000000  0.00000000  0.25426873  1
  O  O49  1  -0.00000000  0.00000000  0.74573127  1
  O  O50  1  -0.00000000  0.50000000  0.23811451  1
  O  O51  1  -0.00000000  0.50000000  0.76188549  1
  O  O52  1  0.50000000  0.00000000  0.24919710  1
  O  O53  1  0.50000000  0.00000000  0.75080290  1
  O  O54  1  0.50000000  0.50000000  0.24827131  1
  O  O55  1  0.50000000  0.50000000  0.75172869  1
  O  O56  1  -0.00000000  0.25426873  -0.00000000  1
  O  O57  1  -0.00000000  0.23811451  0.50000000  1
  O  O58  1  -0.00000000  0.74573127  0.00000000  1
  O  O59  1  -0.00000000  0.76188549  0.50000000  1
  O  O60  1  0.50000000  0.24919710  0.00000000  1
  O  O61  1  0.50000000  0.24827131  0.50000000  1
  O  O62  1  0.50000000  0.75080290  -0.00000000  1
  O  O63  1  0.50000000  0.75172869  0.50000000  1
