# generated using pymatgen
data_YMg30ZnO32
_symmetry_space_group_name_H-M   'P 1'
_cell_length_a   8.61357123
_cell_length_b   8.61357123
_cell_length_c   8.62717669
_cell_angle_alpha   90.00000000
_cell_angle_beta   90.00000000
_cell_angle_gamma   90.00000000
_symmetry_Int_Tables_number   1
_chemical_formula_structural   YMg30ZnO32
_chemical_formula_sum   'Y1 Mg30 Zn1 O32'
_cell_volume   640.08137700
_cell_formula_units_Z   1
loop_
 _symmetry_equiv_pos_site_id
 _symmetry_equiv_pos_as_xyz
  1  'x, y, z'
loop_
 _atom_site_type_symbol
 _atom_site_label
 _atom_site_symmetry_multiplicity
 _atom_site_fract_x
 _atom_site_fract_y
 _atom_site_fract_z
 _atom_site_occupancy
  Y  Y0  1  -0.00000000  0.00000000  0.00000000  1
  Mg  Mg1  1  -0.00000000  0.50000000  0.00000000  1
  Mg  Mg2  1  -0.00000000  0.50000000  0.50000000  1
  Mg  Mg3  1  0.50000000  0.00000000  0.00000000  1
  Mg  Mg4  1  0.50000000  0.00000000  0.50000000  1
  Mg  Mg5  1  0.50000000  0.50000000  0.00000000  1
  Mg  Mg6  1  0.50000000  0.50000000  0.50000000  1
  Mg  Mg7  1  -0.00000000  0.25630622  0.25691428  1
  Mg  Mg8  1  -0.00000000  0.25630622  0.74308572  1
  Mg  Mg9  1  -0.00000000  0.74369378  0.25691428  1
  Mg  Mg10  1  -0.00000000  0.74369378  0.74308572  1
  Mg  Mg11  1  0.50000000  0.25071100  0.25110384  1
  Mg  Mg12  1  0.50000000  0.25071100  0.74889616  1
  Mg  Mg13  1  0.50000000  0.74928900  0.25110384  1
  Mg  Mg14  1  0.50000000  0.74928900  0.74889616  1
  Mg  Mg15  1  0.25630622  0.00000000  0.25691428  1
  Mg  Mg16  1  0.25630622  0.00000000  0.74308572  1
  Mg  Mg17  1  0.25071100  0.50000000  0.25110384  1
  Mg  Mg18  1  0.25071100  0.50000000  0.74889616  1
  Mg  Mg19  1  0.74369378  0.00000000  0.25691428  1
  Mg  Mg20  1  0.74369378  0.00000000  0.74308572  1
  Mg  Mg21  1  0.74928900  0.50000000  0.25110384  1
  Mg  Mg22  1  0.74928900  0.50000000  0.74889616  1
  Mg  Mg23  1  0.25634406  0.25634406  0.00000000  1
  Mg  Mg24  1  0.25052489  0.25052489  0.50000000  1
  Mg  Mg25  1  0.25634406  0.74365594  0.00000000  1
  Mg  Mg26  1  0.25052489  0.74947511  0.50000000  1
  Mg  Mg27  1  0.74365594  0.25634406  -0.00000000  1
  Mg  Mg28  1  0.74947511  0.25052489  0.50000000  1
  Mg  Mg29  1  0.74365594  0.74365594  -0.00000000  1
  Mg  Mg30  1  0.74947511  0.74947511  0.50000000  1
  Zn  Zn31  1  -0.00000000  0.00000000  0.50000000  1
  O  O32  1  0.25908097  0.00000000  0.00000000  1
  O  O33  1  0.25738907  0.00000000  0.50000000  1
  O  O34  1  0.25131874  0.50000000  0.00000000  1
  O  O35  1  0.25069508  0.50000000  0.50000000  1
  O  O36  1  0.74091903  0.00000000  -0.00000000  1
  O  O37  1  0.74261093  0.00000000  0.50000000  1
  O  O38  1  0.74868126  0.50000000  0.00000000  1
  O  O39  1  0.74930492  0.50000000  0.50000000  1
  O  O40  1  0.24921393  0.24921393  0.24914479  1
  O  O41  1  0.24921393  0.24921393  0.75085521  1
  O  O42  1  0.24921393  0.75078607  0.24914479  1
  O  O43  1  0.24921393  0.75078607  0.75085521  1
  O  O44  1  0.75078607  0.24921393  0.24914479  1
  O  O45  1  0.75078607  0.24921393  0.75085521  1
  O  O46  1  0.75078607  0.75078607  0.24914479  1
  O  O47  1  0.75078607  0.75078607  0.75085521  1
  O  O48  1  -0.00000000  0.00000000  0.25589876  1
  O  O49  1  -0.00000000  0.00000000  0.74410124  1
  O  O50  1  -0.00000000  0.50000000  0.25002746  1
  O  O51  1  -0.00000000  0.50000000  0.74997254  1
  O  O52  1  0.50000000  0.00000000  0.25002746  1
  O  O53  1  0.50000000  0.00000000  0.74997254  1
  O  O54  1  0.50000000  0.50000000  0.24942724  1
  O  O55  1  0.50000000  0.50000000  0.75057276  1
  O  O56  1  -0.00000000  0.25908097  0.00000000  1
  O  O57  1  -0.00000000  0.25738907  0.50000000  1
  O  O58  1  -0.00000000  0.74091903  0.00000000  1
  O  O59  1  -0.00000000  0.74261093  0.50000000  1
  O  O60  1  0.50000000  0.25131874  0.00000000  1
  O  O61  1  0.50000000  0.25069508  0.50000000  1
  O  O62  1  0.50000000  0.74868126  -0.00000000  1
  O  O63  1  0.50000000  0.74930492  0.50000000  1
