# generated using pymatgen
data_Al2FeO4
_symmetry_space_group_name_H-M   'P 1'
_cell_length_a   5.82476433
_cell_length_b   5.82476437
_cell_length_c   23.33214638
_cell_angle_alpha   60.04690144
_cell_angle_beta   60.04690123
_cell_angle_gamma   59.99999521
_symmetry_Int_Tables_number   1
_chemical_formula_structural   Al2FeO4
_chemical_formula_sum   'Al16 Fe8 O32'
_cell_volume   560.14944862
_cell_formula_units_Z   8
loop_
 _symmetry_equiv_pos_site_id
 _symmetry_equiv_pos_as_xyz
  1  'x, y, z'
loop_
 _atom_site_type_symbol
 _atom_site_label
 _atom_site_symmetry_multiplicity
 _atom_site_fract_x
 _atom_site_fract_y
 _atom_site_fract_z
 _atom_site_occupancy
  Al  Al0  1  0.49613312  0.00183052  0.12647581  1
  Al  Al1  1  0.49613312  0.49613312  0.12647581  1
  Al  Al2  1  0.49990666  0.49990666  0.25007000  1
  Al  Al3  1  0.50043806  0.99965063  0.37486831  1
  Al  Al4  1  0.00183052  0.49613312  0.12647581  1
  Al  Al5  1  0.50043806  0.50043806  0.37486831  1
  Al  Al6  1  0.50018101  0.50018101  0.49986424  1
  Al  Al7  1  0.50016951  0.00038886  0.62481803  1
  Al  Al8  1  0.99965063  0.50043806  0.37486831  1
  Al  Al9  1  0.50016951  0.50016951  0.62481803  1
  Al  Al10  1  0.00591229  0.49953144  0.87375621  1
  Al  Al11  1  0.50212172  0.50212172  0.74840871  1
  Al  Al12  1  0.49953144  0.00591229  0.87375621  1
  Al  Al13  1  0.00038886  0.50016951  0.62481803  1
  Al  Al14  1  0.49953144  0.49953144  0.87375621  1
  Al  Al15  1  0.87824946  0.87824946  0.96631291  1
  Fe  Fe16  1  0.12276316  0.12276316  0.03292763  1
  Fe  Fe17  1  0.49830176  0.49830176  0.00127368  1
  Fe  Fe18  1  0.12304715  0.12304715  0.28271464  1
  Fe  Fe19  1  0.12528622  0.12528622  0.53103533  1
  Fe  Fe20  1  0.12587090  0.12587090  0.78059682  1
  Fe  Fe21  1  0.87792344  0.87792344  0.21655742  1
  Fe  Fe22  1  0.87475077  0.87475077  0.46893692  1
  Fe  Fe23  1  0.87331205  0.87331205  0.72001596  1
  O  O24  1  0.24639094  0.24639094  0.07430132  1
  O  O25  1  0.24639094  0.71001286  0.07430132  1
  O  O26  1  0.26161263  0.26161263  0.17879053  1
  O  O27  1  0.71001286  0.24639094  0.07430132  1
  O  O28  1  0.26529716  0.26529716  0.31657697  1
  O  O29  1  0.30268753  0.73195396  0.18335114  1
  O  O30  1  0.74905173  0.74905173  0.06321120  1
  O  O31  1  0.26560730  0.26560730  0.42579453  1
  O  O32  1  0.26529716  0.70309778  0.31657697  1
  O  O33  1  0.73195396  0.30268753  0.18335114  1
  O  O34  1  0.73195396  0.73195396  0.18335114  1
  O  O35  1  0.70309778  0.26529716  0.31657697  1
  O  O36  1  0.26598444  0.26598444  0.56601325  1
  O  O37  1  0.29689714  0.73478683  0.43338230  1
  O  O38  1  0.73553730  0.73553730  0.32334703  1
  O  O39  1  0.26598444  0.70397814  0.56601325  1
  O  O40  1  0.26626860  0.26626860  0.67529855  1
  O  O41  1  0.73478683  0.29689714  0.43338230  1
  O  O42  1  0.70397814  0.26598444  0.56601325  1
  O  O43  1  0.73478683  0.73478683  0.43338230  1
  O  O44  1  0.26861967  0.26861967  0.81503352  1
  O  O45  1  0.29670707  0.73527465  0.68318591  1
  O  O46  1  0.73462758  0.73462758  0.57402932  1
  O  O47  1  0.26861967  0.70262659  0.81503352  1
  O  O48  1  0.26479712  0.26479712  0.92640216  1
  O  O49  1  0.73527465  0.29670707  0.68318591  1
  O  O50  1  0.70262659  0.26861967  0.81503352  1
  O  O51  1  0.73527465  0.73527465  0.68318591  1
  O  O52  1  0.26098610  0.75917677  0.93016509  1
  O  O53  1  0.72849483  0.72849483  0.82862888  1
  O  O54  1  0.75917677  0.26098610  0.93016509  1
  O  O55  1  0.75917677  0.75917677  0.93016509  1
