# generated using pymatgen
data_CaMg5
_symmetry_space_group_name_H-M   'P 1'
_cell_length_a   5.65936910
_cell_length_b   5.65936853
_cell_length_c   16.85633374
_cell_angle_alpha   90.00000000
_cell_angle_beta   90.00000000
_cell_angle_gamma   119.99999749
_symmetry_Int_Tables_number   1
_chemical_formula_structural   CaMg5
_chemical_formula_sum   'Ca3 Mg15'
_cell_volume   467.55182734
_cell_formula_units_Z   3
loop_
 _symmetry_equiv_pos_site_id
 _symmetry_equiv_pos_as_xyz
  1  'x, y, z'
loop_
 _atom_site_type_symbol
 _atom_site_label
 _atom_site_symmetry_multiplicity
 _atom_site_fract_x
 _atom_site_fract_y
 _atom_site_fract_z
 _atom_site_occupancy
  Ca  Ca0  1  0.00000000  -0.00000000  0.50000000  1
  Ca  Ca1  1  0.66666700  0.33333300  0.83333300  1
  Ca  Ca2  1  0.33333300  0.66666700  0.16666700  1
  Mg  Mg3  1  0.33333300  0.99549019  0.66666700  1
  Mg  Mg4  1  0.33333300  0.66666700  0.50078402  1
  Mg  Mg5  1  0.00450981  0.33784281  0.66666700  1
  Mg  Mg6  1  0.66215719  0.66666700  0.66666700  1
  Mg  Mg7  1  0.66666700  0.33333300  0.49921598  1
  Mg  Mg8  1  0.00000000  0.32882319  0.00000000  1
  Mg  Mg9  1  0.00000000  -0.00000000  0.83411702  1
  Mg  Mg10  1  0.67117681  0.67117681  0.00000000  1
  Mg  Mg11  1  0.32882319  1.00000000  0.00000000  1
  Mg  Mg12  1  0.33333300  0.66666700  0.83254898  1
  Mg  Mg13  1  0.66666700  0.66215719  0.33333300  1
  Mg  Mg14  1  0.66666700  0.33333300  0.16745102  1
  Mg  Mg15  1  0.33784281  0.00450981  0.33333300  1
  Mg  Mg16  1  0.99549019  0.33333300  0.33333300  1
  Mg  Mg17  1  0.00000000  -0.00000000  0.16588298  1
