# generated using pymatgen
data_Mg30NbCrO32
_symmetry_space_group_name_H-M   'P 1'
_cell_length_a   8.61479287
_cell_length_b   8.53832510
_cell_length_c   8.53832510
_cell_angle_alpha   90.00000000
_cell_angle_beta   90.00000000
_cell_angle_gamma   90.00000000
_symmetry_Int_Tables_number   1
_chemical_formula_structural   Mg30NbCrO32
_chemical_formula_sum   'Mg30 Nb1 Cr1 O32'
_cell_volume   628.04420595
_cell_formula_units_Z   1
loop_
 _symmetry_equiv_pos_site_id
 _symmetry_equiv_pos_as_xyz
  1  'x, y, z'
loop_
 _atom_site_type_symbol
 _atom_site_label
 _atom_site_symmetry_multiplicity
 _atom_site_fract_x
 _atom_site_fract_y
 _atom_site_fract_z
 _atom_site_occupancy
  Mg  Mg0  1  0.00000000  -0.00000000  0.50000000  1
  Mg  Mg1  1  0.00000000  0.50000000  -0.00000000  1
  Mg  Mg2  1  0.50000000  -0.00000000  0.00000000  1
  Mg  Mg3  1  0.50000000  -0.00000000  0.50000000  1
  Mg  Mg4  1  0.50000000  0.50000000  -0.00000000  1
  Mg  Mg5  1  0.50000000  0.50000000  0.50000000  1
  Mg  Mg6  1  0.00000000  0.25100675  0.25100675  1
  Mg  Mg7  1  0.00000000  0.25100675  0.74899325  1
  Mg  Mg8  1  0.00000000  0.74899325  0.25100675  1
  Mg  Mg9  1  0.00000000  0.74899325  0.74899325  1
  Mg  Mg10  1  0.50000000  0.25029874  0.25029874  1
  Mg  Mg11  1  0.50000000  0.25029874  0.74970126  1
  Mg  Mg12  1  0.50000000  0.74970126  0.25029874  1
  Mg  Mg13  1  0.50000000  0.74970126  0.74970126  1
  Mg  Mg14  1  0.25221752  0.00000000  0.25202552  1
  Mg  Mg15  1  0.25221752  -0.00000000  0.74797448  1
  Mg  Mg16  1  0.25202402  0.50000000  0.25074849  1
  Mg  Mg17  1  0.25202402  0.50000000  0.74925151  1
  Mg  Mg18  1  0.74778248  0.00000000  0.25202552  1
  Mg  Mg19  1  0.74778248  -0.00000000  0.74797448  1
  Mg  Mg20  1  0.74797598  0.50000000  0.25074849  1
  Mg  Mg21  1  0.74797598  0.50000000  0.74925151  1
  Mg  Mg22  1  0.25221752  0.25202552  0.00000000  1
  Mg  Mg23  1  0.25202402  0.25074849  0.50000000  1
  Mg  Mg24  1  0.25221752  0.74797448  0.00000000  1
  Mg  Mg25  1  0.25202402  0.74925151  0.50000000  1
  Mg  Mg26  1  0.74778248  0.25202552  -0.00000000  1
  Mg  Mg27  1  0.74797598  0.25074849  0.50000000  1
  Mg  Mg28  1  0.74778248  0.74797448  0.00000000  1
  Mg  Mg29  1  0.74797598  0.74925151  0.50000000  1
  Nb  Nb30  1  0.00000000  0.00000000  -0.00000000  1
  Cr  Cr31  1  0.00000000  0.50000000  0.50000000  1
  O  O32  1  0.26202753  -0.00000000  -0.00000000  1
  O  O33  1  0.25116983  -0.00000000  0.50000000  1
  O  O34  1  0.25116983  0.50000000  -0.00000000  1
  O  O35  1  0.26531747  0.50000000  0.50000000  1
  O  O36  1  0.73797247  0.00000000  0.00000000  1
  O  O37  1  0.74883017  0.00000000  0.50000000  1
  O  O38  1  0.74883017  0.50000000  0.00000000  1
  O  O39  1  0.73468253  0.50000000  0.50000000  1
  O  O40  1  0.24914504  0.24981463  0.24981463  1
  O  O41  1  0.24914504  0.24981463  0.75018537  1
  O  O42  1  0.24914504  0.75018537  0.24981463  1
  O  O43  1  0.24914504  0.75018537  0.75018537  1
  O  O44  1  0.75085496  0.24981463  0.24981463  1
  O  O45  1  0.75085496  0.24981463  0.75018537  1
  O  O46  1  0.75085496  0.75018537  0.24981463  1
  O  O47  1  0.75085496  0.75018537  0.75018537  1
  O  O48  1  0.00000000  -0.00000000  0.26278749  1
  O  O49  1  0.00000000  0.00000000  0.73721251  1
  O  O50  1  0.00000000  0.50000000  0.25058648  1
  O  O51  1  0.00000000  0.50000000  0.74941352  1
  O  O52  1  0.50000000  0.00000000  0.25113724  1
  O  O53  1  0.50000000  -0.00000000  0.74886276  1
  O  O54  1  0.50000000  0.50000000  0.24765328  1
  O  O55  1  0.50000000  0.50000000  0.75234672  1
  O  O56  1  0.00000000  0.26278749  -0.00000000  1
  O  O57  1  0.00000000  0.25058648  0.50000000  1
  O  O58  1  0.00000000  0.73721251  0.00000000  1
  O  O59  1  0.00000000  0.74941352  0.50000000  1
  O  O60  1  0.50000000  0.25113724  0.00000000  1
  O  O61  1  0.50000000  0.24765328  0.50000000  1
  O  O62  1  0.50000000  0.74886276  0.00000000  1
  O  O63  1  0.50000000  0.75234672  0.50000000  1
