# generated using pymatgen
data_YMg30FeO32
_symmetry_space_group_name_H-M   'P 1'
_cell_length_a   8.60625538
_cell_length_b   8.63045887
_cell_length_c   8.63045887
_cell_angle_alpha   90.00000000
_cell_angle_beta   90.00000000
_cell_angle_gamma   90.00000000
_symmetry_Int_Tables_number   1
_chemical_formula_structural   YMg30FeO32
_chemical_formula_sum   'Y1 Mg30 Fe1 O32'
_cell_volume   641.03538549
_cell_formula_units_Z   1
loop_
 _symmetry_equiv_pos_site_id
 _symmetry_equiv_pos_as_xyz
  1  'x, y, z'
loop_
 _atom_site_type_symbol
 _atom_site_label
 _atom_site_symmetry_multiplicity
 _atom_site_fract_x
 _atom_site_fract_y
 _atom_site_fract_z
 _atom_site_occupancy
  Y  Y0  1  0.00000000  0.00000000  0.00000000  1
  Mg  Mg1  1  0.00000000  0.00000000  0.50000000  1
  Mg  Mg2  1  0.00000000  0.50000000  0.00000000  1
  Mg  Mg3  1  0.50000000  0.00000000  0.00000000  1
  Mg  Mg4  1  0.50000000  0.00000000  0.50000000  1
  Mg  Mg5  1  0.50000000  0.50000000  0.00000000  1
  Mg  Mg6  1  0.50000000  0.50000000  0.50000000  1
  Mg  Mg7  1  0.00000000  0.25719165  0.25719165  1
  Mg  Mg8  1  0.00000000  0.25719165  0.74280835  1
  Mg  Mg9  1  0.00000000  0.74280835  0.25719165  1
  Mg  Mg10  1  0.00000000  0.74280835  0.74280835  1
  Mg  Mg11  1  0.50000000  0.25098744  0.25098744  1
  Mg  Mg12  1  0.50000000  0.25098744  0.74901256  1
  Mg  Mg13  1  0.50000000  0.74901256  0.25098744  1
  Mg  Mg14  1  0.50000000  0.74901256  0.74901256  1
  Mg  Mg15  1  0.25629424  0.00000000  0.25656725  1
  Mg  Mg16  1  0.25629424  0.00000000  0.74343275  1
  Mg  Mg17  1  0.25111388  0.50000000  0.25002016  1
  Mg  Mg18  1  0.25111388  0.50000000  0.74997984  1
  Mg  Mg19  1  0.74370576  0.00000000  0.25656725  1
  Mg  Mg20  1  0.74370576  0.00000000  0.74343275  1
  Mg  Mg21  1  0.74888612  0.50000000  0.25002016  1
  Mg  Mg22  1  0.74888612  0.50000000  0.74997984  1
  Mg  Mg23  1  0.25629424  0.25656725  0.00000000  1
  Mg  Mg24  1  0.25111388  0.25002016  0.50000000  1
  Mg  Mg25  1  0.25629424  0.74343275  0.00000000  1
  Mg  Mg26  1  0.25111388  0.74997984  0.50000000  1
  Mg  Mg27  1  0.74370576  0.25656725  0.00000000  1
  Mg  Mg28  1  0.74888612  0.25002016  0.50000000  1
  Mg  Mg29  1  0.74370576  0.74343275  0.00000000  1
  Mg  Mg30  1  0.74888612  0.74997984  0.50000000  1
  Fe  Fe31  1  0.00000000  0.50000000  0.50000000  1
  O  O32  1  0.25914956  0.00000000  0.00000000  1
  O  O33  1  0.25254110  0.00000000  0.50000000  1
  O  O34  1  0.25254110  0.50000000  0.00000000  1
  O  O35  1  0.25083982  0.50000000  0.50000000  1
  O  O36  1  0.74085044  0.00000000  0.00000000  1
  O  O37  1  0.74745890  0.00000000  0.50000000  1
  O  O38  1  0.74745890  0.50000000  0.00000000  1
  O  O39  1  0.74916018  0.50000000  0.50000000  1
  O  O40  1  0.24955183  0.24992200  0.24992200  1
  O  O41  1  0.24955183  0.24992200  0.75007800  1
  O  O42  1  0.24955183  0.75007800  0.24992200  1
  O  O43  1  0.24955183  0.75007800  0.75007800  1
  O  O44  1  0.75044817  0.24992200  0.24992200  1
  O  O45  1  0.75044817  0.24992200  0.75007800  1
  O  O46  1  0.75044817  0.75007800  0.24992200  1
  O  O47  1  0.75044817  0.75007800  0.75007800  1
  O  O48  1  0.00000000  0.00000000  0.25837668  1
  O  O49  1  0.00000000  0.00000000  0.74162332  1
  O  O50  1  0.00000000  0.50000000  0.24456233  1
  O  O51  1  0.00000000  0.50000000  0.75543767  1
  O  O52  1  0.50000000  0.00000000  0.25111805  1
  O  O53  1  0.50000000  0.00000000  0.74888195  1
  O  O54  1  0.50000000  0.50000000  0.25013814  1
  O  O55  1  0.50000000  0.50000000  0.74986186  1
  O  O56  1  0.00000000  0.25837668  0.00000000  1
  O  O57  1  0.00000000  0.24456233  0.50000000  1
  O  O58  1  0.00000000  0.74162332  0.00000000  1
  O  O59  1  0.00000000  0.75543767  0.50000000  1
  O  O60  1  0.50000000  0.25111805  0.00000000  1
  O  O61  1  0.50000000  0.25013814  0.50000000  1
  O  O62  1  0.50000000  0.74888195  0.00000000  1
  O  O63  1  0.50000000  0.74986186  0.50000000  1
