# generated using pymatgen
data_AgCSN
_symmetry_space_group_name_H-M   'P 1'
_cell_length_a   4.22133649
_cell_length_b   7.17241257
_cell_length_c   11.40674794
_cell_angle_alpha   90.00000000
_cell_angle_beta   90.00000000
_cell_angle_gamma   90.00000000
_symmetry_Int_Tables_number   1
_chemical_formula_structural   AgCSN
_chemical_formula_sum   'Ag4 C4 S4 N4'
_cell_volume   345.36401120
_cell_formula_units_Z   4
loop_
 _symmetry_equiv_pos_site_id
 _symmetry_equiv_pos_as_xyz
  1  'x, y, z'
loop_
 _atom_site_type_symbol
 _atom_site_label
 _atom_site_symmetry_multiplicity
 _atom_site_fract_x
 _atom_site_fract_y
 _atom_site_fract_z
 _atom_site_occupancy
  Ag  Ag0  1  0.50000000  0.31978195  0.65309304  1
  Ag  Ag1  1  0.00000000  0.81978195  0.84690696  1
  Ag  Ag2  1  0.50000000  0.68021805  0.34690696  1
  Ag  Ag3  1  0.00000000  0.18021805  0.15309304  1
  C  C4  1  0.00000000  0.33979996  0.87818595  1
  C  C5  1  0.00000000  0.66020004  0.12181405  1
  C  C6  1  0.50000000  0.16020004  0.37818595  1
  C  C7  1  0.50000000  0.83979996  0.62181405  1
  S  S8  1  0.00000000  0.45864337  0.75374937  1
  S  S9  1  0.50000000  0.04135663  0.25374937  1
  S  S10  1  0.50000000  0.95864337  0.74625063  1
  S  S11  1  0.00000000  0.54135663  0.24625063  1
  N  N12  1  0.00000000  0.25335912  0.96594198  1
  N  N13  1  0.50000000  0.24664088  0.46594198  1
  N  N14  1  0.50000000  0.75335912  0.53405802  1
  N  N15  1  0.00000000  0.74664088  0.03405802  1
