# generated using pymatgen
data_Zn2Sn3O8
_symmetry_space_group_name_H-M   'P 1'
_cell_length_a   6.33491001
_cell_length_b   6.33491029
_cell_length_c   9.50612071
_cell_angle_alpha   90.00000000
_cell_angle_beta   90.00000000
_cell_angle_gamma   119.99999859
_symmetry_Int_Tables_number   1
_chemical_formula_structural   Zn2Sn3O8
_chemical_formula_sum   'Zn4 Sn6 O16'
_cell_volume   330.38086177
_cell_formula_units_Z   2
loop_
 _symmetry_equiv_pos_site_id
 _symmetry_equiv_pos_as_xyz
  1  'x, y, z'
loop_
 _atom_site_type_symbol
 _atom_site_label
 _atom_site_symmetry_multiplicity
 _atom_site_fract_x
 _atom_site_fract_y
 _atom_site_fract_z
 _atom_site_occupancy
  Zn  Zn0  1  0.66666700  0.33333400  0.04011664  1
  Zn  Zn1  1  0.33333300  0.66666600  0.54011764  1
  Zn  Zn2  1  0.66666700  0.33333400  0.40455403  1
  Zn  Zn3  1  0.33333300  0.66666600  0.90455503  1
  Sn  Sn4  1  0.67184794  0.83592497  0.24467246  1
  Sn  Sn5  1  0.83592597  0.16407603  0.74467246  1
  Sn  Sn6  1  0.16407603  0.32815306  0.24467246  1
  Sn  Sn7  1  0.83592397  0.67184794  0.74467246  1
  Sn  Sn8  1  0.32815306  0.16407603  0.74467246  1
  Sn  Sn9  1  0.16407603  0.83592497  0.24467246  1
  O  O10  1  0.83352238  0.16647862  0.13956285  1
  O  O11  1  0.66704275  0.83352238  0.63956185  1
  O  O12  1  0.16647862  0.33295825  0.63956185  1
  O  O13  1  0.83352138  0.66704275  0.13956285  1
  O  O14  1  0.33295725  0.16647862  0.13956285  1
  O  O15  1  0.16647862  0.83352238  0.63956185  1
  O  O16  1  0.51638364  0.48361536  0.87045470  1
  O  O17  1  0.03276828  0.51638364  0.37045370  1
  O  O18  1  0.48361636  0.96723272  0.37045370  1
  O  O19  1  0.51638364  0.03276828  0.87045470  1
  O  O20  1  0.00000000  0.00000000  0.35801834  1
  O  O21  1  0.00000000  0.00000000  0.85801834  1
  O  O22  1  0.33333300  0.66666600  0.12674496  1
  O  O23  1  0.96723072  0.48361536  0.87045470  1
  O  O24  1  0.48361536  0.51638364  0.37045370  1
  O  O25  1  0.66666700  0.33333400  0.62674496  1
