# generated using pymatgen
data_Mg(NiO2)2
_symmetry_space_group_name_H-M   'P 1'
_cell_length_a   5.86804721
_cell_length_b   5.87595620
_cell_length_c   5.87595605
_cell_angle_alpha   59.99999865
_cell_angle_beta   59.95540559
_cell_angle_gamma   59.95540948
_symmetry_Int_Tables_number   1
_chemical_formula_structural   Mg(NiO2)2
_chemical_formula_sum   'Mg2 Ni4 O8'
_cell_volume   143.16690464
_cell_formula_units_Z   2
loop_
 _symmetry_equiv_pos_site_id
 _symmetry_equiv_pos_as_xyz
  1  'x, y, z'
loop_
 _atom_site_type_symbol
 _atom_site_label
 _atom_site_symmetry_multiplicity
 _atom_site_fract_x
 _atom_site_fract_y
 _atom_site_fract_z
 _atom_site_occupancy
  Mg  Mg0  1  0.97377351  0.00874216  0.00874216  1
  Mg  Mg1  1  0.12402513  0.62532496  0.62532496  1
  Ni  Ni2  1  0.26966066  0.24344678  0.24344678  1
  Ni  Ni3  1  0.62344330  0.11722849  0.62966361  1
  Ni  Ni4  1  0.62344330  0.62966361  0.11722849  1
  Ni  Ni5  1  0.62344330  0.62966361  0.62966361  1
  O  O6  1  0.40594586  0.37533974  0.37533974  1
  O  O7  1  0.40594586  0.37533974  0.84337365  1
  O  O8  1  0.40594586  0.84337365  0.37533974  1
  O  O9  1  0.88857978  0.37047307  0.37047307  1
  O  O10  1  0.37911336  0.87362821  0.87362821  1
  O  O11  1  0.84222603  0.41932131  0.86922633  1
  O  O12  1  0.84222603  0.86922633  0.41932131  1
  O  O13  1  0.84222603  0.86922633  0.86922633  1
