# generated using pymatgen
data_Fe2NiO4
_symmetry_space_group_name_H-M   'P 1'
_cell_length_a   5.99315967
_cell_length_b   6.02459818
_cell_length_c   23.97877678
_cell_angle_alpha   59.83484687
_cell_angle_beta   60.23981060
_cell_angle_gamma   59.82631755
_symmetry_Int_Tables_number   1
_chemical_formula_structural   Fe2NiO4
_chemical_formula_sum   'Fe16 Ni8 O32'
_cell_volume   611.72456945
_cell_formula_units_Z   8
loop_
 _symmetry_equiv_pos_site_id
 _symmetry_equiv_pos_as_xyz
  1  'x, y, z'
loop_
 _atom_site_type_symbol
 _atom_site_label
 _atom_site_symmetry_multiplicity
 _atom_site_fract_x
 _atom_site_fract_y
 _atom_site_fract_z
 _atom_site_occupancy
  Fe  Fe0  1  0.25959733  0.24700198  0.06159968  1
  Fe  Fe1  1  0.63127784  0.12361489  0.15417249  1
  Fe  Fe2  1  0.25724928  0.25023436  0.31057050  1
  Fe  Fe3  1  0.99133640  0.00273140  0.50080020  1
  Fe  Fe4  1  0.62919195  0.62540559  0.02999922  1
  Fe  Fe5  1  0.63127784  0.62841730  0.15417249  1
  Fe  Fe6  1  0.62188444  0.12226636  0.40728490  1
  Fe  Fe7  1  0.25481711  0.24692413  0.56283366  1
  Fe  Fe8  1  0.99461451  0.00223029  0.75023123  1
  Fe  Fe9  1  0.63017919  0.62944466  0.27773287  1
  Fe  Fe10  1  0.62188444  0.62670960  0.40728490  1
  Fe  Fe11  1  0.62434399  0.12388812  0.65693165  1
  Fe  Fe12  1  0.25488394  0.24524829  0.81365487  1
  Fe  Fe13  1  0.62434399  0.62404131  0.65693165  1
  Fe  Fe14  1  0.62817360  0.11937077  0.90737965  1
  Fe  Fe15  1  0.62817360  0.62293705  0.90737965  1
  Ni  Ni16  1  0.99872585  0.00185025  0.99939341  1
  Ni  Ni17  1  0.99533464  0.99909515  0.25161876  1
  Ni  Ni18  1  0.12376238  0.62811322  0.15500279  1
  Ni  Ni19  1  0.12076497  0.62639811  0.40660970  1
  Ni  Ni20  1  0.12432911  0.62438224  0.65672660  1
  Ni  Ni21  1  0.62620014  0.62409308  0.53140343  1
  Ni  Ni22  1  0.12260462  0.62354350  0.90757709  1
  Ni  Ni23  1  0.62215832  0.62313530  0.78289277  1
  O  O24  1  0.39386157  0.38686391  0.09181997  1
  O  O25  1  0.39386157  0.85199464  0.09181997  1
  O  O26  1  0.38997028  0.37987544  0.21256971  1
  O  O27  1  0.38584545  0.38392960  0.34363826  1
  O  O28  1  0.85627559  0.38539603  0.09323309  1
  O  O29  1  0.40442917  0.87091671  0.21343435  1
  O  O30  1  0.38584545  0.85567190  0.34363826  1
  O  O31  1  0.86011550  0.40275915  0.21645436  1
  O  O32  1  0.38503320  0.38235423  0.46256459  1
  O  O33  1  0.85642120  0.87237598  0.09970671  1
  O  O34  1  0.38807761  0.87302984  0.46646568  1
  O  O35  1  0.85336143  0.38302747  0.34514591  1
  O  O36  1  0.39553800  0.36928181  0.59393728  1
  O  O37  1  0.86011550  0.87130789  0.21645436  1
  O  O38  1  0.39553800  0.85943109  0.59393728  1
  O  O39  1  0.37543847  0.38712294  0.71257891  1
  O  O40  1  0.84755043  0.86847439  0.35387520  1
  O  O41  1  0.86371753  0.39188626  0.46732804  1
  O  O42  1  0.85519388  0.37777599  0.59731354  1
  O  O43  1  0.86371753  0.87508405  0.46732804  1
  O  O44  1  0.38223595  0.37185163  0.84752985  1
  O  O45  1  0.39451313  0.87258615  0.71507864  1
  O  O46  1  0.85569720  0.39066848  0.71832924  1
  O  O47  1  0.38965473  0.37745639  0.96385812  1
  O  O48  1  0.38223595  0.85579303  0.84752985  1
  O  O49  1  0.87331872  0.86124472  0.60104796  1
  O  O50  1  0.41501878  0.85749435  0.96749813  1
  O  O51  1  0.85569720  0.88031737  0.71832924  1
  O  O52  1  0.85848122  0.37333912  0.84871013  1
  O  O53  1  0.85099927  0.40665231  0.97002465  1
  O  O54  1  0.86413175  0.87071039  0.84861187  1
  O  O55  1  0.85099927  0.86224982  0.97002465  1
