# generated using pymatgen
data_ZnCu(GeO3)2
_symmetry_space_group_name_H-M   'P 1'
_cell_length_a   5.40642780
_cell_length_b   7.03828547
_cell_length_c   7.03828563
_cell_angle_alpha   86.09151506
_cell_angle_beta   74.81139977
_cell_angle_gamma   74.81138400
_symmetry_Int_Tables_number   1
_chemical_formula_structural   ZnCu(GeO3)2
_chemical_formula_sum   'Zn2 Cu2 Ge4 O12'
_cell_volume   249.43677955
_cell_formula_units_Z   2
loop_
 _symmetry_equiv_pos_site_id
 _symmetry_equiv_pos_as_xyz
  1  'x, y, z'
loop_
 _atom_site_type_symbol
 _atom_site_label
 _atom_site_symmetry_multiplicity
 _atom_site_fract_x
 _atom_site_fract_y
 _atom_site_fract_z
 _atom_site_occupancy
  Zn  Zn0  1  0.75000000  0.23741201  0.76258799  1
  Zn  Zn1  1  0.25000000  0.76258799  0.23741201  1
  Cu  Cu2  1  0.75000000  0.89297346  0.10702654  1
  Cu  Cu3  1  0.25000000  0.10702654  0.89297346  1
  Ge  Ge4  1  0.75685829  0.38650431  0.20874246  1
  Ge  Ge5  1  0.74314171  0.79125754  0.61349569  1
  Ge  Ge6  1  0.24314171  0.61349569  0.79125754  1
  Ge  Ge7  1  0.25685829  0.20874246  0.38650431  1
  O  O8  1  0.52405785  0.30375627  0.40444746  1
  O  O9  1  0.97594215  0.59555254  0.69624373  1
  O  O10  1  0.47594215  0.69624373  0.59555254  1
  O  O11  1  0.02405785  0.40444746  0.30375627  1
  O  O12  1  0.11502236  0.13365679  0.62291110  1
  O  O13  1  0.38497764  0.37708890  0.86634321  1
  O  O14  1  0.88497764  0.86634321  0.37708890  1
  O  O15  1  0.61502236  0.62291110  0.13365679  1
  O  O16  1  0.87966938  0.20164058  0.02143099  1
  O  O17  1  0.62033061  0.97856901  0.79835942  1
  O  O18  1  0.12033062  0.79835942  0.97856901  1
  O  O19  1  0.37966939  0.02143099  0.20164058  1
