# generated using pymatgen
data_CaCr(GeO3)2
_symmetry_space_group_name_H-M   'P 1'
_cell_length_a   5.31311200
_cell_length_b   9.42715442
_cell_length_c   10.40692282
_cell_angle_alpha   90.00000000
_cell_angle_beta   104.86592762
_cell_angle_gamma   90.00000000
_symmetry_Int_Tables_number   1
_chemical_formula_structural   CaCr(GeO3)2
_chemical_formula_sum   'Ca4 Cr4 Ge8 O24'
_cell_volume   503.80994275
_cell_formula_units_Z   4
loop_
 _symmetry_equiv_pos_site_id
 _symmetry_equiv_pos_as_xyz
  1  'x, y, z'
loop_
 _atom_site_type_symbol
 _atom_site_label
 _atom_site_symmetry_multiplicity
 _atom_site_fract_x
 _atom_site_fract_y
 _atom_site_fract_z
 _atom_site_occupancy
  Ca  Ca0  1  0.47761295  0.44898839  0.28303332  1
  Ca  Ca1  1  0.02238705  0.94898839  0.71696668  1
  Ca  Ca2  1  0.52238705  0.55101161  0.71696668  1
  Ca  Ca3  1  0.97761295  0.05101161  0.28303332  1
  Cr  Cr4  1  0.97675086  0.65834479  0.22880260  1
  Cr  Cr5  1  0.52324914  0.15834479  0.77119740  1
  Cr  Cr6  1  0.02324914  0.34165521  0.77119740  1
  Cr  Cr7  1  0.47675086  0.84165521  0.22880260  1
  Ge  Ge8  1  0.83838756  0.34799793  0.05042483  1
  Ge  Ge9  1  0.66161244  0.84799793  0.94957517  1
  Ge  Ge10  1  0.16161244  0.65200207  0.94957517  1
  Ge  Ge11  1  0.33838756  0.15200207  0.05042483  1
  Ge  Ge12  1  0.09336086  0.35168566  0.49142467  1
  Ge  Ge13  1  0.40663914  0.85168566  0.50857533  1
  Ge  Ge14  1  0.90663914  0.64831434  0.50857533  1
  Ge  Ge15  1  0.59336086  0.14831434  0.49142467  1
  O  O16  1  0.31352700  0.24965119  0.40151050  1
  O  O17  1  0.18647300  0.74965119  0.59848950  1
  O  O18  1  0.68647300  0.75034881  0.59848950  1
  O  O19  1  0.81352700  0.25034881  0.40151050  1
  O  O20  1  0.18620611  0.30781474  0.10278513  1
  O  O21  1  0.31379389  0.80781474  0.89721587  1
  O  O22  1  0.81379389  0.69218526  0.89721587  1
  O  O23  1  0.68620611  0.19218526  0.10278513  1
  O  O24  1  0.66967576  0.97878732  0.43233272  1
  O  O25  1  0.83032424  0.47878732  0.56766728  1
  O  O26  1  0.33032424  0.02121268  0.56766728  1
  O  O27  1  0.16967576  0.52121268  0.43233272  1
  O  O28  1  0.27084141  0.01911174  0.15078006  1
  O  O29  1  0.22915859  0.51911174  0.84921994  1
  O  O30  1  0.72915859  0.98088826  0.84921994  1
  O  O31  1  0.77084141  0.48088826  0.15078006  1
  O  O32  1  0.74913924  0.36557351  0.87755166  1
  O  O33  1  0.75086076  0.86557351  0.12244834  1
  O  O34  1  0.25086076  0.63442649  0.12244834  1
  O  O35  1  0.24913924  0.13442649  0.87755166  1
  O  O36  1  0.28737315  0.32451398  0.65726988  1
  O  O37  1  0.21262685  0.82451398  0.34273012  1
  O  O38  1  0.71262685  0.67548602  0.34273012  1
  O  O39  1  0.78737315  0.17548602  0.65726988  1
