# generated using pymatgen
data_Cr2P2O9
_symmetry_space_group_name_H-M   'P 1'
_cell_length_a   6.35474883
_cell_length_b   7.75627355
_cell_length_c   13.77809811
_cell_angle_alpha   90.03920259
_cell_angle_beta   89.99969710
_cell_angle_gamma   89.99953723
_symmetry_Int_Tables_number   1
_chemical_formula_structural   Cr2P2O9
_chemical_formula_sum   'Cr8 P8 O36'
_cell_volume   679.11086463
_cell_formula_units_Z   4
loop_
 _symmetry_equiv_pos_site_id
 _symmetry_equiv_pos_as_xyz
  1  'x, y, z'
loop_
 _atom_site_type_symbol
 _atom_site_label
 _atom_site_symmetry_multiplicity
 _atom_site_fract_x
 _atom_site_fract_y
 _atom_site_fract_z
 _atom_site_occupancy
  Cr  Cr0  1  0.75000538  0.34853558  0.88171997  1
  Cr  Cr1  1  0.24998688  0.65142490  0.11832525  1
  Cr  Cr2  1  0.24997792  0.84886333  0.61834649  1
  Cr  Cr3  1  0.75000397  0.15117272  0.38175142  1
  Cr  Cr4  1  0.49998758  0.00003805  0.00002958  1
  Cr  Cr5  1  0.50005810  0.49998828  0.49998888  1
  Cr  Cr6  1  -0.00002914  0.50002592  0.49999261  1
  Cr  Cr7  1  0.99996940  0.00006715  0.00002060  1
  P  P8  1  0.24997402  0.34755742  0.93787542  1
  P  P9  1  0.75001743  0.65243397  0.06212639  1
  P  P10  1  0.75000759  0.84766626  0.56208444  1
  P  P11  1  0.24999582  0.15238418  0.43787934  1
  P  P12  1  0.75000009  0.39340613  0.69218118  1
  P  P13  1  0.74999457  0.10661412  0.19227152  1
  P  P14  1  0.25000965  0.89330237  0.80773744  1
  P  P15  1  0.25002686  0.60653361  0.30779491  1
  O  O16  1  0.05039352  0.59475956  0.37104037  1
  O  O17  1  0.55040749  0.40520712  0.62893761  1
  O  O18  1  0.94957387  0.09486093  0.12905310  1
  O  O19  1  0.44952630  0.90511385  0.87103191  1
  O  O20  1  0.94960375  0.40517655  0.62892518  1
  O  O21  1  0.44962943  0.59471897  0.37103518  1
  O  O22  1  0.05046045  0.90509293  0.87102764  1
  O  O23  1  0.55043134  0.09488873  0.12905666  1
  O  O24  1  0.25002069  0.33830106  0.48599620  1
  O  O25  1  0.74999592  0.66175283  0.51399280  1
  O  O26  1  0.74999302  0.83823879  0.01400891  1
  O  O27  1  0.24996352  0.16181028  0.98605423  1
  O  O28  1  0.74999044  0.14533626  0.95162367  1
  O  O29  1  0.25000457  0.85471529  0.04846485  1
  O  O30  1  0.25001941  0.64535878  0.54829954  1
  O  O31  1  0.75001709  0.35464744  0.45162217  1
  O  O32  1  0.74998224  0.22625944  0.75578306  1
  O  O33  1  0.25001528  0.77372470  0.24421010  1
  O  O34  1  0.25000612  0.72612302  0.74392147  1
  O  O35  1  0.75001326  0.27369326  0.25605520  1
  O  O36  1  0.44595765  0.13901585  0.37519249  1
  O  O37  1  0.94592519  0.86105178  0.62473947  1
  O  O38  1  0.55406814  0.63929354  0.12479638  1
  O  O39  1  0.05408377  0.36072358  0.87518286  1
  O  O40  1  0.55404951  0.86105759  0.62474216  1
  O  O41  1  0.05407964  0.13903445  0.37519841  1
  O  O42  1  0.44590453  0.36071891  0.87518824  1
  O  O43  1  0.94591366  0.63929485  0.12480775  1
  O  O44  1  0.75000018  0.51541684  0.98121095  1
  O  O45  1  0.25000663  0.03019565  0.72506017  1
  O  O46  1  0.24998605  0.46976594  0.22493821  1
  O  O47  1  0.75000516  0.53016231  0.77502038  1
  O  O48  1  0.74999700  0.98449982  0.48112838  1
  O  O49  1  0.25000112  0.01556285  0.51884194  1
  O  O50  1  0.24998043  0.48460615  0.01875285  1
  O  O51  1  0.75002353  0.96980312  0.27493209  1
