# generated using pymatgen
data_CaV2O4
_symmetry_space_group_name_H-M   'P 1'
_cell_length_a   6.27113512
_cell_length_b   6.27646763
_cell_length_c   19.02601820
_cell_angle_alpha   60.33631781
_cell_angle_beta   60.47394598
_cell_angle_gamma   59.95103903
_symmetry_Int_Tables_number   1
_chemical_formula_structural   CaV2O4
_chemical_formula_sum   'Ca6 V12 O24'
_cell_volume   532.55280985
_cell_formula_units_Z   6
loop_
 _symmetry_equiv_pos_site_id
 _symmetry_equiv_pos_as_xyz
  1  'x, y, z'
loop_
 _atom_site_type_symbol
 _atom_site_label
 _atom_site_symmetry_multiplicity
 _atom_site_fract_x
 _atom_site_fract_y
 _atom_site_fract_z
 _atom_site_occupancy
  Ca  Ca0  1  0.12066008  0.12080260  0.04595824  1
  Ca  Ca1  1  0.12190738  0.12221879  0.37792965  1
  Ca  Ca2  1  0.49711153  0.49663967  0.33627284  1
  Ca  Ca3  1  0.12192332  0.12264980  0.71089803  1
  Ca  Ca4  1  0.50312803  0.50360171  0.99671464  1
  Ca  Ca5  1  0.87670834  0.87766684  0.62257501  1
  V  V6  1  0.49600406  0.49581921  0.16667147  1
  V  V7  1  0.49615881  0.00815773  0.16664670  1
  V  V8  1  0.49537792  0.49457369  0.50278252  1
  V  V9  1  0.00832555  0.49597323  0.16656982  1
  V  V10  1  0.49534404  0.00160610  0.50290482  1
  V  V11  1  0.50205358  0.50239548  0.66437149  1
  V  V12  1  0.87917691  0.87921009  0.28744251  1
  V  V13  1  0.49828321  0.49880658  0.83101474  1
  V  V14  1  0.00173608  0.49569668  0.50234312  1
  V  V15  1  0.49807612  0.00982646  0.83101779  1
  V  V16  1  0.00979001  0.49813218  0.83120221  1
  V  V17  1  0.87778623  0.87776171  0.95562129  1
  O  O18  1  0.25281201  0.25356690  0.09920189  1
  O  O19  1  0.26406326  0.26275352  0.23671848  1
  O  O20  1  0.25266840  0.69609472  0.09925468  1
  O  O21  1  0.69615603  0.25286592  0.09942643  1
  O  O22  1  0.24416596  0.24393667  0.43808523  1
  O  O23  1  0.27174477  0.75720543  0.23789079  1
  O  O24  1  0.26214442  0.26051930  0.57222498  1
  O  O25  1  0.75740209  0.27188610  0.23800664  1
  O  O26  1  0.75047799  0.75125386  0.08246339  1
  O  O27  1  0.24455421  0.69760984  0.43788757  1
  O  O28  1  0.69770952  0.24403532  0.43815746  1
  O  O29  1  0.75739375  0.75646069  0.23804715  1
  O  O30  1  0.27056487  0.27201126  0.75423253  1
  O  O31  1  0.30788745  0.72956976  0.57776291  1
  O  O32  1  0.73190866  0.30778829  0.57702173  1
  O  O33  1  0.26959956  0.26819087  0.89797394  1
  O  O34  1  0.75360024  0.75412848  0.41271570  1
  O  O35  1  0.27187696  0.69450337  0.75378454  1
  O  O36  1  0.69386114  0.27332498  0.75292919  1
  O  O37  1  0.73259197  0.73048870  0.57659094  1
  O  O38  1  0.26221336  0.76340404  0.90365601  1
  O  O39  1  0.76231336  0.26308493  0.90364205  1
  O  O40  1  0.72966499  0.73057532  0.76977640  1
  O  O41  1  0.76307884  0.76320217  0.90361147  1
