# generated using pymatgen
data_MgTaBiO5
_symmetry_space_group_name_H-M   'P 1'
_cell_length_a   5.25515322
_cell_length_b   10.43415127
_cell_length_c   16.21017991
_cell_angle_alpha   90.00000000
_cell_angle_beta   90.00000000
_cell_angle_gamma   90.00000000
_symmetry_Int_Tables_number   1
_chemical_formula_structural   MgTaBiO5
_chemical_formula_sum   'Mg8 Ta8 Bi8 O40'
_cell_volume   888.85382669
_cell_formula_units_Z   8
loop_
 _symmetry_equiv_pos_site_id
 _symmetry_equiv_pos_as_xyz
  1  'x, y, z'
loop_
 _atom_site_type_symbol
 _atom_site_label
 _atom_site_symmetry_multiplicity
 _atom_site_fract_x
 _atom_site_fract_y
 _atom_site_fract_z
 _atom_site_occupancy
  Mg  Mg0  1  0.52226982  0.37408762  0.44638362  1
  Mg  Mg1  1  0.02226982  0.12591238  0.44638362  1
  Mg  Mg2  1  0.02226982  0.62591238  0.05361638  1
  Mg  Mg3  1  0.97773018  0.37408762  0.94638362  1
  Mg  Mg4  1  0.47773018  0.12591238  0.94638362  1
  Mg  Mg5  1  0.97773018  0.87408762  0.55361638  1
  Mg  Mg6  1  0.47773018  0.62591238  0.55361638  1
  Mg  Mg7  1  0.52226982  0.87408762  0.05361638  1
  Ta  Ta8  1  0.99956320  0.37629816  0.58285601  1
  Ta  Ta9  1  0.50043680  0.87629816  0.41714399  1
  Ta  Ta10  1  0.00043680  0.62370184  0.41714399  1
  Ta  Ta11  1  0.49956320  0.12370184  0.58285601  1
  Ta  Ta12  1  0.00043680  0.12370184  0.08285601  1
  Ta  Ta13  1  0.99956320  0.87629816  0.91714399  1
  Ta  Ta14  1  0.50043680  0.37629816  0.08285601  1
  Ta  Ta15  1  0.49956320  0.62370184  0.91714399  1
  Bi  Bi16  1  0.99506004  0.85904250  0.22342977  1
  Bi  Bi17  1  0.00493996  0.14095750  0.77657023  1
  Bi  Bi18  1  0.50493996  0.35904250  0.77657023  1
  Bi  Bi19  1  0.00493996  0.64095750  0.72342977  1
  Bi  Bi20  1  0.49506004  0.14095750  0.27657023  1
  Bi  Bi21  1  0.49506004  0.64095750  0.22342977  1
  Bi  Bi22  1  0.50493996  0.85904250  0.72342977  1
  Bi  Bi23  1  0.99506004  0.35904250  0.27657023  1
  O  O24  1  0.88567541  0.31525967  0.68587434  1
  O  O25  1  0.26507399  0.02366142  0.03968892  1
  O  O26  1  0.23492601  0.52366142  0.96031108  1
  O  O27  1  0.33199451  0.79479131  0.15428227  1
  O  O28  1  0.16800549  0.29479131  0.84571773  1
  O  O29  1  0.88567541  0.81525967  0.81412566  1
  O  O30  1  0.16800549  0.79479131  0.65428227  1
  O  O31  1  0.61432459  0.81525967  0.31412566  1
  O  O32  1  0.26507399  0.52366142  0.46031108  1
  O  O33  1  0.11432459  0.68474033  0.31412566  1
  O  O34  1  0.61432459  0.31525967  0.18587434  1
  O  O35  1  0.75067404  0.22510639  0.52319448  1
  O  O36  1  0.76507399  0.97633858  0.46031108  1
  O  O37  1  0.66800549  0.70520869  0.65428227  1
  O  O38  1  0.20586284  0.01373811  0.87384022  1
  O  O39  1  0.76507399  0.47633858  0.03968892  1
  O  O40  1  0.11432459  0.18474033  0.18587434  1
  O  O41  1  0.83199451  0.20520869  0.34571773  1
  O  O42  1  0.25067404  0.77489361  0.97680552  1
  O  O43  1  0.23492601  0.02366142  0.53968892  1
  O  O44  1  0.24932596  0.77489361  0.47680552  1
  O  O45  1  0.79413716  0.98626189  0.12615978  1
  O  O46  1  0.66800549  0.20520869  0.84571773  1
  O  O47  1  0.70586284  0.98626189  0.62615978  1
  O  O48  1  0.24932596  0.27489361  0.02319448  1
  O  O49  1  0.25067404  0.27489361  0.52319448  1
  O  O50  1  0.73492601  0.47633858  0.53968892  1
  O  O51  1  0.73492601  0.97633858  0.96031108  1
  O  O52  1  0.70586284  0.48626189  0.87384022  1
  O  O53  1  0.74932596  0.72510639  0.47680552  1
  O  O54  1  0.74932596  0.22510639  0.02319448  1
  O  O55  1  0.75067404  0.72510639  0.97680552  1
  O  O56  1  0.79413716  0.48626189  0.37384022  1
  O  O57  1  0.83199451  0.70520869  0.15428227  1
  O  O58  1  0.33199451  0.29479131  0.34571773  1
  O  O59  1  0.20586284  0.51373811  0.62615978  1
  O  O60  1  0.29413716  0.51373811  0.12615978  1
  O  O61  1  0.38567541  0.18474033  0.68587434  1
  O  O62  1  0.29413716  0.01373811  0.37384022  1
  O  O63  1  0.38567541  0.68474033  0.81412566  1
