# generated using pymatgen
data_Ca(SbO2)2
_symmetry_space_group_name_H-M   'P 1'
_cell_length_a   3.46805557
_cell_length_b   10.47768115
_cell_length_c   7.09230674
_cell_angle_alpha   77.86051338
_cell_angle_beta   75.84674534
_cell_angle_gamma   80.56710556
_symmetry_Int_Tables_number   1
_chemical_formula_structural   Ca(SbO2)2
_chemical_formula_sum   'Ca2 Sb4 O8'
_cell_volume   242.57798737
_cell_formula_units_Z   2
loop_
 _symmetry_equiv_pos_site_id
 _symmetry_equiv_pos_as_xyz
  1  'x, y, z'
loop_
 _atom_site_type_symbol
 _atom_site_label
 _atom_site_symmetry_multiplicity
 _atom_site_fract_x
 _atom_site_fract_y
 _atom_site_fract_z
 _atom_site_occupancy
  Ca  Ca0  1  0.26974460  0.23126928  0.24010120  1
  Ca  Ca1  1  0.73260042  0.74682150  0.79291589  1
  Sb  Sb2  1  0.62053664  0.10693438  0.66168209  1
  Sb  Sb3  1  0.11340654  0.57654710  0.19842733  1
  Sb  Sb4  1  0.88882025  0.40159890  0.83477715  1
  Sb  Sb5  1  0.38189946  0.87122736  0.37134066  1
  O  O6  1  0.90392640  0.75404787  0.44324213  1
  O  O7  1  0.42393259  0.27983724  0.88303846  1
  O  O8  1  0.57834077  0.69826349  0.15002078  1
  O  O9  1  0.09848281  0.22410019  0.58971209  1
  O  O10  1  0.23096640  0.88672644  0.65783146  1
  O  O11  1  0.74837100  0.38532606  0.12944082  1
  O  O12  1  0.77141663  0.09135842  0.37518720  1
  O  O13  1  0.25386550  0.59274377  0.90372673  1
