# generated using pymatgen
data_ZnCrNiP2O9
_symmetry_space_group_name_H-M   'P 1'
_cell_length_a   6.25211735
_cell_length_b   7.41924405
_cell_length_c   14.11134709
_cell_angle_alpha   90.00369162
_cell_angle_beta   90.00576234
_cell_angle_gamma   89.98982736
_symmetry_Int_Tables_number   1
_chemical_formula_structural   ZnCrNiP2O9
_chemical_formula_sum   'Zn4 Cr4 Ni4 P8 O36'
_cell_volume   654.56871150
_cell_formula_units_Z   4
loop_
 _symmetry_equiv_pos_site_id
 _symmetry_equiv_pos_as_xyz
  1  'x, y, z'
loop_
 _atom_site_type_symbol
 _atom_site_label
 _atom_site_symmetry_multiplicity
 _atom_site_fract_x
 _atom_site_fract_y
 _atom_site_fract_z
 _atom_site_occupancy
  Zn  Zn0  1  0.74953133  0.88379786  0.77701758  1
  Zn  Zn1  1  0.74975051  0.60796789  0.27791741  1
  Zn  Zn2  1  0.24996823  0.11572907  0.22177569  1
  Zn  Zn3  1  0.25029286  0.38264589  0.72312458  1
  Cr  Cr4  1  0.74996548  0.35084343  0.88417459  1
  Cr  Cr5  1  0.24993585  0.64925175  0.11593717  1
  Cr  Cr6  1  0.24994988  0.85083144  0.61594128  1
  Cr  Cr7  1  0.74967456  0.14897542  0.38403955  1
  Ni  Ni8  1  0.50001870  0.99977922  0.99977488  1
  Ni  Ni9  1  0.50051924  0.50025429  0.49979298  1
  Ni  Ni10  1  0.00047326  0.49990746  0.50036296  1
  Ni  Ni11  1  0.99993906  0.99982153  0.99976942  1
  P  P12  1  0.25000115  0.35184620  0.93355402  1
  P  P13  1  0.74992745  0.64806923  0.06666040  1
  P  P14  1  0.74990743  0.85247295  0.56677727  1
  P  P15  1  0.24994138  0.14785199  0.43323430  1
  P  P16  1  0.75018680  0.38728771  0.69927226  1
  P  P17  1  0.24970101  0.61271822  0.30083815  1
  P  P18  1  0.24976081  0.88711256  0.80082188  1
  P  P19  1  0.75007114  0.11451969  0.19896451  1
  O  O20  1  0.03785839  0.60843222  0.35940560  1
  O  O21  1  0.53834827  0.39142359  0.64059942  1
  O  O22  1  0.96206923  0.11003629  0.14050412  1
  O  O23  1  0.46186906  0.89088752  0.85924443  1
  O  O24  1  0.96261153  0.39115344  0.64100962  1
  O  O25  1  0.46182931  0.60858697  0.35930880  1
  O  O26  1  0.03750243  0.89119308  0.85910655  1
  O  O27  1  0.53803843  0.10957058  0.14051855  1
  O  O28  1  0.25068248  0.33418563  0.47973073  1
  O  O29  1  0.75031677  0.66681560  0.51958985  1
  O  O30  1  0.74977092  0.83424755  0.02006350  1
  O  O31  1  0.25022935  0.16571408  0.98019168  1
  O  O32  1  0.75006413  0.14868730  0.94863828  1
  O  O33  1  0.24986763  0.85145001  0.05146618  1
  O  O34  1  0.25067017  0.64857208  0.55160132  1
  O  O35  1  0.75100120  0.35233581  0.44782679  1
  O  O36  1  0.74975266  0.21241289  0.76251285  1
  O  O37  1  0.24984287  0.78758672  0.23759777  1
  O  O38  1  0.24966529  0.71243689  0.73751748  1
  O  O39  1  0.74944562  0.28982150  0.26219366  1
  O  O40  1  0.43830929  0.12716314  0.36277865  1
  O  O41  1  0.93846059  0.87194644  0.63719180  1
  O  O42  1  0.56154740  0.62769255  0.13712628  1
  O  O43  1  0.06160442  0.37136217  0.86303344  1
  O  O44  1  0.56183064  0.87129425  0.63755187  1
  O  O45  1  0.06149839  0.12815124  0.36279025  1
  O  O46  1  0.43822717  0.37185650  0.86294317  1
  O  O47  1  0.93839957  0.62809928  0.13707458  1
  O  O48  1  0.75076945  0.96164260  0.27482149  1
  O  O49  1  0.25026343  0.04123841  0.72530708  1
  O  O50  1  0.24974134  0.45897324  0.22529461  1
  O  O51  1  0.75000151  0.54100269  0.77482525  1
  O  O52  1  0.74880966  0.99519773  0.48967958  1
  O  O53  1  0.24958279  0.00688985  0.51119661  1
  O  O54  1  0.24996235  0.49322699  0.01127475  1
  O  O55  1  0.75004412  0.50703137  0.98873653  1
