# generated using pymatgen
data_CaCu3(MoO3)4
_symmetry_space_group_name_H-M   'P 1'
_cell_length_a   6.64394195
_cell_length_b   6.64823953
_cell_length_c   6.67614236
_cell_angle_alpha   109.56256962
_cell_angle_beta   109.53785791
_cell_angle_gamma   109.39010267
_symmetry_Int_Tables_number   1
_chemical_formula_structural   CaCu3(MoO3)4
_chemical_formula_sum   'Ca1 Cu3 Mo4 O12'
_cell_volume   226.78934203
_cell_formula_units_Z   1
loop_
 _symmetry_equiv_pos_site_id
 _symmetry_equiv_pos_as_xyz
  1  'x, y, z'
loop_
 _atom_site_type_symbol
 _atom_site_label
 _atom_site_symmetry_multiplicity
 _atom_site_fract_x
 _atom_site_fract_y
 _atom_site_fract_z
 _atom_site_occupancy
  Ca  Ca0  1  0.00000020  -0.00000013  0.00000097  1
  Cu  Cu1  1  0.49999913  0.49999963  -0.00000043  1
  Cu  Cu2  1  -0.00000053  0.50000075  0.49999918  1
  Cu  Cu3  1  0.50000028  0.00000149  0.49999973  1
  Mo  Mo4  1  0.00000009  0.00000007  0.50000026  1
  Mo  Mo5  1  -0.00000007  0.49999984  0.00000006  1
  Mo  Mo6  1  0.50000034  0.50000009  0.50000033  1
  Mo  Mo7  1  0.50000012  0.00000007  0.00000021  1
  O  O8  1  0.82401278  0.29958521  0.13372822  1
  O  O9  1  0.17598808  0.70041550  0.86627190  1
  O  O10  1  0.82957091  0.69610204  0.52512200  1
  O  O11  1  0.29935582  0.47508060  0.16591149  1
  O  O12  1  0.47699999  0.17675730  0.31046209  1
  O  O13  1  0.13359049  0.82960966  0.30377548  1
  O  O14  1  0.69545209  0.86617713  0.17072231  1
  O  O15  1  0.52299996  0.82324255  0.68953805  1
  O  O16  1  0.17042889  0.30389742  0.47487801  1
  O  O17  1  0.70064405  0.52491820  0.83408869  1
  O  O18  1  0.86640937  0.17038999  0.69622459  1
  O  O19  1  0.30454803  0.13382262  0.82927787  1
