# generated using pymatgen
data_Li(NiS2)2
_symmetry_space_group_name_H-M   'P 1'
_cell_length_a   6.80094133
_cell_length_b   6.80094095
_cell_length_c   6.86046478
_cell_angle_alpha   119.71340535
_cell_angle_beta   119.71340981
_cell_angle_gamma   89.99999668
_symmetry_Int_Tables_number   1
_chemical_formula_structural   Li(NiS2)2
_chemical_formula_sum   'Li2 Ni4 S8'
_cell_volume   226.30607239
_cell_formula_units_Z   2
loop_
 _symmetry_equiv_pos_site_id
 _symmetry_equiv_pos_as_xyz
  1  'x, y, z'
loop_
 _atom_site_type_symbol
 _atom_site_label
 _atom_site_symmetry_multiplicity
 _atom_site_fract_x
 _atom_site_fract_y
 _atom_site_fract_z
 _atom_site_occupancy
  Li  Li0  1  0.37500100  0.62500100  0.75000000  1
  Li  Li1  1  0.62499900  0.37500000  0.25000000  1
  Ni  Ni2  1  -0.00000000  0.50000100  0.00000100  1
  Ni  Ni3  1  0.00000100  -0.00000000  0.50000000  1
  Ni  Ni4  1  0.50000100  -0.00000000  0.50000000  1
  Ni  Ni5  1  -0.00000000  -0.00000000  -0.00000000  1
  S  S6  1  0.76757670  0.79413346  0.53515340  1
  S  S7  1  0.75898106  0.23242430  0.96484860  1
  S  S8  1  0.20586754  0.23242430  0.96484760  1
  S  S9  1  0.23242330  0.20586654  0.46484760  1
  S  S10  1  0.23242230  0.75898006  0.46484660  1
  S  S11  1  0.24101894  0.76757670  0.03515340  1
  S  S12  1  0.76757670  0.24101894  0.53515240  1
  S  S13  1  0.79413246  0.76757670  0.03515240  1
