# generated using pymatgen
data_ZnCoBiO5
_symmetry_space_group_name_H-M   'P 1'
_cell_length_a   5.33070959
_cell_length_b   8.23609053
_cell_length_c   10.59500520
_cell_angle_alpha   90.00000000
_cell_angle_beta   90.00000000
_cell_angle_gamma   107.30908970
_symmetry_Int_Tables_number   1
_chemical_formula_structural   ZnCoBiO5
_chemical_formula_sum   'Zn4 Co4 Bi4 O20'
_cell_volume   444.09964177
_cell_formula_units_Z   4
loop_
 _symmetry_equiv_pos_site_id
 _symmetry_equiv_pos_as_xyz
  1  'x, y, z'
loop_
 _atom_site_type_symbol
 _atom_site_label
 _atom_site_symmetry_multiplicity
 _atom_site_fract_x
 _atom_site_fract_y
 _atom_site_fract_z
 _atom_site_occupancy
  Zn  Zn0  1  0.63534595  0.17450802  0.90874209  1
  Zn  Zn1  1  0.36465405  0.82549198  0.09125791  1
  Zn  Zn2  1  0.86465405  0.32549198  0.40874209  1
  Zn  Zn3  1  0.13534595  0.67450802  0.59125791  1
  Co  Co4  1  0.80179424  0.95355796  0.62039809  1
  Co  Co5  1  0.19820576  0.04644204  0.37960191  1
  Co  Co6  1  0.69820576  0.54644204  0.12039809  1
  Co  Co7  1  0.30179424  0.45355796  0.87960191  1
  Bi  Bi8  1  0.12879320  0.15694518  0.10527582  1
  Bi  Bi9  1  0.87120680  0.84305482  0.89472418  1
  Bi  Bi10  1  0.62879320  0.65694518  0.39472418  1
  Bi  Bi11  1  0.37120680  0.34305482  0.60527582  1
  O  O12  1  0.50417697  0.33691256  0.05713942  1
  O  O13  1  0.01050346  0.31577439  0.96451371  1
  O  O14  1  0.50718328  0.67847660  0.20400090  1
  O  O15  1  0.75393025  0.50937592  0.54308183  1
  O  O16  1  0.79920009  0.49533793  0.28183247  1
  O  O17  1  0.29920009  0.99533793  0.21816753  1
  O  O18  1  0.51050346  0.81577439  0.53548629  1
  O  O19  1  0.48949654  0.18422561  0.46451371  1
  O  O20  1  0.24606975  0.49062408  0.45691817  1
  O  O21  1  0.99582303  0.16308744  0.55713942  1
  O  O22  1  0.20079991  0.50466207  0.71816753  1
  O  O23  1  0.49582303  0.66308744  0.94286058  1
  O  O24  1  0.00417697  0.83691256  0.44286058  1
  O  O25  1  0.70079991  0.00466207  0.78183247  1
  O  O26  1  0.74606975  0.99062408  0.04308183  1
  O  O27  1  0.25393025  0.00937592  0.95691817  1
  O  O28  1  0.49281672  0.32152340  0.79599910  1
  O  O29  1  0.98949654  0.68422561  0.03548629  1
  O  O30  1  0.99281672  0.82152340  0.70400090  1
  O  O31  1  0.00718328  0.17847660  0.29599910  1
