# generated using pymatgen
data_Al2P2H4O11
_symmetry_space_group_name_H-M   'P 1'
_cell_length_a   19.54413328
_cell_length_b   9.87624033
_cell_length_c   9.86800720
_cell_angle_alpha   90.00000000
_cell_angle_beta   90.00000000
_cell_angle_gamma   90.00000000
_symmetry_Int_Tables_number   1
_chemical_formula_structural   Al2P2H4O11
_chemical_formula_sum   'Al16 P16 H32 O88'
_cell_volume   1904.74798535
_cell_formula_units_Z   8
loop_
 _symmetry_equiv_pos_site_id
 _symmetry_equiv_pos_as_xyz
  1  'x, y, z'
loop_
 _atom_site_type_symbol
 _atom_site_label
 _atom_site_symmetry_multiplicity
 _atom_site_fract_x
 _atom_site_fract_y
 _atom_site_fract_z
 _atom_site_occupancy
  Al  Al0  1  0.94927172  0.08585508  0.17667497  1
  Al  Al1  1  0.44927172  0.41414492  0.82332503  1
  Al  Al2  1  0.05072828  0.58585508  0.32332503  1
  Al  Al3  1  0.55072828  0.91414492  0.67667497  1
  Al  Al4  1  0.05072828  0.91414492  0.82332503  1
  Al  Al5  1  0.55072828  0.58585508  0.17667497  1
  Al  Al6  1  0.94927172  0.41414492  0.67667497  1
  Al  Al7  1  0.44927172  0.08585508  0.32332503  1
  Al  Al8  1  0.78291485  0.33306636  0.35147108  1
  Al  Al9  1  0.28291485  0.16693364  0.64852892  1
  Al  Al10  1  0.21708515  0.83306636  0.14852892  1
  Al  Al11  1  0.71708515  0.66693364  0.85147108  1
  Al  Al12  1  0.21708515  0.66693364  0.64852892  1
  Al  Al13  1  0.71708515  0.83306636  0.35147108  1
  Al  Al14  1  0.78291485  0.16693364  0.85147108  1
  Al  Al15  1  0.28291485  0.33306636  0.14852892  1
  P  P16  1  0.94851446  0.34077608  0.36540079  1
  P  P17  1  0.44851446  0.15922392  0.63459921  1
  P  P18  1  0.05148554  0.84077608  0.13459921  1
  P  P19  1  0.55148554  0.65922392  0.86540079  1
  P  P20  1  0.05148554  0.65922392  0.63459921  1
  P  P21  1  0.55148554  0.84077608  0.36540079  1
  P  P22  1  0.94851446  0.15922392  0.86540079  1
  P  P23  1  0.44851446  0.34077608  0.13459921  1
  P  P24  1  0.79028689  0.06752613  0.15949994  1
  P  P25  1  0.29028689  0.43247387  0.84050006  1
  P  P26  1  0.20971311  0.56752613  0.34050006  1
  P  P27  1  0.70971311  0.93247387  0.65949994  1
  P  P28  1  0.20971311  0.93247387  0.84050006  1
  P  P29  1  0.70971311  0.56752613  0.15949994  1
  P  P30  1  0.79028689  0.43247387  0.65949994  1
  P  P31  1  0.29028689  0.06752613  0.34050006  1
  H  H32  1  0.65661881  0.31422925  0.45374054  1
  H  H33  1  0.15661881  0.18577075  0.54625946  1
  H  H34  1  0.34338119  0.81422925  0.04625946  1
  H  H35  1  0.84338119  0.68577075  0.95374054  1
  H  H36  1  0.34338119  0.68577075  0.54625946  1
  H  H37  1  0.84338119  0.81422925  0.45374054  1
  H  H38  1  0.65661881  0.18577075  0.95374054  1
  H  H39  1  0.15661881  0.31422925  0.04625946  1
  H  H40  1  0.65510152  0.24484413  0.30454487  1
  H  H41  1  0.15510152  0.25515587  0.69545513  1
  H  H42  1  0.34489848  0.74484413  0.19545513  1
  H  H43  1  0.84489848  0.75515587  0.80454487  1
  H  H44  1  0.34489848  0.75515587  0.69545513  1
  H  H45  1  0.84489848  0.74484413  0.30454487  1
  H  H46  1  0.65510152  0.25515587  0.80454487  1
  H  H47  1  0.15510152  0.24484413  0.19545513  1
  H  H48  1  0.77763177  0.09095689  0.45403667  1
  H  H49  1  0.27763177  0.40904311  0.54596333  1
  H  H50  1  0.22236823  0.59095689  0.04596333  1
  H  H51  1  0.72236823  0.90904311  0.95403667  1
  H  H52  1  0.22236823  0.90904311  0.54596333  1
  H  H53  1  0.72236823  0.59095689  0.45403667  1
  H  H54  1  0.77763177  0.40904311  0.95403667  1
  H  H55  1  0.27763177  0.09095689  0.04596333  1
  H  H56  1  0.80157551  0.19684421  0.56258502  1
  H  H57  1  0.30157551  0.30315579  0.43741498  1
  H  H58  1  0.19842449  0.69684421  0.93741498  1
  H  H59  1  0.69842449  0.80315579  0.06258502  1
  H  H60  1  0.19842449  0.80315579  0.43741498  1
  H  H61  1  0.69842449  0.69684421  0.56258502  1
  H  H62  1  0.80157551  0.30315579  0.06258502  1
  H  H63  1  0.30157551  0.19684421  0.93741498  1
  O  O64  1  0.87472751  0.37754238  0.33091685  1
  O  O65  1  0.37472751  0.12245762  0.66908315  1
  O  O66  1  0.12527249  0.87754238  0.16908315  1
  O  O67  1  0.62527249  0.62245762  0.83091685  1
  O  O68  1  0.12527249  0.62245762  0.66908315  1
  O  O69  1  0.62527249  0.87754238  0.33091685  1
  O  O70  1  0.87472751  0.12245762  0.83091685  1
  O  O71  1  0.37472751  0.37754238  0.16908315  1
  O  O72  1  0.96105486  0.16661309  0.01973351  1
  O  O73  1  0.46105486  0.33338691  0.98026649  1
  O  O74  1  0.03894514  0.66661309  0.48026649  1
  O  O75  1  0.53894514  0.83338691  0.51973351  1
  O  O76  1  0.03894514  0.83338691  0.98026649  1
  O  O77  1  0.53894514  0.66661309  0.01973351  1
  O  O78  1  0.96105486  0.33338691  0.51973351  1
  O  O79  1  0.46105486  0.16661309  0.48026649  1
  O  O80  1  0.99703438  0.44673486  0.30293599  1
  O  O81  1  0.49703438  0.05326514  0.69706401  1
  O  O82  1  0.00296562  0.94673486  0.19706401  1
  O  O83  1  0.50296562  0.55326514  0.80293599  1
  O  O84  1  0.00296562  0.55326514  0.69706401  1
  O  O85  1  0.50296562  0.94673486  0.30293599  1
  O  O86  1  0.99703438  0.05326514  0.80293599  1
  O  O87  1  0.49703438  0.44673486  0.19706401  1
  O  O88  1  0.96815747  0.20075973  0.30646464  1
  O  O89  1  0.46815747  0.29924027  0.69353536  1
  O  O90  1  0.03184253  0.70075973  0.19353536  1
  O  O91  1  0.53184253  0.79924027  0.80646464  1
  O  O92  1  0.03184253  0.79924027  0.69353536  1
  O  O93  1  0.53184253  0.70075973  0.30646464  1
  O  O94  1  0.96815747  0.29924027  0.80646464  1
  O  O95  1  0.46815747  0.20075973  0.19353536  1
  O  O96  1  0.77306498  0.05759513  0.00676852  1
  O  O97  1  0.27306498  0.44240487  0.99323148  1
  O  O98  1  0.22693502  0.55759513  0.49323148  1
  O  O99  1  0.72693502  0.94240487  0.50676852  1
  O  O100  1  0.22693502  0.94240487  0.99323148  1
  O  O101  1  0.72693502  0.55759513  0.00676852  1
  O  O102  1  0.77306498  0.44240487  0.50676852  1
  O  O103  1  0.27306498  0.05759513  0.49323148  1
  O  O104  1  0.86536021  0.02286350  0.18462074  1
  O  O105  1  0.36536021  0.47713650  0.81537926  1
  O  O106  1  0.13463979  0.52286350  0.31537926  1
  O  O107  1  0.63463979  0.97713650  0.68462074  1
  O  O108  1  0.13463979  0.97713650  0.81537926  1
  O  O109  1  0.63463979  0.52286350  0.18462074  1
  O  O110  1  0.86536021  0.47713650  0.68462074  1
  O  O111  1  0.36536021  0.02286350  0.31537926  1
  O  O112  1  0.78231676  0.21901466  0.19982282  1
  O  O113  1  0.28231676  0.28098534  0.80017718  1
  O  O114  1  0.21768324  0.71901466  0.30017718  1
  O  O115  1  0.71768324  0.78098534  0.69982282  1
  O  O116  1  0.21768324  0.78098534  0.80017718  1
  O  O117  1  0.71768324  0.71901466  0.19982282  1
  O  O118  1  0.78231676  0.28098534  0.69982282  1
  O  O119  1  0.28231676  0.21901466  0.30017718  1
  O  O120  1  0.75757344  0.47864048  0.24204783  1
  O  O121  1  0.25757344  0.02135952  0.75795217  1
  O  O122  1  0.24242656  0.97864048  0.25795217  1
  O  O123  1  0.74242656  0.52135952  0.74204783  1
  O  O124  1  0.24242656  0.52135952  0.75795217  1
  O  O125  1  0.74242656  0.97864048  0.24204783  1
  O  O126  1  0.75757344  0.02135952  0.74204783  1
  O  O127  1  0.25757344  0.47864048  0.25795217  1
  O  O128  1  0.68452855  0.27872953  0.37864848  1
  O  O129  1  0.18452855  0.22127047  0.62135152  1
  O  O130  1  0.31547145  0.77872953  0.12135152  1
  O  O131  1  0.81547145  0.72127047  0.87864848  1
  O  O132  1  0.31547145  0.72127047  0.62135152  1
  O  O133  1  0.81547145  0.77872953  0.37864848  1
  O  O134  1  0.68452855  0.22127047  0.87864848  1
  O  O135  1  0.18452855  0.27872953  0.12135152  1
  O  O136  1  0.80575824  0.17382729  0.46348423  1
  O  O137  1  0.30575824  0.32617271  0.53651577  1
  O  O138  1  0.19424176  0.67382729  0.03651577  1
  O  O139  1  0.69424176  0.82617271  0.96348423  1
  O  O140  1  0.19424176  0.82617271  0.53651577  1
  O  O141  1  0.69424176  0.67382729  0.46348423  1
  O  O142  1  0.80575824  0.32617271  0.96348423  1
  O  O143  1  0.30575824  0.17382729  0.03651577  1
  O  O144  1  0.62341644  0.15986302  0.13971346  1
  O  O145  1  0.12341644  0.34013698  0.86028654  1
  O  O146  1  0.37658356  0.65986302  0.36028654  1
  O  O147  1  0.87658356  0.84013698  0.63971346  1
  O  O148  1  0.37658356  0.84013698  0.86028654  1
  O  O149  1  0.87658356  0.65986302  0.13971346  1
  O  O150  1  0.62341644  0.34013698  0.63971346  1
  O  O151  1  0.12341644  0.15986302  0.36028654  1
