# generated using pymatgen
data_LiTi2O4
_symmetry_space_group_name_H-M   'P 1'
_cell_length_a   5.94509921
_cell_length_b   5.94509971
_cell_length_c   5.94860412
_cell_angle_alpha   119.33236413
_cell_angle_beta   120.86620338
_cell_angle_gamma   89.79939604
_symmetry_Int_Tables_number   1
_chemical_formula_structural   LiTi2O4
_chemical_formula_sum   'Li2 Ti4 O8'
_cell_volume   148.45481550
_cell_formula_units_Z   2
loop_
 _symmetry_equiv_pos_site_id
 _symmetry_equiv_pos_as_xyz
  1  'x, y, z'
loop_
 _atom_site_type_symbol
 _atom_site_label
 _atom_site_symmetry_multiplicity
 _atom_site_fract_x
 _atom_site_fract_y
 _atom_site_fract_z
 _atom_site_occupancy
  Li  Li0  1  0.00000000  0.50000100  0.00000100  1
  Li  Li1  1  0.00000100  0.00000000  0.50000000  1
  Ti  Ti2  1  0.38143837  0.63143837  0.75000000  1
  Ti  Ti3  1  0.61856163  0.36856263  0.25000000  1
  Ti  Ti4  1  0.50000100  0.00000000  0.50000000  1
  Ti  Ti5  1  0.00000000  0.00000000  0.00000000  1
  O  O6  1  0.74907051  0.75547569  0.50708387  1
  O  O7  1  0.74839281  0.24198764  0.99291813  1
  O  O8  1  0.23896881  0.23610682  0.00285701  1
  O  O9  1  0.25092949  0.24452431  0.49291713  1
  O  O10  1  0.26675019  0.76388820  0.50285601  1
  O  O11  1  0.25160719  0.75801336  0.00708387  1
  O  O12  1  0.73324881  0.23611080  0.49714299  1
  O  O13  1  0.76103119  0.76389418  0.99714299  1
