# generated using pymatgen
data_Ta2Zn2CuO8
_symmetry_space_group_name_H-M   'P 1'
_cell_length_a   5.23049986
_cell_length_b   5.99997840
_cell_length_c   10.10524257
_cell_angle_alpha   106.48331613
_cell_angle_beta   92.13100275
_cell_angle_gamma   90.55310437
_symmetry_Int_Tables_number   1
_chemical_formula_structural   Ta2Zn2CuO8
_chemical_formula_sum   'Ta4 Zn4 Cu2 O16'
_cell_volume   303.82046213
_cell_formula_units_Z   2
loop_
 _symmetry_equiv_pos_site_id
 _symmetry_equiv_pos_as_xyz
  1  'x, y, z'
loop_
 _atom_site_type_symbol
 _atom_site_label
 _atom_site_symmetry_multiplicity
 _atom_site_fract_x
 _atom_site_fract_y
 _atom_site_fract_z
 _atom_site_occupancy
  Ta  Ta0  1  0.72899795  0.27318068  0.22939233  1
  Ta  Ta1  1  0.77420518  0.04164051  0.76976937  1
  Ta  Ta2  1  0.27163907  0.72780953  0.76970312  1
  Ta  Ta3  1  0.22667460  0.95973781  0.22904591  1
  Zn  Zn4  1  0.76347077  0.43786941  0.56222065  1
  Zn  Zn5  1  0.73521647  0.87289086  0.43697236  1
  Zn  Zn6  1  0.23694612  0.56229263  0.43677258  1
  Zn  Zn7  1  0.26483971  0.12759135  0.56087075  1
  Cu  Cu8  1  0.74841885  0.64312709  0.99914208  1
  Cu  Cu9  1  0.24917110  0.35879776  0.00023110  1
  O  O10  1  0.05901878  0.19084002  0.14144971  1
  O  O11  1  0.44547213  0.03770986  0.85568470  1
  O  O12  1  0.94232014  0.81246323  0.85755324  1
  O  O13  1  0.55598296  0.96188286  0.14301095  1
  O  O14  1  0.56424500  0.42281499  0.11198087  1
  O  O15  1  0.93907619  0.30568251  0.88554601  1
  O  O16  1  0.43266170  0.57642127  0.88812187  1
  O  O17  1  0.05771704  0.69870352  0.11369065  1
  O  O18  1  0.43294427  0.28151204  0.35734060  1
  O  O19  1  0.06860622  0.92337569  0.64253463  1
  O  O20  1  0.35822642  0.83918385  0.38460669  1
  O  O21  1  0.14112288  0.45390218  0.61430226  1
  O  O22  1  0.64195441  0.15987701  0.61334862  1
  O  O23  1  0.85909331  0.54710337  0.38482779  1
  O  O24  1  0.93281192  0.07824893  0.35665111  1
  O  O25  1  0.56793680  0.71819700  0.64210804  1
