# generated using pymatgen
data_LaFeReO6
_symmetry_space_group_name_H-M   'P 1'
_cell_length_a   5.60159278
_cell_length_b   5.53210169
_cell_length_c   7.84535329
_cell_angle_alpha   89.51618826
_cell_angle_beta   90.00000000
_cell_angle_gamma   90.00000000
_symmetry_Int_Tables_number   1
_chemical_formula_structural   LaFeReO6
_chemical_formula_sum   'La2 Fe2 Re2 O12'
_cell_volume   243.10769766
_cell_formula_units_Z   2
loop_
 _symmetry_equiv_pos_site_id
 _symmetry_equiv_pos_as_xyz
  1  'x, y, z'
loop_
 _atom_site_type_symbol
 _atom_site_label
 _atom_site_symmetry_multiplicity
 _atom_site_fract_x
 _atom_site_fract_y
 _atom_site_fract_z
 _atom_site_occupancy
  La  La0  1  0.04797982  0.99060835  0.24617287  1
  La  La1  1  0.45202018  0.49060835  0.74617287  1
  Fe  Fe2  1  0.50508747  0.99768095  0.99926118  1
  Fe  Fe3  1  0.99491253  0.49768095  0.49926118  1
  Re  Re4  1  0.51074129  -0.00035345  0.49952420  1
  Re  Re5  1  0.98925871  0.49964655  0.99952420  1
  O  O6  1  0.00885551  0.54900130  0.76254232  1
  O  O7  1  0.21228323  0.24190160  0.97457834  1
  O  O8  1  0.24109851  0.21479225  0.52763566  1
  O  O9  1  0.25890149  0.71479225  0.02763566  1
  O  O10  1  0.28771677  0.74190160  0.47457834  1
  O  O11  1  0.49114449  0.04900130  0.26254232  1
  O  O12  1  0.50971416  0.92223430  0.73730988  1
  O  O13  1  0.69976970  0.27174307  0.53829074  1
  O  O14  1  0.72099805  0.30199264  0.96487381  1
  O  O15  1  0.77900195  0.80199264  0.46487381  1
  O  O16  1  0.80023030  0.77174307  0.03829074  1
  O  O17  1  0.99028584  0.42223430  0.23730988  1
