# generated using pymatgen
data_Mg4Cu5(TeO6)3
_symmetry_space_group_name_H-M   'P 1'
_cell_length_a   8.75704135
_cell_length_b   8.75704171
_cell_length_c   10.44080009
_cell_angle_alpha   84.36390043
_cell_angle_beta   84.36389825
_cell_angle_gamma   60.85166449
_symmetry_Int_Tables_number   1
_chemical_formula_structural   Mg4Cu5(TeO6)3
_chemical_formula_sum   'Mg8 Cu10 Te6 O36'
_cell_volume   694.71620948
_cell_formula_units_Z   2
loop_
 _symmetry_equiv_pos_site_id
 _symmetry_equiv_pos_as_xyz
  1  'x, y, z'
loop_
 _atom_site_type_symbol
 _atom_site_label
 _atom_site_symmetry_multiplicity
 _atom_site_fract_x
 _atom_site_fract_y
 _atom_site_fract_z
 _atom_site_occupancy
  Mg  Mg0  1  0.86876617  0.53297980  0.33120648  1
  Mg  Mg1  1  0.48073877  0.55608022  0.21535540  1
  Mg  Mg2  1  0.46702020  0.13123383  0.66879352  1
  Mg  Mg3  1  0.44391978  0.51926123  0.78464460  1
  Mg  Mg4  1  0.16460045  0.87267969  0.71548612  1
  Mg  Mg5  1  0.14148811  0.26002921  0.83119966  1
  Mg  Mg6  1  0.73997079  0.85851189  0.16880034  1
  Mg  Mg7  1  0.12732031  0.83539955  0.28451388  1
  Cu  Cu8  1  0.78887087  0.51357199  0.98674819  1
  Cu  Cu9  1  0.12180253  0.18069900  0.48622930  1
  Cu  Cu10  1  0.33405470  0.33646701  0.30419383  1
  Cu  Cu11  1  0.94579041  0.72546744  0.80397761  1
  Cu  Cu12  1  0.66353299  0.66594530  0.69580617  1
  Cu  Cu13  1  0.97270752  0.02729248  0.00000000  1
  Cu  Cu14  1  0.63523875  0.36476125  0.50000000  1
  Cu  Cu15  1  0.27453256  0.05421059  0.19602239  1
  Cu  Cu16  1  0.81930100  0.87819747  0.51377070  1
  Cu  Cu17  1  0.48642801  0.21112913  0.01325181  1
  Te  Te18  1  0.45320099  0.86132343  0.94769941  1
  Te  Te19  1  0.80413938  0.19569534  0.25009907  1
  Te  Te20  1  0.80430466  0.19586062  0.74990093  1
  Te  Te21  1  0.46938794  0.84499460  0.44759756  1
  Te  Te22  1  0.15500540  0.53061206  0.55240244  1
  Te  Te23  1  0.13867657  0.54679901  0.05230059  1
  O  O24  1  0.39007085  0.07655986  0.84401504  1
  O  O25  1  0.70618722  0.43666345  0.80005102  1
  O  O26  1  0.57156100  0.62285444  0.54998703  1
  O  O27  1  0.73989373  0.11220192  0.41626667  1
  O  O28  1  0.56333655  0.29381278  0.19994898  1
  O  O29  1  0.88779808  0.26010627  0.58373333  1
  O  O30  1  0.37926841  0.76690551  0.32201357  1
  O  O31  1  0.03212386  0.10937575  0.82489382  1
  O  O32  1  0.57594408  0.28301442  0.67445036  1
  O  O33  1  0.08387314  0.41922655  0.42429544  1
  O  O34  1  0.55372712  0.64439420  0.05540305  1
  O  O35  1  0.52402422  0.97324990  0.07614024  1
  O  O36  1  0.90219568  0.95457910  0.70014151  1
  O  O37  1  0.69209487  0.74097066  0.86230079  1
  O  O38  1  0.35560580  0.44627288  0.94459695  1
  O  O39  1  0.22907132  0.62484607  0.17785526  1
  O  O40  1  0.05496651  0.74695875  0.44437816  1
  O  O41  1  0.25902934  0.30790513  0.13769921  1
  O  O42  1  0.37714556  0.42843900  0.45001297  1
  O  O43  1  0.25304025  0.94503349  0.55562184  1
  O  O44  1  0.68480400  0.78145345  0.34416072  1
  O  O45  1  0.91641285  0.65025341  0.63770509  1
  O  O46  1  0.89062425  0.96787614  0.17510618  1
  O  O47  1  0.37515393  0.77092868  0.82214474  1
  O  O48  1  0.03661897  0.76872861  0.95000325  1
  O  O49  1  0.71961617  0.13222776  0.91711038  1
  O  O50  1  0.02675010  0.47597578  0.92385976  1
  O  O51  1  0.23309449  0.62073159  0.67798643  1
  O  O52  1  0.04542090  0.09780432  0.29985849  1
  O  O53  1  0.34974659  0.08358715  0.36229491  1
  O  O54  1  0.21854655  0.31519600  0.65583928  1
  O  O55  1  0.86777224  0.28038383  0.08288962  1
  O  O56  1  0.71698558  0.42405592  0.32554964  1
  O  O57  1  0.58077345  0.91612686  0.57570456  1
  O  O58  1  0.23127139  0.96338103  0.04999675  1
  O  O59  1  0.92344014  0.60992915  0.15598496  1
