# generated using pymatgen
data_Mn3Zn(P2O7)2
_symmetry_space_group_name_H-M   'P 1'
_cell_length_a   7.52957886
_cell_length_b   7.54191504
_cell_length_c   9.90218186
_cell_angle_alpha   90.00000000
_cell_angle_beta   113.43397402
_cell_angle_gamma   90.00000000
_symmetry_Int_Tables_number   1
_chemical_formula_structural   Mn3Zn(P2O7)2
_chemical_formula_sum   'Mn6 Zn2 P8 O28'
_cell_volume   515.93889948
_cell_formula_units_Z   2
loop_
 _symmetry_equiv_pos_site_id
 _symmetry_equiv_pos_as_xyz
  1  'x, y, z'
loop_
 _atom_site_type_symbol
 _atom_site_label
 _atom_site_symmetry_multiplicity
 _atom_site_fract_x
 _atom_site_fract_y
 _atom_site_fract_z
 _atom_site_occupancy
  Mn  Mn0  1  0.19164778  0.87903639  0.52481162  1
  Mn  Mn1  1  0.80835222  0.37903639  0.97518838  1
  Mn  Mn2  1  0.80835222  0.12096361  0.47518838  1
  Mn  Mn3  1  0.19164778  0.62096361  0.02481162  1
  Mn  Mn4  1  -0.00000000  -0.00000000  -0.00000000  1
  Mn  Mn5  1  -0.00000000  0.50000000  0.50000000  1
  Zn  Zn6  1  0.50000000  -0.00000000  -0.00000000  1
  Zn  Zn7  1  0.50000000  0.50000000  0.50000000  1
  P  P8  1  0.59191855  0.08864169  0.70163574  1
  P  P9  1  0.40808145  0.58864169  0.79836426  1
  P  P10  1  0.40808145  0.91135831  0.29836426  1
  P  P11  1  0.59191855  0.41135831  0.20163574  1
  P  P12  1  0.85113050  0.78912019  0.68270062  1
  P  P13  1  0.14886950  0.28912019  0.81729938  1
  P  P14  1  0.14886950  0.21087981  0.31729938  1
  P  P15  1  0.85113050  0.71087981  0.18270062  1
  O  O16  1  0.77714635  0.61365634  0.59875114  1
  O  O17  1  0.22285365  0.11365634  0.90124886  1
  O  O18  1  0.22285365  0.38634366  0.40124886  1
  O  O19  1  0.77714635  0.88634366  0.09875114  1
  O  O20  1  0.27609523  0.62193328  0.63343589  1
  O  O21  1  0.72390477  0.12193328  0.86656411  1
  O  O22  1  0.72390477  0.37806672  0.36656411  1
  O  O23  1  0.27609523  0.87806672  0.13343589  1
  O  O24  1  0.62311916  0.22699725  0.59958699  1
  O  O25  1  0.37688084  0.72699725  0.90041301  1
  O  O26  1  0.37688084  0.77300275  0.40041301  1
  O  O27  1  0.62311916  0.27300275  0.09958699  1
  O  O28  1  0.65861274  0.89903257  0.66004105  1
  O  O29  1  0.34138726  0.39903257  0.83995895  1
  O  O30  1  0.34138726  0.10096743  0.33995895  1
  O  O31  1  0.65861274  0.60096743  0.16004105  1
  O  O32  1  0.38703645  0.44870887  0.18445922  1
  O  O33  1  0.61296355  0.94870887  0.31554078  1
  O  O34  1  0.61296355  0.55129113  0.81554078  1
  O  O35  1  0.38703645  0.05129113  0.68445922  1
  O  O36  1  0.03405282  0.22131454  0.15057002  1
  O  O37  1  0.96594718  0.72131454  0.34942998  1
  O  O38  1  0.96594718  0.77868546  0.84942998  1
  O  O39  1  0.03405282  0.27868546  0.65057002  1
  O  O40  1  0.95989758  0.60305696  0.10817215  1
  O  O41  1  0.04010242  0.10305696  0.39182785  1
  O  O42  1  0.04010242  0.39694304  0.89182785  1
  O  O43  1  0.95989758  0.89694304  0.60817215  1
