# generated using pymatgen
data_Mg16Si8HO32
_symmetry_space_group_name_H-M   'P 1'
_cell_length_a   8.21003506
_cell_length_b   8.23272223
_cell_length_c   8.21056333
_cell_angle_alpha   89.56546999
_cell_angle_beta   90.11013165
_cell_angle_gamma   90.14453695
_symmetry_Int_Tables_number   1
_chemical_formula_structural   Mg16Si8HO32
_chemical_formula_sum   'Mg16 Si8 H1 O32'
_cell_volume   554.94094723
_cell_formula_units_Z   1
loop_
 _symmetry_equiv_pos_site_id
 _symmetry_equiv_pos_as_xyz
  1  'x, y, z'
loop_
 _atom_site_type_symbol
 _atom_site_label
 _atom_site_symmetry_multiplicity
 _atom_site_fract_x
 _atom_site_fract_y
 _atom_site_fract_z
 _atom_site_occupancy
  Mg  Mg0  1  0.63391580  0.62302720  0.62220724  1
  Mg  Mg1  1  0.37549014  0.87626000  0.12711572  1
  Mg  Mg2  1  0.87483889  0.12500587  0.37466885  1
  Mg  Mg3  1  0.12199412  0.37321772  0.87434380  1
  Mg  Mg4  1  0.62565322  0.12416956  0.12526359  1
  Mg  Mg5  1  0.37988453  0.34906652  0.60869864  1
  Mg  Mg6  1  0.87405908  0.62538697  0.87624087  1
  Mg  Mg7  1  0.12390787  0.87565076  0.37306267  1
  Mg  Mg8  1  0.12337982  0.62522072  0.12633570  1
  Mg  Mg9  1  0.87269826  0.87630720  0.62414791  1
  Mg  Mg10  1  0.37483699  0.12625356  0.87679922  1
  Mg  Mg11  1  0.62834330  0.37583451  0.37312336  1
  Mg  Mg12  1  0.12103581  0.12694697  0.62475671  1
  Mg  Mg13  1  0.87571660  0.37485097  0.12516613  1
  Mg  Mg14  1  0.37594433  0.62140849  0.36849011  1
  Mg  Mg15  1  0.62626647  0.87608016  0.87554822  1
  Si  Si16  1  0.99914969  0.00042594  0.00072763  1
  Si  Si17  1  0.75041325  0.24992592  0.75009138  1
  Si  Si18  1  0.00203654  0.50006212  0.50037164  1
  Si  Si19  1  0.75025540  0.75026922  0.24991274  1
  Si  Si20  1  0.50073155  0.99560183  0.49947248  1
  Si  Si21  1  0.24939549  0.24943119  0.24808239  1
  Si  Si22  1  0.50274555  0.50251527  0.00205806  1
  Si  Si23  1  0.23692590  0.76713914  0.76104068  1
  H  H24  1  0.36688993  0.54835340  0.74820517  1
  O  O25  1  0.37011153  0.36840625  0.36586733  1
  O  O26  1  0.62973312  0.13224078  0.86862582  1
  O  O27  1  0.12806709  0.87356409  0.62961222  1
  O  O28  1  0.86789661  0.63100416  0.13189528  1
  O  O29  1  0.12220521  0.61957440  0.38275609  1
  O  O30  1  0.88176928  0.88144999  0.88090881  1
  O  O31  1  0.61846880  0.38053631  0.11806299  1
  O  O32  1  0.38025504  0.11031148  0.61936817  1
  O  O33  1  0.36805338  0.87390765  0.87201268  1
  O  O34  1  0.63014567  0.63064633  0.36935522  1
  O  O35  1  0.13172156  0.36963601  0.12955497  1
  O  O36  1  0.86790133  0.13180442  0.63125224  1
  O  O37  1  0.11923765  0.11868926  0.88081030  1
  O  O38  1  0.88275217  0.38164354  0.38183648  1
  O  O39  1  0.61805371  0.87698791  0.61967554  1
  O  O40  1  0.38106614  0.61908333  0.11710028  1
  O  O41  1  0.86854870  0.36937730  0.86844452  1
  O  O42  1  0.13185550  0.13149754  0.36889856  1
  O  O43  1  0.63061475  0.86874126  0.13121847  1
  O  O44  1  0.36286151  0.62929170  0.65260070  1
  O  O45  1  0.61858593  0.62018880  0.87933895  1
  O  O46  1  0.38057998  0.87559264  0.38379570  1
  O  O47  1  0.12352324  0.38158704  0.61895984  1
  O  O48  1  0.88119918  0.11898686  0.11877872  1
  O  O49  1  0.86843552  0.86867231  0.36894345  1
  O  O50  1  0.12847895  0.63434337  0.87156317  1
  O  O51  1  0.63042057  0.36891415  0.62986804  1
  O  O52  1  0.36903318  0.13254008  0.13024003  1
  O  O53  1  0.61760334  0.11804496  0.38197511  1
  O  O54  1  0.38098498  0.39234172  0.87174738  1
  O  O55  1  0.11920144  0.88115820  0.11861129  1
  O  O56  1  0.88439641  0.61869497  0.61919072  1
