# generated using pymatgen
data_Ba2Ca2Tl2Co3O10
_symmetry_space_group_name_H-M   'P 1'
_cell_length_a   3.93341795
_cell_length_b   3.90250189
_cell_length_c   18.63401083
_cell_angle_alpha   96.05733025
_cell_angle_beta   96.19566587
_cell_angle_gamma   89.05056298
_symmetry_Int_Tables_number   1
_chemical_formula_structural   Ba2Ca2Tl2Co3O10
_chemical_formula_sum   'Ba2 Ca2 Tl2 Co3 O10'
_cell_volume   282.77301083
_cell_formula_units_Z   1
loop_
 _symmetry_equiv_pos_site_id
 _symmetry_equiv_pos_as_xyz
  1  'x, y, z'
loop_
 _atom_site_type_symbol
 _atom_site_label
 _atom_site_symmetry_multiplicity
 _atom_site_fract_x
 _atom_site_fract_y
 _atom_site_fract_z
 _atom_site_occupancy
  Ba  Ba0  1  0.09062292  0.15798514  0.28442676  1
  Ba  Ba1  1  0.79457209  0.84093459  0.71459778  1
  Ca  Ca2  1  0.88522982  0.94560384  0.90963108  1
  Ca  Ca3  1  0.98432392  0.06045876  0.08949872  1
  Tl  Tl4  1  0.62060039  0.71846425  0.43666477  1
  Tl  Tl5  1  0.18030331  0.27174158  0.56205316  1
  Co  Co6  1  0.34547812  0.39759385  0.82648840  1
  Co  Co7  1  0.53043311  0.60514786  0.17258965  1
  Co  Co8  1  0.43234465  0.50451482  0.99967469  1
  O  O9  1  0.34582961  0.89840180  0.82826621  1
  O  O10  1  0.28809280  0.32306120  0.67653203  1
  O  O11  1  0.84611499  0.39850702  0.82834583  1
  O  O12  1  0.83096609  0.77208921  0.54991312  1
  O  O13  1  0.93211657  0.50532538  -0.00002361  1
  O  O14  1  0.02985875  0.60472153  0.17107769  1
  O  O15  1  0.62087869  0.67466862  0.32244261  1
  O  O16  1  0.52887421  0.10463722  0.17052537  1
  O  O17  1  0.28301026  0.22923983  0.44899363  1
  O  O18  1  0.43144071  0.00486549  0.99926511  1
