# generated using pymatgen
data_MnZn2WO6
_symmetry_space_group_name_H-M   'P 1'
_cell_length_a   5.32741636
_cell_length_b   5.66467135
_cell_length_c   7.74299566
_cell_angle_alpha   94.96335487
_cell_angle_beta   132.98901493
_cell_angle_gamma   118.24571274
_symmetry_Int_Tables_number   1
_chemical_formula_structural   MnZn2WO6
_chemical_formula_sum   'Mn1 Zn2 W1 O6'
_cell_volume   116.31375138
_cell_formula_units_Z   1
loop_
 _symmetry_equiv_pos_site_id
 _symmetry_equiv_pos_as_xyz
  1  'x, y, z'
loop_
 _atom_site_type_symbol
 _atom_site_label
 _atom_site_symmetry_multiplicity
 _atom_site_fract_x
 _atom_site_fract_y
 _atom_site_fract_z
 _atom_site_occupancy
  Mn  Mn0  1  0.99658688  0.98904006  0.49732466  1
  Zn  Zn1  1  0.99585925  0.56111043  0.20668773  1
  Zn  Zn2  1  0.00591964  0.51976285  0.74032220  1
  W  W3  1  0.00079925  0.98801224  0.99868796  1
  O  O4  1  0.72224454  0.80852943  0.09855884  1
  O  O5  1  0.28033609  0.09779639  0.91085419  1
  O  O6  1  0.33313641  0.44175089  0.24423304  1
  O  O7  1  0.38521101  0.81868197  0.62872908  1
  O  O8  1  0.57834541  0.09171721  0.37892577  1
  O  O9  1  0.70596552  0.50789253  0.80505553  1
