# generated using pymatgen
data_TaAl(WO4)2
_symmetry_space_group_name_H-M   'P 1'
_cell_length_a   5.19758057
_cell_length_b   5.62500147
_cell_length_c   9.33638403
_cell_angle_alpha   90.00000000
_cell_angle_beta   90.13878733
_cell_angle_gamma   90.00000000
_symmetry_Int_Tables_number   1
_chemical_formula_structural   TaAl(WO4)2
_chemical_formula_sum   'Ta2 Al2 W4 O16'
_cell_volume   272.96144152
_cell_formula_units_Z   2
loop_
 _symmetry_equiv_pos_site_id
 _symmetry_equiv_pos_as_xyz
  1  'x, y, z'
loop_
 _atom_site_type_symbol
 _atom_site_label
 _atom_site_symmetry_multiplicity
 _atom_site_fract_x
 _atom_site_fract_y
 _atom_site_fract_z
 _atom_site_occupancy
  Ta  Ta0  1  0.75000000  0.35725062  0.25000000  1
  Ta  Ta1  1  0.25000000  0.64274838  0.75000000  1
  Al  Al2  1  0.25000000  0.66942979  0.25000000  1
  Al  Al3  1  0.74999900  0.33056921  0.75000000  1
  W  W4  1  0.24500102  0.16138337  0.49792969  1
  W  W5  1  0.25499798  0.16138337  0.00207131  1
  W  W6  1  0.75499898  0.83861663  0.50207031  1
  W  W7  1  0.74500202  0.83861663  0.99792869  1
  O  O8  1  0.41995546  0.40289787  0.14015142  1
  O  O9  1  0.08004354  0.40289787  0.35984758  1
  O  O10  1  0.58004454  0.59710113  0.85984858  1
  O  O11  1  0.91995546  0.59710113  0.64015242  1
  O  O12  1  0.39852555  0.87345268  0.61600656  1
  O  O13  1  0.10147445  0.87345268  0.88399344  1
  O  O14  1  0.60147445  0.12654732  0.38399344  1
  O  O15  1  0.89852555  0.12654732  0.11600656  1
  O  O16  1  0.93178964  0.62568265  0.14307712  1
  O  O17  1  0.56821036  0.62568265  0.35692288  1
  O  O18  1  0.06821036  0.37431835  0.85692288  1
  O  O19  1  0.43178964  0.37431835  0.64307712  1
  O  O20  1  0.40213387  0.88557859  0.11892219  1
  O  O21  1  0.59786613  0.11442241  0.88107781  1
  O  O22  1  0.09786713  0.88557859  0.38107881  1
  O  O23  1  0.90213287  0.11442241  0.61892119  1
