# generated using pymatgen
data_ZrBr
_symmetry_space_group_name_H-M   'P 1'
_cell_length_a   3.45134559
_cell_length_b   3.45132925
_cell_length_c   10.03640763
_cell_angle_alpha   89.99999999
_cell_angle_beta   90.02429535
_cell_angle_gamma   119.99985856
_symmetry_Int_Tables_number   1
_chemical_formula_structural   ZrBr
_chemical_formula_sum   'Zr2 Br2'
_cell_volume   103.53431887
_cell_formula_units_Z   2
loop_
 _symmetry_equiv_pos_site_id
 _symmetry_equiv_pos_as_xyz
  1  'x, y, z'
loop_
 _atom_site_type_symbol
 _atom_site_label
 _atom_site_symmetry_multiplicity
 _atom_site_fract_x
 _atom_site_fract_y
 _atom_site_fract_z
 _atom_site_occupancy
  Zr  Zr0  1  0.33325909  0.66662955  0.37677552  1
  Zr  Zr1  1  0.66674091  0.33337045  0.62322448  1
  Br  Br2  1  0.33347952  0.66673976  0.81751223  1
  Br  Br3  1  0.66652048  0.33326024  0.18248777  1
