# generated using pymatgen
data_Sr4Ca4Mn5(FeO8)3
_symmetry_space_group_name_H-M   'P 1'
_cell_length_a   7.75572800
_cell_length_b   7.71453099
_cell_length_c   7.71418641
_cell_angle_alpha   90.01468862
_cell_angle_beta   90.00023644
_cell_angle_gamma   89.99896429
_symmetry_Int_Tables_number   1
_chemical_formula_structural   Sr4Ca4Mn5(FeO8)3
_chemical_formula_sum   'Sr4 Ca4 Mn5 Fe3 O24'
_cell_volume   461.55367455
_cell_formula_units_Z   1
loop_
 _symmetry_equiv_pos_site_id
 _symmetry_equiv_pos_as_xyz
  1  'x, y, z'
loop_
 _atom_site_type_symbol
 _atom_site_label
 _atom_site_symmetry_multiplicity
 _atom_site_fract_x
 _atom_site_fract_y
 _atom_site_fract_z
 _atom_site_occupancy
  Sr  Sr0  1  0.25085553  0.25034165  0.25038343  1
  Sr  Sr1  1  0.25064537  0.25037618  0.74958309  1
  Sr  Sr2  1  0.74931528  0.25035362  0.74950557  1
  Sr  Sr3  1  0.74928501  0.74962538  0.25044657  1
  Ca  Ca4  1  0.25103713  0.74944794  0.25072642  1
  Ca  Ca5  1  0.25132200  0.74944623  0.74926651  1
  Ca  Ca6  1  0.74878316  0.25054795  0.25071842  1
  Ca  Ca7  1  0.74873183  0.74947314  0.74940056  1
  Mn  Mn8  1  0.99996521  0.50128763  0.49995724  1
  Mn  Mn9  1  0.50006613  0.99884944  0.00005698  1
  Mn  Mn10  1  0.50007026  0.99858301  0.49994125  1
  Mn  Mn11  1  0.50006596  0.50142386  0.00004471  1
  Mn  Mn12  1  0.50008829  0.50118227  0.49993819  1
  Fe  Fe13  1  0.99995504  0.99865772  0.00004042  1
  Fe  Fe14  1  0.99996570  0.99866481  0.49996111  1
  Fe  Fe15  1  0.99997419  0.50128049  0.00003967  1
  O  O16  1  0.25250109  0.99453616  0.00005885  1
  O  O17  1  0.25429398  0.99474730  0.49996175  1
  O  O18  1  0.25431670  0.50520279  0.00005384  1
  O  O19  1  0.25072957  0.50609952  0.50001507  1
  O  O20  1  0.74750656  0.99869091  0.99989328  1
  O  O21  1  0.74568238  0.99876631  0.50006890  1
  O  O22  1  0.74567233  0.50121540  0.99991274  1
  O  O23  1  0.74923826  0.50089726  0.50000495  1
  O  O24  1  0.99807154  0.24834947  0.00188782  1
  O  O25  1  0.99797550  0.25266923  0.49796854  1
  O  O26  1  0.00175404  0.75161093  0.99829362  1
  O  O27  1  0.00186711  0.74716352  0.50185848  1
  O  O28  1  0.50249277  0.24957741  0.00263790  1
  O  O29  1  0.50264957  0.25029375  0.49734181  1
  O  O30  1  0.49765492  0.75046142  0.99743946  1
  O  O31  1  0.49744028  0.74976874  0.50259341  1
  O  O32  1  0.00007511  0.99871834  0.24837878  1
  O  O33  1  0.99996609  0.99510377  0.75162996  1
  O  O34  1  0.00007378  0.50127185  0.25275901  1
  O  O35  1  0.99995882  0.50514612  0.74723964  1
  O  O36  1  0.49993985  0.99929229  0.24957484  1
  O  O37  1  0.50004610  0.99410584  0.75043147  1
  O  O38  1  0.49994940  0.50076163  0.25026664  1
  O  O39  1  0.50001817  0.50600872  0.74971910  1
