# generated using pymatgen
data_Sr5Ca3TiMn7O24
_symmetry_space_group_name_H-M   'P 1'
_cell_length_a   7.72209895
_cell_length_b   7.71867260
_cell_length_c   7.72209895
_cell_angle_alpha   90.00787798
_cell_angle_beta   89.98975755
_cell_angle_gamma   90.00787798
_symmetry_Int_Tables_number   1
_chemical_formula_structural   Sr5Ca3TiMn7O24
_chemical_formula_sum   'Sr5 Ca3 Ti1 Mn7 O24'
_cell_volume   460.27069982
_cell_formula_units_Z   1
loop_
 _symmetry_equiv_pos_site_id
 _symmetry_equiv_pos_as_xyz
  1  'x, y, z'
loop_
 _atom_site_type_symbol
 _atom_site_label
 _atom_site_symmetry_multiplicity
 _atom_site_fract_x
 _atom_site_fract_y
 _atom_site_fract_z
 _atom_site_occupancy
  Sr  Sr0  1  0.25136616  0.24848357  0.24865294  1
  Sr  Sr1  1  0.25139719  0.24846955  0.75139719  1
  Sr  Sr2  1  0.74865167  0.24864146  0.24865167  1
  Sr  Sr3  1  0.74865294  0.24848357  0.75136616  1
  Sr  Sr4  1  0.74846835  0.75143659  0.24846835  1
  Ca  Ca5  1  0.25178835  0.75187999  0.24801267  1
  Ca  Ca6  1  0.25202262  0.75183432  0.75202262  1
  Ca  Ca7  1  0.74801267  0.75187999  0.75178835  1
  Ti  Ti8  1  0.00104329  0.50303708  0.50104329  1
  Mn  Mn9  1  0.00049080  0.99863928  0.99958710  1
  Mn  Mn10  1  0.00058450  0.99896224  0.50058450  1
  Mn  Mn11  1  0.00056836  0.50174332  0.99968549  1
  Mn  Mn12  1  0.49952885  0.99850879  0.99952885  1
  Mn  Mn13  1  0.49958710  0.99863928  0.50049080  1
  Mn  Mn14  1  0.49956878  0.50152085  0.99956878  1
  Mn  Mn15  1  0.49968549  0.50174332  0.50056836  1
  O  O16  1  0.24995963  0.99465304  0.99973387  1
  O  O17  1  0.24971254  0.99459950  0.50019863  1
  O  O18  1  0.24970847  0.50539863  0.99972276  1
  O  O19  1  0.25315293  0.50398342  0.50038651  1
  O  O20  1  0.75005479  0.99689936  0.99741730  1
  O  O21  1  0.75023218  0.99688841  0.50261841  1
  O  O22  1  0.75024664  0.50300784  0.99740458  1
  O  O23  1  0.74691156  0.50261750  0.50184181  1
  O  O24  1  0.00018014  0.25019160  0.99974041  1
  O  O25  1  0.00038293  0.24693148  0.50038293  1
  O  O26  1  0.00259095  0.74969812  0.99744623  1
  O  O27  1  0.00174144  0.75321101  0.50174144  1
  O  O28  1  0.49973794  0.25007333  0.99973794  1
  O  O29  1  0.49974041  0.25019160  0.50018014  1
  O  O30  1  0.49746021  0.75000617  0.99746021  1
  O  O31  1  0.49744623  0.74969812  0.50259095  1
  O  O32  1  0.00261841  0.99688841  0.25023218  1
  O  O33  1  0.00019863  0.99459950  0.74971254  1
  O  O34  1  0.00184181  0.50261750  0.24691156  1
  O  O35  1  0.00038651  0.50398342  0.75315293  1
  O  O36  1  0.49741730  0.99689936  0.25005479  1
  O  O37  1  0.49973387  0.99465304  0.74995963  1
  O  O38  1  0.49740458  0.50300784  0.25024664  1
  O  O39  1  0.49972276  0.50539863  0.74970847  1
