# generated using pymatgen
data_Ba3Sr5Co4(CuO6)4
_symmetry_space_group_name_H-M   'P 1'
_cell_length_a   7.93189030
_cell_length_b   7.82285391
_cell_length_c   7.93189030
_cell_angle_alpha   90.01793941
_cell_angle_beta   90.04112753
_cell_angle_gamma   89.98206059
_symmetry_Int_Tables_number   1
_chemical_formula_structural   Ba3Sr5Co4(CuO6)4
_chemical_formula_sum   'Ba3 Sr5 Co4 Cu4 O24'
_cell_volume   492.17376907
_cell_formula_units_Z   1
loop_
 _symmetry_equiv_pos_site_id
 _symmetry_equiv_pos_as_xyz
  1  'x, y, z'
loop_
 _atom_site_type_symbol
 _atom_site_label
 _atom_site_symmetry_multiplicity
 _atom_site_fract_x
 _atom_site_fract_y
 _atom_site_fract_z
 _atom_site_occupancy
  Ba  Ba0  1  0.24815295  0.75149866  0.24799104  1
  Ba  Ba1  1  0.24817040  0.75156199  0.75182960  1
  Ba  Ba2  1  0.75200896  0.75149866  0.75184705  1
  Sr  Sr3  1  0.24557742  0.24818387  0.24621961  1
  Sr  Sr4  1  0.24676843  0.24835577  0.75323157  1
  Sr  Sr5  1  0.75324579  0.24873311  0.24675421  1
  Sr  Sr6  1  0.75378039  0.24818387  0.75442258  1
  Sr  Sr7  1  0.75321061  0.75211253  0.24678939  1
  Co  Co8  1  0.99824188  0.49646269  0.49855433  1
  Co  Co9  1  0.50267576  0.00244408  0.49732424  1
  Co  Co10  1  0.50144567  0.49646269  0.00175812  1
  Co  Co11  1  0.50089328  0.49375647  0.49910672  1
  Cu  Cu12  1  0.99977164  0.00080311  0.00022836  1
  Cu  Cu13  1  -0.00000827  0.00151650  0.49935296  1
  Cu  Cu14  1  0.99984898  0.49823576  0.00015102  1
  Cu  Cu15  1  0.50064704  0.00151650  0.00000827  1
  O  O16  1  0.25165692  0.01413242  0.00107797  1
  O  O17  1  0.25008770  0.01023525  0.49853953  1
  O  O18  1  0.25134393  0.48792125  0.00072842  1
  O  O19  1  0.26277997  0.49101402  0.49971940  1
  O  O20  1  0.74841652  0.00983349  0.00615020  1
  O  O21  1  0.75087790  0.00654584  0.49580463  1
  O  O22  1  0.74896661  0.49266522  0.00532527  1
  O  O23  1  0.73836966  0.49377800  0.49550702  1
  O  O24  1  0.99724706  0.24979635  0.00275294  1
  O  O25  1  0.99936250  0.26062841  0.49948908  1
  O  O26  1  0.99268884  0.74938612  0.00731116  1
  O  O27  1  0.99555511  0.73623458  0.49442170  1
  O  O28  1  0.50051092  0.26062841  0.00063750  1
  O  O29  1  0.50166862  0.23471421  0.49833138  1
  O  O30  1  0.50557830  0.73623458  0.00444489  1
  O  O31  1  0.50331095  0.76880011  0.49668905  1
  O  O32  1  0.99384980  0.00983349  0.25158348  1
  O  O33  1  0.99892203  0.01413242  0.74834308  1
  O  O34  1  0.99467473  0.49266522  0.25103339  1
  O  O35  1  0.99927158  0.48792125  0.74865607  1
  O  O36  1  0.50419537  0.00654584  0.24912210  1
  O  O37  1  0.50146047  0.01023525  0.74991230  1
  O  O38  1  0.50449298  0.49377800  0.26163034  1
  O  O39  1  0.50028060  0.49101402  0.73722003  1
