# generated using pymatgen
data_SrCa7Mn6(FeO10)2
_symmetry_space_group_name_H-M   'P 1'
_cell_length_a   10.93596568
_cell_length_b   11.14162341
_cell_length_c   17.21813995
_cell_angle_alpha   108.79943379
_cell_angle_beta   108.43227532
_cell_angle_gamma   90.00193598
_symmetry_Int_Tables_number   1
_chemical_formula_structural   SrCa7Mn6(FeO10)2
_chemical_formula_sum   'Sr4 Ca28 Mn24 Fe8 O80'
_cell_volume   1871.95448897
_cell_formula_units_Z   4
loop_
 _symmetry_equiv_pos_site_id
 _symmetry_equiv_pos_as_xyz
  1  'x, y, z'
loop_
 _atom_site_type_symbol
 _atom_site_label
 _atom_site_symmetry_multiplicity
 _atom_site_fract_x
 _atom_site_fract_y
 _atom_site_fract_z
 _atom_site_occupancy
  Sr  Sr0  1  0.30834011  0.56072321  0.60985354  1
  Sr  Sr1  1  0.05778361  0.29789413  0.61078343  1
  Sr  Sr2  1  0.55978614  0.29912247  0.61113150  1
  Sr  Sr3  1  0.44768374  0.20038102  0.88948468  1
  Ca  Ca4  1  0.30462728  0.06418601  0.10787941  1
  Ca  Ca5  1  0.30224471  0.06020455  0.60391302  1
  Ca  Ca6  1  0.30555605  0.56563278  0.10849706  1
  Ca  Ca7  1  0.80602197  0.06381815  0.10767281  1
  Ca  Ca8  1  0.80622522  0.06141761  0.60641362  1
  Ca  Ca9  1  0.80693627  0.56458143  0.10832607  1
  Ca  Ca10  1  0.80735390  0.56312366  0.60598758  1
  Ca  Ca11  1  0.19937927  0.43549198  0.39157641  1
  Ca  Ca12  1  0.19731858  0.43745127  0.89517806  1
  Ca  Ca13  1  0.19802583  0.93600258  0.39176555  1
  Ca  Ca14  1  0.19829275  0.93580988  0.89332017  1
  Ca  Ca15  1  0.69830651  0.43569245  0.39263829  1
  Ca  Ca16  1  0.69969267  0.43826621  0.89535612  1
  Ca  Ca17  1  0.69968156  0.93658046  0.39207932  1
  Ca  Ca18  1  0.70008760  0.93820852  0.89342145  1
  Ca  Ca19  1  0.05618252  0.29411504  0.10823481  1
  Ca  Ca20  1  0.05554310  0.79287430  0.10757547  1
  Ca  Ca21  1  0.05547591  0.79483731  0.60607504  1
  Ca  Ca22  1  0.55612711  0.29373121  0.10839613  1
  Ca  Ca23  1  0.55633349  0.79427934  0.10855727  1
  Ca  Ca24  1  0.55654988  0.79469864  0.60636184  1
  Ca  Ca25  1  0.44807859  0.20720442  0.39157337  1
  Ca  Ca26  1  0.44985606  0.70623913  0.39259924  1
  Ca  Ca27  1  0.44935182  0.70705690  0.89476456  1
  Ca  Ca28  1  0.94824672  0.20587945  0.39169209  1
  Ca  Ca29  1  0.95059584  0.20601418  0.89222834  1
  Ca  Ca30  1  0.94885673  0.70607060  0.39232468  1
  Ca  Ca31  1  0.94773599  0.70723685  0.89299348  1
  Mn  Mn32  1  0.00535297  0.99934608  0.49920013  1
  Mn  Mn33  1  0.00336641  0.49969736  0.49753736  1
  Mn  Mn34  1  0.50520742  0.49884888  0.49706613  1
  Mn  Mn35  1  0.25600706  0.25096815  0.00158527  1
  Mn  Mn36  1  0.25305626  0.24773682  0.49608564  1
  Mn  Mn37  1  0.25456394  0.74949963  0.49805164  1
  Mn  Mn38  1  0.75434932  0.24838531  0.49846574  1
  Mn  Mn39  1  0.75526631  0.74987128  0.49919682  1
  Mn  Mn40  1  0.10959447  0.09566314  0.24947392  1
  Mn  Mn41  1  0.10788307  0.09307083  0.75105815  1
  Mn  Mn42  1  0.11009103  0.59768983  0.25076018  1
  Mn  Mn43  1  0.10788102  0.60178130  0.75150956  1
  Mn  Mn44  1  0.60959650  0.09642539  0.25094049  1
  Mn  Mn45  1  0.61314008  0.09372002  0.74863263  1
  Mn  Mn46  1  0.60925826  0.59762540  0.25130252  1
  Mn  Mn47  1  0.61649167  0.60270924  0.75242095  1
  Mn  Mn48  1  0.35900129  0.40428942  0.24881326  1
  Mn  Mn49  1  0.36256844  0.40575910  0.75257522  1
  Mn  Mn50  1  0.35923528  0.90215734  0.25036716  1
  Mn  Mn51  1  0.35713003  0.90205871  0.74781818  1
  Mn  Mn52  1  0.85907085  0.40357905  0.24921297  1
  Mn  Mn53  1  0.86320787  0.40388340  0.75103321  1
  Mn  Mn54  1  0.86119753  0.90285671  0.25101247  1
  Mn  Mn55  1  0.85935454  0.90037626  0.74884579  1
  Fe  Fe56  1  0.00638644  0.00240048  0.00146576  1
  Fe  Fe57  1  0.00536823  0.49810779  0.99917600  1
  Fe  Fe58  1  0.50545135  0.00073169  0.00175513  1
  Fe  Fe59  1  0.50463683  0.99836597  0.49800103  1
  Fe  Fe60  1  0.50575007  0.50058966  0.00196855  1
  Fe  Fe61  1  0.25500948  0.75061542  0.00060723  1
  Fe  Fe62  1  0.75661679  0.25039732  0.00113410  1
  Fe  Fe63  1  0.75645429  0.75103667  0.00132037  1
  O  O64  1  0.12259226  0.11634975  0.48432353  1
  O  O65  1  0.12477242  0.12249919  0.98736370  1
  O  O66  1  0.12272704  0.62309265  0.48618563  1
  O  O67  1  0.12384938  0.62101885  0.98916171  1
  O  O68  1  0.62282102  0.11819687  0.48498207  1
  O  O69  1  0.62707299  0.11900759  0.99230000  1
  O  O70  1  0.62389053  0.62154212  0.48792063  1
  O  O71  1  0.62450699  0.62175086  0.98969557  1
  O  O72  1  0.13957750  0.37965971  0.01579289  1
  O  O73  1  0.13162587  0.37410983  0.50370926  1
  O  O74  1  0.13546670  0.88076349  0.01216365  1
  O  O75  1  0.13482109  0.87891847  0.50962835  1
  O  O76  1  0.63673457  0.38192895  0.01479696  1
  O  O77  1  0.63645133  0.38072647  0.50882908  1
  O  O78  1  0.63483263  0.87905516  0.01249970  1
  O  O79  1  0.63602130  0.87764840  0.51037463  1
  O  O80  1  0.37135896  0.11591702  0.48779507  1
  O  O81  1  0.37099415  0.11821738  0.99096515  1
  O  O82  1  0.37445413  0.61874852  0.48624682  1
  O  O83  1  0.37389864  0.61819758  0.98977515  1
  O  O84  1  0.87115007  0.11524577  0.48525345  1
  O  O85  1  0.87416879  0.11714054  0.98639929  1
  O  O86  1  0.87165164  0.62057315  0.48746488  1
  O  O87  1  0.87396657  0.61782162  0.98802295  1
  O  O88  1  0.38477947  0.38287571  0.01530035  1
  O  O89  1  0.38288055  0.37810167  0.50532018  1
  O  O90  1  0.38581909  0.88235298  0.01240570  1
  O  O91  1  0.38441408  0.87989272  0.50984959  1
  O  O92  1  0.88638216  0.38317220  0.01277017  1
  O  O93  1  0.87867090  0.38019611  0.50754539  1
  O  O94  1  0.88637831  0.88376472  0.01326855  1
  O  O95  1  0.88525901  0.88126999  0.51145380  1
  O  O96  1  0.08249632  0.09874630  0.13339511  1
  O  O97  1  0.07957490  0.08577954  0.62997694  1
  O  O98  1  0.08268050  0.59558964  0.13612472  1
  O  O99  1  0.07329406  0.59049939  0.63397962  1
  O  O100  1  0.58090460  0.09594595  0.13714411  1
  O  O101  1  0.58301984  0.08476279  0.63230287  1
  O  O102  1  0.58087568  0.59701225  0.13714288  1
  O  O103  1  0.57732563  0.59016749  0.63294543  1
  O  O104  1  0.44898788  0.40562437  0.36679569  1
  O  O105  1  0.44827341  0.40974456  0.86643112  1
  O  O106  1  0.44516407  0.90466752  0.36554281  1
  O  O107  1  0.44386366  0.90934943  0.86386837  1
  O  O108  1  0.94154512  0.40685911  0.36377753  1
  O  O109  1  0.95430887  0.40074637  0.86799749  1
  O  O110  1  0.94438932  0.90556309  0.36751039  1
  O  O111  1  0.94745014  0.90505247  0.86367654  1
  O  O112  1  0.32745320  0.28528341  0.13003772  1
  O  O113  1  0.32213267  0.29477759  0.63323056  1
  O  O114  1  0.32975747  0.79076016  0.13523308  1
  O  O115  1  0.32638021  0.79436618  0.63135321  1
  O  O116  1  0.83225404  0.28936203  0.13558191  1
  O  O117  1  0.82177928  0.28507481  0.62915568  1
  O  O118  1  0.83289372  0.78899314  0.13581985  1
  O  O119  1  0.82730905  0.78927113  0.63188532  1
  O  O120  1  0.19752296  0.21053697  0.36696480  1
  O  O121  1  0.19486486  0.21539192  0.87177425  1
  O  O122  1  0.19467488  0.71002322  0.36650604  1
  O  O123  1  0.19534240  0.71350093  0.86659213  1
  O  O124  1  0.69471202  0.20896656  0.36640920  1
  O  O125  1  0.69128648  0.20805947  0.86394837  1
  O  O126  1  0.69567684  0.71055524  0.36748661  1
  O  O127  1  0.70019335  0.71566328  0.86623230  1
  O  O128  1  0.42725167  0.07251488  0.25016128  1
  O  O129  1  0.42893971  0.06384293  0.74122894  1
  O  O130  1  0.42976483  0.57658413  0.25033999  1
  O  O131  1  0.43619751  0.57388730  0.75764413  1
  O  O132  1  0.92501802  0.06983247  0.25009503  1
  O  O133  1  0.91986526  0.06805372  0.74929178  1
  O  O134  1  0.92507955  0.57406978  0.25031338  1
  O  O135  1  0.92830024  0.57810655  0.74964852  1
  O  O136  1  0.17305385  0.43090716  0.25014370  1
  O  O137  1  0.18634906  0.43908536  0.75837640  1
  O  O138  1  0.17888444  0.92353916  0.24986190  1
  O  O139  1  0.17920935  0.91960727  0.75004534  1
  O  O140  1  0.67771467  0.42721762  0.25021873  1
  O  O141  1  0.68377769  0.44118861  0.75913256  1
  O  O142  1  0.67446207  0.92774968  0.25021044  1
  O  O143  1  0.67593188  0.92229158  0.74985348  1
