# generated using pymatgen
data_Sr2Ca6Mn5Fe3O20
_symmetry_space_group_name_H-M   'P 1'
_cell_length_a   10.95372400
_cell_length_b   11.14251497
_cell_length_c   17.37653098
_cell_angle_alpha   108.66059640
_cell_angle_beta   108.28485432
_cell_angle_gamma   90.00923535
_symmetry_Int_Tables_number   1
_chemical_formula_structural   Sr2Ca6Mn5Fe3O20
_chemical_formula_sum   'Sr8 Ca24 Mn20 Fe12 O80'
_cell_volume   1895.93992389
_cell_formula_units_Z   4
loop_
 _symmetry_equiv_pos_site_id
 _symmetry_equiv_pos_as_xyz
  1  'x, y, z'
loop_
 _atom_site_type_symbol
 _atom_site_label
 _atom_site_symmetry_multiplicity
 _atom_site_fract_x
 _atom_site_fract_y
 _atom_site_fract_z
 _atom_site_occupancy
  Sr  Sr0  1  0.30976900  0.56055543  0.61022106  1
  Sr  Sr1  1  0.80882691  0.05854811  0.61098279  1
  Sr  Sr2  1  0.20083251  0.44194329  0.89233727  1
  Sr  Sr3  1  0.05970992  0.29880407  0.60925692  1
  Sr  Sr4  1  0.05833406  0.80187249  0.61038864  1
  Sr  Sr5  1  0.55960402  0.30103012  0.61088273  1
  Sr  Sr6  1  0.44935368  0.19988969  0.89048254  1
  Sr  Sr7  1  0.94669774  0.19798449  0.38483095  1
  Ca  Ca8  1  0.30383965  0.06516256  0.10846127  1
  Ca  Ca9  1  0.30590852  0.05968320  0.60354991  1
  Ca  Ca10  1  0.30671795  0.56676109  0.10918239  1
  Ca  Ca11  1  0.80486954  0.06218744  0.10560525  1
  Ca  Ca12  1  0.80581201  0.56298523  0.10722254  1
  Ca  Ca13  1  0.80798389  0.56126392  0.60607646  1
  Ca  Ca14  1  0.19860237  0.43640238  0.39039587  1
  Ca  Ca15  1  0.19886389  0.93444655  0.39092326  1
  Ca  Ca16  1  0.20015612  0.93761409  0.89702059  1
  Ca  Ca17  1  0.69358232  0.43527916  0.39080782  1
  Ca  Ca18  1  0.70028861  0.43744857  0.89585334  1
  Ca  Ca19  1  0.69799997  0.93520909  0.39109981  1
  Ca  Ca20  1  0.70091946  0.93846550  0.89379050  1
  Ca  Ca21  1  0.05837249  0.29628411  0.10967933  1
  Ca  Ca22  1  0.05590539  0.79210675  0.10695582  1
  Ca  Ca23  1  0.55500666  0.29298813  0.10838898  1
  Ca  Ca24  1  0.55637212  0.79397303  0.10849530  1
  Ca  Ca25  1  0.55908376  0.79335185  0.60560874  1
  Ca  Ca26  1  0.45000896  0.20593670  0.39049959  1
  Ca  Ca27  1  0.44826865  0.70697558  0.39178260  1
  Ca  Ca28  1  0.45180986  0.70855870  0.89643440  1
  Ca  Ca29  1  0.95274641  0.20506935  0.89537560  1
  Ca  Ca30  1  0.94760114  0.70550690  0.39028795  1
  Ca  Ca31  1  0.94884925  0.70822215  0.89471330  1
  Mn  Mn32  1  0.00469593  0.99940668  0.49802058  1
  Mn  Mn33  1  0.00177227  0.49927683  0.49586786  1
  Mn  Mn34  1  0.25684206  0.25102126  0.00288577  1
  Mn  Mn35  1  0.25382302  0.24822560  0.49583813  1
  Mn  Mn36  1  0.11313320  0.09089138  0.24706635  1
  Mn  Mn37  1  0.11407864  0.09321126  0.75561016  1
  Mn  Mn38  1  0.10791031  0.59881758  0.24912630  1
  Mn  Mn39  1  0.10859294  0.60219026  0.75114552  1
  Mn  Mn40  1  0.60556322  0.09485923  0.24941908  1
  Mn  Mn41  1  0.60924807  0.09291409  0.74912315  1
  Mn  Mn42  1  0.60686462  0.59722139  0.24908537  1
  Mn  Mn43  1  0.61667739  0.60609165  0.75402970  1
  Mn  Mn44  1  0.35849788  0.40559848  0.24817690  1
  Mn  Mn45  1  0.36816461  0.40614133  0.75153283  1
  Mn  Mn46  1  0.35726804  0.90092911  0.24930010  1
  Mn  Mn47  1  0.36379083  0.90121213  0.75112058  1
  Mn  Mn48  1  0.85672360  0.40875367  0.24823143  1
  Mn  Mn49  1  0.86011616  0.40777642  0.75317440  1
  Mn  Mn50  1  0.85754862  0.89811217  0.24698720  1
  Mn  Mn51  1  0.85813153  0.89777190  0.75259788  1
  Fe  Fe52  1  0.00785993  0.00344343  0.00323774  1
  Fe  Fe53  1  0.00620917  0.50009041  0.00184260  1
  Fe  Fe54  1  0.50646434  0.00080858  0.00272488  1
  Fe  Fe55  1  0.50277652  0.99854184  0.49693646  1
  Fe  Fe56  1  0.50690152  0.50041096  0.00231884  1
  Fe  Fe57  1  0.50324387  0.49667585  0.49439457  1
  Fe  Fe58  1  0.25627542  0.75257228  0.00238513  1
  Fe  Fe59  1  0.25290142  0.74858164  0.49721821  1
  Fe  Fe60  1  0.75696417  0.25054265  0.00196084  1
  Fe  Fe61  1  0.75341468  0.24932882  0.49772891  1
  Fe  Fe62  1  0.75641406  0.75046739  0.00097756  1
  Fe  Fe63  1  0.75239302  0.74709536  0.49589065  1
  O  O64  1  0.12800404  0.11790982  0.48945294  1
  O  O65  1  0.12517579  0.12205489  0.98619148  1
  O  O66  1  0.11959457  0.61920766  0.48689167  1
  O  O67  1  0.12358010  0.62551989  0.99336445  1
  O  O68  1  0.62198013  0.11936978  0.48621537  1
  O  O69  1  0.62940495  0.12084045  0.99546990  1
  O  O70  1  0.62336515  0.62022068  0.48815144  1
  O  O71  1  0.62548762  0.62035120  0.98915625  1
  O  O72  1  0.13843207  0.37897467  0.01563218  1
  O  O73  1  0.13270054  0.37744385  0.50390420  1
  O  O74  1  0.13637605  0.88158674  0.01205527  1
  O  O75  1  0.13099429  0.87973380  0.50339324  1
  O  O76  1  0.63769999  0.38116713  0.01490599  1
  O  O77  1  0.63797119  0.38214225  0.51004090  1
  O  O78  1  0.63495041  0.87825603  0.01287902  1
  O  O79  1  0.62960709  0.87373124  0.50481858  1
  O  O80  1  0.37050505  0.11827300  0.48713315  1
  O  O81  1  0.37285284  0.11892755  0.99230504  1
  O  O82  1  0.37294305  0.61780507  0.48712574  1
  O  O83  1  0.37941270  0.62403752  0.99483231  1
  O  O84  1  0.87469149  0.11625571  0.48990776  1
  O  O85  1  0.87449599  0.11811490  0.98792403  1
  O  O86  1  0.87170868  0.61706643  0.48770077  1
  O  O87  1  0.87417123  0.61776537  0.98891741  1
  O  O88  1  0.38665119  0.38316074  0.01757176  1
  O  O89  1  0.38066140  0.37516778  0.50340448  1
  O  O90  1  0.38555503  0.88280812  0.01146881  1
  O  O91  1  0.38195391  0.88107082  0.50876713  1
  O  O92  1  0.88545907  0.38137958  0.01121392  1
  O  O93  1  0.88044322  0.38244756  0.50381788  1
  O  O94  1  0.88816148  0.88396566  0.01570421  1
  O  O95  1  0.88086856  0.87691721  0.50091617  1
  O  O96  1  0.08961855  0.10203659  0.13252229  1
  O  O97  1  0.07646515  0.07742906  0.63294300  1
  O  O98  1  0.07908371  0.59277480  0.13502565  1
  O  O99  1  0.06712071  0.58395382  0.63252597  1
  O  O100  1  0.57948647  0.09314289  0.13661990  1
  O  O101  1  0.57776070  0.08392705  0.63380069  1
  O  O102  1  0.58040406  0.59476176  0.13579298  1
  O  O103  1  0.57579158  0.58842440  0.63512924  1
  O  O104  1  0.45137850  0.40080320  0.36516838  1
  O  O105  1  0.44708172  0.41052245  0.86899752  1
  O  O106  1  0.44067815  0.90724971  0.36439113  1
  O  O107  1  0.45277942  0.91223413  0.86649656  1
  O  O108  1  0.94261441  0.41532577  0.36198593  1
  O  O109  1  0.94568178  0.40549287  0.86597776  1
  O  O110  1  0.94396759  0.91170989  0.36311906  1
  O  O111  1  0.94376261  0.90380849  0.86676933  1
  O  O112  1  0.32712382  0.28431832  0.12927094  1
  O  O113  1  0.32475814  0.29492389  0.63021759  1
  O  O114  1  0.33017167  0.79350475  0.13586914  1
  O  O115  1  0.32091314  0.79801126  0.63324807  1
  O  O116  1  0.83339668  0.29238332  0.13711063  1
  O  O117  1  0.82545801  0.30182009  0.63594586  1
  O  O118  1  0.82797155  0.78571839  0.13474235  1
  O  O119  1  0.82246713  0.79706206  0.63373940  1
  O  O120  1  0.19315450  0.20896914  0.36722315  1
  O  O121  1  0.19812445  0.21137297  0.87415875  1
  O  O122  1  0.19168931  0.70674768  0.36452244  1
  O  O123  1  0.19682373  0.70872096  0.86693758  1
  O  O124  1  0.68917439  0.20552201  0.36382320  1
  O  O125  1  0.68915513  0.20489736  0.86427028  1
  O  O126  1  0.69344696  0.70544436  0.36304204  1
  O  O127  1  0.70176902  0.71539216  0.86765053  1
  O  O128  1  0.42645552  0.07116253  0.24922604  1
  O  O129  1  0.42845432  0.06624845  0.74238423  1
  O  O130  1  0.42915146  0.58136243  0.24969578  1
  O  O131  1  0.44318455  0.58009199  0.75879313  1
  O  O132  1  0.92428325  0.05409856  0.23905345  1
  O  O133  1  0.93114410  0.06427613  0.75842252  1
  O  O134  1  0.92167854  0.57847144  0.24854237  1
  O  O135  1  0.92607531  0.57763449  0.75204336  1
  O  O136  1  0.17157977  0.43473227  0.24997712  1
  O  O137  1  0.18821379  0.44465465  0.75075627  1
  O  O138  1  0.17954273  0.91643015  0.24874689  1
  O  O139  1  0.19164256  0.92638949  0.76007596  1
  O  O140  1  0.67702331  0.42670427  0.24869659  1
  O  O141  1  0.68582756  0.43685955  0.75942421  1
  O  O142  1  0.67478185  0.92597767  0.25001227  1
  O  O143  1  0.67387184  0.92133595  0.75032983  1
