# generated using pymatgen
data_Sr3Ca5Fe4(CoO6)4
_symmetry_space_group_name_H-M   'P 1'
_cell_length_a   7.68342696
_cell_length_b   7.66639348
_cell_length_c   7.68342696
_cell_angle_alpha   89.99136290
_cell_angle_beta   90.03176829
_cell_angle_gamma   90.00863710
_symmetry_Int_Tables_number   1
_chemical_formula_structural   Sr3Ca5Fe4(CoO6)4
_chemical_formula_sum   'Sr3 Ca5 Fe4 Co4 O24'
_cell_volume   452.58584128
_cell_formula_units_Z   1
loop_
 _symmetry_equiv_pos_site_id
 _symmetry_equiv_pos_as_xyz
  1  'x, y, z'
loop_
 _atom_site_type_symbol
 _atom_site_label
 _atom_site_symmetry_multiplicity
 _atom_site_fract_x
 _atom_site_fract_y
 _atom_site_fract_z
 _atom_site_occupancy
  Sr  Sr0  1  0.25028642  0.25104200  0.25027412  1
  Sr  Sr1  1  0.25027686  0.25107769  0.74972314  1
  Sr  Sr2  1  0.74972588  0.25104200  0.74971358  1
  Ca  Ca3  1  0.24967011  0.74940157  0.24970195  1
  Ca  Ca4  1  0.24966444  0.74944492  0.75033556  1
  Ca  Ca5  1  0.75038542  0.25072014  0.24961458  1
  Ca  Ca6  1  0.75034243  0.74939292  0.24965757  1
  Ca  Ca7  1  0.75029805  0.74940157  0.75032989  1
  Fe  Fe8  1  0.99937599  0.99824392  0.00062401  1
  Fe  Fe9  1  0.99926430  0.99824749  0.49949244  1
  Fe  Fe10  1  0.99935806  0.50147683  0.00064194  1
  Fe  Fe11  1  0.50050756  0.99824749  0.00073570  1
  Co  Co12  1  0.99920586  0.50202013  0.49932406  1
  Co  Co13  1  0.50054377  0.99729752  0.49945623  1
  Co  Co14  1  0.50067594  0.50202013  0.00079414  1
  Co  Co15  1  0.50077457  0.50175109  0.49922543  1
  O  O16  1  0.24912957  0.99452894  0.00058173  1
  O  O17  1  0.25639865  0.99364624  0.49935070  1
  O  O18  1  0.25195524  0.50616209  0.00064797  1
  O  O19  1  0.23906938  0.50545651  0.49941439  1
  O  O20  1  0.75081070  0.99633739  0.00245256  1
  O  O21  1  0.74344047  0.99594776  0.49759891  1
  O  O22  1  0.74797768  0.50383744  0.00247775  1
  O  O23  1  0.76058951  0.50369298  0.49743130  1
  O  O24  1  0.99751523  0.24782334  0.00248477  1
  O  O25  1  0.99738162  0.25246614  0.49707691  1
  O  O26  1  0.99931362  0.75197350  0.00068638  1
  O  O27  1  0.99923459  0.74718015  0.49949029  1
  O  O28  1  0.50292309  0.25246614  0.00261838  1
  O  O29  1  0.50297658  0.25951409  0.49702342  1
  O  O30  1  0.50050971  0.74718015  0.00076541  1
  O  O31  1  0.50037400  0.74135039  0.49962600  1
  O  O32  1  0.99754744  0.99633739  0.24918930  1
  O  O33  1  0.99941827  0.99452894  0.75087043  1
  O  O34  1  0.99752225  0.50383744  0.25202232  1
  O  O35  1  0.99935203  0.50616209  0.74804476  1
  O  O36  1  0.50240109  0.99594776  0.25655953  1
  O  O37  1  0.50064930  0.99364624  0.74360135  1
  O  O38  1  0.50256870  0.50369298  0.23941049  1
  O  O39  1  0.50058561  0.50545651  0.76093062  1
