# generated using pymatgen
data_Sr4Ca4Fe3Co5O24
_symmetry_space_group_name_H-M   'P 1'
_cell_length_a   7.75183149
_cell_length_b   7.70490985
_cell_length_c   7.71625583
_cell_angle_alpha   89.94468854
_cell_angle_beta   90.01051134
_cell_angle_gamma   89.97694516
_symmetry_Int_Tables_number   1
_chemical_formula_structural   Sr4Ca4Fe3Co5O24
_chemical_formula_sum   'Sr4 Ca4 Fe3 Co5 O24'
_cell_volume   460.86980801
_cell_formula_units_Z   1
loop_
 _symmetry_equiv_pos_site_id
 _symmetry_equiv_pos_as_xyz
  1  'x, y, z'
loop_
 _atom_site_type_symbol
 _atom_site_label
 _atom_site_symmetry_multiplicity
 _atom_site_fract_x
 _atom_site_fract_y
 _atom_site_fract_z
 _atom_site_occupancy
  Sr  Sr0  1  0.25235669  0.25003376  0.24600051  1
  Sr  Sr1  1  0.25223843  0.25008893  0.75426935  1
  Sr  Sr2  1  0.74802740  0.25006329  0.75378105  1
  Sr  Sr3  1  0.74815576  0.74981233  0.24607352  1
  Ca  Ca4  1  0.25141646  0.75152225  0.23870218  1
  Ca  Ca5  1  0.25195930  0.75151875  0.76074379  1
  Ca  Ca6  1  0.74756987  0.24831502  0.23947017  1
  Ca  Ca7  1  0.74837869  0.75162303  0.75960310  1
  Fe  Fe8  1  0.99991013  0.99897442  0.00003457  1
  Fe  Fe9  1  0.00010755  0.99792693  0.49994526  1
  Fe  Fe10  1  0.99986284  0.50084167  -0.00004583  1
  Co  Co11  1  0.99996002  0.50125963  0.49986534  1
  Co  Co12  1  0.50016379  0.99850187  0.00006799  1
  Co  Co13  1  0.50010180  0.99816580  0.49995280  1
  Co  Co14  1  0.50017263  0.50162833  0.00013771  1
  Co  Co15  1  0.49997402  0.50266259  0.50010029  1
  O  O16  1  0.25022861  0.99271698  0.99982568  1
  O  O17  1  0.24688184  0.99433862  0.50017431  1
  O  O18  1  0.25292880  0.50640575  0.99975673  1
  O  O19  1  0.26919102  0.50447746  0.50007207  1
  O  O20  1  0.74955214  0.99673880  0.99955959  1
  O  O21  1  0.75339862  0.99775990  0.50055455  1
  O  O22  1  0.74690244  0.50323595  0.99947905  1
  O  O23  1  0.73085049  0.50128875  0.50016714  1
  O  O24  1  0.99791519  0.24910398  0.00237051  1
  O  O25  1  0.99845358  0.26662543  0.49878170  1
  O  O26  1  0.00140869  0.75061815  0.99803821  1
  O  O27  1  0.00125343  0.73336101  0.50060349  1
  O  O28  1  0.50707387  0.25094935  0.00374632  1
  O  O29  1  0.50132873  0.23410786  0.49704322  1
  O  O30  1  0.49231846  0.74944955  0.99786300  1
  O  O31  1  0.49973047  0.76485855  0.50316962  1
  O  O32  1  0.00028188  0.99836324  0.25145475  1
  O  O33  1  0.00009358  0.99424589  0.74853485  1
  O  O34  1  0.00058017  0.50198322  0.25040173  1
  O  O35  1  0.99998496  0.50473746  0.74938193  1
  O  O36  1  0.49958770  0.99773846  0.23525532  1
  O  O37  1  0.49997766  0.99609322  0.76495381  1
  O  O38  1  0.49970822  0.50182494  0.23976830  1
  O  O39  1  0.50001409  0.50603888  0.76034232  1
