# generated using pymatgen
data_KSe3
_symmetry_space_group_name_H-M   'P 1'
_cell_length_a   5.47153248
_cell_length_b   8.70313814
_cell_length_c   6.46610223
_cell_angle_alpha   64.89158408
_cell_angle_beta   64.96994823
_cell_angle_gamma   71.67887403
_symmetry_Int_Tables_number   1
_chemical_formula_structural   KSe3
_chemical_formula_sum   'K2 Se6'
_cell_volume   249.19847882
_cell_formula_units_Z   2
loop_
 _symmetry_equiv_pos_site_id
 _symmetry_equiv_pos_as_xyz
  1  'x, y, z'
loop_
 _atom_site_type_symbol
 _atom_site_label
 _atom_site_symmetry_multiplicity
 _atom_site_fract_x
 _atom_site_fract_y
 _atom_site_fract_z
 _atom_site_occupancy
  K  K0  1  0.03290479  0.24791840  0.54693420  1
  K  K1  1  0.82775739  0.75208160  0.45306580  1
  Se  Se2  1  0.29830891  0.52138535  0.75102598  1
  Se  Se3  1  0.57072024  0.47861465  0.24897402  1
  Se  Se4  1  0.13752054  0.80884769  0.86735411  1
  Se  Se5  1  0.81372233  0.19115231  0.13264589  1
  Se  Se6  1  0.29074626  0.20352138  0.99605190  1
  Se  Se7  1  0.49031955  0.79647862  0.00394810  1
