# generated using pymatgen
data_Fe2CoSe4
_symmetry_space_group_name_H-M   'P 1'
_cell_length_a   3.47385228
_cell_length_b   6.08786095
_cell_length_c   6.33995262
_cell_angle_alpha   115.96501616
_cell_angle_beta   105.90035400
_cell_angle_gamma   90.00000000
_symmetry_Int_Tables_number   1
_chemical_formula_structural   Fe2CoSe4
_chemical_formula_sum   'Fe2 Co1 Se4'
_cell_volume   114.81259290
_cell_formula_units_Z   1
loop_
 _symmetry_equiv_pos_site_id
 _symmetry_equiv_pos_as_xyz
  1  'x, y, z'
loop_
 _atom_site_type_symbol
 _atom_site_label
 _atom_site_symmetry_multiplicity
 _atom_site_fract_x
 _atom_site_fract_y
 _atom_site_fract_z
 _atom_site_occupancy
  Fe  Fe0  1  0.74116653  0.69387181  0.48233306  1
  Fe  Fe1  1  0.25883347  0.30612819  0.51766694  1
  Co  Co2  1  0.00000000  -0.00000000  0.00000000  1
  Se  Se3  1  0.63565374  0.97884884  0.27130748  1
  Se  Se4  1  0.36434626  0.02115116  0.72869252  1
  Se  Se5  1  0.89307032  0.55548283  0.78614064  1
  Se  Se6  1  0.10692968  0.44451717  0.21385936  1
