# generated using pymatgen
data_Mg16Si7HO32
_symmetry_space_group_name_H-M   'P 1'
_cell_length_a   8.44111123
_cell_length_b   11.67595596
_cell_length_c   5.80601805
_cell_angle_alpha   89.96552639
_cell_angle_beta   90.05828317
_cell_angle_gamma   90.25972086
_symmetry_Int_Tables_number   1
_chemical_formula_structural   Mg16Si7HO32
_chemical_formula_sum   'Mg16 Si7 H1 O32'
_cell_volume   572.22349921
_cell_formula_units_Z   1
loop_
 _symmetry_equiv_pos_site_id
 _symmetry_equiv_pos_as_xyz
  1  'x, y, z'
loop_
 _atom_site_type_symbol
 _atom_site_label
 _atom_site_symmetry_multiplicity
 _atom_site_fract_x
 _atom_site_fract_y
 _atom_site_fract_z
 _atom_site_occupancy
  Mg  Mg0  1  0.78272633  0.99724117  0.25007710  1
  Mg  Mg1  1  0.21844156  0.99837353  0.74991389  1
  Mg  Mg2  1  0.24552892  0.75120539  0.75124092  1
  Mg  Mg3  1  0.25012186  0.24995710  0.75044013  1
  Mg  Mg4  1  0.00112500  0.37889943  0.00313831  1
  Mg  Mg5  1  0.99224577  0.62656853  0.50010276  1
  Mg  Mg6  1  0.99439937  0.62619906  0.00038882  1
  Mg  Mg7  1  0.00072579  0.37918252  0.49676511  1
  Mg  Mg8  1  0.29751414  0.49599211  0.75327020  1
  Mg  Mg9  1  0.71364000  0.50168240  0.24808905  1
  Mg  Mg10  1  0.76103531  0.24822447  0.24947253  1
  Mg  Mg11  1  0.75365717  0.75207834  0.24871948  1
  Mg  Mg12  1  0.50028391  0.87522856  0.50599088  1
  Mg  Mg13  1  0.51350221  0.11574298  0.98528830  1
  Mg  Mg14  1  0.50982991  0.11705449  0.51045283  1
  Mg  Mg15  1  0.50051873  0.87540535  0.99149481  1
  Si  Si16  1  0.13104443  0.12699850  0.25222187  1
  Si  Si17  1  0.13744727  0.86685924  0.24999322  1
  Si  Si18  1  0.86562307  0.87346879  0.74969006  1
  Si  Si19  1  0.86943406  0.13138112  0.74948347  1
  Si  Si20  1  0.63352222  0.63007760  0.74886654  1
  Si  Si21  1  0.63752253  0.36796681  0.74947363  1
  Si  Si22  1  0.35844667  0.38802439  0.25213825  1
  H  H23  1  0.37704084  0.20293912  0.23367831  1
  O  O24  1  0.03617970  0.99795027  0.24992908  1
  O  O25  1  0.96808086  0.00355396  0.74973123  1
  O  O26  1  0.53709172  0.00365026  0.24898897  1
  O  O27  1  0.46482522  0.99825379  0.74874140  1
  O  O28  1  0.00665671  0.23656661  0.25042686  1
  O  O29  1  0.00608603  0.76107690  0.24978397  1
  O  O30  1  0.98909584  0.76533024  0.75012390  1
  O  O31  1  0.99709424  0.23987012  0.75035012  1
  O  O32  1  0.25217818  0.37222725  0.01284892  1
  O  O33  1  0.22612964  0.61753712  0.54084025  1
  O  O34  1  0.74292772  0.62885666  0.51206462  1
  O  O35  1  0.74581105  0.36674609  0.98734076  1
  O  O36  1  0.74370146  0.62903474  0.98531493  1
  O  O37  1  0.74522054  0.36658959  0.51147646  1
  O  O38  1  0.25171879  0.37230877  0.49017967  1
  O  O39  1  0.22854046  0.61919596  0.96353760  1
  O  O40  1  0.54217833  0.49698107  0.75010920  1
  O  O41  1  0.48464849  0.48626224  0.25195404  1
  O  O42  1  0.02088240  0.50037302  0.74948267  1
  O  O43  1  0.96096219  0.49944772  0.24950704  1
  O  O44  1  0.50448319  0.73753845  0.74859090  1
  O  O45  1  0.50730268  0.25854512  0.75045150  1
  O  O46  1  0.47191992  0.25319149  0.25095071  1
  O  O47  1  0.52286452  0.77316725  0.24846696  1
  O  O48  1  0.75909076  0.87776370  0.51314121  1
  O  O49  1  0.75957187  0.12726000  0.98671668  1
  O  O50  1  0.24722895  0.12841788  0.01991887  1
  O  O51  1  0.24275032  0.87256072  0.48953609  1
  O  O52  1  0.24458303  0.12714657  0.48661804  1
  O  O53  1  0.24267884  0.87356353  0.01062253  1
  O  O54  1  0.75884808  0.87810914  0.98559914  1
  O  O55  1  0.75897123  0.12732276  0.51255520  1
