# generated using pymatgen
data_BaSr3Co2(CuO6)2
_symmetry_space_group_name_H-M   'P 1'
_cell_length_a   7.84025729
_cell_length_b   7.85059911
_cell_length_c   7.84025729
_cell_angle_alpha   90.00000000
_cell_angle_beta   90.09862181
_cell_angle_gamma   90.00000000
_symmetry_Int_Tables_number   1
_chemical_formula_structural   BaSr3Co2(CuO6)2
_chemical_formula_sum   'Ba2 Sr6 Co4 Cu4 O24'
_cell_volume   482.57274247
_cell_formula_units_Z   2
loop_
 _symmetry_equiv_pos_site_id
 _symmetry_equiv_pos_as_xyz
  1  'x, y, z'
loop_
 _atom_site_type_symbol
 _atom_site_label
 _atom_site_symmetry_multiplicity
 _atom_site_fract_x
 _atom_site_fract_y
 _atom_site_fract_z
 _atom_site_occupancy
  Ba  Ba0  1  0.24831836  0.75294151  0.24831836  1
  Ba  Ba1  1  0.75168164  0.75294151  0.75168164  1
  Sr  Sr2  1  0.24629405  0.24534202  0.24629405  1
  Sr  Sr3  1  0.24657660  0.24573699  0.75342340  1
  Sr  Sr4  1  0.24649206  0.75490375  0.75350794  1
  Sr  Sr5  1  0.75342340  0.24573699  0.24657660  1
  Sr  Sr6  1  0.75370595  0.24534202  0.75370595  1
  Sr  Sr7  1  0.75350794  0.75490375  0.24649206  1
  Co  Co8  1  0.00000000  0.49658134  0.50000000  1
  Co  Co9  1  0.50000000  0.00194630  0.50000000  1
  Co  Co10  1  0.50000000  0.49658134  -0.00000000  1
  Co  Co11  1  0.50000000  0.49678128  0.50000000  1
  Cu  Cu12  1  0.00000000  0.00096195  -0.00000000  1
  Cu  Cu13  1  0.00000000  0.00086026  0.50000000  1
  Cu  Cu14  1  0.00000000  0.49878712  -0.00000000  1
  Cu  Cu15  1  0.50000000  0.00086026  -0.00000000  1
  O  O16  1  0.25128054  0.00733908  0.99439601  1
  O  O17  1  0.25327740  0.00549488  0.50331440  1
  O  O18  1  0.25645840  0.49443052  0.99606221  1
  O  O19  1  0.25421635  0.49533205  0.50354259  1
  O  O20  1  0.74871946  0.00733908  0.00560399  1
  O  O21  1  0.74672260  0.00549488  0.49668560  1
  O  O22  1  0.74354160  0.49443052  0.00393779  1
  O  O23  1  0.74578365  0.49533205  0.49645741  1
  O  O24  1  0.00000000  0.25191286  -0.00000000  1
  O  O25  1  0.00000000  0.25421031  0.50000000  1
  O  O26  1  0.00000000  0.74832946  -0.00000000  1
  O  O27  1  0.00000000  0.74360776  0.50000000  1
  O  O28  1  0.50000000  0.25421031  -0.00000000  1
  O  O29  1  0.50000000  0.24618338  0.50000000  1
  O  O30  1  0.50000000  0.74360776  -0.00000000  1
  O  O31  1  0.50000000  0.75634362  0.50000000  1
  O  O32  1  0.99439601  0.00733908  0.25128054  1
  O  O33  1  0.00560399  0.00733908  0.74871946  1
  O  O34  1  0.99606221  0.49443052  0.25645840  1
  O  O35  1  0.00393779  0.49443052  0.74354160  1
  O  O36  1  0.50331440  0.00549488  0.25327740  1
  O  O37  1  0.49668560  0.00549488  0.74672260  1
  O  O38  1  0.50354259  0.49533205  0.25421635  1
  O  O39  1  0.49645741  0.49533205  0.74578365  1
