# generated using pymatgen
data_La7SmCo6(CuO10)2
_symmetry_space_group_name_H-M   'P 1'
_cell_length_a   10.81082881
_cell_length_b   11.46135785
_cell_length_c   17.85788494
_cell_angle_alpha   108.64212463
_cell_angle_beta   107.57064312
_cell_angle_gamma   89.99599646
_symmetry_Int_Tables_number   1
_chemical_formula_structural   La7SmCo6(CuO10)2
_chemical_formula_sum   'La28 Sm4 Co24 Cu8 O80'
_cell_volume   1987.38223555
_cell_formula_units_Z   4
loop_
 _symmetry_equiv_pos_site_id
 _symmetry_equiv_pos_as_xyz
  1  'x, y, z'
loop_
 _atom_site_type_symbol
 _atom_site_label
 _atom_site_symmetry_multiplicity
 _atom_site_fract_x
 _atom_site_fract_y
 _atom_site_fract_z
 _atom_site_occupancy
  La  La0  1  0.30204486  0.06522219  0.11106648  1
  La  La1  1  0.30835260  0.06527574  0.61024597  1
  La  La2  1  0.30788389  0.56550834  0.61068726  1
  La  La3  1  0.80443918  0.06635418  0.61090604  1
  La  La4  1  0.80530482  0.56790767  0.11089478  1
  La  La5  1  0.80762101  0.56539102  0.61107724  1
  La  La6  1  0.19713275  0.43343022  0.38866534  1
  La  La7  1  0.19306485  0.43544378  0.89047777  1
  La  La8  1  0.19725859  0.93394049  0.38726689  1
  La  La9  1  0.19425850  0.93269687  0.88891166  1
  La  La10  1  0.69671228  0.43476814  0.38915139  1
  La  La11  1  0.69310906  0.93338744  0.38872203  1
  La  La12  1  0.69487068  0.93267767  0.88962548  1
  La  La13  1  0.05382103  0.29479737  0.11163450  1
  La  La14  1  0.05773622  0.29494865  0.61097903  1
  La  La15  1  0.05731019  0.79648177  0.61085922  1
  La  La16  1  0.56017959  0.29423141  0.11153653  1
  La  La17  1  0.55909502  0.29595997  0.61310053  1
  La  La18  1  0.55379786  0.79533613  0.11194088  1
  La  La19  1  0.55768759  0.79604101  0.61061821  1
  La  La20  1  0.44707502  0.20400602  0.38911454  1
  La  La21  1  0.44907835  0.20660821  0.88921076  1
  La  La22  1  0.44572307  0.70410896  0.38674271  1
  La  La23  1  0.44530842  0.70445663  0.88874442  1
  La  La24  1  0.94534189  0.20235713  0.38711554  1
  La  La25  1  0.94167916  0.20604620  0.88875905  1
  La  La26  1  0.94640397  0.70489867  0.38807428  1
  La  La27  1  0.94404166  0.70439778  0.88937180  1
  Sm  Sm28  1  0.30042927  0.56934745  0.10902778  1
  Sm  Sm29  1  0.80274420  0.06747189  0.10873084  1
  Sm  Sm30  1  0.69365230  0.43303525  0.89202573  1
  Sm  Sm31  1  0.05342076  0.79097942  0.10951499  1
  Co  Co32  1  0.00488978  0.99978189  0.49944403  1
  Co  Co33  1  0.00548594  0.49985904  0.49986405  1
  Co  Co34  1  0.50530834  0.50002124  0.49985308  1
  Co  Co35  1  0.25569273  0.25152876  0.00137709  1
  Co  Co36  1  0.25502724  0.24946902  0.49929182  1
  Co  Co37  1  0.25553291  0.75010129  0.49983583  1
  Co  Co38  1  0.75487212  0.24971982  0.49957891  1
  Co  Co39  1  0.75507028  0.75006563  0.50011044  1
  Co  Co40  1  0.10505115  0.09292649  0.25015924  1
  Co  Co41  1  0.10891825  0.09659238  0.75114854  1
  Co  Co42  1  0.11054385  0.59677669  0.25100021  1
  Co  Co43  1  0.10718802  0.59284912  0.74820902  1
  Co  Co44  1  0.61056716  0.09511276  0.25159859  1
  Co  Co45  1  0.60881646  0.09588921  0.75137668  1
  Co  Co46  1  0.60581141  0.59544343  0.25065926  1
  Co  Co47  1  0.60820901  0.59303160  0.74953593  1
  Co  Co48  1  0.35715965  0.40531620  0.24773325  1
  Co  Co49  1  0.35875457  0.40427878  0.74836208  1
  Co  Co50  1  0.35405577  0.90373532  0.24738235  1
  Co  Co51  1  0.35721799  0.90427430  0.74793601  1
  Co  Co52  1  0.85929059  0.40526623  0.25166205  1
  Co  Co53  1  0.85488429  0.40437221  0.74899643  1
  Co  Co54  1  0.85988299  0.90656434  0.24985886  1
  Co  Co55  1  0.85743093  0.90443951  0.74828954  1
  Cu  Cu56  1  0.00344738  0.99951401  0.00190055  1
  Cu  Cu57  1  0.00272589  0.50044125  0.00058673  1
  Cu  Cu58  1  0.50373929  0.00033031  0.00103649  1
  Cu  Cu59  1  0.50368593  0.99989399  0.49970367  1
  Cu  Cu60  1  0.50312468  0.50081859  0.00064343  1
  Cu  Cu61  1  0.25336133  0.75065684  0.00122435  1
  Cu  Cu62  1  0.75380753  0.24989732  0.00022683  1
  Cu  Cu63  1  0.75396103  0.75070514  0.00143220  1
  O  O64  1  0.12006528  0.11892905  0.48361785  1
  O  O65  1  0.11817231  0.11896806  0.98560662  1
  O  O66  1  0.11971063  0.61871521  0.48336845  1
  O  O67  1  0.12101463  0.62289972  0.99101281  1
  O  O68  1  0.62009131  0.12012665  0.48608799  1
  O  O69  1  0.62306179  0.12070484  0.98962838  1
  O  O70  1  0.62043355  0.61925029  0.48406106  1
  O  O71  1  0.62048924  0.61625633  0.98481582  1
  O  O72  1  0.13572153  0.38538367  0.01659348  1
  O  O73  1  0.13624664  0.38118461  0.51572663  1
  O  O74  1  0.13186384  0.87801806  0.01650609  1
  O  O75  1  0.13645854  0.88111938  0.51563969  1
  O  O76  1  0.63261001  0.37903599  0.01025641  1
  O  O77  1  0.63609141  0.38061200  0.51543456  1
  O  O78  1  0.63639117  0.88398508  0.01552827  1
  O  O79  1  0.63387702  0.87970414  0.51352525  1
  O  O80  1  0.37092098  0.11533576  0.48546794  1
  O  O81  1  0.37203131  0.11524185  0.98599884  1
  O  O82  1  0.37010209  0.61504270  0.48392821  1
  O  O83  1  0.37020839  0.61580164  0.98901742  1
  O  O84  1  0.87002653  0.11519586  0.48413058  1
  O  O85  1  0.86988369  0.11483326  0.99064007  1
  O  O86  1  0.87074793  0.61490785  0.48425027  1
  O  O87  1  0.86908385  0.61269373  0.98578611  1
  O  O88  1  0.38543241  0.39057863  0.01773060  1
  O  O89  1  0.38557890  0.38405582  0.51466735  1
  O  O90  1  0.38273352  0.88346598  0.01186682  1
  O  O91  1  0.38553757  0.88415188  0.51389218  1
  O  O92  1  0.88004961  0.38424049  0.00988296  1
  O  O93  1  0.88666505  0.38505473  0.51587032  1
  O  O94  1  0.88646982  0.88722868  0.01884829  1
  O  O95  1  0.88595357  0.88447635  0.51557586  1
  O  O96  1  0.10104367  0.11895416  0.14814129  1
  O  O97  1  0.08992806  0.10903095  0.64102755  1
  O  O98  1  0.10602757  0.61909463  0.14780164  1
  O  O99  1  0.08785758  0.60848846  0.63914081  1
  O  O100  1  0.60690077  0.11611781  0.14815948  1
  O  O101  1  0.59665966  0.11653896  0.64677519  1
  O  O102  1  0.60261634  0.61794256  0.14767711  1
  O  O103  1  0.58797930  0.60772700  0.63968286  1
  O  O104  1  0.44710126  0.39103685  0.35821465  1
  O  O105  1  0.45860767  0.38441601  0.85224798  1
  O  O106  1  0.44710892  0.88400539  0.35245692  1
  O  O107  1  0.45162661  0.88250213  0.85221943  1
  O  O108  1  0.94837301  0.39095357  0.36098385  1
  O  O109  1  0.95374557  0.38435428  0.85313234  1
  O  O110  1  0.95002341  0.89252604  0.35981066  1
  O  O111  1  0.95035205  0.88253134  0.85283490  1
  O  O112  1  0.33982122  0.28028461  0.13862906  1
  O  O113  1  0.33734419  0.28085576  0.63865463  1
  O  O114  1  0.34635861  0.77932901  0.14324827  1
  O  O115  1  0.33751517  0.78155297  0.63827772  1
  O  O116  1  0.84538956  0.27996700  0.14612008  1
  O  O117  1  0.83631468  0.28225006  0.63922186  1
  O  O118  1  0.85697275  0.78102847  0.14621243  1
  O  O119  1  0.83665081  0.78134218  0.63867207  1
  O  O120  1  0.19718940  0.21584022  0.36019279  1
  O  O121  1  0.20182506  0.21905734  0.86201014  1
  O  O122  1  0.19839253  0.72000466  0.36096239  1
  O  O123  1  0.20012243  0.71635670  0.85429069  1
  O  O124  1  0.69815620  0.21863831  0.36138213  1
  O  O125  1  0.70059048  0.22136150  0.85643349  1
  O  O126  1  0.69721049  0.71746970  0.36049568  1
  O  O127  1  0.70105928  0.71879984  0.85489994  1
  O  O128  1  0.42030276  0.07114840  0.24992964  1
  O  O129  1  0.41889378  0.07084078  0.74988776  1
  O  O130  1  0.41454446  0.56949955  0.24436397  1
  O  O131  1  0.41865451  0.57095156  0.74900889  1
  O  O132  1  0.91382620  0.07186764  0.24535809  1
  O  O133  1  0.92058336  0.07107677  0.75000528  1
  O  O134  1  0.92156157  0.56971735  0.25011302  1
  O  O135  1  0.91886385  0.57002551  0.74953418  1
  O  O136  1  0.17023733  0.42990087  0.25069379  1
  O  O137  1  0.17063663  0.42794675  0.75018539  1
  O  O138  1  0.16332303  0.92434056  0.24456293  1
  O  O139  1  0.16954290  0.93020530  0.74983706  1
  O  O140  1  0.66942203  0.42986675  0.25072896  1
  O  O141  1  0.67004051  0.42998090  0.75566853  1
  O  O142  1  0.67128834  0.92870226  0.25061574  1
  O  O143  1  0.66959718  0.92918600  0.74971636  1
