# generated using pymatgen
data_MgTi2
_symmetry_space_group_name_H-M   'P 1'
_cell_length_a   10.84751721
_cell_length_b   2.90037745
_cell_length_c   7.43590531
_cell_angle_alpha   90.00000000
_cell_angle_beta   105.62892110
_cell_angle_gamma   90.00000000
_symmetry_Int_Tables_number   1
_chemical_formula_structural   MgTi2
_chemical_formula_sum   'Mg4 Ti8'
_cell_volume   225.29784999
_cell_formula_units_Z   4
loop_
 _symmetry_equiv_pos_site_id
 _symmetry_equiv_pos_as_xyz
  1  'x, y, z'
loop_
 _atom_site_type_symbol
 _atom_site_label
 _atom_site_symmetry_multiplicity
 _atom_site_fract_x
 _atom_site_fract_y
 _atom_site_fract_z
 _atom_site_occupancy
  Mg  Mg0  1  0.36539791  -0.00000000  0.47805277  1
  Mg  Mg1  1  0.13460209  0.50000000  0.52194723  1
  Mg  Mg2  1  0.86539791  0.50000000  0.47805277  1
  Mg  Mg3  1  0.63460209  -0.00000000  0.52194723  1
  Ti  Ti4  1  0.19297963  0.50000000  0.12853632  1
  Ti  Ti5  1  0.46272608  0.50000000  0.16351253  1
  Ti  Ti6  1  0.03727392  0.00000000  0.83648747  1
  Ti  Ti7  1  0.30702037  -0.00000000  0.87146368  1
  Ti  Ti8  1  0.69297963  -0.00000000  0.12853632  1
  Ti  Ti9  1  0.96272608  0.00000000  0.16351253  1
  Ti  Ti10  1  0.53727392  0.50000000  0.83648747  1
  Ti  Ti11  1  0.80702037  0.50000000  0.87146368  1
