# generated using pymatgen
data_DyFeGe2
_symmetry_space_group_name_H-M   'P 1'
_cell_length_a   4.32332467
_cell_length_b   4.16298784
_cell_length_c   8.40548591
_cell_angle_alpha   104.33761766
_cell_angle_beta   90.00000000
_cell_angle_gamma   90.00000000
_symmetry_Int_Tables_number   1
_chemical_formula_structural   DyFeGe2
_chemical_formula_sum   'Dy2 Fe2 Ge4'
_cell_volume   146.56958736
_cell_formula_units_Z   2
loop_
 _symmetry_equiv_pos_site_id
 _symmetry_equiv_pos_as_xyz
  1  'x, y, z'
loop_
 _atom_site_type_symbol
 _atom_site_label
 _atom_site_symmetry_multiplicity
 _atom_site_fract_x
 _atom_site_fract_y
 _atom_site_fract_z
 _atom_site_occupancy
  Dy  Dy0  1  0.75000000  0.10603400  0.21206801  1
  Dy  Dy1  1  0.25000000  0.89396600  0.78793199  1
  Fe  Fe2  1  0.75000000  0.31547280  0.63094559  1
  Fe  Fe3  1  0.25000000  0.68452720  0.36905441  1
  Ge  Ge4  1  0.75000000  0.45620473  0.91240946  1
  Ge  Ge5  1  0.25000000  0.54379527  0.08759054  1
  Ge  Ge6  1  0.75000000  0.74731991  0.49463981  1
  Ge  Ge7  1  0.25000000  0.25268009  0.50536019  1
