# generated using pymatgen
data_Mg2Zn
_symmetry_space_group_name_H-M   'P 1'
_cell_length_a   4.85597244
_cell_length_b   3.09504100
_cell_length_c   15.85297162
_cell_angle_alpha   90.00000000
_cell_angle_beta   90.00000000
_cell_angle_gamma   90.00000000
_symmetry_Int_Tables_number   1
_chemical_formula_structural   Mg2Zn
_chemical_formula_sum   'Mg8 Zn4'
_cell_volume   238.26118744
_cell_formula_units_Z   4
loop_
 _symmetry_equiv_pos_site_id
 _symmetry_equiv_pos_as_xyz
  1  'x, y, z'
loop_
 _atom_site_type_symbol
 _atom_site_label
 _atom_site_symmetry_multiplicity
 _atom_site_fract_x
 _atom_site_fract_y
 _atom_site_fract_z
 _atom_site_occupancy
  Mg  Mg0  1  0.00000000  -0.00000000  0.99723001  1
  Mg  Mg1  1  0.00000000  0.50000000  0.16928487  1
  Mg  Mg2  1  -0.00000000  0.00000000  0.33352359  1
  Mg  Mg3  1  0.50000000  0.50000000  0.05534663  1
  Mg  Mg4  1  0.00000000  0.50000000  0.49723001  1
  Mg  Mg5  1  0.00000000  0.00000000  0.66928487  1
  Mg  Mg6  1  0.00000000  0.50000000  0.83352359  1
  Mg  Mg7  1  0.50000000  0.00000000  0.55534663  1
  Zn  Zn8  1  0.50000000  0.50000000  0.38715896  1
  Zn  Zn9  1  0.50000000  -0.00000000  0.22412295  1
  Zn  Zn10  1  0.50000000  0.00000000  0.88715896  1
  Zn  Zn11  1  0.50000000  0.50000000  0.72412295  1
