# generated using pymatgen
data_CeSe2
_symmetry_space_group_name_H-M   'P 1'
_cell_length_a   6.87872902
_cell_length_b   7.22150967
_cell_length_c   13.71850903
_cell_angle_alpha   90.00000000
_cell_angle_beta   90.00000000
_cell_angle_gamma   90.00000000
_symmetry_Int_Tables_number   1
_chemical_formula_structural   CeSe2
_chemical_formula_sum   'Ce8 Se16'
_cell_volume   681.46430397
_cell_formula_units_Z   8
loop_
 _symmetry_equiv_pos_site_id
 _symmetry_equiv_pos_as_xyz
  1  'x, y, z'
loop_
 _atom_site_type_symbol
 _atom_site_label
 _atom_site_symmetry_multiplicity
 _atom_site_fract_x
 _atom_site_fract_y
 _atom_site_fract_z
 _atom_site_occupancy
  Ce  Ce0  1  0.75902918  0.95249489  0.61167793  1
  Ce  Ce1  1  0.24097082  0.54750511  0.11167793  1
  Ce  Ce2  1  0.74097082  0.45249489  0.38832207  1
  Ce  Ce3  1  0.25902918  0.04750511  0.88832207  1
  Ce  Ce4  1  0.24097082  0.04750511  0.38832207  1
  Ce  Ce5  1  0.75902918  0.45249489  0.88832207  1
  Ce  Ce6  1  0.25902918  0.54750511  0.61167793  1
  Ce  Ce7  1  0.74097082  0.95249489  0.11167793  1
  Se  Se8  1  0.62688290  0.62428624  0.71073469  1
  Se  Se9  1  0.37311710  0.87571376  0.21073469  1
  Se  Se10  1  0.87311710  0.12428624  0.28926531  1
  Se  Se11  1  0.12688290  0.37571376  0.78926531  1
  Se  Se12  1  0.37311710  0.37571376  0.28926531  1
  Se  Se13  1  0.62688290  0.12428624  0.78926531  1
  Se  Se14  1  0.12688290  0.87571376  0.71073469  1
  Se  Se15  1  0.87311710  0.62428624  0.21073469  1
  Se  Se16  1  0.99998891  0.25856359  0.52768477  1
  Se  Se17  1  0.00001109  0.24143641  0.02768477  1
  Se  Se18  1  0.50001109  0.75856359  0.47231523  1
  Se  Se19  1  0.49998891  0.74143641  0.97231523  1
  Se  Se20  1  0.00001109  0.74143641  0.47231523  1
  Se  Se21  1  0.99998891  0.75856359  0.97231523  1
  Se  Se22  1  0.49998891  0.24143641  0.52768477  1
  Se  Se23  1  0.50001109  0.25856359  0.02768477  1
