# generated using pymatgen
data_Zr5Sn
_symmetry_space_group_name_H-M   'P 1'
_cell_length_a   5.56650123
_cell_length_b   5.56650158
_cell_length_c   5.14705054
_cell_angle_alpha   90.00000000
_cell_angle_beta   90.00000000
_cell_angle_gamma   119.99999787
_symmetry_Int_Tables_number   1
_chemical_formula_structural   Zr5Sn
_chemical_formula_sum   'Zr5 Sn1'
_cell_volume   138.11909358
_cell_formula_units_Z   1
loop_
 _symmetry_equiv_pos_site_id
 _symmetry_equiv_pos_as_xyz
  1  'x, y, z'
loop_
 _atom_site_type_symbol
 _atom_site_label
 _atom_site_symmetry_multiplicity
 _atom_site_fract_x
 _atom_site_fract_y
 _atom_site_fract_z
 _atom_site_occupancy
  Zr  Zr0  1  0.66666700  0.33333300  -0.00000000  1
  Zr  Zr1  1  0.33333300  0.66666700  0.00000000  1
  Zr  Zr2  1  1.00000000  0.32306147  0.50000000  1
  Zr  Zr3  1  0.67693853  0.67693853  0.50000000  1
  Zr  Zr4  1  0.32306147  -0.00000000  0.50000000  1
  Sn  Sn5  1  0.00000000  0.00000000  0.00000000  1
