# generated using pymatgen
data_P
_symmetry_space_group_name_H-M   'P 1'
_cell_length_a   5.59831771
_cell_length_b   6.34420715
_cell_length_c   19.80988174
_cell_angle_alpha   90.00064892
_cell_angle_beta   89.99960081
_cell_angle_gamma   103.92974580
_symmetry_Int_Tables_number   1
_chemical_formula_structural   P
_chemical_formula_sum   P10
_cell_volume   682.89404013
_cell_formula_units_Z   10
loop_
 _symmetry_equiv_pos_site_id
 _symmetry_equiv_pos_as_xyz
  1  'x, y, z'
loop_
 _atom_site_type_symbol
 _atom_site_label
 _atom_site_symmetry_multiplicity
 _atom_site_fract_x
 _atom_site_fract_y
 _atom_site_fract_z
 _atom_site_occupancy
  P  P0  1  0.14609663  0.69200587  0.58723197  1
  P  P1  1  0.17183711  0.36158473  0.55686160  1
  P  P2  1  0.17184117  0.36157577  0.44313677  1
  P  P3  1  0.14609222  0.69199480  0.41276458  1
  P  P4  1  0.22359748  0.91695624  0.49999975  1
  P  P5  1  0.54723946  0.32778109  0.41323170  1
  P  P6  1  0.75134024  0.65866395  0.44223396  1
  P  P7  1  0.75133522  0.65867023  0.55776260  1
  P  P8  1  0.54723735  0.32778927  0.58676509  1
  P  P9  1  0.61401512  0.12096204  0.49999897  1
