# generated using pymatgen
data_Na6TeP6(H2O5)6
_symmetry_space_group_name_H-M   'P 1'
_cell_length_a   11.73884553
_cell_length_b   11.73884513
_cell_length_c   11.96691489
_cell_angle_alpha   90.00000000
_cell_angle_beta   90.00000000
_cell_angle_gamma   120.00000113
_symmetry_Int_Tables_number   1
_chemical_formula_structural   Na6TeP6(H2O5)6
_chemical_formula_sum   'Na12 Te2 P12 H24 O60'
_cell_volume   1428.11634511
_cell_formula_units_Z   2
loop_
 _symmetry_equiv_pos_site_id
 _symmetry_equiv_pos_as_xyz
  1  'x, y, z'
loop_
 _atom_site_type_symbol
 _atom_site_label
 _atom_site_symmetry_multiplicity
 _atom_site_fract_x
 _atom_site_fract_y
 _atom_site_fract_z
 _atom_site_occupancy
  Na  Na0  1  0.43193983  0.86896912  0.25000000  1
  Na  Na1  1  0.43702929  0.56806017  0.25000000  1
  Na  Na2  1  0.13103088  0.56297071  0.25000000  1
  Na  Na3  1  0.56806017  0.13103088  0.75000000  1
  Na  Na4  1  0.56297071  0.43193983  0.75000000  1
  Na  Na5  1  0.86896912  0.43702929  0.75000000  1
  Na  Na6  1  0.72580597  0.84450599  0.25000000  1
  Na  Na7  1  0.11870002  0.27419403  0.25000000  1
  Na  Na8  1  0.15549401  0.88129998  0.25000000  1
  Na  Na9  1  0.27419403  0.15549401  0.75000000  1
  Na  Na10  1  0.88129998  0.72580597  0.75000000  1
  Na  Na11  1  0.84450599  0.11870002  0.75000000  1
  Te  Te12  1  0.00000000  0.00000000  0.50000000  1
  Te  Te13  1  0.00000000  0.00000000  0.00000000  1
  P  P14  1  0.25026519  0.50127793  0.00598897  1
  P  P15  1  0.25101274  0.74973481  0.00598897  1
  P  P16  1  0.49872207  0.74898726  0.00598897  1
  P  P17  1  0.74973481  0.49872207  0.50598897  1
  P  P18  1  0.74898726  0.25026519  0.50598897  1
  P  P19  1  0.50127793  0.25101274  0.50598897  1
  P  P20  1  0.74973481  0.49872207  0.99401103  1
  P  P21  1  0.74898726  0.25026519  0.99401103  1
  P  P22  1  0.50127793  0.25101274  0.99401103  1
  P  P23  1  0.25026519  0.50127793  0.49401103  1
  P  P24  1  0.25101274  0.74973481  0.49401103  1
  P  P25  1  0.49872207  0.74898726  0.49401103  1
  H  H26  1  0.69793325  0.60176692  0.31511399  1
  H  H27  1  0.90383367  0.30206675  0.31511399  1
  H  H28  1  0.39823308  0.09616633  0.31511399  1
  H  H29  1  0.30206675  0.39823308  0.81511399  1
  H  H30  1  0.09616633  0.69793325  0.81511399  1
  H  H31  1  0.60176692  0.90383367  0.81511399  1
  H  H32  1  0.30206675  0.39823308  0.68488601  1
  H  H33  1  0.09616633  0.69793325  0.68488601  1
  H  H34  1  0.60176692  0.90383367  0.68488601  1
  H  H35  1  0.69793325  0.60176692  0.18488601  1
  H  H36  1  0.90383367  0.30206675  0.18488601  1
  H  H37  1  0.39823308  0.09616633  0.18488601  1
  H  H38  1  0.84843276  0.77644802  0.42599176  1
  H  H39  1  0.92801526  0.15156724  0.42599176  1
  H  H40  1  0.22355198  0.07198474  0.42599176  1
  H  H41  1  0.15156724  0.22355198  0.92599176  1
  H  H42  1  0.07198474  0.84843276  0.92599176  1
  H  H43  1  0.77644802  0.92801526  0.92599176  1
  H  H44  1  0.15156724  0.22355198  0.57400824  1
  H  H45  1  0.07198474  0.84843276  0.57400824  1
  H  H46  1  0.77644802  0.92801526  0.57400824  1
  H  H47  1  0.84843276  0.77644802  0.07400824  1
  H  H48  1  0.92801526  0.15156724  0.07400824  1
  H  H49  1  0.22355198  0.07198474  0.07400824  1
  O  O50  1  0.23771075  0.76021330  0.36975967  1
  O  O51  1  0.52250255  0.76228925  0.36975967  1
  O  O52  1  0.23978670  0.47749745  0.36975967  1
  O  O53  1  0.76228925  0.23978670  0.86975967  1
  O  O54  1  0.47749745  0.23771075  0.86975967  1
  O  O55  1  0.76021330  0.52250255  0.86975967  1
  O  O56  1  0.76228925  0.23978670  0.63024033  1
  O  O57  1  0.47749745  0.23771075  0.63024033  1
  O  O58  1  0.76021330  0.52250255  0.63024033  1
  O  O59  1  0.23771075  0.76021330  0.13024033  1
  O  O60  1  0.52250255  0.76228925  0.13024033  1
  O  O61  1  0.23978670  0.47749745  0.13024033  1
  O  O62  1  0.18978742  0.59482691  0.97312930  1
  O  O63  1  0.40503949  0.81021258  0.97312930  1
  O  O64  1  0.40517309  0.59496051  0.97312930  1
  O  O65  1  0.81021258  0.40517309  0.47312930  1
  O  O66  1  0.59496051  0.18978742  0.47312930  1
  O  O67  1  0.59482691  0.40503949  0.47312930  1
  O  O68  1  0.81021258  0.40517309  0.02687070  1
  O  O69  1  0.59496051  0.18978742  0.02687070  1
  O  O70  1  0.59482691  0.40503949  0.02687070  1
  O  O71  1  0.18978742  0.59482691  0.52687070  1
  O  O72  1  0.40503949  0.81021258  0.52687070  1
  O  O73  1  0.40517309  0.59496051  0.52687070  1
  O  O74  1  0.19396039  0.38765300  0.92622626  1
  O  O75  1  0.19369261  0.80603961  0.92622626  1
  O  O76  1  0.61234700  0.80630739  0.92622626  1
  O  O77  1  0.80603961  0.61234700  0.42622626  1
  O  O78  1  0.80630739  0.19396039  0.42622626  1
  O  O79  1  0.38765300  0.19369261  0.42622626  1
  O  O80  1  0.80603961  0.61234700  0.07377374  1
  O  O81  1  0.80630739  0.19396039  0.07377374  1
  O  O82  1  0.38765300  0.19369261  0.07377374  1
  O  O83  1  0.19396039  0.38765300  0.57377374  1
  O  O84  1  0.19369261  0.80603961  0.57377374  1
  O  O85  1  0.61234700  0.80630739  0.57377374  1
  O  O86  1  0.86375020  0.86573076  0.40515911  1
  O  O87  1  0.00198057  0.13624980  0.40515911  1
  O  O88  1  0.13426924  0.99801943  0.40515911  1
  O  O89  1  0.13624980  0.13426924  0.90515911  1
  O  O90  1  0.99801943  0.86375020  0.90515911  1
  O  O91  1  0.86573076  0.00198057  0.90515911  1
  O  O92  1  0.13624980  0.13426924  0.59484089  1
  O  O93  1  0.99801943  0.86375020  0.59484089  1
  O  O94  1  0.86573076  0.00198057  0.59484089  1
  O  O95  1  0.86375020  0.86573076  0.09484089  1
  O  O96  1  0.00198057  0.13624980  0.09484089  1
  O  O97  1  0.13426924  0.99801943  0.09484089  1
  O  O98  1  0.65445738  0.61589608  0.25000000  1
  O  O99  1  0.96143870  0.34554262  0.25000000  1
  O  O100  1  0.38410392  0.03856130  0.25000000  1
  O  O101  1  0.34554262  0.38410392  0.75000000  1
  O  O102  1  0.03856130  0.65445738  0.75000000  1
  O  O103  1  0.61589608  0.96143870  0.75000000  1
  O  O104  1  0.97139124  0.64952050  0.25000000  1
  O  O105  1  0.67812926  0.02860876  0.25000000  1
  O  O106  1  0.35047950  0.32187074  0.25000000  1
  O  O107  1  0.02860876  0.35047950  0.75000000  1
  O  O108  1  0.32187074  0.97139124  0.75000000  1
  O  O109  1  0.64952050  0.67812926  0.75000000  1
