# generated using pymatgen
data_YFeGe2
_symmetry_space_group_name_H-M   'P 1'
_cell_length_a   4.31784029
_cell_length_b   4.20870260
_cell_length_c   8.34982711
_cell_angle_alpha   104.59727527
_cell_angle_beta   90.00000000
_cell_angle_gamma   90.00000000
_symmetry_Int_Tables_number   1
_chemical_formula_structural   YFeGe2
_chemical_formula_sum   'Y2 Fe2 Ge4'
_cell_volume   146.83937649
_cell_formula_units_Z   2
loop_
 _symmetry_equiv_pos_site_id
 _symmetry_equiv_pos_as_xyz
  1  'x, y, z'
loop_
 _atom_site_type_symbol
 _atom_site_label
 _atom_site_symmetry_multiplicity
 _atom_site_fract_x
 _atom_site_fract_y
 _atom_site_fract_z
 _atom_site_occupancy
  Y  Y0  1  0.75000000  0.10492863  0.20985727  1
  Y  Y1  1  0.25000000  0.89507137  0.79014273  1
  Fe  Fe2  1  0.75000000  0.31356116  0.62712233  1
  Fe  Fe3  1  0.25000000  0.68643884  0.37287767  1
  Ge  Ge4  1  0.75000000  0.45505462  0.91010923  1
  Ge  Ge5  1  0.25000000  0.54494538  0.08989077  1
  Ge  Ge6  1  0.75000000  0.74806192  0.49612384  1
  Ge  Ge7  1  0.25000000  0.25193808  0.50387616  1
