# generated using pymatgen
data_Mg30CrSnO32
_symmetry_space_group_name_H-M   'P 1'
_cell_length_a   8.62476766
_cell_length_b   8.62476766
_cell_length_c   8.59877878
_cell_angle_alpha   90.00000000
_cell_angle_beta   90.00000000
_cell_angle_gamma   90.00000000
_symmetry_Int_Tables_number   1
_chemical_formula_structural   Mg30CrSnO32
_chemical_formula_sum   'Mg30 Cr1 Sn1 O32'
_cell_volume   639.63406540
_cell_formula_units_Z   1
loop_
 _symmetry_equiv_pos_site_id
 _symmetry_equiv_pos_as_xyz
  1  'x, y, z'
loop_
 _atom_site_type_symbol
 _atom_site_label
 _atom_site_symmetry_multiplicity
 _atom_site_fract_x
 _atom_site_fract_y
 _atom_site_fract_z
 _atom_site_occupancy
  Mg  Mg0  1  0.00000000  0.50000000  -0.00000000  1
  Mg  Mg1  1  0.00000000  0.50000000  0.50000000  1
  Mg  Mg2  1  0.50000000  -0.00000000  -0.00000000  1
  Mg  Mg3  1  0.50000000  -0.00000000  0.50000000  1
  Mg  Mg4  1  0.50000000  0.50000000  0.00000000  1
  Mg  Mg5  1  0.50000000  0.50000000  0.50000000  1
  Mg  Mg6  1  0.00000000  0.25589831  0.25423800  1
  Mg  Mg7  1  0.00000000  0.25589831  0.74576200  1
  Mg  Mg8  1  0.00000000  0.74410169  0.25423800  1
  Mg  Mg9  1  0.00000000  0.74410169  0.74576200  1
  Mg  Mg10  1  0.50000000  0.25041194  0.25065045  1
  Mg  Mg11  1  0.50000000  0.25041194  0.74934955  1
  Mg  Mg12  1  0.50000000  0.74958806  0.25065045  1
  Mg  Mg13  1  0.50000000  0.74958806  0.74934955  1
  Mg  Mg14  1  0.25589831  -0.00000000  0.25423800  1
  Mg  Mg15  1  0.25589831  -0.00000000  0.74576200  1
  Mg  Mg16  1  0.25041194  0.50000000  0.25065045  1
  Mg  Mg17  1  0.25041194  0.50000000  0.74934955  1
  Mg  Mg18  1  0.74410169  -0.00000000  0.25423800  1
  Mg  Mg19  1  0.74410169  -0.00000000  0.74576200  1
  Mg  Mg20  1  0.74958806  0.50000000  0.25065045  1
  Mg  Mg21  1  0.74958806  0.50000000  0.74934955  1
  Mg  Mg22  1  0.25442305  0.25442305  0.00000000  1
  Mg  Mg23  1  0.25058068  0.25058068  0.50000000  1
  Mg  Mg24  1  0.25442305  0.74557695  0.00000000  1
  Mg  Mg25  1  0.25058068  0.74941932  0.50000000  1
  Mg  Mg26  1  0.74557695  0.25442305  -0.00000000  1
  Mg  Mg27  1  0.74941932  0.25058068  0.50000000  1
  Mg  Mg28  1  0.74557695  0.74557695  -0.00000000  1
  Mg  Mg29  1  0.74941932  0.74941932  0.50000000  1
  Cr  Cr30  1  0.00000000  -0.00000000  0.50000000  1
  Sn  Sn31  1  0.00000000  -0.00000000  0.00000000  1
  O  O32  1  0.26972732  -0.00000000  0.00000000  1
  O  O33  1  0.26092113  -0.00000000  0.50000000  1
  O  O34  1  0.25313634  0.50000000  0.00000000  1
  O  O35  1  0.25141136  0.50000000  0.50000000  1
  O  O36  1  0.73027268  -0.00000000  -0.00000000  1
  O  O37  1  0.73907887  -0.00000000  0.50000000  1
  O  O38  1  0.74686366  0.50000000  -0.00000000  1
  O  O39  1  0.74858864  0.50000000  0.50000000  1
  O  O40  1  0.24911625  0.24911625  0.24959119  1
  O  O41  1  0.24911625  0.24911625  0.75040881  1
  O  O42  1  0.24911625  0.75088375  0.24959119  1
  O  O43  1  0.24911625  0.75088375  0.75040881  1
  O  O44  1  0.75088375  0.24911625  0.24959119  1
  O  O45  1  0.75088375  0.24911625  0.75040881  1
  O  O46  1  0.75088375  0.75088375  0.24959119  1
  O  O47  1  0.75088375  0.75088375  0.75040881  1
  O  O48  1  0.00000000  -0.00000000  0.26689700  1
  O  O49  1  0.00000000  -0.00000000  0.73310300  1
  O  O50  1  0.00000000  0.50000000  0.25204242  1
  O  O51  1  0.00000000  0.50000000  0.74795758  1
  O  O52  1  0.50000000  -0.00000000  0.25204242  1
  O  O53  1  0.50000000  -0.00000000  0.74795758  1
  O  O54  1  0.50000000  0.50000000  0.25034903  1
  O  O55  1  0.50000000  0.50000000  0.74965097  1
  O  O56  1  0.00000000  0.26972732  -0.00000000  1
  O  O57  1  0.00000000  0.26092113  0.50000000  1
  O  O58  1  0.00000000  0.73027268  -0.00000000  1
  O  O59  1  0.00000000  0.73907887  0.50000000  1
  O  O60  1  0.50000000  0.25313634  -0.00000000  1
  O  O61  1  0.50000000  0.25141136  0.50000000  1
  O  O62  1  0.50000000  0.74686366  0.00000000  1
  O  O63  1  0.50000000  0.74858864  0.50000000  1
