# generated using pymatgen
data_BaReH9
_symmetry_space_group_name_H-M   'P 1'
_cell_length_a   4.79789934
_cell_length_b   4.79789909
_cell_length_c   4.79789956
_cell_angle_alpha   95.33894197
_cell_angle_beta   95.33894164
_cell_angle_gamma   95.33894334
_symmetry_Int_Tables_number   1
_chemical_formula_structural   BaReH9
_chemical_formula_sum   'Ba1 Re1 H9'
_cell_volume   108.91289702
_cell_formula_units_Z   1
loop_
 _symmetry_equiv_pos_site_id
 _symmetry_equiv_pos_as_xyz
  1  'x, y, z'
loop_
 _atom_site_type_symbol
 _atom_site_label
 _atom_site_symmetry_multiplicity
 _atom_site_fract_x
 _atom_site_fract_y
 _atom_site_fract_z
 _atom_site_occupancy
  Ba  Ba0  1  -0.00000000  -0.00000000  0.00000000  1
  Re  Re1  1  0.50000000  0.50000000  0.50000000  1
  H  H2  1  0.73654284  0.50000000  0.26345716  1
  H  H3  1  0.26345716  0.73654284  0.50000000  1
  H  H4  1  0.50000000  0.26345716  0.73654284  1
  H  H5  1  0.82198615  0.48296624  0.67572851  1
  H  H6  1  0.17801385  0.32427149  0.51703376  1
  H  H7  1  0.67572851  0.82198615  0.48296624  1
  H  H8  1  0.51703376  0.17801385  0.32427149  1
  H  H9  1  0.48296624  0.67572851  0.82198615  1
  H  H10  1  0.32427149  0.51703376  0.17801385  1
