# generated using pymatgen
data_Mg5Sn
_symmetry_space_group_name_H-M   'P 1'
_cell_length_a   11.89479658
_cell_length_b   3.38083135
_cell_length_c   7.15670959
_cell_angle_alpha   90.00000000
_cell_angle_beta   103.77081901
_cell_angle_gamma   90.00000000
_symmetry_Int_Tables_number   1
_chemical_formula_structural   Mg5Sn
_chemical_formula_sum   'Mg10 Sn2'
_cell_volume   279.52938856
_cell_formula_units_Z   2
loop_
 _symmetry_equiv_pos_site_id
 _symmetry_equiv_pos_as_xyz
  1  'x, y, z'
loop_
 _atom_site_type_symbol
 _atom_site_label
 _atom_site_symmetry_multiplicity
 _atom_site_fract_x
 _atom_site_fract_y
 _atom_site_fract_z
 _atom_site_occupancy
  Mg  Mg0  1  0.00289902  -0.00000000  0.00474129  1
  Mg  Mg1  1  0.16867826  0.50000000  0.33460888  1
  Mg  Mg2  1  0.05434319  0.00000000  0.60473794  1
  Mg  Mg3  1  0.33109542  0.00000000  0.66911464  1
  Mg  Mg4  1  0.22026780  0.50000000  0.94278634  1
  Mg  Mg5  1  0.50289902  0.50000000  0.00474129  1
  Mg  Mg6  1  0.66867826  -0.00000000  0.33460888  1
  Mg  Mg7  1  0.55434319  0.50000000  0.60473794  1
  Mg  Mg8  1  0.83109542  0.50000000  0.66911464  1
  Mg  Mg9  1  0.72026780  -0.00000000  0.94278634  1
  Sn  Sn10  1  0.38938331  -0.00000000  0.27734392  1
  Sn  Sn11  1  0.88938331  0.50000000  0.27734392  1
