# generated using pymatgen
data_BaSr7Ti8O20
_symmetry_space_group_name_H-M   'P 1'
_cell_length_a   11.31480935
_cell_length_b   11.28303918
_cell_length_c   17.73465668
_cell_angle_alpha   108.57492300
_cell_angle_beta   108.46045483
_cell_angle_gamma   90.11645328
_symmetry_Int_Tables_number   1
_chemical_formula_structural   BaSr7Ti8O20
_chemical_formula_sum   'Ba4 Sr28 Ti32 O80'
_cell_volume   2022.34947426
_cell_formula_units_Z   4
loop_
 _symmetry_equiv_pos_site_id
 _symmetry_equiv_pos_as_xyz
  1  'x, y, z'
loop_
 _atom_site_type_symbol
 _atom_site_label
 _atom_site_symmetry_multiplicity
 _atom_site_fract_x
 _atom_site_fract_y
 _atom_site_fract_z
 _atom_site_occupancy
  Ba  Ba0  1  0.30817949  0.06096172  0.12220214  1
  Ba  Ba1  1  0.30721178  0.56285011  0.12201539  1
  Ba  Ba2  1  0.80814499  0.06283041  0.12143998  1
  Ba  Ba3  1  0.05801329  0.80914389  0.12168201  1
  Sr  Sr4  1  0.30464330  0.05761251  0.61256279  1
  Sr  Sr5  1  0.30566161  0.56255849  0.61501419  1
  Sr  Sr6  1  0.80467930  0.06252122  0.61454566  1
  Sr  Sr7  1  0.80581881  0.55641149  0.11349710  1
  Sr  Sr8  1  0.80564447  0.56089782  0.61488322  1
  Sr  Sr9  1  0.19136580  0.44092249  0.38538892  1
  Sr  Sr10  1  0.19182962  0.44163416  0.88602474  1
  Sr  Sr11  1  0.18999210  0.93812311  0.38263865  1
  Sr  Sr12  1  0.18997004  0.93829755  0.88437815  1
  Sr  Sr13  1  0.69046784  0.44240197  0.38465188  1
  Sr  Sr14  1  0.68944141  0.43818960  0.88301172  1
  Sr  Sr15  1  0.68954751  0.93876558  0.38288143  1
  Sr  Sr16  1  0.68982521  0.93893556  0.88454801  1
  Sr  Sr17  1  0.05423764  0.30639173  0.11416515  1
  Sr  Sr18  1  0.05576529  0.30471848  0.61359310  1
  Sr  Sr19  1  0.05628087  0.80371088  0.61614463  1
  Sr  Sr20  1  0.55579083  0.30835447  0.11456493  1
  Sr  Sr21  1  0.55699586  0.30308698  0.61420170  1
  Sr  Sr22  1  0.55640004  0.80415527  0.11626931  1
  Sr  Sr23  1  0.55589405  0.80318891  0.61477069  1
  Sr  Sr24  1  0.43828911  0.19053329  0.38437782  1
  Sr  Sr25  1  0.44109047  0.19472914  0.88492985  1
  Sr  Sr26  1  0.44027993  0.69521566  0.38457102  1
  Sr  Sr27  1  0.44047790  0.69690091  0.88403603  1
  Sr  Sr28  1  0.94189573  0.19637527  0.38439644  1
  Sr  Sr29  1  0.93908443  0.19560235  0.88286064  1
  Sr  Sr30  1  0.94231869  0.69523608  0.38751586  1
  Sr  Sr31  1  0.94153443  0.69664993  0.88518890  1
  Ti  Ti32  1  0.99648423  0.00008268  0.99762810  1
  Ti  Ti33  1  0.99790107  0.99947747  0.49943887  1
  Ti  Ti34  1  0.99596253  0.49801317  0.99774535  1
  Ti  Ti35  1  0.99873936  0.50061352  0.50088740  1
  Ti  Ti36  1  0.49662797  -0.00009945  0.99844881  1
  Ti  Ti37  1  0.49828820  0.99886640  0.49943699  1
  Ti  Ti38  1  0.49825654  0.49992039  0.99888563  1
  Ti  Ti39  1  0.49875761  0.49875880  0.50016043  1
  Ti  Ti40  1  0.24743524  0.24936693  0.99854264  1
  Ti  Ti41  1  0.24810030  0.24993125  0.49944183  1
  Ti  Ti42  1  0.24844738  0.75025613  0.99881323  1
  Ti  Ti43  1  0.24835271  0.74991413  0.50015851  1
  Ti  Ti44  1  0.74692705  0.25020735  0.99831125  1
  Ti  Ti45  1  0.74911757  0.25069893  0.49946812  1
  Ti  Ti46  1  0.74589581  0.74804041  0.99789573  1
  Ti  Ti47  1  0.74924813  0.75096313  0.50050363  1
  Ti  Ti48  1  0.11878573  0.11584524  0.25262938  1
  Ti  Ti49  1  0.11436862  0.10957935  0.74910018  1
  Ti  Ti50  1  0.11938049  0.61170663  0.25162848  1
  Ti  Ti51  1  0.11332004  0.61111216  0.74974752  1
  Ti  Ti52  1  0.62428632  0.11206162  0.25219685  1
  Ti  Ti53  1  0.61744354  0.11015441  0.74879423  1
  Ti  Ti54  1  0.62027854  0.61223768  0.25167639  1
  Ti  Ti55  1  0.61244594  0.61291044  0.74904041  1
  Ti  Ti56  1  0.36961254  0.38804291  0.25210411  1
  Ti  Ti57  1  0.36506486  0.38932544  0.74900485  1
  Ti  Ti58  1  0.37322841  0.88795851  0.25330557  1
  Ti  Ti59  1  0.36651306  0.88939358  0.74944827  1
  Ti  Ti60  1  0.86986656  0.39349422  0.25148695  1
  Ti  Ti61  1  0.86194865  0.38899234  0.74911946  1
  Ti  Ti62  1  0.86974840  0.88253362  0.25166646  1
  Ti  Ti63  1  0.86644874  0.88729934  0.74923831  1
  O  O64  1  0.11827288  0.12066245  0.49123558  1
  O  O65  1  0.11879341  0.12271159  0.99265841  1
  O  O66  1  0.12071147  0.62284264  0.49555707  1
  O  O67  1  0.11951039  0.62088907  0.99303695  1
  O  O68  1  0.61922251  0.12198670  0.49183686  1
  O  O69  1  0.61898255  0.12383885  0.99422778  1
  O  O70  1  0.61835416  0.62064833  0.49098373  1
  O  O71  1  0.61906706  0.62047676  0.99272551  1
  O  O72  1  0.12116727  0.37377103  0.00158479  1
  O  O73  1  0.12694360  0.37904515  0.50764725  1
  O  O74  1  0.12292190  0.87580331  0.00078520  1
  O  O75  1  0.12636985  0.87828861  0.50616422  1
  O  O76  1  0.62381282  0.37697352  0.00324084  1
  O  O77  1  0.62670430  0.37809630  0.50586311  1
  O  O78  1  0.62162705  0.87459573  0.00351655  1
  O  O79  1  0.62702130  0.87838392  0.50656528  1
  O  O80  1  0.36887363  0.12078482  0.49283607  1
  O  O81  1  0.36983239  0.12314029  0.99276999  1
  O  O82  1  0.37021146  0.62120413  0.49429455  1
  O  O83  1  0.37188787  0.62308355  0.99383219  1
  O  O84  1  0.86996766  0.12175314  0.49341109  1
  O  O85  1  0.86962173  0.12427410  0.99272922  1
  O  O86  1  0.87031642  0.62232573  0.49522383  1
  O  O87  1  0.86720915  0.61973104  0.99184676  1
  O  O88  1  0.37565275  0.37565966  0.00288083  1
  O  O89  1  0.37786746  0.37858775  0.50944235  1
  O  O90  1  0.37497261  0.87585902  0.00212080  1
  O  O91  1  0.37661738  0.87714534  0.50674503  1
  O  O92  1  0.87175072  0.37584200  0.00065361  1
  O  O93  1  0.87758142  0.37860824  0.50727130  1
  O  O94  1  0.87161649  0.87595758  0.00098187  1
  O  O95  1  0.87875967  0.87958027  0.51036158  1
  O  O96  1  0.06234568  0.08055941  0.13074592  1
  O  O97  1  0.06571828  0.08459293  0.63001820  1
  O  O98  1  0.05485115  0.56807752  0.12836843  1
  O  O99  1  0.06263150  0.58027669  0.62943232  1
  O  O100  1  0.56210034  0.08187023  0.13142778  1
  O  O101  1  0.56109090  0.08101201  0.62844039  1
  O  O102  1  0.56791088  0.57658249  0.13039735  1
  O  O103  1  0.56487783  0.58120548  0.62888524  1
  O  O104  1  0.42882356  0.41362149  0.37114237  1
  O  O105  1  0.43128351  0.41893822  0.86842768  1
  O  O106  1  0.43379978  0.91794547  0.37327325  1
  O  O107  1  0.43254902  0.92362981  0.87002206  1
  O  O108  1  0.93328460  0.42382133  0.37206695  1
  O  O109  1  0.93245819  0.42132943  0.86857342  1
  O  O110  1  0.92951159  0.91413643  0.37187160  1
  O  O111  1  0.93030030  0.92256233  0.86921362  1
  O  O112  1  0.31278991  0.30559260  0.12999467  1
  O  O113  1  0.31030521  0.29403543  0.63001249  1
  O  O114  1  0.31641093  0.80872749  0.13013812  1
  O  O115  1  0.31068626  0.79943275  0.62910542  1
  O  O116  1  0.81310627  0.31110430  0.12870730  1
  O  O117  1  0.81186818  0.29919613  0.62847471  1
  O  O118  1  0.80966720  0.79649241  0.13001542  1
  O  O119  1  0.80823929  0.79650945  0.62918832  1
  O  O120  1  0.18443024  0.20778271  0.37279273  1
  O  O121  1  0.18201556  0.20055375  0.86799482  1
  O  O122  1  0.18207504  0.69866421  0.37241110  1
  O  O123  1  0.18312276  0.69728322  0.86967544  1
  O  O124  1  0.68873646  0.20722901  0.37058261  1
  O  O125  1  0.67794108  0.19862832  0.86889126  1
  O  O126  1  0.69096182  0.70296709  0.37149151  1
  O  O127  1  0.67981154  0.69791899  0.86888753  1
  O  O128  1  0.49979801  0.00721511  0.25853791  1
  O  O129  1  0.47102397  0.02062474  0.74754345  1
  O  O130  1  0.49068437  0.51058725  0.25787582  1
  O  O131  1  0.47284016  0.51680751  0.74719678  1
  O  O132  1  0.99777881  0.00300335  0.25713244  1
  O  O133  1  0.97274511  0.01628141  0.74718651  1
  O  O134  1  0.97471499  0.52485577  0.25333489  1
  O  O135  1  0.97253075  0.51900284  0.74841523  1
  O  O136  1  0.23271528  0.49038053  0.25256397  1
  O  O137  1  0.22300237  0.47922883  0.74857080  1
  O  O138  1  0.24919275  0.00531576  0.25789655  1
  O  O139  1  0.22225744  0.98034906  0.74910870  1
  O  O140  1  0.72396813  0.47277506  0.25122644  1
  O  O141  1  0.72278838  0.47959797  0.74830686  1
  O  O142  1  0.74186521  0.99293644  0.25186432  1
  O  O143  1  0.72211408  0.98064282  0.74863310  1
