# generated using pymatgen
data_H4CN2O
_symmetry_space_group_name_H-M   'P 1'
_cell_length_a   7.30734571
_cell_length_b   7.30734571
_cell_length_c   18.25229141
_cell_angle_alpha   90.00000000
_cell_angle_beta   90.00000000
_cell_angle_gamma   90.00000000
_symmetry_Int_Tables_number   1
_chemical_formula_structural   H4CN2O
_chemical_formula_sum   'H48 C12 N24 O12'
_cell_volume   974.62310430
_cell_formula_units_Z   12
loop_
 _symmetry_equiv_pos_site_id
 _symmetry_equiv_pos_as_xyz
  1  'x, y, z'
loop_
 _atom_site_type_symbol
 _atom_site_label
 _atom_site_symmetry_multiplicity
 _atom_site_fract_x
 _atom_site_fract_y
 _atom_site_fract_z
 _atom_site_occupancy
  H  H0  1  0.38441177  0.56944806  0.67421957  1
  H  H1  1  0.61558823  0.43055194  0.17421957  1
  H  H2  1  0.06944806  0.11558823  0.42421957  1
  H  H3  1  0.93055194  0.88441177  0.92421957  1
  H  H4  1  0.43055194  0.61558823  0.82578043  1
  H  H5  1  0.56944806  0.38441177  0.32578043  1
  H  H6  1  0.11558823  0.06944806  0.57578043  1
  H  H7  1  0.88441177  0.93055194  0.07578043  1
  H  H8  1  0.80173296  0.17384914  0.83547188  1
  H  H9  1  0.19826704  0.82615086  0.33547188  1
  H  H10  1  0.67384914  0.69826704  0.58547188  1
  H  H11  1  0.32615086  0.30173296  0.08547188  1
  H  H12  1  0.82615086  0.19826704  0.66452812  1
  H  H13  1  0.17384914  0.80173296  0.16452812  1
  H  H14  1  0.69826704  0.67384914  0.41452812  1
  H  H15  1  0.30173296  0.32615086  0.91452812  1
  H  H16  1  0.66054524  0.30075876  0.89622577  1
  H  H17  1  0.33945476  0.69924124  0.39622577  1
  H  H18  1  0.80075876  0.83945476  0.64622577  1
  H  H19  1  0.19924124  0.16054524  0.14622577  1
  H  H20  1  0.69924124  0.33945476  0.60377423  1
  H  H21  1  0.30075876  0.66054524  0.10377423  1
  H  H22  1  0.83945476  0.80075876  0.35377423  1
  H  H23  1  0.16054524  0.19924124  0.85377423  1
  H  H24  1  0.73831590  0.73971143  0.91928509  1
  H  H25  1  0.26168410  0.26028857  0.41928509  1
  H  H26  1  0.23971143  0.76168410  0.66928509  1
  H  H27  1  0.76028857  0.23831590  0.16928509  1
  H  H28  1  0.26028857  0.26168410  0.58071491  1
  H  H29  1  0.73971143  0.73831590  0.08071491  1
  H  H30  1  0.76168410  0.23971143  0.33071491  1
  H  H31  1  0.23831590  0.76028857  0.83071491  1
  H  H32  1  0.56005524  0.88645099  0.99416396  1
  H  H33  1  0.43994476  0.11354901  0.49416396  1
  H  H34  1  0.38645099  0.93994476  0.74416396  1
  H  H35  1  0.61354901  0.06005524  0.24416396  1
  H  H36  1  0.11354901  0.43994476  0.50583604  1
  H  H37  1  0.88645099  0.56005524  0.00583604  1
  H  H38  1  0.93994476  0.38645099  0.25583604  1
  H  H39  1  0.06005524  0.61354901  0.75583604  1
  H  H40  1  0.83244474  0.86832760  0.84481356  1
  H  H41  1  0.16755526  0.13167240  0.34481356  1
  H  H42  1  0.36832760  0.66755526  0.59481356  1
  H  H43  1  0.63167240  0.33244474  0.09481356  1
  H  H44  1  0.13167240  0.16755526  0.65518644  1
  H  H45  1  0.86832760  0.83244474  0.15518644  1
  H  H46  1  0.66755526  0.36832760  0.40518644  1
  H  H47  1  0.33244474  0.63167240  0.90518644  1
  C  C48  1  0.04221702  0.95778298  0.75000000  1
  C  C49  1  0.95778298  0.04221702  0.25000000  1
  C  C50  1  0.45778298  0.45778298  0.50000000  1
  C  C51  1  0.54221702  0.54221702  0.00000000  1
  C  C52  1  0.68419282  0.03026059  0.92088235  1
  C  C53  1  0.31580718  0.96973941  0.42088235  1
  C  C54  1  0.53026059  0.81580718  0.67088235  1
  C  C55  1  0.46973941  0.18419282  0.17088235  1
  C  C56  1  0.96973941  0.31580718  0.57911765  1
  C  C57  1  0.03026059  0.68419282  0.07911765  1
  C  C58  1  0.81580718  0.53026059  0.32911765  1
  C  C59  1  0.18419282  0.46973941  0.82911765  1
  N  N60  1  0.56351863  0.01466150  0.97137041  1
  N  N61  1  0.43648137  0.98533850  0.47137041  1
  N  N62  1  0.51466150  0.93648137  0.72137041  1
  N  N63  1  0.48533850  0.06351863  0.22137041  1
  N  N64  1  0.98533850  0.43648137  0.52862959  1
  N  N65  1  0.01466150  0.56351863  0.02862959  1
  N  N66  1  0.93648137  0.51466150  0.27862959  1
  N  N67  1  0.06351863  0.48533850  0.77862959  1
  N  N68  1  0.72690903  0.18194556  0.88340780  1
  N  N69  1  0.27309097  0.81805444  0.38340780  1
  N  N70  1  0.68194556  0.77309097  0.63340780  1
  N  N71  1  0.31805444  0.22690903  0.13340780  1
  N  N72  1  0.81805444  0.27309097  0.61659220  1
  N  N73  1  0.18194556  0.72690903  0.11659220  1
  N  N74  1  0.77309097  0.68194556  0.36659220  1
  N  N75  1  0.22690903  0.31805444  0.86659220  1
  N  N76  1  0.80420600  0.87035227  0.90017272  1
  N  N77  1  0.19579400  0.12964773  0.40017272  1
  N  N78  1  0.37035227  0.69579400  0.65017272  1
  N  N79  1  0.62964773  0.30420600  0.15017272  1
  N  N80  1  0.12964773  0.19579400  0.59982728  1
  N  N81  1  0.87035227  0.80420600  0.09982728  1
  N  N82  1  0.69579400  0.37035227  0.34982728  1
  N  N83  1  0.30420600  0.62964773  0.84982728  1
  O  O84  1  0.13669503  0.92466451  0.81022865  1
  O  O85  1  0.86330497  0.07533549  0.31022865  1
  O  O86  1  0.42466451  0.36330497  0.56022865  1
  O  O87  1  0.57533549  0.63669503  0.06022865  1
  O  O88  1  0.07533549  0.86330497  0.68977135  1
  O  O89  1  0.92466451  0.13669503  0.18977135  1
  O  O90  1  0.36330497  0.42466451  0.43977135  1
  O  O91  1  0.63669503  0.57533549  0.93977135  1
  O  O92  1  0.91918612  0.08081388  0.75000000  1
  O  O93  1  0.08081388  0.91918612  0.25000000  1
  O  O94  1  0.58081388  0.58081388  0.50000000  1
  O  O95  1  0.41918612  0.41918612  0.00000000  1
