# generated using pymatgen
data_ScCrO4
_symmetry_space_group_name_H-M   'P 1'
_cell_length_a   5.75394902
_cell_length_b   5.75394902
_cell_length_c   5.75394902
_cell_angle_alpha   105.35244628
_cell_angle_beta   107.82076945
_cell_angle_gamma   115.41703656
_symmetry_Int_Tables_number   1
_chemical_formula_structural   ScCrO4
_chemical_formula_sum   'Sc2 Cr2 O8'
_cell_volume   145.39064620
_cell_formula_units_Z   2
loop_
 _symmetry_equiv_pos_site_id
 _symmetry_equiv_pos_as_xyz
  1  'x, y, z'
loop_
 _atom_site_type_symbol
 _atom_site_label
 _atom_site_symmetry_multiplicity
 _atom_site_fract_x
 _atom_site_fract_y
 _atom_site_fract_z
 _atom_site_occupancy
  Sc  Sc0  1  0.86397522  0.11397522  0.75000000  1
  Sc  Sc1  1  0.13602478  0.88602478  0.25000000  1
  Cr  Cr2  1  0.63331965  0.38331965  0.25000000  1
  Cr  Cr3  1  0.36668035  0.61668035  0.75000000  1
  O  O4  1  0.80433549  0.36283657  0.05850008  1
  O  O5  1  0.25307740  0.19170367  0.06137373  1
  O  O6  1  0.63032994  0.19170367  0.43862627  1
  O  O7  1  0.80433549  0.74583541  0.44149992  1
  O  O8  1  0.19566451  0.25416459  0.55850008  1
  O  O9  1  0.36967006  0.80829633  0.56137373  1
  O  O10  1  0.74692260  0.80829633  0.93862627  1
  O  O11  1  0.19566451  0.63716343  0.94149992  1
