# generated using pymatgen
data_Zn3Mo3O8
_symmetry_space_group_name_H-M   'P 1'
_cell_length_a   10.69645847
_cell_length_b   10.69645837
_cell_length_c   21.60742924
_cell_angle_alpha   34.40206137
_cell_angle_beta   34.40206251
_cell_angle_gamma   33.43965706
_symmetry_Int_Tables_number   1
_chemical_formula_structural   Zn3Mo3O8
_chemical_formula_sum   'Zn12 Mo12 O32'
_cell_volume   691.69516585
_cell_formula_units_Z   4
loop_
 _symmetry_equiv_pos_site_id
 _symmetry_equiv_pos_as_xyz
  1  'x, y, z'
loop_
 _atom_site_type_symbol
 _atom_site_label
 _atom_site_symmetry_multiplicity
 _atom_site_fract_x
 _atom_site_fract_y
 _atom_site_fract_z
 _atom_site_occupancy
  Zn  Zn0  1  0.00000000  -0.00000000  -0.00000000  1
  Zn  Zn1  1  0.18172333  0.18172333  0.10193803  1
  Zn  Zn2  1  0.30660318  0.30660318  0.15614733  1
  Zn  Zn3  1  0.00000000  -0.00000000  0.50000000  1
  Zn  Zn4  1  0.49990184  0.49990184  0.24989406  1
  Zn  Zn5  1  0.18183287  0.18183287  0.60200028  1
  Zn  Zn6  1  0.30708553  0.30708553  0.65598264  1
  Zn  Zn7  1  0.69291447  0.69291447  0.34401736  1
  Zn  Zn8  1  0.81816713  0.81816713  0.39799972  1
  Zn  Zn9  1  0.50009816  0.50009816  0.75010594  1
  Zn  Zn10  1  0.69339682  0.69339682  0.84385267  1
  Zn  Zn11  1  0.81827667  0.81827667  0.89806197  1
  Mo  Mo12  1  0.24716321  0.24716321  0.37773636  1
  Mo  Mo13  1  0.26158802  0.73929175  0.12390235  1
  Mo  Mo14  1  0.73929175  0.26158802  0.12390235  1
  Mo  Mo15  1  0.26048642  0.73814958  0.37605309  1
  Mo  Mo16  1  0.73814958  0.26048643  0.37605309  1
  Mo  Mo17  1  0.75264620  0.75264620  0.12225008  1
  Mo  Mo18  1  0.24735380  0.24735380  0.87774992  1
  Mo  Mo19  1  0.26185042  0.73951357  0.62394691  1
  Mo  Mo20  1  0.73951358  0.26185042  0.62394691  1
  Mo  Mo21  1  0.26070825  0.73841198  0.87609765  1
  Mo  Mo22  1  0.73841198  0.26070825  0.87609765  1
  Mo  Mo23  1  0.75283679  0.75283679  0.62226364  1
  O  O24  1  0.11593835  0.11593835  0.06426438  1
  O  O25  1  0.10994590  0.10994590  0.32160201  1
  O  O26  1  0.12214976  0.64320481  0.05275039  1
  O  O27  1  0.64320481  0.12214976  0.05275039  1
  O  O28  1  0.37151144  0.37151144  0.19418314  1
  O  O29  1  0.11629415  0.11629415  0.56406580  1
  O  O30  1  0.14817388  0.61736311  0.30165949  1
  O  O31  1  0.61736311  0.14817388  0.30165949  1
  O  O32  1  0.62082936  0.62082936  0.06621700  1
  O  O33  1  0.37906153  0.37906153  0.43356250  1
  O  O34  1  0.38250767  0.85139849  0.19828340  1
  O  O35  1  0.85139849  0.38250767  0.19828340  1
  O  O36  1  0.11025051  0.11025051  0.82160521  1
  O  O37  1  0.12265649  0.64326115  0.55249394  1
  O  O38  1  0.64326115  0.12265649  0.55249394  1
  O  O39  1  0.62818710  0.62818710  0.30582969  1
  O  O40  1  0.37181290  0.37181290  0.69417031  1
  O  O41  1  0.35673885  0.87734351  0.44750606  1
  O  O42  1  0.87734351  0.35673885  0.44750606  1
  O  O43  1  0.88974949  0.88974949  0.17839479  1
  O  O44  1  0.14860151  0.61749233  0.80171660  1
  O  O45  1  0.61749233  0.14860151  0.80171660  1
  O  O46  1  0.62093847  0.62093847  0.56643750  1
  O  O47  1  0.37917064  0.37917064  0.93378300  1
  O  O48  1  0.38263689  0.85182612  0.69834051  1
  O  O49  1  0.85182612  0.38263689  0.69834051  1
  O  O50  1  0.88370585  0.88370585  0.43593420  1
  O  O51  1  0.62848856  0.62848856  0.80581686  1
  O  O52  1  0.35679519  0.87785024  0.94724961  1
  O  O53  1  0.87785024  0.35679519  0.94724961  1
  O  O54  1  0.89005410  0.89005410  0.67839799  1
  O  O55  1  0.88406165  0.88406165  0.93573562  1
