# generated using pymatgen
data_Ti20Se19
_symmetry_space_group_name_H-M   'P 1'
_cell_length_a   17.15555342
_cell_length_b   9.27267549
_cell_length_c   7.34910730
_cell_angle_alpha   69.76633537
_cell_angle_beta   62.18492894
_cell_angle_gamma   42.23642411
_symmetry_Int_Tables_number   1
_chemical_formula_structural   Ti20Se19
_chemical_formula_sum   'Ti20 Se19'
_cell_volume   695.04767023
_cell_formula_units_Z   1
loop_
 _symmetry_equiv_pos_site_id
 _symmetry_equiv_pos_as_xyz
  1  'x, y, z'
loop_
 _atom_site_type_symbol
 _atom_site_label
 _atom_site_symmetry_multiplicity
 _atom_site_fract_x
 _atom_site_fract_y
 _atom_site_fract_z
 _atom_site_occupancy
  Ti  Ti0  1  0.17219451  0.19287026  0.00503046  1
  Ti  Ti1  1  0.02548971  0.30729313  0.50767053  1
  Ti  Ti2  1  0.37180823  0.19237348  0.00678193  1
  Ti  Ti3  1  0.22602065  0.30500463  0.50702266  1
  Ti  Ti4  1  0.17187367  0.69641814  0.49377792  1
  Ti  Ti5  1  0.02788710  0.80596981  0.99442924  1
  Ti  Ti6  1  0.57258460  0.18958852  0.00598866  1
  Ti  Ti7  1  0.42780558  0.30516567  0.50682701  1
  Ti  Ti8  1  0.37491749  0.69266029  0.49333608  1
  Ti  Ti9  1  0.22947331  0.80674615  0.99382086  1
  Ti  Ti10  1  0.77082257  0.19247966  0.00649901  1
  Ti  Ti11  1  0.62741691  0.30280801  0.50731341  1
  Ti  Ti12  1  0.57501077  0.69301449  0.49518178  1
  Ti  Ti13  1  0.43114089  0.80397828  0.99316184  1
  Ti  Ti14  1  0.96977847  0.20028441  0.00115779  1
  Ti  Ti15  1  0.82553398  0.31096394  0.50541255  1
  Ti  Ti16  1  0.77206197  0.69327511  0.49445749  1
  Ti  Ti17  1  0.62962216  0.80271371  0.99002621  1
  Ti  Ti18  1  0.97236245  0.69526215  0.49190236  1
  Ti  Ti19  1  0.83119795  0.80308384  0.99036870  1
  Se  Se20  1  0.05895422  0.08534521  0.28119136  1
  Se  Se21  1  0.26188552  0.07729699  0.28454451  1
  Se  Se22  1  0.02046553  0.42616688  0.78923259  1
  Se  Se23  1  0.17529102  0.57853873  0.21541710  1
  Se  Se24  1  0.22423710  0.42216920  0.78384513  1
  Se  Se25  1  0.46424125  0.07403766  0.28354797  1
  Se  Se26  1  0.37645352  0.57720627  0.21562443  1
  Se  Se27  1  0.13728756  0.92274431  0.71729612  1
  Se  Se28  1  0.66366395  0.07347211  0.28304508  1
  Se  Se29  1  0.42420514  0.42118603  0.78585385  1
  Se  Se30  1  0.57925769  0.57672221  0.21677616  1
  Se  Se31  1  0.33946465  0.92067413  0.71443192  1
  Se  Se32  1  0.62447455  0.42098106  0.78536234  1
  Se  Se33  1  0.86120426  0.08539674  0.28164813  1
  Se  Se34  1  0.53883211  0.92083403  0.71482884  1
  Se  Se35  1  0.82231003  0.42625964  0.79124458  1
  Se  Se36  1  0.97255514  0.57822434  0.21509581  1
  Se  Se37  1  0.73951353  0.91692390  0.71535488  1
  Se  Se38  1  0.93670031  0.92386689  0.71549272  1
