# generated using pymatgen
data_TiV3Sb2(PO4)6
_symmetry_space_group_name_H-M   'P 1'
_cell_length_a   8.90745873
_cell_length_b   8.71896346
_cell_length_c   8.71896334
_cell_angle_alpha   59.99999499
_cell_angle_beta   60.69758202
_cell_angle_gamma   60.69758110
_symmetry_Int_Tables_number   1
_chemical_formula_structural   TiV3Sb2(PO4)6
_chemical_formula_sum   'Ti1 V3 Sb2 P6 O24'
_cell_volume   483.80249903
_cell_formula_units_Z   1
loop_
 _symmetry_equiv_pos_site_id
 _symmetry_equiv_pos_as_xyz
  1  'x, y, z'
loop_
 _atom_site_type_symbol
 _atom_site_label
 _atom_site_symmetry_multiplicity
 _atom_site_fract_x
 _atom_site_fract_y
 _atom_site_fract_z
 _atom_site_occupancy
  Ti  Ti0  1  0.55402810  0.14865730  0.14865730  1
  V  V1  1  0.06426950  0.64524317  0.64524317  1
  V  V2  1  0.44146259  0.85284580  0.85284580  1
  V  V3  1  0.93961789  0.35346104  0.35346104  1
  Sb  Sb4  1  0.01058296  0.99647268  0.99647268  1
  Sb  Sb5  1  0.51737957  0.49420714  0.49420714  1
  P  P6  1  0.24795874  0.25173182  0.54062607  1
  P  P7  1  0.24795874  0.95968337  0.25173182  1
  P  P8  1  0.24795874  0.54062607  0.95968337  1
  P  P9  1  0.74852534  0.45867488  0.03953930  1
  P  P10  1  0.74852534  0.03953930  0.75326048  1
  P  P11  1  0.74852534  0.75326048  0.45867488  1
  O  O12  1  0.07575301  0.11450406  0.30158564  1
  O  O13  1  0.07575301  0.50815729  0.11450406  1
  O  O14  1  0.07575301  0.30158564  0.50815729  1
  O  O15  1  0.24591922  0.08405790  0.73227550  1
  O  O16  1  0.42261665  0.19502039  0.37912586  1
  O  O17  1  0.26098847  0.41374701  0.55670740  1
  O  O18  1  0.24591922  0.93774638  0.08405790  1
  O  O19  1  0.26098847  0.76855813  0.41374701  1
  O  O20  1  0.57321212  0.61279432  0.00923341  1
  O  O21  1  0.26098847  0.55670740  0.76855813  1
  O  O22  1  0.74943223  0.26491838  0.06517915  1
  O  O23  1  0.57321212  0.00923341  0.80475915  1
  O  O24  1  0.42261665  0.00323710  0.19502039  1
  O  O25  1  0.24591922  0.73227550  0.93774638  1
  O  O26  1  0.74270137  0.43499473  0.23467589  1
  O  O27  1  0.42261665  0.37912586  0.00323710  1
  O  O28  1  0.74270137  0.23467589  0.58762701  1
  O  O29  1  0.74943223  0.06517915  0.92047024  1
  O  O30  1  0.74270137  0.58762701  0.43499473  1
  O  O31  1  0.57321212  0.80475915  0.61279432  1
  O  O32  1  0.74943223  0.92047024  0.26491838  1
  O  O33  1  0.92377898  0.70186197  0.48792113  1
  O  O34  1  0.92377898  0.48792113  0.88643792  1
  O  O35  1  0.92377898  0.88643792  0.70186197  1
