# generated using pymatgen
data_Fe(PO3)3
_symmetry_space_group_name_H-M   'P 1'
_cell_length_a   9.65869472
_cell_length_b   9.45070055
_cell_length_c   9.45662833
_cell_angle_alpha   108.51006867
_cell_angle_beta   104.51748225
_cell_angle_gamma   109.54135954
_symmetry_Int_Tables_number   1
_chemical_formula_structural   Fe(PO3)3
_chemical_formula_sum   'Fe4 P12 O36'
_cell_volume   707.23229547
_cell_formula_units_Z   4
loop_
 _symmetry_equiv_pos_site_id
 _symmetry_equiv_pos_as_xyz
  1  'x, y, z'
loop_
 _atom_site_type_symbol
 _atom_site_label
 _atom_site_symmetry_multiplicity
 _atom_site_fract_x
 _atom_site_fract_y
 _atom_site_fract_z
 _atom_site_occupancy
  Fe  Fe0  1  0.79368155  0.69460648  0.89291883  1
  Fe  Fe1  1  0.27257426  0.22412803  0.74099905  1
  Fe  Fe2  1  0.20631845  0.30539352  0.10708117  1
  Fe  Fe3  1  0.72742574  0.77587197  0.25900095  1
  P  P4  1  0.16970201  0.79971128  0.06719305  1
  P  P5  1  0.59147627  0.43235469  0.29618878  1
  P  P6  1  0.40852373  0.56764531  0.70381122  1
  P  P7  1  0.92118972  0.09309674  0.18403278  1
  P  P8  1  0.09844316  0.84109026  0.49177801  1
  P  P9  1  0.90155684  0.15890974  0.50822199  1
  P  P10  1  0.30634637  0.66630458  0.43192295  1
  P  P11  1  0.07881028  0.90690326  0.81596722  1
  P  P12  1  0.83029799  0.20028872  0.93280695  1
  P  P13  1  0.69365363  0.33369542  0.56807705  1
  P  P14  1  0.35101024  0.60880409  0.00235103  1
  P  P15  1  0.64898976  0.39119591  -0.00235103  1
  O  O16  1  0.08211648  0.13982261  0.17200972  1
  O  O17  1  0.45431440  0.81317365  0.48182951  1
  O  O18  1  0.79828378  0.36592833  0.98358090  1
  O  O19  1  0.91788352  0.86017739  0.82799028  1
  O  O20  1  0.30954130  0.42500623  0.96546107  1
  O  O21  1  0.99348667  0.72423610  0.03763509  1
  O  O22  1  0.58584508  0.67473933  0.76281518  1
  O  O23  1  0.17953562  0.83868045  0.90994398  1
  O  O24  1  0.54568560  0.18682635  0.51817049  1
  O  O25  1  0.76533892  0.98466779  0.42699926  1
  O  O26  1  0.00651333  0.27576390  0.96236491  1
  O  O27  1  0.35275739  0.38271371  0.65326710  1
  O  O28  1  0.50632877  0.73638675  0.14260494  1
  O  O29  1  0.69045870  0.57499377  0.03453893  1
  O  O30  1  0.18164397  0.09412718  0.87369735  1
  O  O31  1  0.20171622  0.63407167  0.01641910  1
  O  O32  1  0.23876467  0.50996599  0.27273587  1
  O  O33  1  0.23466108  0.01533221  0.57300074  1
  O  O34  1  0.41415492  0.32526067  0.23718482  1
  O  O35  1  0.94905731  0.80629394  0.36093195  1
  O  O36  1  0.05007852  0.80219463  0.63297519  1
  O  O37  1  0.64724261  0.61728629  0.34673290  1
  O  O38  1  0.82046438  0.16131955  0.09005602  1
  O  O39  1  0.64954365  0.36367586  0.15541147  1
  O  O40  1  0.05094269  0.19370606  0.63906805  1
  O  O41  1  0.29257572  0.93740673  0.22139631  1
  O  O42  1  0.85215744  0.29981450  0.57963145  1
  O  O43  1  0.70742428  0.06259327  0.77860369  1
  O  O44  1  0.30244288  0.59303937  0.56831704  1
  O  O45  1  0.76123533  0.49003401  0.72726413  1
  O  O46  1  0.14784256  0.70018550  0.42036855  1
  O  O47  1  0.94992148  0.19780537  0.36702481  1
  O  O48  1  0.81835603  0.90587282  0.12630265  1
  O  O49  1  0.49367123  0.26361325  0.85739506  1
  O  O50  1  0.69755712  0.40696063  0.43168296  1
  O  O51  1  0.35045635  0.63632414  0.84458853  1
