# generated using pymatgen
data_YMg5
_symmetry_space_group_name_H-M   'P 1'
_cell_length_a   12.52136718
_cell_length_b   3.24315455
_cell_length_c   7.59564048
_cell_angle_alpha   90.00000000
_cell_angle_beta   104.34982204
_cell_angle_gamma   90.00000000
_symmetry_Int_Tables_number   1
_chemical_formula_structural   YMg5
_chemical_formula_sum   'Y2 Mg10'
_cell_volume   298.82586748
_cell_formula_units_Z   2
loop_
 _symmetry_equiv_pos_site_id
 _symmetry_equiv_pos_as_xyz
  1  'x, y, z'
loop_
 _atom_site_type_symbol
 _atom_site_label
 _atom_site_symmetry_multiplicity
 _atom_site_fract_x
 _atom_site_fract_y
 _atom_site_fract_z
 _atom_site_occupancy
  Y  Y0  1  0.38743814  0.00000000  0.27335500  1
  Y  Y1  1  0.88743814  0.50000000  0.27335500  1
  Mg  Mg2  1  0.00410687  0.00000000  0.99788406  1
  Mg  Mg3  1  0.16427450  0.50000000  0.33481798  1
  Mg  Mg4  1  0.05901271  -0.00000000  0.61713244  1
  Mg  Mg5  1  0.33343536  0.00000000  0.66995930  1
  Mg  Mg6  1  0.21839942  0.50000000  0.94018422  1
  Mg  Mg7  1  0.50410687  0.50000000  0.99788406  1
  Mg  Mg8  1  0.66427450  0.00000000  0.33481798  1
  Mg  Mg9  1  0.55901271  0.50000000  0.61713244  1
  Mg  Mg10  1  0.83343536  0.50000000  0.66995930  1
  Mg  Mg11  1  0.71839942  -0.00000000  0.94018422  1
