# generated using pymatgen
data_Mn6PO12
_symmetry_space_group_name_H-M   'P 1'
_cell_length_a   9.52746981
_cell_length_b   9.52746982
_cell_length_c   11.64491752
_cell_angle_alpha   65.85277314
_cell_angle_beta   65.85277316
_cell_angle_gamma   90.00000468
_symmetry_Int_Tables_number   1
_chemical_formula_structural   Mn6PO12
_chemical_formula_sum   'Mn24 P4 O48'
_cell_volume   862.18644399
_cell_formula_units_Z   4
loop_
 _symmetry_equiv_pos_site_id
 _symmetry_equiv_pos_as_xyz
  1  'x, y, z'
loop_
 _atom_site_type_symbol
 _atom_site_label
 _atom_site_symmetry_multiplicity
 _atom_site_fract_x
 _atom_site_fract_y
 _atom_site_fract_z
 _atom_site_occupancy
  Mn  Mn0  1  0.60483969  0.35483969  0.75000000  1
  Mn  Mn1  1  0.00000000  -0.00000000  0.00000000  1
  Mn  Mn2  1  0.75000000  0.22468809  0.50000000  1
  Mn  Mn3  1  0.10483969  0.39516031  0.75000000  1
  Mn  Mn4  1  0.00000000  0.50000000  0.00000000  1
  Mn  Mn5  1  0.85483969  0.10483969  0.25000000  1
  Mn  Mn6  1  0.35483969  0.14516031  0.25000000  1
  Mn  Mn7  1  0.89516031  0.60483969  0.25000000  1
  Mn  Mn8  1  0.64516031  0.85483969  0.75000000  1
  Mn  Mn9  1  0.14516031  0.89516031  0.75000000  1
  Mn  Mn10  1  0.72468809  0.25000000  1.00000000  1
  Mn  Mn11  1  0.25000000  0.27531191  0.50000000  1
  Mn  Mn12  1  0.50000000  -0.00000000  0.00000000  1
  Mn  Mn13  1  0.25000000  0.77531191  0.50000000  1
  Mn  Mn14  1  0.00000000  -0.00000000  0.50000000  1
  Mn  Mn15  1  0.50000000  -0.00000000  0.50000000  1
  Mn  Mn16  1  0.22468809  0.25000000  1.00000000  1
  Mn  Mn17  1  0.50000000  0.50000000  0.00000000  1
  Mn  Mn18  1  0.27531191  0.75000000  0.00000000  1
  Mn  Mn19  1  0.77531191  0.75000000  0.00000000  1
  Mn  Mn20  1  0.39516031  0.64516031  0.25000000  1
  Mn  Mn21  1  0.75000000  0.72468809  0.50000000  1
  Mn  Mn22  1  0.50000000  0.50000000  0.50000000  1
  Mn  Mn23  1  0.00000000  0.50000000  0.50000000  1
  P  P24  1  0.87500000  0.12500000  0.75000000  1
  P  P25  1  0.37500000  0.62500000  0.75000000  1
  P  P26  1  0.62500000  0.37500000  0.25000000  1
  P  P27  1  0.12500000  0.87500000  0.25000000  1
  O  O28  1  0.62941811  0.40385412  0.89010501  1
  O  O29  1  0.51952312  0.09614588  0.10989499  1
  O  O30  1  0.30865298  0.08183928  0.59825004  1
  O  O31  1  0.68008933  0.69134702  0.90174996  1
  O  O32  1  0.90690403  0.41816072  0.40174996  1
  O  O33  1  0.93083808  0.99489231  0.84283912  1
  O  O34  1  0.59614588  0.01952312  0.60989499  1
  O  O35  1  0.33773143  0.77367720  0.65716088  1
  O  O36  1  0.99489231  0.72632280  0.34283912  1
  O  O37  1  0.08183928  0.59309597  0.09825004  1
  O  O38  1  0.91816072  0.40690403  0.90174996  1
  O  O39  1  0.72632280  0.16226857  0.84283912  1
  O  O40  1  0.40385412  0.98047688  0.39010501  1
  O  O41  1  0.70604087  0.62941811  0.39010501  1
  O  O42  1  0.12941811  0.20604087  0.89010501  1
  O  O43  1  0.20604087  0.48047688  0.39010501  1
  O  O44  1  0.09309597  0.58183928  0.59825004  1
  O  O45  1  0.22632280  0.49489231  0.84283912  1
  O  O46  1  0.90385412  0.12941811  0.39010501  1
  O  O47  1  0.09614588  0.87058189  0.60989499  1
  O  O48  1  0.40690403  0.68008933  0.40174996  1
  O  O49  1  0.37058189  0.59614588  0.10989499  1
  O  O50  1  0.80865298  0.81991067  0.59825004  1
  O  O51  1  0.79395913  0.51952312  0.60989499  1
  O  O52  1  0.49489231  0.43083808  0.34283912  1
  O  O53  1  0.59309597  0.31991067  0.59825004  1
  O  O54  1  0.98047688  0.70604087  0.89010501  1
  O  O55  1  0.56916192  0.33773143  0.15716088  1
  O  O56  1  0.27367720  0.83773143  0.15716088  1
  O  O57  1  0.43083808  0.66226857  0.84283912  1
  O  O58  1  0.31991067  0.30865298  0.09825004  1
  O  O59  1  0.18008933  0.90690403  0.90174996  1
  O  O60  1  0.48047688  0.90385412  0.89010501  1
  O  O61  1  0.81991067  0.09309597  0.09825004  1
  O  O62  1  0.87058189  0.79395913  0.10989499  1
  O  O63  1  0.66226857  0.22632280  0.34283912  1
  O  O64  1  0.29395913  0.37058189  0.60989499  1
  O  O65  1  0.16226857  0.93083808  0.34283912  1
  O  O66  1  0.77367720  0.50510769  0.15716088  1
  O  O67  1  0.19134702  0.18008933  0.40174996  1
  O  O68  1  0.83773143  0.06916192  0.65716088  1
  O  O69  1  0.50510769  0.56916192  0.65716088  1
  O  O70  1  0.00510769  0.27367720  0.65716088  1
  O  O71  1  0.01952312  0.29395913  0.10989499  1
  O  O72  1  0.69134702  0.91816072  0.40174996  1
  O  O73  1  0.41816072  0.19134702  0.90174996  1
  O  O74  1  0.58183928  0.80865298  0.09825004  1
  O  O75  1  0.06916192  0.00510769  0.15716088  1
