# generated using pymatgen
data_PrHfO4
_symmetry_space_group_name_H-M   'P 1'
_cell_length_a   10.82732147
_cell_length_b   10.82732147
_cell_length_c   10.82732147
_cell_angle_alpha   90.00000000
_cell_angle_beta   90.00000000
_cell_angle_gamma   90.00000000
_symmetry_Int_Tables_number   1
_chemical_formula_structural   PrHfO4
_chemical_formula_sum   'Pr16 Hf16 O64'
_cell_volume   1269.29653457
_cell_formula_units_Z   16
loop_
 _symmetry_equiv_pos_site_id
 _symmetry_equiv_pos_as_xyz
  1  'x, y, z'
loop_
 _atom_site_type_symbol
 _atom_site_label
 _atom_site_symmetry_multiplicity
 _atom_site_fract_x
 _atom_site_fract_y
 _atom_site_fract_z
 _atom_site_occupancy
  Pr  Pr0  1  0.12298745  0.37740705  0.37590801  1
  Pr  Pr1  1  0.12409199  0.87701255  0.87740705  1
  Pr  Pr2  1  0.12259295  0.62409199  0.62298745  1
  Pr  Pr3  1  0.12509693  0.12509693  0.12509693  1
  Pr  Pr4  1  0.37490307  0.87490307  0.62509693  1
  Pr  Pr5  1  0.37740705  0.37590801  0.12298745  1
  Pr  Pr6  1  0.37590801  0.12298745  0.37740705  1
  Pr  Pr7  1  0.37701255  0.62259295  0.87590801  1
  Pr  Pr8  1  0.62298745  0.12259295  0.62409199  1
  Pr  Pr9  1  0.62409199  0.62298745  0.12259295  1
  Pr  Pr10  1  0.62259295  0.87590801  0.37701255  1
  Pr  Pr11  1  0.62509693  0.37490307  0.87490307  1
  Pr  Pr12  1  0.87490307  0.62509693  0.37490307  1
  Pr  Pr13  1  0.87740705  0.12409199  0.87701255  1
  Pr  Pr14  1  0.87590801  0.37701255  0.62259295  1
  Pr  Pr15  1  0.87701255  0.87740705  0.12409199  1
  Hf  Hf16  1  0.12029496  0.61790430  0.11628230  1
  Hf  Hf17  1  0.11628230  0.12029496  0.61790430  1
  Hf  Hf18  1  0.12297846  0.87702154  0.37702154  1
  Hf  Hf19  1  0.11790430  0.38371770  0.87970504  1
  Hf  Hf20  1  0.38209570  0.61628230  0.37970504  1
  Hf  Hf21  1  0.37702154  0.12297846  0.87702154  1
  Hf  Hf22  1  0.38371770  0.87970504  0.11790430  1
  Hf  Hf23  1  0.37970504  0.38209570  0.61628230  1
  Hf  Hf24  1  0.62029496  0.88209570  0.88371770  1
  Hf  Hf25  1  0.61628230  0.37970504  0.38209570  1
  Hf  Hf26  1  0.62297846  0.62297846  0.62297846  1
  Hf  Hf27  1  0.61790430  0.11628230  0.12029496  1
  Hf  Hf28  1  0.88209570  0.88371770  0.62029496  1
  Hf  Hf29  1  0.87702154  0.37702154  0.12297846  1
  Hf  Hf30  1  0.88371770  0.62029496  0.88209570  1
  Hf  Hf31  1  0.87970504  0.11790430  0.38371770  1
  O  O32  1  0.03512693  0.74433323  0.24880714  1
  O  O33  1  0.00101761  0.99563404  0.28217332  1
  O  O34  1  0.00147153  0.73042307  0.99886686  1
  O  O35  1  0.00282712  0.00282712  0.00282712  1
  O  O36  1  0.98981781  0.01018219  0.51018219  1
  O  O37  1  0.99886686  0.00147153  0.73042307  1
  O  O38  1  0.00436596  0.78217332  0.49898239  1
  O  O39  1  0.03984561  0.25055232  0.75139866  1
  O  O40  1  0.24944768  0.24860134  0.53984561  1
  O  O41  1  0.24860134  0.53984561  0.24944768  1
  O  O42  1  0.25660395  0.24339605  0.75660395  1
  O  O43  1  0.24880714  0.03512693  0.74433323  1
  O  O44  1  0.21782668  0.99898239  0.49563404  1
  O  O45  1  0.23042307  0.50113314  0.99852847  1
  O  O46  1  0.25566677  0.74880714  0.46487307  1
  O  O47  1  0.24878265  0.74878265  0.75121735  1
  O  O48  1  0.25121735  0.25121735  0.25121735  1
  O  O49  1  0.24433323  0.25119286  0.96487307  1
  O  O50  1  0.26957693  0.49886686  0.49852847  1
  O  O51  1  0.28217332  0.00101761  0.99563404  1
  O  O52  1  0.25119286  0.96487307  0.24433323  1
  O  O53  1  0.24339605  0.75660395  0.25660395  1
  O  O54  1  0.25139866  0.46015439  0.74944768  1
  O  O55  1  0.25055232  0.75139866  0.03984561  1
  O  O56  1  0.46015439  0.74944768  0.25139866  1
  O  O57  1  0.49717288  0.99717288  0.50282712  1
  O  O58  1  0.51018219  0.98981781  0.01018219  1
  O  O59  1  0.50113314  0.99852847  0.23042307  1
  O  O60  1  0.49563404  0.21782668  0.99898239  1
  O  O61  1  0.49852847  0.26957693  0.49886686  1
  O  O62  1  0.46487307  0.25566677  0.74880714  1
  O  O63  1  0.49898239  0.00436596  0.78217332  1
  O  O64  1  0.50101761  0.50436596  0.71782668  1
  O  O65  1  0.53512693  0.75566677  0.75119286  1
  O  O66  1  0.50147153  0.76957693  0.00113314  1
  O  O67  1  0.50282712  0.49717288  0.99717288  1
  O  O68  1  0.49886686  0.49852847  0.26957693  1
  O  O69  1  0.48981781  0.48981781  0.48981781  1
  O  O70  1  0.50436596  0.71782668  0.50101761  1
  O  O71  1  0.53984561  0.24944768  0.24860134  1
  O  O72  1  0.74944768  0.25139866  0.46015439  1
  O  O73  1  0.74860134  0.96015439  0.75055232  1
  O  O74  1  0.75660395  0.25660395  0.24339605  1
  O  O75  1  0.74880714  0.46487307  0.25566677  1
  O  O76  1  0.71782668  0.50101761  0.50436596  1
  O  O77  1  0.73042307  0.99886686  0.00147153  1
  O  O78  1  0.75566677  0.75119286  0.53512693  1
  O  O79  1  0.74878265  0.75121735  0.24878265  1
  O  O80  1  0.75121735  0.24878265  0.74878265  1
  O  O81  1  0.74433323  0.24880714  0.03512693  1
  O  O82  1  0.76957693  0.00113314  0.50147153  1
  O  O83  1  0.78217332  0.49898239  0.00436596  1
  O  O84  1  0.75119286  0.53512693  0.75566677  1
  O  O85  1  0.74339605  0.74339605  0.74339605  1
  O  O86  1  0.75139866  0.03984561  0.25055232  1
  O  O87  1  0.75055232  0.74860134  0.96015439  1
  O  O88  1  0.96015439  0.75055232  0.74860134  1
  O  O89  1  0.99563404  0.28217332  0.00101761  1
  O  O90  1  0.01018219  0.51018219  0.98981781  1
  O  O91  1  0.00113314  0.50147153  0.76957693  1
  O  O92  1  0.99717288  0.50282712  0.49717288  1
  O  O93  1  0.99852847  0.23042307  0.50113314  1
  O  O94  1  0.96487307  0.24433323  0.25119286  1
  O  O95  1  0.99898239  0.49563404  0.21782668  1
