# generated using pymatgen
data_Nb5SnSe8
_symmetry_space_group_name_H-M   'P 1'
_cell_length_a   3.45921902
_cell_length_b   9.50820306
_cell_length_c   9.41326940
_cell_angle_alpha   103.04849778
_cell_angle_beta   90.00000023
_cell_angle_gamma   100.48086487
_symmetry_Int_Tables_number   1
_chemical_formula_structural   Nb5SnSe8
_chemical_formula_sum   'Nb5 Sn1 Se8'
_cell_volume   296.31207581
_cell_formula_units_Z   1
loop_
 _symmetry_equiv_pos_site_id
 _symmetry_equiv_pos_as_xyz
  1  'x, y, z'
loop_
 _atom_site_type_symbol
 _atom_site_label
 _atom_site_symmetry_multiplicity
 _atom_site_fract_x
 _atom_site_fract_y
 _atom_site_fract_z
 _atom_site_occupancy
  Nb  Nb0  1  -0.00000000  -0.00000000  0.00000000  1
  Nb  Nb1  1  0.36018270  0.72036540  0.00190427  1
  Nb  Nb2  1  0.63981730  0.27963460  0.99809573  1
  Nb  Nb3  1  0.28740930  0.57481860  0.63036240  1
  Nb  Nb4  1  0.71259070  0.42518140  0.36963760  1
  Sn  Sn5  1  0.50000000  -0.00000000  0.50000000  1
  Se  Se6  1  0.56981395  0.13962790  0.19994701  1
  Se  Se7  1  0.43018605  0.86037210  0.80005299  1
  Se  Se8  1  0.08342416  0.16684833  0.80426545  1
  Se  Se9  1  0.91657584  0.83315167  0.19573455  1
  Se  Se10  1  0.14985424  0.29970848  0.50794105  1
  Se  Se11  1  0.85014576  0.70029152  0.49205895  1
  Se  Se12  1  0.24058698  0.48117396  0.15751330  1
  Se  Se13  1  0.75941302  0.51882604  0.84248670  1
