# generated using pymatgen
data_Er3FeGe3
_symmetry_space_group_name_H-M   'P 1'
_cell_length_a   4.06139907
_cell_length_b   5.57730196
_cell_length_c   13.49420776
_cell_angle_alpha   90.00000000
_cell_angle_beta   90.00000000
_cell_angle_gamma   111.35224852
_symmetry_Int_Tables_number   1
_chemical_formula_structural   Er3FeGe3
_chemical_formula_sum   'Er6 Fe2 Ge6'
_cell_volume   284.68501373
_cell_formula_units_Z   2
loop_
 _symmetry_equiv_pos_site_id
 _symmetry_equiv_pos_as_xyz
  1  'x, y, z'
loop_
 _atom_site_type_symbol
 _atom_site_label
 _atom_site_symmetry_multiplicity
 _atom_site_fract_x
 _atom_site_fract_y
 _atom_site_fract_z
 _atom_site_occupancy
  Er  Er0  1  0.20793547  0.41587093  0.39960834  1
  Er  Er1  1  0.79206453  0.58412907  0.60039166  1
  Er  Er2  1  0.20793547  0.41587093  0.10039166  1
  Er  Er3  1  0.79206453  0.58412907  0.89960834  1
  Er  Er4  1  0.49350418  0.98700837  0.25000000  1
  Er  Er5  1  0.50649582  0.01299163  0.75000000  1
  Fe  Fe6  1  0.50000000  0.00000000  0.50000000  1
  Fe  Fe7  1  0.50000000  0.00000000  0.00000000  1
  Ge  Ge8  1  0.92541921  0.85083842  0.40794796  1
  Ge  Ge9  1  0.07458079  0.14916158  0.59205204  1
  Ge  Ge10  1  0.92541921  0.85083842  0.09205204  1
  Ge  Ge11  1  0.07458079  0.14916158  0.90794796  1
  Ge  Ge12  1  0.77268063  0.54536126  0.25000000  1
  Ge  Ge13  1  0.22731937  0.45463874  0.75000000  1
