# generated using pymatgen
data_HS2N(O2F)2
_symmetry_space_group_name_H-M   'P 1'
_cell_length_a   5.41827806
_cell_length_b   7.36878739
_cell_length_c   8.41709155
_cell_angle_alpha   90.00000000
_cell_angle_beta   90.00000000
_cell_angle_gamma   100.00838219
_symmetry_Int_Tables_number   1
_chemical_formula_structural   HS2N(O2F)2
_chemical_formula_sum   'H2 S4 N2 O8 F4'
_cell_volume   330.94789027
_cell_formula_units_Z   2
loop_
 _symmetry_equiv_pos_site_id
 _symmetry_equiv_pos_as_xyz
  1  'x, y, z'
loop_
 _atom_site_type_symbol
 _atom_site_label
 _atom_site_symmetry_multiplicity
 _atom_site_fract_x
 _atom_site_fract_y
 _atom_site_fract_z
 _atom_site_occupancy
  H  H0  1  0.03283614  0.76904286  0.49897365  1
  H  H1  1  0.96716386  0.23095714  0.99897365  1
  S  S2  1  0.67821258  0.88913671  0.44132169  1
  S  S3  1  0.32178742  0.11086329  0.94132169  1
  S  S4  1  0.77187305  0.64331668  0.70202137  1
  S  S5  1  0.22812695  0.35668332  0.20202137  1
  N  N6  1  0.84927371  0.75807496  0.53402429  1
  N  N7  1  0.15072629  0.24192504  0.03402429  1
  O  O8  1  0.79680896  0.93971687  0.29361337  1
  O  O9  1  0.20319104  0.06028313  0.79361337  1
  O  O10  1  0.42044739  0.80951808  0.45854900  1
  O  O11  1  0.57955261  0.19048192  0.95854900  1
  O  O12  1  0.63373246  0.74339222  0.80282357  1
  O  O13  1  0.36626754  0.25660778  0.30282357  1
  O  O14  1  0.98643360  0.56991406  0.74916106  1
  O  O15  1  0.01356640  0.43008594  0.24916106  1
  F  F16  1  0.72072959  0.06769713  0.54951323  1
  F  F17  1  0.27927041  0.93230287  0.04951323  1
  F  F18  1  0.57590953  0.47677787  0.63319877  1
  F  F19  1  0.42409047  0.52322213  0.13319877  1
