# generated using pymatgen
data_P2H4RhO9
_symmetry_space_group_name_H-M   'P 1'
_cell_length_a   7.66722423
_cell_length_b   7.66722423
_cell_length_c   7.31117739
_cell_angle_alpha   87.78666326
_cell_angle_beta   92.21333674
_cell_angle_gamma   57.11347276
_symmetry_Int_Tables_number   1
_chemical_formula_structural   P2H4RhO9
_chemical_formula_sum   'P4 H8 Rh2 O18'
_cell_volume   359.74138162
_cell_formula_units_Z   2
loop_
 _symmetry_equiv_pos_site_id
 _symmetry_equiv_pos_as_xyz
  1  'x, y, z'
loop_
 _atom_site_type_symbol
 _atom_site_label
 _atom_site_symmetry_multiplicity
 _atom_site_fract_x
 _atom_site_fract_y
 _atom_site_fract_z
 _atom_site_occupancy
  P  P0  1  0.98313205  0.71908435  0.76419572  1
  P  P1  1  0.71908435  0.98313205  0.23580428  1
  P  P2  1  0.29438459  0.02998202  0.76079306  1
  P  P3  1  0.02998202  0.29438459  0.23920694  1
  H  H4  1  0.71122521  0.06095568  0.53283704  1
  H  H5  1  0.06095568  0.71122521  0.46716296  1
  H  H6  1  0.93255042  0.29591434  0.52425490  1
  H  H7  1  0.29591434  0.93255042  0.47574510  1
  H  H8  1  0.50868939  0.56543320  0.75038656  1
  H  H9  1  0.56543320  0.50868939  0.24961344  1
  H  H10  1  0.45918032  0.38979688  0.74348087  1
  H  H11  1  0.38979688  0.45918032  0.25651913  1
  Rh  Rh12  1  0.85562452  0.16011882  0.90890703  1
  Rh  Rh13  1  0.16011882  0.85562452  0.09109297  1
  O  O14  1  0.84401341  0.96724842  0.74182377  1
  O  O15  1  0.96724842  0.84401341  0.25817623  1
  O  O16  1  0.66486055  0.14879068  0.07227749  1
  O  O17  1  0.14879068  0.66486055  0.92772251  1
  O  O18  1  0.12012491  0.64394600  0.59350033  1
  O  O19  1  0.64394600  0.12012491  0.40649967  1
  O  O20  1  0.85857695  0.62673920  0.78873709  1
  O  O21  1  0.62673920  0.85857695  0.21126291  1
  O  O22  1  0.04533867  0.16899266  0.73708144  1
  O  O23  1  0.16899266  0.04533867  0.26291856  1
  O  O24  1  0.87390738  0.35049014  0.06640489  1
  O  O25  1  0.35049014  0.87390738  0.93359511  1
  O  O26  1  0.38532852  0.15724892  0.76895235  1
  O  O27  1  0.15724892  0.38532852  0.23104765  1
  O  O28  1  0.36552481  0.87548337  0.60131703  1
  O  O29  1  0.87548337  0.36552481  0.39868297  1
  O  O30  1  0.57156306  0.41555056  0.74144218  1
  O  O31  1  0.41555056  0.57156306  0.25855782  1
