# generated using pymatgen
data_LaTa2CuClO7
_symmetry_space_group_name_H-M   'P 1'
_cell_length_a   3.90751483
_cell_length_b   3.90757069
_cell_length_c   11.78020249
_cell_angle_alpha   90.00001520
_cell_angle_beta   90.00001545
_cell_angle_gamma   90.00032170
_symmetry_Int_Tables_number   1
_chemical_formula_structural   LaTa2CuClO7
_chemical_formula_sum   'La1 Ta2 Cu1 Cl1 O7'
_cell_volume   179.87062095
_cell_formula_units_Z   1
loop_
 _symmetry_equiv_pos_site_id
 _symmetry_equiv_pos_as_xyz
  1  'x, y, z'
loop_
 _atom_site_type_symbol
 _atom_site_label
 _atom_site_symmetry_multiplicity
 _atom_site_fract_x
 _atom_site_fract_y
 _atom_site_fract_z
 _atom_site_occupancy
  La  La0  1  -0.00000021  0.00000006  -0.00000009  1
  Ta  Ta1  1  0.50000018  0.50000022  0.81041993  1
  Ta  Ta2  1  0.49999989  0.49999986  0.18958040  1
  Cu  Cu3  1  0.50000016  0.50000014  0.50000028  1
  Cl  Cl4  1  0.99999938  0.99999936  0.49999992  1
  O  O5  1  0.50000023  0.00000010  0.84679062  1
  O  O6  1  0.00000030  0.50000030  0.84679120  1
  O  O7  1  0.49999986  -0.00000000  0.15320850  1
  O  O8  1  0.99999994  0.50000021  0.15320896  1
  O  O9  1  0.50000064  0.50000012  0.65717347  1
  O  O10  1  0.49999969  0.49999924  0.34282689  1
  O  O11  1  0.49999992  0.50000040  0.99999992  1
