# generated using pymatgen
data_CsRb2SbF6
_symmetry_space_group_name_H-M   'P 1'
_cell_length_a   7.09337913
_cell_length_b   7.09337933
_cell_length_c   7.09337933
_cell_angle_alpha   59.99999921
_cell_angle_beta   59.99999888
_cell_angle_gamma   59.99999891
_symmetry_Int_Tables_number   1
_chemical_formula_structural   CsRb2SbF6
_chemical_formula_sum   'Cs1 Rb2 Sb1 F6'
_cell_volume   252.37395600
_cell_formula_units_Z   1
loop_
 _symmetry_equiv_pos_site_id
 _symmetry_equiv_pos_as_xyz
  1  'x, y, z'
loop_
 _atom_site_type_symbol
 _atom_site_label
 _atom_site_symmetry_multiplicity
 _atom_site_fract_x
 _atom_site_fract_y
 _atom_site_fract_z
 _atom_site_occupancy
  Cs  Cs0  1  0.50000000  0.50000000  0.50000000  1
  Rb  Rb1  1  0.25000000  0.25000000  0.25000000  1
  Rb  Rb2  1  0.75000000  0.75000000  0.75000000  1
  Sb  Sb3  1  0.00000000  -0.00000000  -0.00000000  1
  F  F4  1  0.21962629  0.78037371  0.21962629  1
  F  F5  1  0.78037371  0.78037371  0.21962629  1
  F  F6  1  0.78037371  0.21962629  0.78037371  1
  F  F7  1  0.78037371  0.21962629  0.21962629  1
  F  F8  1  0.21962629  0.78037371  0.78037371  1
  F  F9  1  0.21962629  0.21962629  0.78037371  1
