# generated using pymatgen
data_H5C2NO3
_symmetry_space_group_name_H-M   'P 1'
_cell_length_a   14.54919980
_cell_length_b   14.54919980
_cell_length_c   16.28479982
_cell_angle_alpha   84.86147881
_cell_angle_beta   95.13852119
_cell_angle_gamma   165.24303409
_symmetry_Int_Tables_number   1
_chemical_formula_structural   H5C2NO3
_chemical_formula_sum   'H40 C16 N8 O24'
_cell_volume   874.46917019
_cell_formula_units_Z   8
loop_
 _symmetry_equiv_pos_site_id
 _symmetry_equiv_pos_as_xyz
  1  'x, y, z'
loop_
 _atom_site_type_symbol
 _atom_site_label
 _atom_site_symmetry_multiplicity
 _atom_site_fract_x
 _atom_site_fract_y
 _atom_site_fract_z
 _atom_site_occupancy
  H  H0  1  0.28527438  0.50686577  0.00875752  1
  H  H1  1  0.50686577  0.28527438  0.49124248  1
  H  H2  1  0.71472562  0.49313423  0.99124248  1
  H  H3  1  0.49313423  0.71472562  0.50875752  1
  H  H4  1  0.78859174  0.85914854  0.96547261  1
  H  H5  1  0.85914854  0.78859174  0.53452739  1
  H  H6  1  0.21140826  0.14085146  0.03452739  1
  H  H7  1  0.14085146  0.21140826  0.46547261  1
  H  H8  1  0.62444312  0.95485929  0.87899139  1
  H  H9  1  0.95485929  0.62444312  0.62100861  1
  H  H10  1  0.37555688  0.04514071  0.12100861  1
  H  H11  1  0.04514071  0.37555688  0.37899139  1
  H  H12  1  0.28578918  0.81205864  0.06373112  1
  H  H13  1  0.81205864  0.28578918  0.43626888  1
  H  H14  1  0.71421082  0.18794136  0.93626888  1
  H  H15  1  0.18794136  0.71421082  0.56373112  1
  H  H16  1  0.99094566  0.42205474  0.21508178  1
  H  H17  1  0.42205474  0.99094566  0.28491822  1
  H  H18  1  0.00905434  0.57794526  0.78491822  1
  H  H19  1  0.57794526  0.00905434  0.71508178  1
  H  H20  1  0.07284978  0.46645650  0.11524185  1
  H  H21  1  0.46645650  0.07284978  0.38475815  1
  H  H22  1  0.92715022  0.53354350  0.88475815  1
  H  H23  1  0.53354350  0.92715022  0.61524185  1
  H  H24  1  0.86694609  0.59152667  0.23057720  1
  H  H25  1  0.59152667  0.86694609  0.26942280  1
  H  H26  1  0.13305391  0.40847333  0.76942280  1
  H  H27  1  0.40847333  0.13305391  0.73057720  1
  H  H28  1  0.05604387  0.87895099  0.36839435  1
  H  H29  1  0.87895099  0.05604387  0.13160565  1
  H  H30  1  0.94395613  0.12104901  0.63160565  1
  H  H31  1  0.12104901  0.94395613  0.86839435  1
  H  H32  1  0.71012432  0.67097324  0.82169978  1
  H  H33  1  0.67097324  0.71012432  0.67830022  1
  H  H34  1  0.28987568  0.32902676  0.17830022  1
  H  H35  1  0.32902676  0.28987568  0.32169978  1
  H  H36  1  0.55179215  0.65286301  0.86999587  1
  H  H37  1  0.65286301  0.55179215  0.63000413  1
  H  H38  1  0.44820785  0.34713699  0.13000413  1
  H  H39  1  0.34713699  0.44820785  0.36999587  1
  C  C40  1  0.36361676  0.64966636  0.97689730  1
  C  C41  1  0.64966636  0.36361676  0.52310270  1
  C  C42  1  0.63638324  0.35033364  0.02310270  1
  C  C43  1  0.35033364  0.63638324  0.47689730  1
  C  C44  1  0.20833448  0.72925827  0.12892290  1
  C  C45  1  0.72925827  0.20833448  0.37107710  1
  C  C46  1  0.79166552  0.27074173  0.87107710  1
  C  C47  1  0.27074173  0.79166552  0.62892290  1
  C  C48  1  0.87148054  0.65737993  0.26605729  1
  C  C49  1  0.65737993  0.87148054  0.23394271  1
  C  C50  1  0.12851946  0.34262007  0.73394271  1
  C  C51  1  0.34262007  0.12851946  0.76605729  1
  C  C52  1  0.81298474  0.78365825  0.88320590  1
  C  C53  1  0.78365825  0.81298474  0.61679410  1
  C  C54  1  0.18701526  0.21634175  0.11679410  1
  C  C55  1  0.21634175  0.18701526  0.38320590  1
  N  N56  1  0.07265456  0.51671084  0.15527725  1
  N  N57  1  0.51671084  0.07265456  0.34472275  1
  N  N58  1  0.92734544  0.48328916  0.84472275  1
  N  N59  1  0.48328916  0.92734544  0.65527725  1
  N  N60  1  0.70181049  0.75443104  0.90988116  1
  N  N61  1  0.75443104  0.70181049  0.59011884  1
  N  N62  1  0.29818951  0.24556896  0.09011884  1
  N  N63  1  0.24556896  0.29818951  0.40988116  1
  O  O64  1  0.27824955  0.64109600  0.00214138  1
  O  O65  1  0.64109600  0.27824955  0.49785862  1
  O  O66  1  0.72175045  0.35890400  0.99785862  1
  O  O67  1  0.35890400  0.72175045  0.50214138  1
  O  O68  1  0.55383618  0.82315842  0.90992170  1
  O  O69  1  0.82315842  0.55383618  0.59007830  1
  O  O70  1  0.44616382  0.17684158  0.09007830  1
  O  O71  1  0.17684158  0.44616382  0.40992170  1
  O  O72  1  0.25163893  0.83848145  0.17245735  1
  O  O73  1  0.83848145  0.25163893  0.32754265  1
  O  O74  1  0.74836107  0.16151855  0.82754265  1
  O  O75  1  0.16151855  0.74836107  0.67245735  1
  O  O76  1  0.72986103  0.59373385  0.24043872  1
  O  O77  1  0.59373385  0.72986103  0.25956128  1
  O  O78  1  0.27013897  0.40626615  0.75956128  1
  O  O79  1  0.40626615  0.27013897  0.74043872  1
  O  O80  1  0.04838234  0.81236832  0.33705957  1
  O  O81  1  0.81236832  0.04838234  0.16294043  1
  O  O82  1  0.95161766  0.18763168  0.66294043  1
  O  O83  1  0.18763168  0.95161766  0.83705957  1
  O  O84  1  0.01893692  0.92460290  0.92301429  1
  O  O85  1  0.92460290  0.01893692  0.57698571  1
  O  O86  1  0.98106308  0.07539710  0.07698571  1
  O  O87  1  0.07539710  0.98106308  0.42301429  1
