# generated using pymatgen
data_ZrH16C5N2O3F4
_symmetry_space_group_name_H-M   'P 1'
_cell_length_a   15.29861519
_cell_length_b   9.72300032
_cell_length_c   9.72300032
_cell_angle_alpha   60.65352940
_cell_angle_beta   90.00000000
_cell_angle_gamma   90.00000000
_symmetry_Int_Tables_number   1
_chemical_formula_structural   ZrH16C5N2O3F4
_chemical_formula_sum   'Zr4 H64 C20 N8 O12 F16'
_cell_volume   1260.68286117
_cell_formula_units_Z   4
loop_
 _symmetry_equiv_pos_site_id
 _symmetry_equiv_pos_as_xyz
  1  'x, y, z'
loop_
 _atom_site_type_symbol
 _atom_site_label
 _atom_site_symmetry_multiplicity
 _atom_site_fract_x
 _atom_site_fract_y
 _atom_site_fract_z
 _atom_site_occupancy
  Zr  Zr0  1  0.60399480  0.40038055  0.59046625  1
  Zr  Zr1  1  0.39600520  0.59046625  0.40038055  1
  Zr  Zr2  1  0.89600520  0.90038055  0.09046625  1
  Zr  Zr3  1  0.10399480  0.09046625  0.90038055  1
  H  H4  1  0.79025142  0.32149124  0.63798792  1
  H  H5  1  0.20974858  0.63798792  0.32149124  1
  H  H6  1  0.70974858  0.82149124  0.13798792  1
  H  H7  1  0.29025142  0.13798792  0.82149124  1
  H  H8  1  0.74981025  0.18314390  0.79927909  1
  H  H9  1  0.25018975  0.79927909  0.18314390  1
  H  H10  1  0.75018975  0.68314390  0.29927909  1
  H  H11  1  0.24981025  0.29927909  0.68314390  1
  H  H12  1  0.90828268  0.51586791  0.46423223  1
  H  H13  1  0.09171732  0.46423223  0.51586791  1
  H  H14  1  0.59171732  0.01586791  0.96423223  1
  H  H15  1  0.40828268  0.96423223  0.01586791  1
  H  H16  1  0.84714884  0.50899046  0.58942795  1
  H  H17  1  0.15285116  0.58942795  0.50899046  1
  H  H18  1  0.65285116  0.00899046  0.08942795  1
  H  H19  1  0.34714884  0.08942795  0.00899046  1
  H  H20  1  0.62134062  0.30835806  0.96761052  1
  H  H21  1  0.37865938  0.96761052  0.30835806  1
  H  H22  1  0.87865938  0.80835806  0.46761052  1
  H  H23  1  0.12134062  0.46761052  0.80835806  1
  H  H24  1  0.52267811  0.32329533  0.05626977  1
  H  H25  1  0.47732189  0.05626977  0.32329533  1
  H  H26  1  0.97732189  0.82329533  0.55626977  1
  H  H27  1  0.02267811  0.55626977  0.82329533  1
  H  H28  1  0.62408000  0.31055103  0.15198583  1
  H  H29  1  0.37592000  0.15198583  0.31055103  1
  H  H30  1  0.87592000  0.81055103  0.65198583  1
  H  H31  1  0.12408000  0.65198583  0.81055103  1
  H  H32  1  0.56723945  0.73135158  0.97244547  1
  H  H33  1  0.43276055  0.97244547  0.73135158  1
  H  H34  1  0.93276055  0.23135158  0.47244547  1
  H  H35  1  0.06723945  0.47244547  0.23135158  1
  H  H36  1  0.61694148  0.57494104  0.14354394  1
  H  H37  1  0.38305852  0.14354394  0.57494104  1
  H  H38  1  0.88305852  0.07494104  0.64354394  1
  H  H39  1  0.11694148  0.64354394  0.07494104  1
  H  H40  1  0.50766495  0.55582514  0.09586212  1
  H  H41  1  0.49233505  0.09586212  0.55582514  1
  H  H42  1  0.99233505  0.05582514  0.59586212  1
  H  H43  1  0.00766495  0.59586212  0.05582514  1
  H  H44  1  0.58558791  0.79199968  0.50023934  1
  H  H45  1  0.41441209  0.50023934  0.79199968  1
  H  H46  1  0.91441209  0.29199968  0.00023934  1
  H  H47  1  0.08558791  0.00023934  0.29199968  1
  H  H48  1  0.69710151  0.84973457  0.49033128  1
  H  H49  1  0.30289849  0.49033128  0.84973457  1
  H  H50  1  0.80289849  0.34973457  0.99033128  1
  H  H51  1  0.19710151  0.99033128  0.34973457  1
  H  H52  1  0.61303319  0.96910024  0.50546939  1
  H  H53  1  0.38696681  0.50546939  0.96910024  1
  H  H54  1  0.88696681  0.46910024  0.00546939  1
  H  H55  1  0.11303319  0.00546939  0.46910024  1
  H  H56  1  0.70202109  0.76327125  0.90733429  1
  H  H57  1  0.29797891  0.90733429  0.76327125  1
  H  H58  1  0.79797891  0.26327125  0.40733429  1
  H  H59  1  0.20202109  0.40733429  0.26327125  1
  H  H60  1  0.65714179  0.94846106  0.76359608  1
  H  H61  1  0.34285821  0.76359608  0.94846106  1
  H  H62  1  0.84285821  0.44846106  0.26359608  1
  H  H63  1  0.15714179  0.26359608  0.44846106  1
  H  H64  1  0.75310110  0.87278270  0.72120072  1
  H  H65  1  0.24689890  0.72120072  0.87278270  1
  H  H66  1  0.74689890  0.37278270  0.22120072  1
  H  H67  1  0.25310110  0.22120072  0.37278270  1
  C  C68  1  0.61416850  0.60601477  0.79451107  1
  C  C69  1  0.38583150  0.79451107  0.60601477  1
  C  C70  1  0.88583150  0.10601477  0.29451107  1
  C  C71  1  0.11416850  0.29451107  0.10601477  1
  C  C72  1  0.59200295  0.35801173  0.03648882  1
  C  C73  1  0.40799705  0.03648882  0.35801173  1
  C  C74  1  0.90799705  0.85801173  0.53648882  1
  C  C75  1  0.09200295  0.53648882  0.85801173  1
  C  C76  1  0.57215109  0.60334270  0.04494837  1
  C  C77  1  0.42784891  0.04494837  0.60334270  1
  C  C78  1  0.92784891  0.10334270  0.54494837  1
  C  C79  1  0.07215109  0.54494837  0.10334270  1
  C  C80  1  0.63285939  0.84714864  0.54287219  1
  C  C81  1  0.36714061  0.54287219  0.84714864  1
  C  C82  1  0.86714061  0.34714864  0.04287219  1
  C  C83  1  0.13285939  0.04287219  0.34714864  1
  C  C84  1  0.68953949  0.83996725  0.78176941  1
  C  C85  1  0.31046051  0.78176941  0.83996725  1
  C  C86  1  0.81046051  0.33996725  0.28176941  1
  C  C87  1  0.18953949  0.28176941  0.33996725  1
  N  N88  1  0.60111619  0.52953081  0.95270319  1
  N  N89  1  0.39888381  0.95270319  0.52953081  1
  N  N90  1  0.89888381  0.02953081  0.45270319  1
  N  N91  1  0.10111619  0.45270319  0.02953081  1
  N  N92  1  0.63736158  0.76073299  0.71514640  1
  N  N93  1  0.36263842  0.71514640  0.76073299  1
  N  N94  1  0.86263842  0.26073299  0.21514640  1
  N  N95  1  0.13736158  0.21514640  0.26073299  1
  O  O96  1  0.60385130  0.53075662  0.71818678  1
  O  O97  1  0.39614870  0.71818678  0.53075662  1
  O  O98  1  0.89614870  0.03075662  0.21818678  1
  O  O99  1  0.10385130  0.21818678  0.03075662  1
  O  O100  1  0.73477395  0.27526764  0.69500142  1
  O  O101  1  0.26522605  0.69500142  0.27526764  1
  O  O102  1  0.76522605  0.77526764  0.19500142  1
  O  O103  1  0.23477395  0.19500142  0.77526764  1
  O  O104  1  0.88416484  0.43978337  0.56872893  1
  O  O105  1  0.11583516  0.56872893  0.43978337  1
  O  O106  1  0.61583516  0.93978337  0.06872893  1
  O  O107  1  0.38416484  0.06872893  0.93978337  1
  F  F108  1  0.70589645  0.54569314  0.46151733  1
  F  F109  1  0.29410355  0.46151733  0.54569314  1
  F  F110  1  0.79410355  0.04569314  0.96151733  1
  F  F111  1  0.20589645  0.96151733  0.04569314  1
  F  F112  1  0.57761436  0.20248079  0.79628725  1
  F  F113  1  0.42238564  0.79628725  0.20248079  1
  F  F114  1  0.92238564  0.70248079  0.29628725  1
  F  F115  1  0.07761436  0.29628725  0.70248079  1
  F  F116  1  0.60139770  0.29050252  0.46468078  1
  F  F117  1  0.39860230  0.46468078  0.29050252  1
  F  F118  1  0.89860230  0.79050252  0.96468078  1
  F  F119  1  0.10139770  0.96468078  0.79050252  1
  F  F120  1  0.53915623  0.60321635  0.39708185  1
  F  F121  1  0.46084377  0.39708185  0.60321635  1
  F  F122  1  0.96084377  0.10321635  0.89708185  1
  F  F123  1  0.03915623  0.89708185  0.10321635  1
