# generated using pymatgen
data_Rb2CeAgF6
_symmetry_space_group_name_H-M   'P 1'
_cell_length_a   6.70257509
_cell_length_b   6.70220221
_cell_length_c   6.70253661
_cell_angle_alpha   60.00286562
_cell_angle_beta   60.00439257
_cell_angle_gamma   60.00301577
_symmetry_Int_Tables_number   1
_chemical_formula_structural   Rb2CeAgF6
_chemical_formula_sum   'Rb2 Ce1 Ag1 F6'
_cell_volume   212.92033001
_cell_formula_units_Z   1
loop_
 _symmetry_equiv_pos_site_id
 _symmetry_equiv_pos_as_xyz
  1  'x, y, z'
loop_
 _atom_site_type_symbol
 _atom_site_label
 _atom_site_symmetry_multiplicity
 _atom_site_fract_x
 _atom_site_fract_y
 _atom_site_fract_z
 _atom_site_occupancy
  Rb  Rb0  1  0.24999662  0.25000138  0.24999691  1
  Rb  Rb1  1  0.75000338  0.74999862  0.75000309  1
  Ce  Ce2  1  0.50000000  0.50000000  0.50000000  1
  Ag  Ag3  1  0.00000000  0.00000000  1.00000000  1
  F  F4  1  0.25923951  0.74076211  0.25923823  1
  F  F5  1  0.74075798  0.74076757  0.25924039  1
  F  F6  1  0.74076049  0.25923789  0.74076177  1
  F  F7  1  0.74075910  0.25923292  0.25924126  1
  F  F8  1  0.25924090  0.74076708  0.74075874  1
  F  F9  1  0.25924202  0.25923243  0.74075961  1
