# generated using pymatgen
data_Cd2Fe(CN)6
_symmetry_space_group_name_H-M   'P 1'
_cell_length_a   6.38199625
_cell_length_b   6.38199664
_cell_length_c   6.37754858
_cell_angle_alpha   90.00000000
_cell_angle_beta   90.00000000
_cell_angle_gamma   119.99999803
_symmetry_Int_Tables_number   1
_chemical_formula_structural   Cd2Fe(CN)6
_chemical_formula_sum   'Cd2 Fe1 C6 N6'
_cell_volume   224.95597452
_cell_formula_units_Z   1
loop_
 _symmetry_equiv_pos_site_id
 _symmetry_equiv_pos_as_xyz
  1  'x, y, z'
loop_
 _atom_site_type_symbol
 _atom_site_label
 _atom_site_symmetry_multiplicity
 _atom_site_fract_x
 _atom_site_fract_y
 _atom_site_fract_z
 _atom_site_occupancy
  Cd  Cd0  1  0.33333300  0.66666700  0.50515055  1
  Cd  Cd1  1  0.66666700  0.33333300  0.49484945  1
  Fe  Fe2  1  0.00000000  0.00000000  0.00000000  1
  C  C3  1  0.76584380  0.76758847  0.17657815  1
  C  C4  1  0.00174467  0.23415620  0.17657815  1
  C  C5  1  0.23415620  0.23241153  0.82342185  1
  C  C6  1  0.23241153  0.99825533  0.17657815  1
  C  C7  1  0.99825533  0.76584380  0.82342185  1
  C  C8  1  0.76758847  0.00174467  0.82342185  1
  N  N9  1  0.62548454  0.62773978  0.29865735  1
  N  N10  1  0.00225524  0.37451546  0.29865735  1
  N  N11  1  0.37226022  0.99774476  0.29865735  1
  N  N12  1  0.62773978  0.00225524  0.70134265  1
  N  N13  1  0.99774476  0.62548454  0.70134265  1
  N  N14  1  0.37451546  0.37226022  0.70134265  1
