# generated using pymatgen
data_SrLa7ZnCu3O16
_symmetry_space_group_name_H-M   'P 1'
_cell_length_a   10.81007084
_cell_length_b   5.46383983
_cell_length_c   7.06609671
_cell_angle_alpha   89.52852402
_cell_angle_beta   67.49877152
_cell_angle_gamma   89.96294501
_symmetry_Int_Tables_number   1
_chemical_formula_structural   SrLa7ZnCu3O16
_chemical_formula_sum   'Sr1 La7 Zn1 Cu3 O16'
_cell_volume   385.56825349
_cell_formula_units_Z   1
loop_
 _symmetry_equiv_pos_site_id
 _symmetry_equiv_pos_as_xyz
  1  'x, y, z'
loop_
 _atom_site_type_symbol
 _atom_site_label
 _atom_site_symmetry_multiplicity
 _atom_site_fract_x
 _atom_site_fract_y
 _atom_site_fract_z
 _atom_site_occupancy
  Sr  Sr0  1  0.92988652  0.49848011  0.27876530  1
  La  La1  1  0.17497542  0.98222295  0.27802112  1
  La  La2  1  0.06686025  0.49258827  0.72535495  1
  La  La3  1  0.42913208  0.50644732  0.28054062  1
  La  La4  1  0.32005111  0.01462694  0.71873250  1
  La  La5  1  0.68466006  0.98277046  0.27788623  1
  La  La6  1  0.57299426  0.49298769  0.72065853  1
  La  La7  1  0.82189242  0.01671314  0.71876264  1
  Zn  Zn8  1  0.49789631  0.99938583  0.00709824  1
  Cu  Cu9  1  0.99862373  0.99839150  0.00604824  1
  Cu  Cu10  1  0.24879108  0.49930168  0.99738504  1
  Cu  Cu11  1  0.75204796  0.49879139  0.99792794  1
  O  O12  1  0.13516807  0.75169272  0.97854558  1
  O  O13  1  0.16570589  0.55172467  0.37738814  1
  O  O14  1  0.08787409  0.03542460  0.63682914  1
  O  O15  1  0.37628136  0.74368954  0.98056423  1
  O  O16  1  0.12770216  0.25057564  0.00018590  1
  O  O17  1  0.41016370  0.96812453  0.35495314  1
  O  O18  1  0.34522697  0.45035943  0.62459035  1
  O  O19  1  0.63413836  0.75033259  0.98916910  1
  O  O20  1  0.36468531  0.24899335  0.01334499  1
  O  O21  1  0.64779474  0.54967592  0.37769055  1
  O  O22  1  0.59059750  0.03397844  0.64240627  1
  O  O23  1  0.87655263  0.74703913  0.98504668  1
  O  O24  1  0.62300824  0.25442510  0.02209815  1
  O  O25  1  0.91355254  0.98178939  0.35703476  1
  O  O26  1  0.83618088  0.45451457  0.64437587  1
  O  O27  1  0.86755639  0.24495308  0.00859581  1
