# generated using pymatgen
data_Li2MnCoO4
_symmetry_space_group_name_H-M   'P 1'
_cell_length_a   2.87632336
_cell_length_b   9.86935701
_cell_length_c   5.27429786
_cell_angle_alpha   97.97127538
_cell_angle_beta   90.00000000
_cell_angle_gamma   90.00000000
_symmetry_Int_Tables_number   1
_chemical_formula_structural   Li2MnCoO4
_chemical_formula_sum   'Li4 Mn2 Co2 O8'
_cell_volume   148.27725574
_cell_formula_units_Z   2
loop_
 _symmetry_equiv_pos_site_id
 _symmetry_equiv_pos_as_xyz
  1  'x, y, z'
loop_
 _atom_site_type_symbol
 _atom_site_label
 _atom_site_symmetry_multiplicity
 _atom_site_fract_x
 _atom_site_fract_y
 _atom_site_fract_z
 _atom_site_occupancy
  Li  Li0  1  0.50000000  0.99717437  0.50094999  1
  Li  Li1  1  -0.00000000  0.24631044  0.74865879  1
  Li  Li2  1  0.50000000  0.50368956  0.00134121  1
  Li  Li3  1  -0.00000000  0.75282563  0.24905001  1
  Mn  Mn4  1  0.50000000  0.24531618  0.23782568  1
  Mn  Mn5  1  0.00000000  0.50468382  0.51217432  1
  Co  Co6  1  -0.00000000  0.99596126  0.98833992  1
  Co  Co7  1  0.50000000  0.75403874  0.76166008  1
  O  O8  1  0.50000000  0.87735937  0.11138847  1
  O  O9  1  -0.00000000  0.13308226  0.35249994  1
  O  O10  1  0.50000000  0.38692526  0.61132480  1
  O  O11  1  0.00000000  0.62955942  0.87321073  1
  O  O12  1  0.50000000  0.12044058  0.87678927  1
  O  O13  1  0.00000000  0.36307474  0.13867520  1
  O  O14  1  0.50000000  0.61691774  0.39750006  1
  O  O15  1  -0.00000000  0.87264063  0.63861153  1
