# generated using pymatgen
data_SmH32C8I3(N2O)8
_symmetry_space_group_name_H-M   'P 1'
_cell_length_a   11.43492773
_cell_length_b   12.35317309
_cell_length_c   13.18129137
_cell_angle_alpha   85.58891848
_cell_angle_beta   74.47539220
_cell_angle_gamma   74.70984134
_symmetry_Int_Tables_number   1
_chemical_formula_structural   SmH32C8I3(N2O)8
_chemical_formula_sum   'Sm2 H64 C16 I6 N32 O16'
_cell_volume   1730.48193410
_cell_formula_units_Z   2
loop_
 _symmetry_equiv_pos_site_id
 _symmetry_equiv_pos_as_xyz
  1  'x, y, z'
loop_
 _atom_site_type_symbol
 _atom_site_label
 _atom_site_symmetry_multiplicity
 _atom_site_fract_x
 _atom_site_fract_y
 _atom_site_fract_z
 _atom_site_occupancy
  Sm  Sm0  1  0.34907162  0.76031773  0.70165908  1
  Sm  Sm1  1  0.64098902  0.23991689  0.30580883  1
  H  H2  1  0.08050886  0.22898425  0.15423005  1
  H  H3  1  0.98713275  0.44377024  0.38909533  1
  H  H4  1  0.17039945  0.10586526  0.19904501  1
  H  H5  1  0.06062287  0.04413856  0.74078974  1
  H  H6  1  0.06393522  0.64378905  0.51942134  1
  H  H7  1  0.25121653  0.40356419  0.11881939  1
  H  H8  1  0.09291518  0.95350968  0.24684764  1
  H  H9  1  0.06669091  0.52662082  0.77137725  1
  H  H10  1  0.25902666  0.46049896  0.23330668  1
  H  H11  1  0.20355315  0.36233791  0.53085236  1
  H  H12  1  0.36485254  0.23025965  0.06307238  1
  H  H13  1  0.34931592  0.01755092  0.36929922  1
  H  H14  1  0.20867991  0.15724589  0.81184846  1
  H  H15  1  0.26835847  0.05963390  0.70756319  1
  H  H16  1  0.31302772  0.33229997  0.40670560  1
  H  H17  1  0.22691628  0.09749729  0.97863740  1
  H  H18  1  0.18190972  0.83409933  0.52004588  1
  H  H19  1  0.17681134  0.58890990  0.79445062  1
  H  H20  1  0.46808562  0.14937941  0.13322088  1
  H  H21  1  0.22414960  0.89636542  0.39516748  1
  H  H22  1  0.28522671  0.31495592  0.68512996  1
  H  H23  1  0.39929722  0.05126579  0.47404024  1
  H  H24  1  0.33185654  0.65500022  0.39569684  1
  H  H25  1  0.43740317  0.63083546  0.21256615  1
  H  H26  1  0.39580448  0.56669095  0.48688258  1
  H  H27  1  0.54229345  0.28065570  0.02488797  1
  H  H28  1  0.43717983  0.23258771  0.66679638  1
  H  H29  1  0.55559688  0.50842986  0.17475554  1
  H  H30  1  0.69514245  0.03234278  0.00087611  1
  H  H31  1  0.29903980  0.95751094  0.00094354  1
  H  H32  1  0.44167945  0.49060339  0.82788867  1
  H  H33  1  0.56198409  0.76972395  0.33267636  1
  H  H34  1  0.35292772  0.70373751  0.98471045  1
  H  H35  1  0.60749571  0.43446095  0.51300468  1
  H  H36  1  0.55206107  0.36546646  0.78291559  1
  H  H37  1  0.66923293  0.34606211  0.60622185  1
  H  H38  1  0.87658245  0.21532156  0.06591216  1
  H  H39  1  0.60301455  0.94592375  0.52321552  1
  H  H40  1  0.71532489  0.69044833  0.31709054  1
  H  H41  1  0.77980359  0.10294827  0.60395058  1
  H  H42  1  0.50899843  0.84620204  0.87441365  1
  H  H43  1  0.81740873  0.42845263  0.21087304  1
  H  H44  1  0.82198742  0.16324725  0.47813504  1
  H  H45  1  0.98701164  0.33707508  0.01132519  1
  H  H46  1  0.77710493  0.89719103  0.02583236  1
  H  H47  1  0.68260313  0.67036312  0.59458585  1
  H  H48  1  0.66848797  0.23922575  0.91365741  1
  H  H49  1  0.71060327  0.41291137  0.90457096  1
  H  H50  1  0.73402662  0.94078095  0.29289390  1
  H  H51  1  0.79308555  0.84273856  0.18909731  1
  H  H52  1  0.65569759  0.97485720  0.62842705  1
  H  H53  1  0.62407029  0.77446556  0.93974454  1
  H  H54  1  0.79519647  0.65111768  0.47025009  1
  H  H55  1  0.73910982  0.54569928  0.76546957  1
  H  H56  1  0.92863473  0.48477512  0.23895543  1
  H  H57  1  0.90198311  0.04921125  0.75787700  1
  H  H58  1  0.75636154  0.60752570  0.87503757  1
  H  H59  1  0.93022518  0.34791548  0.48071395  1
  H  H60  1  0.86665320  0.21994822  0.93568011  1
  H  H61  1  0.94783121  0.35676743  0.89830880  1
  H  H62  1  0.94164654  0.95586981  0.23908284  1
  H  H63  1  0.83169415  0.89182261  0.81014470  1
  H  H64  1  0.99948021  0.56177044  0.62078225  1
  H  H65  1  0.92983419  0.77008294  0.84450818  1
  C  C66  1  0.01677468  0.89483333  0.78648983  1
  C  C67  1  0.13362305  0.62974122  0.65130896  1
  C  C68  1  0.37826796  0.30471586  0.19359950  1
  C  C69  1  0.28878786  0.99506299  0.84932929  1
  C  C70  1  0.38586229  0.27580562  0.52980477  1
  C  C71  1  0.28017941  0.95020308  0.51329859  1
  C  C72  1  0.33818773  0.62978724  0.94516938  1
  C  C73  1  0.48174744  0.52204140  0.33312327  1
  C  C74  1  0.51561222  0.47838597  0.66588727  1
  C  C75  1  0.71044540  0.32452541  0.04496086  1
  C  C76  1  0.71903197  0.05123991  0.48690836  1
  C  C77  1  0.60975406  0.72592604  0.47186670  1
  C  C78  1  0.71478812  0.00457127  0.15084217  1
  C  C79  1  0.61929370  0.70134045  0.80597693  1
  C  C80  1  0.87094215  0.36537059  0.34493180  1
  C  C81  1  0.99095804  0.10301067  0.19992102  1
  I  I82  1  0.03294437  0.64009903  0.32814805  1
  I  I83  1  0.22154968  0.32053509  0.94483503  1
  I  I84  1  0.35916581  0.91261129  0.19700495  1
  I  I85  1  0.64068169  0.10756608  0.80044423  1
  I  I86  1  0.79536205  0.67677288  0.05438981  1
  I  I87  1  0.92525070  0.33423562  0.70626681  1
  N  N88  1  0.08575543  0.15246307  0.18933921  1
  N  N89  1  0.00648510  0.99812277  0.23993161  1
  N  N90  1  0.05578692  0.61488036  0.59524050  1
  N  N91  1  0.28470633  0.39347245  0.18449242  1
  N  N92  1  0.13019250  0.57268560  0.74376359  1
  N  N93  1  0.33681383  0.02264972  0.44887313  1
  N  N94  1  0.24019591  0.07641854  0.78613984  1
  N  N95  1  0.42058962  0.22696577  0.11373845  1
  N  N96  1  0.29222577  0.33101447  0.48717639  1
  N  N97  1  0.26079527  0.01668268  0.95278891  1
  N  N98  1  0.21250859  0.89698105  0.47482702  1
  N  N99  1  0.36339565  0.26794847  0.63602567  1
  N  N100  1  0.39230526  0.58319067  0.41062611  1
  N  N101  1  0.48681750  0.55466074  0.23218504  1
  N  N102  1  0.50943825  0.44584041  0.76732154  1
  N  N103  1  0.60405080  0.41316185  0.58965244  1
  N  N104  1  0.63456204  0.73495131  0.36517991  1
  N  N105  1  0.78846993  0.10268818  0.52481437  1
  N  N106  1  0.74340528  0.97999612  0.04762460  1
  N  N107  1  0.63164466  0.28849787  0.98192321  1
  N  N108  1  0.70416556  0.66993407  0.51406058  1
  N  N109  1  0.58940931  0.78617372  0.87460349  1
  N  N110  1  0.65078865  0.40350909  0.97705482  1
  N  N111  1  0.76367109  0.92412325  0.21431242  1
  N  N112  1  0.66014439  0.98022795  0.55017861  1
  N  N113  1  0.88158223  0.42312934  0.25256137  1
  N  N114  1  0.71536733  0.61234127  0.81418445  1
  N  N115  1  0.94458272  0.37839919  0.40568248  1
  N  N116  1  0.84852844  0.26789701  0.00202913  1
  N  N117  1  0.98920906  0.00619617  0.76330048  1
  N  N118  1  0.91146043  0.35717881  0.97889994  1
  N  N119  1  0.92053521  0.84428086  0.80449745  1
  O  O120  1  0.20705913  0.69336291  0.61724274  1
  O  O121  1  0.12513560  0.84044458  0.79089717  1
  O  O122  1  0.42903544  0.29252874  0.26978027  1
  O  O123  1  0.28611722  0.93748105  0.60869761  1
  O  O124  1  0.49354642  0.22823005  0.47225666  1
  O  O125  1  0.31039772  0.66630070  0.85907599  1
  O  O126  1  0.64826280  0.10115429  0.18527495  1
  O  O127  1  0.44261403  0.56643933  0.64032963  1
  O  O128  1  0.55865190  0.43393905  0.35588429  1
  O  O129  1  0.35689893  0.90017990  0.81295634  1
  O  O130  1  0.67686710  0.33733883  0.14443415  1
  O  O131  1  0.50141150  0.77115556  0.52864419  1
  O  O132  1  0.71218140  0.06643128  0.39144856  1
  O  O133  1  0.56444433  0.70576599  0.73294939  1
  O  O134  1  0.88916170  0.15507027  0.17554918  1
  O  O135  1  0.79926318  0.29849029  0.37154976  1
