# generated using pymatgen
data_KCu2GeS4
_symmetry_space_group_name_H-M   'P 1'
_cell_length_a   6.17895637
_cell_length_b   6.17869308
_cell_length_c   6.17929258
_cell_angle_alpha   91.44301332
_cell_angle_beta   119.16434924
_cell_angle_gamma   119.16287819
_symmetry_Int_Tables_number   1
_chemical_formula_structural   KCu2GeS4
_chemical_formula_sum   'K1 Cu2 Ge1 S4'
_cell_volume   168.88303306
_cell_formula_units_Z   1
loop_
 _symmetry_equiv_pos_site_id
 _symmetry_equiv_pos_as_xyz
  1  'x, y, z'
loop_
 _atom_site_type_symbol
 _atom_site_label
 _atom_site_symmetry_multiplicity
 _atom_site_fract_x
 _atom_site_fract_y
 _atom_site_fract_z
 _atom_site_occupancy
  K  K0  1  0.00010308  0.00028127  0.00024798  1
  Cu  Cu1  1  0.49997030  0.24993462  0.74997138  1
  Cu  Cu2  1  0.49997050  0.75002612  0.24989817  1
  Ge  Ge3  1  0.99996302  0.49989775  0.49990902  1
  S  S4  1  0.99990149  0.54168936  0.14039717  1
  S  S5  1  0.00003593  0.14047448  0.54183211  1
  S  S6  1  0.40131330  0.85945519  0.85941247  1
  S  S7  1  0.59874237  0.45824121  0.45833170  1
