# generated using pymatgen
data_Li2MnCoO4
_symmetry_space_group_name_H-M   'P 1'
_cell_length_a   2.98358466
_cell_length_b   10.28900941
_cell_length_c   5.09323356
_cell_angle_alpha   80.94239017
_cell_angle_beta   76.94368760
_cell_angle_gamma   93.51038927
_symmetry_Int_Tables_number   1
_chemical_formula_structural   Li2MnCoO4
_chemical_formula_sum   'Li4 Mn2 Co2 O8'
_cell_volume   149.64826017
_cell_formula_units_Z   2
loop_
 _symmetry_equiv_pos_site_id
 _symmetry_equiv_pos_as_xyz
  1  'x, y, z'
loop_
 _atom_site_type_symbol
 _atom_site_label
 _atom_site_symmetry_multiplicity
 _atom_site_fract_x
 _atom_site_fract_y
 _atom_site_fract_z
 _atom_site_occupancy
  Li  Li0  1  0.74433391  0.12635998  0.50417804  1
  Li  Li1  1  0.25000000  0.37500000  0.50000000  1
  Li  Li2  1  0.75566609  0.62364002  0.49582196  1
  Li  Li3  1  0.25000000  0.87500000  0.50000000  1
  Mn  Mn4  1  0.50680670  0.24962763  0.99448416  1
  Mn  Mn5  1  0.99319330  0.50037237  0.00551584  1
  Co  Co6  1  0.00316483  0.00010552  0.99409034  1
  Co  Co7  1  0.49683517  0.74989448  0.00590966  1
  O  O8  1  0.37910213  0.06436591  0.22248539  1
  O  O9  1  0.85843047  0.31757609  0.22986116  1
  O  O10  1  0.34918822  0.56510751  0.23759569  1
  O  O11  1  0.87856947  0.81259859  0.22798153  1
  O  O12  1  0.15081178  0.18489249  0.76240431  1
  O  O13  1  0.64156953  0.43242391  0.77013884  1
  O  O14  1  0.12089787  0.68563409  0.77751461  1
  O  O15  1  0.62143053  0.93740141  0.77201847  1
