# generated using pymatgen
data_Li2MnCoO4
_symmetry_space_group_name_H-M   'P 1'
_cell_length_a   2.97996764
_cell_length_b   7.79409258
_cell_length_c   6.65274804
_cell_angle_alpha   90.60181904
_cell_angle_beta   77.22733464
_cell_angle_gamma   83.66403670
_symmetry_Int_Tables_number   1
_chemical_formula_structural   Li2MnCoO4
_chemical_formula_sum   'Li4 Mn2 Co2 O8'
_cell_volume   149.67655026
_cell_formula_units_Z   2
loop_
 _symmetry_equiv_pos_site_id
 _symmetry_equiv_pos_as_xyz
  1  'x, y, z'
loop_
 _atom_site_type_symbol
 _atom_site_label
 _atom_site_symmetry_multiplicity
 _atom_site_fract_x
 _atom_site_fract_y
 _atom_site_fract_z
 _atom_site_occupancy
  Li  Li0  1  0.75040349  0.37441711  0.12467940  1
  Li  Li1  1  0.74959651  0.87558289  0.62532060  1
  Li  Li2  1  0.25000000  0.62500000  0.87500000  1
  Li  Li3  1  0.25000000  0.12500000  0.37500000  1
  Mn  Mn4  1  0.00660264  0.49727718  0.49687500  1
  Mn  Mn5  1  0.49339736  0.75272282  0.25312500  1
  Co  Co6  1  0.99634545  0.00318638  0.00376788  1
  Co  Co7  1  0.50365455  0.24681362  0.74623212  1
  O  O8  1  0.38022735  0.17484445  0.05003095  1
  O  O9  1  0.35624168  0.68351215  0.54924389  1
  O  O10  1  0.87382566  0.42746747  0.79692674  1
  O  O11  1  0.85130834  0.93228560  0.30437140  1
  O  O12  1  0.14375832  0.56648785  0.20075611  1
  O  O13  1  0.11977265  0.07515555  0.69996905  1
  O  O14  1  0.62617434  0.82253253  0.95307326  1
  O  O15  1  0.64869166  0.31771440  0.44562860  1
