# generated using pymatgen
data_Li2MnPO4F
_symmetry_space_group_name_H-M   'P 1'
_cell_length_a   5.46507147
_cell_length_b   5.44889432
_cell_length_c   7.53646142
_cell_angle_alpha   73.33615475
_cell_angle_beta   72.85203353
_cell_angle_gamma   94.97539603
_symmetry_Int_Tables_number   1
_chemical_formula_structural   Li2MnPO4F
_chemical_formula_sum   'Li4 Mn2 P2 O8 F2'
_cell_volume   201.81472590
_cell_formula_units_Z   2
loop_
 _symmetry_equiv_pos_site_id
 _symmetry_equiv_pos_as_xyz
  1  'x, y, z'
loop_
 _atom_site_type_symbol
 _atom_site_label
 _atom_site_symmetry_multiplicity
 _atom_site_fract_x
 _atom_site_fract_y
 _atom_site_fract_z
 _atom_site_occupancy
  Li  Li0  1  0.75244908  0.41314234  0.15198081  1
  Li  Li1  1  0.55067841  0.86845520  0.84654905  1
  Li  Li2  1  0.49936739  0.00086013  0.48535023  1
  Li  Li3  1  0.19476367  0.55116416  0.83093786  1
  Mn  Mn4  1  0.00419983  0.99771058  0.00901670  1
  Mn  Mn5  1  0.01800906  0.01856688  0.48657819  1
  P  P6  1  0.34535547  0.63122127  0.23836777  1
  P  P7  1  0.65970244  0.37509921  0.76968877  1
  O  O8  1  0.72690421  0.20865681  0.63110566  1
  O  O9  1  0.27510922  0.78041444  0.38559921  1
  O  O10  1  0.66677027  0.66903789  0.66509056  1
  O  O11  1  0.85536063  0.35095548  0.88726863  1
  O  O12  1  0.16109580  0.65639859  0.11061818  1
  O  O13  1  0.62976410  0.74736736  0.08667782  1
  O  O14  1  0.34722282  0.34076141  0.34125528  1
  O  O15  1  0.37632781  0.25850093  0.91221841  1
  F  F16  1  0.17918745  0.90921389  0.72838133  1
  F  F17  1  0.82985035  0.09084042  0.27472552  1
