# generated using pymatgen
data_SrLaVFeO6
_symmetry_space_group_name_H-M   'P 1'
_cell_length_a   5.53803820
_cell_length_b   16.71832214
_cell_length_c   14.77032842
_cell_angle_alpha   18.98874410
_cell_angle_beta   55.77701307
_cell_angle_gamma   60.20598061
_symmetry_Int_Tables_number   1
_chemical_formula_structural   SrLaVFeO6
_chemical_formula_sum   'Sr3 La3 V3 Fe3 O18'
_cell_volume   364.81403539
_cell_formula_units_Z   3
loop_
 _symmetry_equiv_pos_site_id
 _symmetry_equiv_pos_as_xyz
  1  'x, y, z'
loop_
 _atom_site_type_symbol
 _atom_site_label
 _atom_site_symmetry_multiplicity
 _atom_site_fract_x
 _atom_site_fract_y
 _atom_site_fract_z
 _atom_site_occupancy
  Sr  Sr0  1  0.25000000  0.25000000  0.25000000  1
  Sr  Sr1  1  0.24992363  0.58330754  0.25007637  1
  Sr  Sr2  1  0.25007637  0.91669246  0.24992363  1
  La  La3  1  0.74943774  0.08314558  0.75056226  1
  La  La4  1  0.75056226  0.41685442  0.74943774  1
  La  La5  1  0.75000000  0.75000000  0.75000000  1
  V  V6  1  0.00000000  0.00000000  0.00000000  1
  V  V7  1  0.50117057  0.16705719  0.49882943  1
  V  V8  1  0.49882943  0.83294281  0.50117057  1
  Fe  Fe9  1  0.00032619  0.33344173  -0.00032619  1
  Fe  Fe10  1  -0.00032619  0.66655827  0.00032619  1
  Fe  Fe11  1  0.50000000  0.50000000  0.50000000  1
  O  O12  1  0.25220237  0.07688843  0.25736558  1
  O  O13  1  0.74503461  0.07688843  0.25736558  1
  O  O14  1  0.25736558  0.41354362  0.25220237  1
  O  O15  1  0.25013219  0.08337706  0.74986781  1
  O  O16  1  0.74784573  0.24928191  0.25215427  1
  O  O17  1  0.74539744  0.41354362  0.25220237  1
  O  O18  1  0.24514681  0.24514681  0.75485319  1
  O  O19  1  0.24514681  0.75485319  0.24514681  1
  O  O20  1  0.24977488  0.41659196  0.75022512  1
  O  O21  1  0.75022512  0.58340804  0.24977488  1
  O  O22  1  0.75485319  0.24514681  0.75485319  1
  O  O23  1  0.75485319  0.75485319  0.24514681  1
  O  O24  1  0.25220237  0.58885657  0.74539744  1
  O  O25  1  0.74986781  0.91662294  0.25013219  1
  O  O26  1  0.25215427  0.75071809  0.74784573  1
  O  O27  1  0.74503461  0.58885657  0.74539744  1
  O  O28  1  0.25736558  0.92071139  0.74503461  1
  O  O29  1  0.74539744  0.92071139  0.74503461  1
