# generated using pymatgen
data_PrSO
_symmetry_space_group_name_H-M   'P 1'
_cell_length_a   8.13939994
_cell_length_b   5.74669999
_cell_length_c   7.03571297
_cell_angle_alpha   101.13501353
_cell_angle_beta   97.83672460
_cell_angle_gamma   45.08679143
_symmetry_Int_Tables_number   1
_chemical_formula_structural   PrSO
_chemical_formula_sum   'Pr4 S4 O4'
_cell_volume   228.66900427
_cell_formula_units_Z   4
loop_
 _symmetry_equiv_pos_site_id
 _symmetry_equiv_pos_as_xyz
  1  'x, y, z'
loop_
 _atom_site_type_symbol
 _atom_site_label
 _atom_site_symmetry_multiplicity
 _atom_site_fract_x
 _atom_site_fract_y
 _atom_site_fract_z
 _atom_site_occupancy
  Pr  Pr0  1  0.00095314  0.28120049  0.67671455  1
  Pr  Pr1  1  0.99904686  0.71879951  0.32328545  1
  Pr  Pr2  1  0.49904686  0.28310677  0.67671455  1
  Pr  Pr3  1  0.50095314  0.71689323  0.32328545  1
  S  S4  1  0.00432704  0.14098160  0.11635891  1
  S  S5  1  0.49567296  0.14963669  0.11635891  1
  S  S6  1  0.99567296  0.85901840  0.88364109  1
  S  S7  1  0.50432704  0.85036331  0.88364109  1
  O  O8  1  0.24415114  0.25498028  0.49917465  1
  O  O9  1  0.25584886  0.74328257  0.49917465  1
  O  O10  1  0.74415114  0.25671743  0.50082535  1
  O  O11  1  0.75584886  0.74501972  0.50082535  1
