# generated using pymatgen
data_Li4MnCo3O8
_symmetry_space_group_name_H-M   'P 1'
_cell_length_a   2.93141072
_cell_length_b   8.34566014
_cell_length_c   5.95896140
_cell_angle_alpha   88.19761579
_cell_angle_beta   90.00000000
_cell_angle_gamma   90.00000000
_symmetry_Int_Tables_number   1
_chemical_formula_structural   Li4MnCo3O8
_chemical_formula_sum   'Li4 Mn1 Co3 O8'
_cell_volume   145.71122844
_cell_formula_units_Z   1
loop_
 _symmetry_equiv_pos_site_id
 _symmetry_equiv_pos_as_xyz
  1  'x, y, z'
loop_
 _atom_site_type_symbol
 _atom_site_label
 _atom_site_symmetry_multiplicity
 _atom_site_fract_x
 _atom_site_fract_y
 _atom_site_fract_z
 _atom_site_occupancy
  Li  Li0  1  0.00000000  0.49467147  0.99612442  1
  Li  Li1  1  0.50000000  0.75000000  0.75000000  1
  Li  Li2  1  0.00000000  0.00532853  0.50387558  1
  Li  Li3  1  0.50000000  0.25000000  0.25000000  1
  Mn  Mn4  1  0.50000000  0.75000000  0.25000000  1
  Co  Co5  1  0.00000000  0.01322285  0.98902287  1
  Co  Co6  1  0.50000000  0.25000000  0.75000000  1
  Co  Co7  1  0.00000000  0.48677715  0.51097713  1
  O  O8  1  -0.00000000  0.74387669  0.46834800  1
  O  O9  1  0.50000000  0.98218664  0.23545752  1
  O  O10  1  0.00000000  0.23978134  0.99730992  1
  O  O11  1  0.50000000  0.50932343  0.73891797  1
  O  O12  1  0.00000000  0.26021866  0.50269008  1
  O  O13  1  0.50000000  0.51781336  0.26454248  1
  O  O14  1  0.00000000  0.75612331  0.03165200  1
  O  O15  1  0.50000000  0.99067657  0.76108203  1
