# generated using pymatgen
data_Li4Co3O7
_symmetry_space_group_name_H-M   'P 1'
_cell_length_a   5.08545779
_cell_length_b   5.13142166
_cell_length_c   10.33392451
_cell_angle_alpha   84.96673010
_cell_angle_beta   103.38774142
_cell_angle_gamma   109.55377564
_symmetry_Int_Tables_number   1
_chemical_formula_structural   Li4Co3O7
_chemical_formula_sum   'Li8 Co6 O14'
_cell_volume   247.19680848
_cell_formula_units_Z   2
loop_
 _symmetry_equiv_pos_site_id
 _symmetry_equiv_pos_as_xyz
  1  'x, y, z'
loop_
 _atom_site_type_symbol
 _atom_site_label
 _atom_site_symmetry_multiplicity
 _atom_site_fract_x
 _atom_site_fract_y
 _atom_site_fract_z
 _atom_site_occupancy
  Li  Li0  1  0.07142900  0.50000000  0.14285700  1
  Li  Li1  1  0.64328882  0.50198377  0.28382293  1
  Li  Li2  1  0.21376760  0.49863964  0.42797735  1
  Li  Li3  1  0.78764990  0.49939007  0.57385290  1
  Li  Li4  1  0.35520710  0.50060993  0.71186210  1
  Li  Li5  1  0.92908940  0.50136036  0.85773665  1
  Li  Li6  1  0.49956818  0.49801623  0.00189107  1
  Li  Li7  1  0.57142900  0.00000000  0.14285700  1
  Co  Co8  1  0.99591889  0.00032934  0.00396550  1
  Co  Co9  1  0.14693811  -0.00032934  0.28174850  1
  Co  Co10  1  0.71158299  0.00451049  0.42094257  1
  Co  Co11  1  0.28515155  -0.00060696  0.57321177  1
  Co  Co12  1  0.85770545  0.00060696  0.71250323  1
  Co  Co13  1  0.43127401  0.99548951  0.86477143  1
  O  O14  1  0.76688131  0.22178876  0.99569845  1
  O  O15  1  0.28735487  0.22238809  0.14448406  1
  O  O16  1  0.90465787  0.21907315  0.29246168  1
  O  O17  1  0.44839844  0.22712902  0.41961001  1
  O  O18  1  0.03217131  0.23635188  0.57669426  1
  O  O19  1  0.59090203  0.22970289  0.71352166  1
  O  O20  1  0.16382982  0.22314486  0.86523424  1
  O  O21  1  0.37597569  0.77821124  0.29001555  1
  O  O22  1  0.97902818  0.77685514  0.42047976  1
  O  O23  1  0.55195497  0.77029711  0.57219234  1
  O  O24  1  0.11068569  0.76364812  0.70901974  1
  O  O25  1  0.69445856  0.77287098  0.86610499  1
  O  O26  1  0.23819913  0.78092685  0.99325332  1
  O  O27  1  0.85550213  0.77761191  0.14122994  1
