# generated using pymatgen
data_Li5Co3O8
_symmetry_space_group_name_H-M   'P 1'
_cell_length_a   2.98765297
_cell_length_b   9.73237882
_cell_length_c   5.02592927
_cell_angle_alpha   76.96137511
_cell_angle_beta   91.12141873
_cell_angle_gamma   91.83523640
_symmetry_Int_Tables_number   1
_chemical_formula_structural   Li5Co3O8
_chemical_formula_sum   'Li5 Co3 O8'
_cell_volume   142.28660808
_cell_formula_units_Z   1
loop_
 _symmetry_equiv_pos_site_id
 _symmetry_equiv_pos_as_xyz
  1  'x, y, z'
loop_
 _atom_site_type_symbol
 _atom_site_label
 _atom_site_symmetry_multiplicity
 _atom_site_fract_x
 _atom_site_fract_y
 _atom_site_fract_z
 _atom_site_occupancy
  Li  Li0  1  -0.00000000  0.25000000  0.25000000  1
  Li  Li1  1  0.50567563  0.50066975  0.99663654  1
  Li  Li2  1  -0.00000000  0.75000000  0.75000000  1
  Li  Li3  1  0.49432437  0.99933025  0.50336346  1
  Li  Li4  1  0.50000000  0.25000000  0.75000000  1
  Co  Co5  1  0.99880671  0.01002604  0.99390765  1
  Co  Co6  1  0.00119329  0.48997396  0.50609235  1
  Co  Co7  1  0.50000000  0.75000000  0.25000000  1
  O  O8  1  0.47049939  0.11574111  0.11813303  1
  O  O9  1  -0.00025367  0.38944776  0.83757646  1
  O  O10  1  0.46622011  0.62576977  0.60423933  1
  O  O11  1  0.00915264  0.87860078  0.34139435  1
  O  O12  1  0.52950061  0.38425889  0.38186697  1
  O  O13  1  0.99084736  0.62139922  0.15860565  1
  O  O14  1  0.53377989  0.87423023  0.89576067  1
  O  O15  1  0.00025367  0.11055224  0.66242354  1
