# generated using pymatgen
data_Li2MnO3
_symmetry_space_group_name_H-M   'P 1'
_cell_length_a   2.89098565
_cell_length_b   5.93577319
_cell_length_c   6.45582432
_cell_angle_alpha   76.52168497
_cell_angle_beta   77.13063532
_cell_angle_gamma   90.22972650
_symmetry_Int_Tables_number   1
_chemical_formula_structural   Li2MnO3
_chemical_formula_sum   'Li4 Mn2 O6'
_cell_volume   104.84321471
_cell_formula_units_Z   2
loop_
 _symmetry_equiv_pos_site_id
 _symmetry_equiv_pos_as_xyz
  1  'x, y, z'
loop_
 _atom_site_type_symbol
 _atom_site_label
 _atom_site_symmetry_multiplicity
 _atom_site_fract_x
 _atom_site_fract_y
 _atom_site_fract_z
 _atom_site_occupancy
  Li  Li0  1  0.00870148  0.49909562  0.97899114  1
  Li  Li1  1  0.32463152  0.16757138  0.35434186  1
  Li  Li2  1  0.66666700  0.83333300  0.66666700  1
  Li  Li3  1  0.66666700  0.33333300  0.66666700  1
  Mn  Mn4  1  0.00821507  0.00723101  0.98665529  1
  Mn  Mn5  1  0.32511793  0.65943599  0.34667771  1
  O  O6  1  0.49870751  0.21706704  0.00823962  1
  O  O7  1  0.83964995  0.89364014  0.32165298  1
  O  O8  1  0.17747873  0.59071896  0.64259868  1
  O  O9  1  0.49368305  0.77302686  0.01168002  1
  O  O10  1  0.83462549  0.44959996  0.32509338  1
  O  O11  1  0.15585527  0.07594704  0.69073532  1
