# generated using pymatgen
data_Li6Mn3CoO10
_symmetry_space_group_name_H-M   'P 1'
_cell_length_a   2.87820211
_cell_length_b   5.11117185
_cell_length_c   13.01156112
_cell_angle_alpha   100.80883801
_cell_angle_beta   96.34999939
_cell_angle_gamma   73.64667169
_symmetry_Int_Tables_number   1
_chemical_formula_structural   Li6Mn3CoO10
_chemical_formula_sum   'Li6 Mn3 Co1 O10'
_cell_volume   180.07086788
_cell_formula_units_Z   1
loop_
 _symmetry_equiv_pos_site_id
 _symmetry_equiv_pos_as_xyz
  1  'x, y, z'
loop_
 _atom_site_type_symbol
 _atom_site_label
 _atom_site_symmetry_multiplicity
 _atom_site_fract_x
 _atom_site_fract_y
 _atom_site_fract_z
 _atom_site_occupancy
  Li  Li0  1  0.30414532  0.48249453  0.09078516  1
  Li  Li1  1  0.90071805  0.50616623  0.30760233  1
  Li  Li2  1  0.49418162  0.51589927  0.50426251  1
  Li  Li3  1  0.10031280  0.51021231  0.71083790  1
  Li  Li4  1  0.69892800  0.48975255  0.88760856  1
  Li  Li5  1  0.39968202  -0.00070176  0.79866229  1
  Mn  Mn6  1  0.00708235  0.97293161  0.98709632  1
  Mn  Mn7  1  0.79622039  0.01698920  0.60942998  1
  Mn  Mn8  1  0.60287318  0.99429754  0.20004390  1
  Co  Co9  1  0.19462801  0.01569764  0.40495366  1
  O  O10  1  0.37407520  0.20686120  0.95501161  1
  O  O11  1  0.96918430  0.20542950  0.14379810  1
  O  O12  1  0.55234353  0.25147674  0.35616380  1
  O  O13  1  0.16188882  0.23206930  0.55584693  1
  O  O14  1  0.74804521  0.24206932  0.73815974  1
  O  O15  1  0.23863242  0.77208379  0.24934864  1
  O  O16  1  0.83546128  0.78720869  0.45813124  1
  O  O17  1  0.42868223  0.78746443  0.64482888  1
  O  O18  1  0.05095277  0.75625305  0.85815859  1
  O  O19  1  0.64196250  0.75534485  0.03926985  1
