# generated using pymatgen
data_Li6Mn3CoO10
_symmetry_space_group_name_H-M   'P 1'
_cell_length_a   2.87458836
_cell_length_b   12.18838498
_cell_length_c   5.16084870
_cell_angle_alpha   92.23607637
_cell_angle_beta   90.00000011
_cell_angle_gamma   83.22773390
_symmetry_Int_Tables_number   1
_chemical_formula_structural   Li6Mn3CoO10
_chemical_formula_sum   'Li6 Mn3 Co1 O10'
_cell_volume   179.41826072
_cell_formula_units_Z   1
loop_
 _symmetry_equiv_pos_site_id
 _symmetry_equiv_pos_as_xyz
  1  'x, y, z'
loop_
 _atom_site_type_symbol
 _atom_site_label
 _atom_site_symmetry_multiplicity
 _atom_site_fract_x
 _atom_site_fract_y
 _atom_site_fract_z
 _atom_site_occupancy
  Li  Li0  1  0.49584985  0.00830029  0.49739841  1
  Li  Li1  1  0.89999440  0.20001120  0.69937944  1
  Li  Li2  1  0.30328039  0.39343923  0.90649625  1
  Li  Li3  1  0.70125885  0.59748229  0.09337450  1
  Li  Li4  1  0.10023655  0.79952690  0.30150505  1
  Li  Li5  1  0.39892138  0.20215724  0.20118508  1
  Mn  Mn6  1  0.99592669  0.00814662  0.02255582  1
  Mn  Mn7  1  0.80307786  0.39384429  0.38438356  1
  Mn  Mn8  1  0.60049608  0.79900784  0.80402509  1
  Co  Co9  1  0.20108556  0.59782887  0.58580986  1
  O  O10  1  0.54401552  0.91196897  0.14813886  1
  O  O11  1  0.95397325  0.09205350  0.32169112  1
  O  O12  1  0.34411182  0.31177636  0.54274245  1
  O  O13  1  0.74647768  0.50704464  0.70903204  1
  O  O14  1  0.14728321  0.70543358  0.93731800  1
  O  O15  1  0.45527878  0.08944243  0.86432993  1
  O  O16  1  0.84467496  0.31065007  0.08293982  1
  O  O17  1  0.25527547  0.48944906  0.25946992  1
  O  O18  1  0.65663024  0.68673951  0.45310290  1
  O  O19  1  0.05215146  0.89569709  0.68512193  1
