# generated using pymatgen
data_Li4MnCo2O7
_symmetry_space_group_name_H-M   'P 1'
_cell_length_a   5.18592839
_cell_length_b   5.89531453
_cell_length_c   8.58792599
_cell_angle_alpha   88.16004084
_cell_angle_beta   94.37668290
_cell_angle_gamma   70.78211848
_symmetry_Int_Tables_number   1
_chemical_formula_structural   Li4MnCo2O7
_chemical_formula_sum   'Li8 Mn2 Co4 O14'
_cell_volume   246.74460140
_cell_formula_units_Z   2
loop_
 _symmetry_equiv_pos_site_id
 _symmetry_equiv_pos_as_xyz
  1  'x, y, z'
loop_
 _atom_site_type_symbol
 _atom_site_label
 _atom_site_symmetry_multiplicity
 _atom_site_fract_x
 _atom_site_fract_y
 _atom_site_fract_z
 _atom_site_occupancy
  Li  Li0  1  0.14843961  0.21001921  0.28424820  1
  Li  Li1  1  0.28599886  0.92867139  0.57166077  1
  Li  Li2  1  0.71289868  0.07289930  0.42802262  1
  Li  Li3  1  0.85685644  0.78563327  0.71407654  1
  Li  Li4  1  0.42993769  0.64136001  0.85764212  1
  Li  Li5  1  0.99442781  0.50424178  0.00145282  1
  Li  Li6  1  0.57143889  0.35714475  0.14287916  1
  Li  Li7  1  0.57141949  0.85713894  0.14285188  1
  Mn  Mn8  1  -0.00012959  0.00141866  0.99890002  1
  Mn  Mn9  1  0.14299925  0.71288361  0.28682129  1
  Co  Co10  1  0.28609843  0.42711199  0.57200744  1
  Co  Co11  1  0.42882990  0.14249211  0.85729613  1
  Co  Co12  1  0.71401868  0.57176481  0.42841562  1
  Co  Co13  1  0.85676747  0.28716560  0.71371961  1
  O  O14  1  0.88531809  0.02338701  0.20912034  1
  O  O15  1  0.02125661  0.73591186  0.49587080  1
  O  O16  1  0.42022781  0.85863002  0.35553129  1
  O  O17  1  0.59275300  0.58911035  0.63655057  1
  O  O18  1  0.16483557  0.44599596  0.77764496  1
  O  O19  1  0.73391399  0.31210411  0.92344372  1
  O  O20  1  0.26953779  0.16075242  0.05210471  1
  O  O21  1  0.40892464  0.40222221  0.36226367  1
  O  O22  1  0.55008906  0.12517288  0.64915333  1
  O  O23  1  0.97801703  0.26827589  0.50810159  1
  O  O24  1  0.12163230  0.97836120  0.78985505  1
  O  O25  1  0.72263915  0.85567669  0.93018161  1
  O  O26  1  0.25749145  0.69094938  0.07658023  1
  O  O27  1  0.87336192  0.55350459  0.23360392  1
