# generated using pymatgen
data_Li4Co3O7
_symmetry_space_group_name_H-M   'P 1'
_cell_length_a   5.07191724
_cell_length_b   8.66449203
_cell_length_c   5.86733827
_cell_angle_alpha   88.67197308
_cell_angle_beta   73.38042781
_cell_angle_gamma   95.19417466
_symmetry_Int_Tables_number   1
_chemical_formula_structural   Li4Co3O7
_chemical_formula_sum   'Li8 Co6 O14'
_cell_volume   245.73210259
_cell_formula_units_Z   2
loop_
 _symmetry_equiv_pos_site_id
 _symmetry_equiv_pos_as_xyz
  1  'x, y, z'
loop_
 _atom_site_type_symbol
 _atom_site_label
 _atom_site_symmetry_multiplicity
 _atom_site_fract_x
 _atom_site_fract_y
 _atom_site_fract_z
 _atom_site_occupancy
  Li  Li0  1  0.57142900  0.14285700  0.35714300  1
  Li  Li1  1  0.14965990  0.28318665  0.21196951  1
  Li  Li2  1  0.99319710  0.00252735  0.50231649  1
  Li  Li3  1  0.42794581  0.85938155  0.64538486  1
  Li  Li4  1  0.71491119  0.42633245  0.06890114  1
  Li  Li5  1  0.28536763  0.56923435  0.92897663  1
  Li  Li6  1  0.85748937  0.71648065  0.78530837  1
  Li  Li7  1  0.57142900  0.14285700  0.85714300  1
  Co  Co8  1  0.99474814  0.00342132  0.99726008  1
  Co  Co9  1  0.14810886  0.28229268  0.71702592  1
  Co  Co10  1  0.71275104  0.42101420  0.57441975  1
  Co  Co11  1  0.28506920  0.57265922  0.42565427  1
  Co  Co12  1  0.85778780  0.71305578  0.28863073  1
  Co  Co13  1  0.43010596  0.86469980  0.13986625  1
  O  O14  1  0.88939990  0.20246002  0.01452503  1
  O  O15  1  0.41014449  0.35520888  0.86908388  1
  O  O16  1  0.26781609  0.05545219  0.16432377  1
  O  O17  1  0.72367955  0.93261056  0.30072101  1
  O  O18  1  0.01491937  0.48608828  0.73748887  1
  O  O19  1  0.58326449  0.64099517  0.59350332  1
  O  O20  1  0.14510538  0.77883283  0.45908375  1
  O  O21  1  0.25345710  0.08325498  0.69975997  1
  O  O22  1  0.87504091  0.23026281  0.54996123  1
  O  O23  1  0.73271251  0.93050512  0.84520212  1
  O  O24  1  0.12793763  0.79962572  0.97679713  1
  O  O25  1  0.41917745  0.35310344  0.41356499  1
  O  O26  1  0.99775162  0.50688117  0.25520225  1
  O  O27  1  0.55959351  0.64471883  0.12078268  1
