# generated using pymatgen
data_Li7Mn2(CoO4)3
_symmetry_space_group_name_H-M   'P 1'
_cell_length_a   5.06505979
_cell_length_b   7.73512840
_cell_length_c   5.90969368
_cell_angle_alpha   78.62021283
_cell_angle_beta   74.23648556
_cell_angle_gamma   76.81574594
_symmetry_Int_Tables_number   1
_chemical_formula_structural   Li7Mn2(CoO4)3
_chemical_formula_sum   'Li7 Mn2 Co3 O12'
_cell_volume   214.67884705
_cell_formula_units_Z   1
loop_
 _symmetry_equiv_pos_site_id
 _symmetry_equiv_pos_as_xyz
  1  'x, y, z'
loop_
 _atom_site_type_symbol
 _atom_site_label
 _atom_site_symmetry_multiplicity
 _atom_site_fract_x
 _atom_site_fract_y
 _atom_site_fract_z
 _atom_site_occupancy
  Li  Li0  1  0.50000000  0.16666700  0.33333300  1
  Li  Li1  1  0.00760087  0.33189847  0.16367274  1
  Li  Li2  1  0.99239913  0.00143453  0.50299426  1
  Li  Li3  1  0.49615054  0.49697062  0.99570865  1
  Li  Li4  1  0.00000000  0.66666700  0.83333300  1
  Li  Li5  1  0.50384946  0.83636238  0.67095835  1
  Li  Li6  1  0.50000000  0.16666700  0.83333300  1
  Mn  Mn7  1  -0.00043266  0.00205695  0.99442733  1
  Mn  Mn8  1  0.00043266  0.33127605  0.67223967  1
  Co  Co9  1  0.49776800  0.49238750  0.50920160  1
  Co  Co10  1  0.00000000  0.66666700  0.33333300  1
  Co  Co11  1  0.50223200  0.84094550  0.15746540  1
  O  O12  1  0.78198863  0.24273165  0.98077218  1
  O  O13  1  0.23639506  0.41347130  0.81747953  1
  O  O14  1  0.24757746  0.06331328  0.15919313  1
  O  O15  1  0.76079983  0.57054315  0.66214277  1
  O  O16  1  0.25477908  0.73432068  0.48341666  1
  O  O17  1  0.76603350  0.92242335  0.30747171  1
  O  O18  1  0.21801137  0.09060235  0.68589382  1
  O  O19  1  0.75242254  0.27001972  0.50747387  1
  O  O20  1  0.76360494  0.91986170  0.84918747  1
  O  O21  1  0.23396650  0.41090965  0.35919529  1
  O  O22  1  0.74522092  0.59901332  0.18324934  1
  O  O23  1  0.23920017  0.76278985  0.00452423  1
