# generated using pymatgen
data_Li4Co3O7
_symmetry_space_group_name_H-M   'P 1'
_cell_length_a   2.88730183
_cell_length_b   5.09276214
_cell_length_c   17.51720387
_cell_angle_alpha   101.54789477
_cell_angle_beta   94.72728907
_cell_angle_gamma   73.53252643
_symmetry_Int_Tables_number   1
_chemical_formula_structural   Li4Co3O7
_chemical_formula_sum   'Li8 Co6 O14'
_cell_volume   241.92284078
_cell_formula_units_Z   2
loop_
 _symmetry_equiv_pos_site_id
 _symmetry_equiv_pos_as_xyz
  1  'x, y, z'
loop_
 _atom_site_type_symbol
 _atom_site_label
 _atom_site_symmetry_multiplicity
 _atom_site_fract_x
 _atom_site_fract_y
 _atom_site_fract_z
 _atom_site_occupancy
  Li  Li0  1  0.28268564  0.50876425  0.07413652  1
  Li  Li1  1  0.86017136  0.49123575  0.21157848  1
  Li  Li2  1  0.42776976  0.50015803  0.35569854  1
  Li  Li3  1  0.00014683  0.49947174  0.49976539  1
  Li  Li4  1  0.57142900  0.50000000  0.64285700  1
  Li  Li5  1  0.14271017  0.50052826  0.78594861  1
  Li  Li6  1  0.71508724  0.49984197  0.93001546  1
  Li  Li7  1  0.57142900  0.00000000  0.14285700  1
  Co  Co8  1  0.00108789  0.00539866  0.00757445  1
  Co  Co9  1  0.14176911  0.99460134  0.27813955  1
  Co  Co10  1  0.71510388  -0.00043736  0.42976939  1
  Co  Co11  1  0.28730796  -0.00229455  0.57232236  1
  Co  Co12  1  0.85554904  0.00229455  0.71339264  1
  Co  Co13  1  0.42775312  0.00043736  0.85594461  1
  O  O14  1  0.37083101  0.21648093  0.95814295  1
  O  O15  1  0.92866653  0.24078574  0.09811780  1
  O  O16  1  0.50998744  0.23376794  0.25374382  1
  O  O17  1  0.08703822  0.21884834  0.39292477  1
  O  O18  1  0.66198155  0.21268342  0.53664752  1
  O  O19  1  0.23092559  0.21572163  0.67757281  1
  O  O20  1  0.79714570  0.22332030  0.81761071  1
  O  O21  1  0.21419047  0.75921426  0.18759620  1
  O  O22  1  0.77202599  0.78351907  0.32757105  1
  O  O23  1  0.34571230  0.77667970  0.46810329  1
  O  O24  1  0.91193141  0.78427837  0.60814119  1
  O  O25  1  0.48087545  0.78731658  0.74906648  1
  O  O26  1  0.05581878  0.78115166  0.89279023  1
  O  O27  1  0.63286956  0.76623206  0.03197118  1
