# generated using pymatgen
data_Li4MnCo2O7
_symmetry_space_group_name_H-M   'P 1'
_cell_length_a   4.95255783
_cell_length_b   5.12195796
_cell_length_c   10.60236049
_cell_angle_alpha   108.06324572
_cell_angle_beta   77.25849797
_cell_angle_gamma   100.05602780
_symmetry_Int_Tables_number   1
_chemical_formula_structural   Li4MnCo2O7
_chemical_formula_sum   'Li8 Mn2 Co4 O14'
_cell_volume   247.75458843
_cell_formula_units_Z   2
loop_
 _symmetry_equiv_pos_site_id
 _symmetry_equiv_pos_as_xyz
  1  'x, y, z'
loop_
 _atom_site_type_symbol
 _atom_site_label
 _atom_site_symmetry_multiplicity
 _atom_site_fract_x
 _atom_site_fract_y
 _atom_site_fract_z
 _atom_site_occupancy
  Li  Li0  1  0.69906527  0.49987358  0.07262457  1
  Li  Li1  1  0.56658943  0.51048049  0.36739285  1
  Li  Li2  1  0.14872048  0.50824025  0.21765906  1
  Li  Li3  1  0.99248311  0.49666219  0.50943601  1
  Li  Li4  1  0.44209831  0.50569616  0.63801713  1
  Li  Li5  1  0.86548375  0.47209162  0.76944097  1
  Li  Li6  1  0.29368512  0.49536494  0.92190236  1
  Li  Li7  1  0.71809381  0.99487600  0.57223269  1
  Mn  Mn8  1  -0.00206275  0.00750627  0.00104407  1
  Mn  Mn9  1  0.85553636  0.00333291  0.28548732  1
  Co  Co10  1  0.57284143  -0.00257592  0.85571403  1
  Co  Co11  1  0.42233569  0.00664101  0.14385865  1
  Co  Co12  1  0.28292466  0.00070346  0.43603346  1
  Co  Co13  1  0.14320424  0.98583517  0.70463785  1
  O  O14  1  0.91705230  0.22826529  0.89951879  1
  O  O15  1  0.77729603  0.21881630  0.17105541  1
  O  O16  1  0.33402354  0.23359792  0.04513299  1
  O  O17  1  0.20681553  0.22252592  0.30872885  1
  O  O18  1  0.65217498  0.22586450  0.44344337  1
  O  O19  1  0.10028431  0.23503808  0.60500977  1
  O  O20  1  0.48903945  0.21651154  0.76163955  1
  O  O21  1  0.51319686  0.78200384  0.24337462  1
  O  O22  1  0.34494203  0.75712695  0.53382625  1
  O  O23  1  0.94122358  0.77449419  0.37752607  1
  O  O24  1  0.80229694  0.75468785  0.68806666  1
  O  O25  1  0.21216770  0.78389080  0.84057345  1
  O  O26  1  0.63897295  0.79149889  0.97447844  1
  O  O27  1  0.06951489  0.79094980  0.11214477  1
