# generated using pymatgen
data_Li7Mn2(CoO4)3
_symmetry_space_group_name_H-M   'P 1'
_cell_length_a   5.09519126
_cell_length_b   7.71321954
_cell_length_c   5.87588443
_cell_angle_alpha   102.17049782
_cell_angle_beta   90.56667067
_cell_angle_gamma   108.22322738
_symmetry_Int_Tables_number   1
_chemical_formula_structural   Li7Mn2(CoO4)3
_chemical_formula_sum   'Li7 Mn2 Co3 O12'
_cell_volume   213.69642857
_cell_formula_units_Z   1
loop_
 _symmetry_equiv_pos_site_id
 _symmetry_equiv_pos_as_xyz
  1  'x, y, z'
loop_
 _atom_site_type_symbol
 _atom_site_label
 _atom_site_symmetry_multiplicity
 _atom_site_fract_x
 _atom_site_fract_y
 _atom_site_fract_z
 _atom_site_occupancy
  Li  Li0  1  0.50080949  0.99964903  0.74873107  1
  Li  Li1  1  0.50694481  0.33725106  0.59399129  1
  Li  Li2  1  0.50447613  0.00135555  0.25027518  1
  Li  Li3  1  0.49783099  0.33867443  0.07568053  1
  Li  Li4  1  0.49332205  0.66236368  0.91641514  1
  Li  Li5  1  0.49623254  0.66438212  0.41936654  1
  Li  Li6  1  0.99975009  0.33246139  0.83362971  1
  Mn  Mn7  1  0.00238157  0.00269460  0.99639527  1
  Mn  Mn8  1  0.00332590  0.33380429  0.32992376  1
  Co  Co9  1  0.99986299  0.66091284  0.67100341  1
  Co  Co10  1  0.00015575  0.00257969  0.50114478  1
  Co  Co11  1  0.99417108  0.65638791  0.15609850  1
  O  O12  1  0.22869405  0.83597999  0.96333683  1
  O  O13  1  0.22114782  0.14214302  0.78726424  1
  O  O14  1  0.21255479  0.83173897  0.45485845  1
  O  O15  1  0.23460417  0.17288780  0.26972974  1
  O  O16  1  0.23061284  0.49593958  0.14454638  1
  O  O17  1  0.22563585  0.50061993  0.61059811  1
  O  O18  1  0.78710040  0.17035585  0.52381232  1
  O  O19  1  0.76902515  0.49125382  0.37474231  1
  O  O20  1  0.78071851  0.16585266  0.05164026  1
  O  O21  1  0.75832153  0.51268871  0.88788251  1
  O  O22  1  0.76507584  0.83306373  0.72836163  1
  O  O23  1  0.78724566  0.85495934  0.21057205  1
