# generated using pymatgen
data_Li7Mn2(CoO4)3
_symmetry_space_group_name_H-M   'P 1'
_cell_length_a   5.10818856
_cell_length_b   7.70400686
_cell_length_c   5.84327778
_cell_angle_alpha   78.94170723
_cell_angle_beta   106.60195587
_cell_angle_gamma   102.01421341
_symmetry_Int_Tables_number   1
_chemical_formula_structural   Li7Mn2(CoO4)3
_chemical_formula_sum   'Li7 Mn2 Co3 O12'
_cell_volume   213.38155806
_cell_formula_units_Z   1
loop_
 _symmetry_equiv_pos_site_id
 _symmetry_equiv_pos_as_xyz
  1  'x, y, z'
loop_
 _atom_site_type_symbol
 _atom_site_label
 _atom_site_symmetry_multiplicity
 _atom_site_fract_x
 _atom_site_fract_y
 _atom_site_fract_z
 _atom_site_occupancy
  Li  Li0  1  0.50274399  0.16977625  0.83255722  1
  Li  Li1  1  0.49462993  0.49780068  0.99926370  1
  Li  Li2  1  0.49725601  0.49689075  0.50077578  1
  Li  Li3  1  0.50000000  0.83333300  0.66666700  1
  Li  Li4  1  0.50000000  0.83333300  0.16666700  1
  Li  Li5  1  0.50537007  0.16886632  0.33406930  1
  Li  Li6  1  -0.00000000  0.33333300  0.66666700  1
  Mn  Mn7  1  0.99216776  0.00217169  0.99704796  1
  Mn  Mn8  1  0.00783224  0.66449531  0.33628504  1
  Co  Co9  1  -0.00000000  0.33333300  0.16666700  1
  Co  Co10  1  -0.00087095  0.01190401  0.50137874  1
  Co  Co11  1  0.00087095  0.65476299  0.83195426  1
  O  O12  1  0.21481152  0.91643434  0.83646592  1
  O  O13  1  0.21593378  0.23520973  0.00951148  1
  O  O14  1  0.22364104  0.23843172  0.47965721  1
  O  O15  1  0.24082149  0.59414467  0.65180105  1
  O  O16  1  0.24101679  0.59273074  0.17391091  1
  O  O17  1  0.21989244  0.90871189  0.31848719  1
  O  O18  1  0.77635896  0.42823528  0.85367579  1
  O  O19  1  0.78010756  0.75795511  0.01484581  1
  O  O20  1  0.78518848  0.75023266  0.49686708  1
  O  O21  1  0.75917851  0.07252133  0.68153295  1
  O  O22  1  0.75898321  0.07393526  0.15942309  1
  O  O23  1  0.78406622  0.43145727  0.32382152  1
