# generated using pymatgen
data_Li4MnCo2O7
_symmetry_space_group_name_H-M   'P 1'
_cell_length_a   5.17450757
_cell_length_b   10.25540895
_cell_length_c   5.18264079
_cell_angle_alpha   104.63606639
_cell_angle_beta   67.93605545
_cell_angle_gamma   95.44650956
_symmetry_Int_Tables_number   1
_chemical_formula_structural   Li4MnCo2O7
_chemical_formula_sum   'Li8 Mn2 Co4 O14'
_cell_volume   246.61324137
_cell_formula_units_Z   2
loop_
 _symmetry_equiv_pos_site_id
 _symmetry_equiv_pos_as_xyz
  1  'x, y, z'
loop_
 _atom_site_type_symbol
 _atom_site_label
 _atom_site_symmetry_multiplicity
 _atom_site_fract_x
 _atom_site_fract_y
 _atom_site_fract_z
 _atom_site_occupancy
  Li  Li0  1  0.50000000  0.14244724  0.07122412  1
  Li  Li1  1  0.50000000  0.28629369  0.64314684  1
  Li  Li2  1  0.50000000  0.42799131  0.21399616  1
  Li  Li3  1  0.50000000  0.57183876  0.78591888  1
  Li  Li4  1  0.50000000  0.71709299  0.35854650  1
  Li  Li5  1  0.50000000  0.85714300  0.92857100  1
  Li  Li6  1  0.50000000  0.99719301  0.49859650  1
  Li  Li7  1  -0.00000000  0.85714300  0.42857100  1
  Mn  Mn8  1  1.00000000  0.00160562  0.00080281  1
  Mn  Mn9  1  0.00000000  0.71268038  0.85634019  1
  Co  Co10  1  1.00000000  0.14309468  0.57154784  1
  Co  Co11  1  1.00000000  0.28625474  0.14312737  1
  Co  Co12  1  0.00000000  0.42803026  0.71401563  1
  Co  Co13  1  0.00000000  0.57119132  0.28559516  1
  O  O14  1  0.23274248  0.14332108  0.84388315  1
  O  O15  1  0.22463733  0.28670306  0.41725668  1
  O  O16  1  0.22463733  0.42758194  0.98769662  1
  O  O17  1  0.23274248  0.57096492  0.55770407  1
  O  O18  1  0.21255057  0.70587762  0.09688335  1
  O  O19  1  0.23541577  0.85714300  0.70919033  1
  O  O20  1  0.21255057  0.00840838  0.24814873  1
  O  O21  1  0.76725752  0.14332108  0.29943893  1
  O  O22  1  0.77536267  0.28670306  0.86944638  1
  O  O23  1  0.77536267  0.42758194  0.43988632  1
  O  O24  1  0.76725752  0.57096492  0.01325985  1
  O  O25  1  0.78744943  0.70587762  0.60899427  1
  O  O26  1  0.76458423  0.85714300  0.14795167  1
  O  O27  1  0.78744943  0.00840838  0.76025965  1
