# generated using pymatgen
data_Li6Mn3CoO10
_symmetry_space_group_name_H-M   'P 1'
_cell_length_a   2.94080181
_cell_length_b   9.83303626
_cell_length_c   6.47030477
_cell_angle_alpha   101.06877184
_cell_angle_beta   76.61093204
_cell_angle_gamma   92.66194208
_symmetry_Int_Tables_number   1
_chemical_formula_structural   Li6Mn3CoO10
_chemical_formula_sum   'Li6 Mn3 Co1 O10'
_cell_volume   178.63010156
_cell_formula_units_Z   1
loop_
 _symmetry_equiv_pos_site_id
 _symmetry_equiv_pos_as_xyz
  1  'x, y, z'
loop_
 _atom_site_type_symbol
 _atom_site_label
 _atom_site_symmetry_multiplicity
 _atom_site_fract_x
 _atom_site_fract_y
 _atom_site_fract_z
 _atom_site_occupancy
  Li  Li0  1  0.90035065  0.30296629  0.18184440  1
  Li  Li1  1  0.10392491  0.69891979  0.79530228  1
  Li  Li2  1  0.51099545  0.49017519  0.99932516  1
  Li  Li3  1  0.68830298  0.91101272  0.60717274  1
  Li  Li4  1  0.29709614  0.09748945  0.41657149  1
  Li  Li5  1  0.60020746  0.20081024  0.79894760  1
  Mn  Mn6  1  0.99149879  0.00699960  0.99301856  1
  Mn  Mn7  1  0.20814012  0.39472556  0.60514927  1
  Mn  Mn8  1  0.39095100  0.80033637  0.20668081  1
  Co  Co9  1  0.81296921  0.59634627  0.39645736  1
  O  O10  1  0.46084362  0.13197409  0.08977593  1
  O  O11  1  0.68559523  0.53596570  0.67645964  1
  O  O12  1  0.05745035  0.35729786  0.87948469  1
  O  O13  1  0.22405717  0.73828707  0.49062780  1
  O  O14  1  0.81374911  0.94747982  0.28651672  1
  O  O15  1  0.38284242  0.45587713  0.31631520  1
  O  O16  1  0.51214899  0.86499033  0.91987769  1
  O  O17  1  0.97574221  0.65493283  0.11415915  1
  O  O18  1  0.14421293  0.04356040  0.71862585  1
  O  O19  1  0.73892128  0.26985329  0.50768766  1
