# generated using pymatgen
data_Li7Mn2(CoO4)3
_symmetry_space_group_name_H-M   'P 1'
_cell_length_a   5.83746114
_cell_length_b   5.90305481
_cell_length_c   7.70300324
_cell_angle_alpha   112.48757862
_cell_angle_beta   100.87681561
_cell_angle_gamma   60.29197251
_symmetry_Int_Tables_number   1
_chemical_formula_structural   Li7Mn2(CoO4)3
_chemical_formula_sum   'Li7 Mn2 Co3 O12'
_cell_volume   213.01778080
_cell_formula_units_Z   1
loop_
 _symmetry_equiv_pos_site_id
 _symmetry_equiv_pos_as_xyz
  1  'x, y, z'
loop_
 _atom_site_type_symbol
 _atom_site_label
 _atom_site_symmetry_multiplicity
 _atom_site_fract_x
 _atom_site_fract_y
 _atom_site_fract_z
 _atom_site_occupancy
  Li  Li0  1  0.49476134  0.50357767  0.99506129  1
  Li  Li1  1  0.00204235  0.49985598  0.99722033  1
  Li  Li2  1  0.17190566  0.82975533  0.33827171  1
  Li  Li3  1  0.66462465  0.83347702  0.33611267  1
  Li  Li4  1  0.83333300  0.16666700  0.66666700  1
  Li  Li5  1  0.33333300  0.16666700  0.66666700  1
  Li  Li6  1  0.33333300  0.66666700  0.66666700  1
  Mn  Mn7  1  -0.00336566  0.00464175  0.99496376  1
  Mn  Mn8  1  0.67003266  0.32869125  0.33836924  1
  Co  Co9  1  0.49654010  0.99247423  0.98820847  1
  Co  Co10  1  0.17012690  0.34085877  0.34512453  1
  Co  Co11  1  0.83333300  0.66666700  0.66666700  1
  O  O12  1  0.67753657  0.09101867  0.84541197  1
  O  O13  1  0.15618139  0.08917340  0.84888847  1
  O  O14  1  0.35791033  0.39698836  0.17796989  1
  O  O15  1  0.83762752  0.38944558  0.16886439  1
  O  O16  1  0.00106193  0.71296663  0.49721687  1
  O  O17  1  0.53381840  0.70951017  0.49624974  1
  O  O18  1  0.30875667  0.93634464  0.15536311  1
  O  O19  1  0.82903948  0.94388742  0.16446861  1
  O  O20  1  0.98913043  0.24231433  0.48792103  1
  O  O21  1  0.51048561  0.24415960  0.48444453  1
  O  O22  1  0.66560407  0.62036737  0.83611713  1
  O  O23  1  0.13284760  0.62382383  0.83708426  1
