# generated using pymatgen
data_Li7Mn2(CoO4)3
_symmetry_space_group_name_H-M   'P 1'
_cell_length_a   5.14821485
_cell_length_b   5.87575091
_cell_length_c   7.66398023
_cell_angle_alpha   79.57377327
_cell_angle_beta   83.41787860
_cell_angle_gamma   107.27035716
_symmetry_Int_Tables_number   1
_chemical_formula_structural   Li7Mn2(CoO4)3
_chemical_formula_sum   'Li7 Mn2 Co3 O12'
_cell_volume   214.19815458
_cell_formula_units_Z   1
loop_
 _symmetry_equiv_pos_site_id
 _symmetry_equiv_pos_as_xyz
  1  'x, y, z'
loop_
 _atom_site_type_symbol
 _atom_site_label
 _atom_site_symmetry_multiplicity
 _atom_site_fract_x
 _atom_site_fract_y
 _atom_site_fract_z
 _atom_site_occupancy
  Li  Li0  1  0.50010040  0.08586730  0.16716703  1
  Li  Li1  1  0.48993820  0.74143149  0.50627250  1
  Li  Li2  1  0.49438028  0.41728719  0.82612347  1
  Li  Li3  1  0.49989960  0.58079870  0.16616697  1
  Li  Li4  1  0.50561972  0.24937981  0.50720953  1
  Li  Li5  1  0.51006180  0.92523551  0.82706050  1
  Li  Li6  1  0.00000000  0.33333300  0.66666700  1
  Mn  Mn7  1  -0.00376477  -0.00055186  0.99845813  1
  Mn  Mn8  1  0.00376477  0.66721886  0.33487487  1
  Co  Co9  1  0.00498637  0.49617292  0.98681795  1
  Co  Co10  1  -0.00498637  0.17049408  0.34651505  1
  Co  Co11  1  0.00000000  0.83333300  0.66666700  1
  O  O12  1  0.22191878  0.27158158  0.08375760  1
  O  O13  1  0.23214017  0.94758782  0.41303527  1
  O  O14  1  0.23527577  0.62457693  0.76403333  1
  O  O15  1  0.21796053  0.79323891  0.09143098  1
  O  O16  1  0.23151984  0.47439580  0.40285533  1
  O  O17  1  0.22511289  0.10161267  0.76092200  1
  O  O18  1  0.78203947  0.87342709  0.24190302  1
  O  O19  1  0.77488711  0.56505433  0.57241100  1
  O  O20  1  0.76848016  0.19227120  0.93047767  1
  O  O21  1  0.77808122  0.39508442  0.24957640  1
  O  O22  1  0.76472423  0.04209007  0.56929967  1
  O  O23  1  0.76785983  0.71907918  0.92029773  1
