# generated using pymatgen
data_Li7Mn2(CoO4)3
_symmetry_space_group_name_H-M   'P 1'
_cell_length_a   5.89960332
_cell_length_b   6.49732216
_cell_length_c   6.49637512
_cell_angle_alpha   82.84725434
_cell_angle_beta   115.00272810
_cell_angle_gamma   76.62632729
_symmetry_Int_Tables_number   1
_chemical_formula_structural   Li7Mn2(CoO4)3
_chemical_formula_sum   'Li7 Mn2 Co3 O12'
_cell_volume   212.46933788
_cell_formula_units_Z   1
loop_
 _symmetry_equiv_pos_site_id
 _symmetry_equiv_pos_as_xyz
  1  'x, y, z'
loop_
 _atom_site_type_symbol
 _atom_site_label
 _atom_site_symmetry_multiplicity
 _atom_site_fract_x
 _atom_site_fract_y
 _atom_site_fract_z
 _atom_site_occupancy
  Li  Li0  1  0.24984385  0.99441584  0.50080416  1
  Li  Li1  1  0.73392478  0.33270348  0.16315375  1
  Li  Li2  1  0.74050867  0.67512435  0.83677414  1
  Li  Li3  1  0.26163491  0.32816638  0.16547386  1
  Li  Li4  1  0.75566173  0.99592644  0.49818556  1
  Li  Li5  1  0.25508342  0.67144231  0.83326276  1
  Li  Li6  1  0.49846154  0.99736112  0.00249535  1
  Mn  Mn7  1  0.99712101  0.99803213  0.00343493  1
  Mn  Mn8  1  0.50409370  0.33264654  0.67081822  1
  Co  Co9  1  0.98477675  0.67011942  0.32379995  1
  Co  Co10  1  0.01473204  0.33102136  0.67105574  1
  Co  Co11  1  0.50029798  0.66732734  0.32990845  1
  O  O12  1  0.88930820  0.98588949  0.24582304  1
  O  O13  1  0.37449876  0.33719572  0.89523267  1
  O  O14  1  0.39049786  0.65025545  0.57271554  1
  O  O15  1  0.86038302  0.31875642  0.90722178  1
  O  O16  1  0.34629585  0.98326414  0.23223542  1
  O  O17  1  0.88861475  0.65311125  0.57245311  1
  O  O18  1  0.64140052  0.01980562  0.75991870  1
  O  O19  1  0.15803058  0.34287800  0.43649778  1
  O  O20  1  0.09709980  0.68530315  0.08352278  1
  O  O21  1  0.62473516  0.34820653  0.43045006  1
  O  O22  1  0.10711866  0.01846797  0.75752999  1
  O  O23  1  0.62587645  0.66257954  0.10723226  1
