# generated using pymatgen
data_Li7Mn2(CoO4)3
_symmetry_space_group_name_H-M   'P 1'
_cell_length_a   5.04913531
_cell_length_b   6.56572212
_cell_length_c   6.59848664
_cell_angle_alpha   83.69450282
_cell_angle_beta   97.49371185
_cell_angle_gamma   97.18778785
_symmetry_Int_Tables_number   1
_chemical_formula_structural   Li7Mn2(CoO4)3
_chemical_formula_sum   'Li7 Mn2 Co3 O12'
_cell_volume   214.20072207
_cell_formula_units_Z   1
loop_
 _symmetry_equiv_pos_site_id
 _symmetry_equiv_pos_as_xyz
  1  'x, y, z'
loop_
 _atom_site_type_symbol
 _atom_site_label
 _atom_site_symmetry_multiplicity
 _atom_site_fract_x
 _atom_site_fract_y
 _atom_site_fract_z
 _atom_site_occupancy
  Li  Li0  1  0.74402815  0.24295840  0.24850365  1
  Li  Li1  1  0.74891219  0.58839197  0.91823478  1
  Li  Li2  1  0.25597394  0.08121742  0.40687691  1
  Li  Li3  1  0.25071344  0.42124595  0.08734342  1
  Li  Li4  1  0.74678007  0.91592554  0.57918481  1
  Li  Li5  1  0.25144440  0.75029969  0.75563333  1
  Li  Li6  1  0.49989499  0.83430973  0.16720151  1
  Mn  Mn7  1  0.00246141  0.99869390  0.00488372  1
  Mn  Mn8  1  0.50180579  0.50168555  0.49743289  1
  Co  Co9  1  0.99984263  0.33211241  0.66599577  1
  Co  Co10  1  0.00039429  0.67458281  0.32575151  1
  Co  Co11  1  0.49999575  0.15459283  0.84204968  1
  O  O12  1  0.87962858  0.27759708  0.95062313  1
  O  O13  1  0.85385420  0.61125839  0.61409153  1
  O  O14  1  0.35231168  0.12178308  0.10790670  1
  O  O15  1  0.37872343  0.44553345  0.77203651  1
  O  O16  1  0.89224077  0.95923341  0.27349847  1
  O  O17  1  0.36142059  0.76473285  0.45966661  1
  O  O18  1  0.62835325  0.22714012  0.54726320  1
  O  O19  1  0.63777713  0.54224210  0.23604842  1
  O  O20  1  0.11904107  0.04629515  0.72840919  1
  O  O21  1  0.14705063  0.38492168  0.39204632  1
  O  O22  1  0.64020230  0.89803840  0.87733572  1
  O  O23  1  0.10714931  0.72520808  0.04198223  1
