# generated using pymatgen
data_Li4MnCo2O7
_symmetry_space_group_name_H-M   'P 1'
_cell_length_a   4.99195374
_cell_length_b   7.81170595
_cell_length_c   6.60329654
_cell_angle_alpha   86.02666234
_cell_angle_beta   96.85132343
_cell_angle_gamma   102.43660812
_symmetry_Int_Tables_number   1
_chemical_formula_structural   Li4MnCo2O7
_chemical_formula_sum   'Li8 Mn2 Co4 O14'
_cell_volume   249.40951213
_cell_formula_units_Z   2
loop_
 _symmetry_equiv_pos_site_id
 _symmetry_equiv_pos_as_xyz
  1  'x, y, z'
loop_
 _atom_site_type_symbol
 _atom_site_label
 _atom_site_symmetry_multiplicity
 _atom_site_fract_x
 _atom_site_fract_y
 _atom_site_fract_z
 _atom_site_occupancy
  Li  Li0  1  0.92849352  0.36685763  0.85273537  1
  Li  Li1  1  0.21547037  0.91613649  0.43561122  1
  Li  Li2  1  0.49127791  0.50039917  0.98623137  1
  Li  Li3  1  0.06483832  0.63792091  0.15015762  1
  Li  Li4  1  0.36281085  0.22506354  0.71066220  1
  Li  Li5  1  0.63128724  0.77852465  0.29347314  1
  Li  Li6  1  0.78427355  0.07076987  0.57179773  1
  Li  Li7  1  0.28173542  0.57058358  0.57360710  1
  Mn  Mn8  1  0.00371840  0.00099676  0.99965330  1
  Mn  Mn9  1  0.14518226  0.28620861  0.28569361  1
  Co  Co10  1  0.57554423  0.14331025  0.14221036  1
  Co  Co11  1  0.85967456  0.70586366  0.71251795  1
  Co  Co12  1  0.43248388  0.85048881  0.84764556  1
  Co  Co13  1  0.71643778  0.43486298  0.43390600  1
  O  O14  1  0.69636333  0.10216563  0.88377226  1
  O  O15  1  0.94332208  0.67479595  0.43513045  1
  O  O16  1  0.25535650  0.23415511  0.01819893  1
  O  O17  1  0.82910392  0.37078449  0.15339483  1
  O  O18  1  0.10695602  0.96603383  0.73824846  1
  O  O19  1  0.38962565  0.50943132  0.28318674  1
  O  O20  1  0.54162802  0.82563875  0.59161843  1
  O  O21  1  0.16808043  0.62184433  0.85720802  1
  O  O22  1  0.45190274  0.18288885  0.40206664  1
  O  O23  1  0.76156440  0.77249992  0.00216991  1
  O  O24  1  0.32424976  0.91453303  0.12706228  1
  O  O25  1  0.61977754  0.46807598  0.70825073  1
  O  O26  1  0.89486083  0.05150743  0.26344025  1
  O  O27  1  0.02398051  0.31765847  0.54034953  1
