# generated using pymatgen
data_Li7Mn2(CoO4)3
_symmetry_space_group_name_H-M   'P 1'
_cell_length_a   5.09801117
_cell_length_b   5.00004482
_cell_length_c   8.79026171
_cell_angle_alpha   90.00000000
_cell_angle_beta   90.00000000
_cell_angle_gamma   108.46341464
_symmetry_Int_Tables_number   1
_chemical_formula_structural   Li7Mn2(CoO4)3
_chemical_formula_sum   'Li7 Mn2 Co3 O12'
_cell_volume   212.53269975
_cell_formula_units_Z   1
loop_
 _symmetry_equiv_pos_site_id
 _symmetry_equiv_pos_as_xyz
  1  'x, y, z'
loop_
 _atom_site_type_symbol
 _atom_site_label
 _atom_site_symmetry_multiplicity
 _atom_site_fract_x
 _atom_site_fract_y
 _atom_site_fract_z
 _atom_site_occupancy
  Li  Li0  1  0.50000000  0.50000000  0.99459028  1
  Li  Li1  1  0.50000000  0.00000000  0.17517887  1
  Li  Li2  1  0.50000000  0.50000000  0.35123819  1
  Li  Li3  1  0.50000000  0.00000000  0.50344943  1
  Li  Li4  1  0.50000000  0.00000000  0.82652464  1
  Li  Li5  1  0.50000000  0.50000000  0.65328901  1
  Li  Li6  1  0.00000000  0.50000000  0.49800838  1
  Mn  Mn7  1  0.00000000  0.00000000  -0.00029524  1
  Mn  Mn8  1  0.00000000  0.50000000  0.17430338  1
  Co  Co9  1  0.00000000  0.00000000  0.33385854  1
  Co  Co10  1  0.00000000  0.00000000  0.65434263  1
  Co  Co11  1  0.00000000  0.50000000  0.81943190  1
  O  O12  1  0.21794932  0.74557359  0.00767185  1
  O  O13  1  0.21736511  0.24118291  0.16499943  1
  O  O14  1  0.22116278  0.74542320  0.32077709  1
  O  O15  1  0.22927737  0.22009927  0.49095124  1
  O  O16  1  0.22908043  0.23414008  0.84571471  1
  O  O17  1  0.23612809  0.74999500  0.67792567  1
  O  O18  1  0.78205068  0.25442641  0.00767185  1
  O  O19  1  0.78263489  0.75881709  0.16499943  1
  O  O20  1  0.77883722  0.25457680  0.32077709  1
  O  O21  1  0.77072263  0.77990073  0.49095124  1
  O  O22  1  0.77091957  0.76585992  0.84571471  1
  O  O23  1  0.76387191  0.25000500  0.67792567  1
