# generated using pymatgen
data_Li9Co7O16
_symmetry_space_group_name_H-M   'P 1'
_cell_length_a   5.79608808
_cell_length_b   9.69787817
_cell_length_c   5.71868489
_cell_angle_alpha   98.88493876
_cell_angle_beta   59.55124275
_cell_angle_gamma   90.00000169
_symmetry_Int_Tables_number   1
_chemical_formula_structural   Li9Co7O16
_chemical_formula_sum   'Li9 Co7 O16'
_cell_volume   272.62924929
_cell_formula_units_Z   1
loop_
 _symmetry_equiv_pos_site_id
 _symmetry_equiv_pos_as_xyz
  1  'x, y, z'
loop_
 _atom_site_type_symbol
 _atom_site_label
 _atom_site_symmetry_multiplicity
 _atom_site_fract_x
 _atom_site_fract_y
 _atom_site_fract_z
 _atom_site_occupancy
  Li  Li0  1  0.62187305  0.24612958  0.24801501  1
  Li  Li1  1  0.37812695  0.75387042  0.75198499  1
  Li  Li2  1  0.13011194  0.24612958  0.24801501  1
  Li  Li3  1  0.12544075  0.24428246  0.74911851  1
  Li  Li4  1  0.87455925  0.75571754  0.25088149  1
  Li  Li5  1  0.62335474  0.24445272  0.75329053  1
  Li  Li6  1  0.37664526  0.75554728  0.24670947  1
  Li  Li7  1  0.86988806  0.75387042  0.75198499  1
  Li  Li8  1  0.50000000  -0.00000000  -0.00000000  1
  Co  Co9  1  0.00000000  -0.00000000  -0.00000000  1
  Co  Co10  1  0.50000000  -0.00000000  0.50000000  1
  Co  Co11  1  0.74985553  0.50060024  0.50028895  1
  Co  Co12  1  0.25014447  0.49939976  0.49971105  1
  Co  Co13  1  0.24991144  0.50000000  0.00000000  1
  Co  Co14  1  0.00000000  -0.00000000  0.50000000  1
  Co  Co15  1  0.75008856  0.50000000  -0.00000000  1
  O  O16  1  0.83600675  0.10802394  0.86470136  1
  O  O17  1  0.56591841  0.61824389  0.36618163  1
  O  O18  1  0.29929189  0.10802394  0.86470136  1
  O  O19  1  0.30349313  0.10582091  0.39301374  1
  O  O20  1  0.07146179  0.61510834  0.85707641  1
  O  O21  1  0.81487664  0.10669619  0.37024672  1
  O  O22  1  0.57020848  0.61707957  0.85958304  1
  O  O23  1  0.06789996  0.61824389  0.36618163  1
  O  O24  1  0.43408159  0.38175611  0.63381837  1
  O  O25  1  0.16399325  0.89197606  0.13529864  1
  O  O26  1  0.93210004  0.38175611  0.63381837  1
  O  O27  1  0.92853821  0.38489166  0.14292359  1
  O  O28  1  0.69650687  0.89417909  0.60698626  1
  O  O29  1  0.42979152  0.38292043  0.14041696  1
  O  O30  1  0.18512336  0.89330381  0.62975328  1
  O  O31  1  0.70070811  0.89197606  0.13529864  1
