# generated using pymatgen
data_Li9Co7O16
_symmetry_space_group_name_H-M   'P 1'
_cell_length_a   4.98847902
_cell_length_b   5.76042498
_cell_length_c   10.12783442
_cell_angle_alpha   73.47786527
_cell_angle_beta   99.60510310
_cell_angle_gamma   89.99999346
_symmetry_Int_Tables_number   1
_chemical_formula_structural   Li9Co7O16
_chemical_formula_sum   'Li9 Co7 O16'
_cell_volume   274.75602935
_cell_formula_units_Z   1
loop_
 _symmetry_equiv_pos_site_id
 _symmetry_equiv_pos_as_xyz
  1  'x, y, z'
loop_
 _atom_site_type_symbol
 _atom_site_label
 _atom_site_symmetry_multiplicity
 _atom_site_fract_x
 _atom_site_fract_y
 _atom_site_fract_z
 _atom_site_occupancy
  Li  Li0  1  0.24950844  0.62434962  0.24203019  1
  Li  Li1  1  0.75049156  0.37565038  0.75796981  1
  Li  Li2  1  0.24950844  0.13362019  0.24203019  1
  Li  Li3  1  0.75029369  0.37983568  0.24032864  1
  Li  Li4  1  0.25526389  0.12150531  0.75698937  1
  Li  Li5  1  0.74473611  0.87849469  0.24301063  1
  Li  Li6  1  0.75049156  0.86637981  0.75796981  1
  Li  Li7  1  0.24970631  0.62016432  0.75967136  1
  Li  Li8  1  0.00000000  0.50000000  -0.00000000  1
  Co  Co9  1  0.00000000  0.00000000  -0.00000000  1
  Co  Co10  1  0.50000000  0.25352906  1.00000000  1
  Co  Co11  1  0.49981540  0.74939323  0.50121354  1
  Co  Co12  1  0.50018460  0.25060677  0.49878646  1
  Co  Co13  1  0.00000000  0.50000000  0.50000000  1
  Co  Co14  1  0.00000000  0.00000000  0.50000000  1
  Co  Co15  1  0.50000000  0.74647094  0.00000000  1
  O  O16  1  0.86103404  0.71465790  0.10902864  1
  O  O17  1  0.38094878  0.44097699  0.61506539  1
  O  O18  1  0.86103404  0.17631346  0.10902864  1
  O  O19  1  0.39749730  0.44467448  0.11065104  1
  O  O20  1  0.85273823  0.19382865  0.61234270  1
  O  O21  1  0.36498605  0.94661269  0.10677461  1
  O  O22  1  0.38094878  0.94395762  0.61506539  1
  O  O23  1  0.85222790  0.69212763  0.61574474  1
  O  O24  1  0.61905122  0.55902301  0.38493461  1
  O  O25  1  0.13896596  0.28534210  0.89097136  1
  O  O26  1  0.61905122  0.05604238  0.38493461  1
  O  O27  1  0.14777210  0.30787237  0.38425526  1
  O  O28  1  0.63501395  0.05338731  0.89322539  1
  O  O29  1  0.14726177  0.80617135  0.38765730  1
  O  O30  1  0.13896596  0.82368654  0.89097136  1
  O  O31  1  0.60250270  0.55532552  0.88934896  1
