# generated using pymatgen
data_Li9Mn2Co5O16
_symmetry_space_group_name_H-M   'P 1'
_cell_length_a   5.88716980
_cell_length_b   8.58292950
_cell_length_c   5.89002833
_cell_angle_alpha   70.61613055
_cell_angle_beta   86.79341164
_cell_angle_gamma   87.99090448
_symmetry_Int_Tables_number   1
_chemical_formula_structural   Li9Mn2Co5O16
_chemical_formula_sum   'Li9 Mn2 Co5 O16'
_cell_volume   280.26551449
_cell_formula_units_Z   1
loop_
 _symmetry_equiv_pos_site_id
 _symmetry_equiv_pos_as_xyz
  1  'x, y, z'
loop_
 _atom_site_type_symbol
 _atom_site_label
 _atom_site_symmetry_multiplicity
 _atom_site_fract_x
 _atom_site_fract_y
 _atom_site_fract_z
 _atom_site_occupancy
  Li  Li0  1  0.25000000  0.25000000  0.12500000  1
  Li  Li1  1  0.99466114  0.49128305  0.25824974  1
  Li  Li2  1  0.25000000  0.25000000  0.62500000  1
  Li  Li3  1  0.99500900  0.49230487  0.75074817  1
  Li  Li4  1  0.75269263  0.74887891  0.87455012  1
  Li  Li5  1  0.74730737  0.75112109  0.37544988  1
  Li  Li6  1  0.50499100  0.00769513  0.49925183  1
  Li  Li7  1  0.50533886  0.00871695  0.99175026  1
  Li  Li8  1  0.75000000  0.25000000  0.62500000  1
  Mn  Mn9  1  0.99489768  0.00405777  0.99072314  1
  Mn  Mn10  1  0.50510232  0.49594223  0.25927686  1
  Co  Co11  1  0.75000000  0.25000000  0.12500000  1
  Co  Co12  1  0.24679156  0.74791532  0.37402181  1
  Co  Co13  1  0.99499375  0.00229845  0.49469622  1
  Co  Co14  1  0.50500625  0.49770155  0.75530378  1
  Co  Co15  1  0.25320844  0.75208468  0.87597819  1
  O  O16  1  0.99458365  0.23800086  0.89112911  1
  O  O17  1  0.74894952  0.49016541  0.02786707  1
  O  O18  1  0.97611569  0.23089255  0.36405635  1
  O  O19  1  0.71643816  0.50147692  0.49405963  1
  O  O20  1  0.48581393  0.73912821  0.64482539  1
  O  O21  1  0.48738128  0.73858910  0.14692774  1
  O  O22  1  0.21814806  0.98780178  0.24462267  1
  O  O23  1  0.24685137  0.99267236  0.76686757  1
  O  O24  1  0.50541635  0.26199914  0.35887089  1
  O  O25  1  0.25314863  0.50732764  0.48313243  1
  O  O26  1  0.52388431  0.26910745  0.88594465  1
  O  O27  1  0.28185194  0.51219822  0.00537733  1
  O  O28  1  0.01261872  0.76141090  0.10307126  1
  O  O29  1  0.01418607  0.76087179  0.60517361  1
  O  O30  1  0.78356184  0.99852308  0.75594037  1
  O  O31  1  0.75105048  0.00983459  0.22213193  1
