# generated using pymatgen
data_Li7Mn4CoO12
_symmetry_space_group_name_H-M   'P 1'
_cell_length_a   2.91131462
_cell_length_b   9.89630650
_cell_length_c   7.99625478
_cell_angle_alpha   82.07373475
_cell_angle_beta   79.51126040
_cell_angle_gamma   81.54161805
_symmetry_Int_Tables_number   1
_chemical_formula_structural   Li7Mn4CoO12
_chemical_formula_sum   'Li7 Mn4 Co1 O12'
_cell_volume   222.60139305
_cell_formula_units_Z   1
loop_
 _symmetry_equiv_pos_site_id
 _symmetry_equiv_pos_as_xyz
  1  'x, y, z'
loop_
 _atom_site_type_symbol
 _atom_site_label
 _atom_site_symmetry_multiplicity
 _atom_site_fract_x
 _atom_site_fract_y
 _atom_site_fract_z
 _atom_site_occupancy
  Li  Li0  1  0.34003952  0.22832845  0.09159151  1
  Li  Li1  1  0.97263112  0.77982964  0.27490811  1
  Li  Li2  1  0.69191348  0.21636310  0.39981095  1
  Li  Li3  1  0.32412536  0.76557321  0.58617506  1
  Li  Li4  1  0.00915969  0.23355113  0.74812949  1
  Li  Li5  1  0.66051515  0.76857011  0.91040058  1
  Li  Li6  1  0.33298205  0.00375368  0.33028122  1
  Mn  Mn7  1  0.99690009  0.00138988  0.00480994  1
  Mn  Mn8  1  0.99717535  0.50583917  0.49981014  1
  Mn  Mn9  1  0.67088335  0.49291323  0.16532107  1
  Mn  Mn10  1  0.33294763  0.50093476  0.83316898  1
  Co  Co11  1  0.68184133  0.99472281  0.64159553  1
  O  O12  1  0.50022882  0.11056693  0.88897444  1
  O  O13  1  0.18255842  0.59804221  0.03684094  1
  O  O14  1  0.85184362  0.11154334  0.18477041  1
  O  O15  1  0.49827635  0.61657793  0.38686838  1
  O  O16  1  0.16225558  0.12465662  0.55083222  1
  O  O17  1  0.82397267  0.61791674  0.73413892  1
  O  O18  1  0.16920799  0.38313263  0.27845039  1
  O  O19  1  0.82199986  0.87822544  0.47777484  1
  O  O20  1  0.48314561  0.40268852  0.63102126  1
  O  O21  1  0.15068509  0.89437045  0.80425837  1
  O  O22  1  0.84261273  0.38501949  0.92975505  1
  O  O23  1  0.50209914  0.88549053  0.11031218  1
