# generated using pymatgen
data_Li7Mn2(CoO4)3
_symmetry_space_group_name_H-M   'P 1'
_cell_length_a   5.08214396
_cell_length_b   7.71125560
_cell_length_c   5.87402403
_cell_angle_alpha   77.83979064
_cell_angle_beta   105.69789463
_cell_angle_gamma   83.59774539
_symmetry_Int_Tables_number   1
_chemical_formula_structural   Li7Mn2(CoO4)3
_chemical_formula_sum   'Li7 Mn2 Co3 O12'
_cell_volume   213.14183652
_cell_formula_units_Z   1
loop_
 _symmetry_equiv_pos_site_id
 _symmetry_equiv_pos_as_xyz
  1  'x, y, z'
loop_
 _atom_site_type_symbol
 _atom_site_label
 _atom_site_symmetry_multiplicity
 _atom_site_fract_x
 _atom_site_fract_y
 _atom_site_fract_z
 _atom_site_occupancy
  Li  Li0  1  0.50056097  0.17320194  0.08799147  1
  Li  Li1  1  0.50116868  0.17018333  0.58233342  1
  Li  Li2  1  0.50423794  0.49629638  0.24341420  1
  Li  Li3  1  0.50144663  0.49921923  0.75444965  1
  Li  Li4  1  0.49491138  0.83002386  0.41430413  1
  Li  Li5  1  0.49957389  0.83195382  0.91656180  1
  Li  Li6  1  0.99906509  0.33287333  0.16518960  1
  Mn  Mn7  1  0.00312016  0.00225630  0.00548631  1
  Mn  Mn8  1  0.00152682  0.33269454  0.67053628  1
  Co  Co9  1  -0.00098895  0.00336856  0.49935139  1
  Co  Co10  1  0.00071539  0.66036799  0.32893764  1
  Co  Co11  1  0.99613533  0.65852621  0.84173817  1
  O  O12  1  0.23522527  0.09569331  0.80803068  1
  O  O13  1  0.22111404  0.06949739  0.28678925  1
  O  O14  1  0.23251789  0.41731488  0.93327332  1
  O  O15  1  0.22364977  0.42531143  0.46294623  1
  O  O16  1  0.23099010  0.75920559  0.11429636  1
  O  O17  1  0.21138631  0.76228493  0.61641335  1
  O  O18  1  0.78306624  0.24144977  0.40259678  1
  O  O19  1  0.77920409  0.23980081  0.87374582  1
  O  O20  1  0.76464749  0.56950242  0.54732969  1
  O  O21  1  0.76160930  0.59243464  0.02999083  1
  O  O22  1  0.78633210  0.92613666  0.72003643  1
  O  O23  1  0.76878407  0.91040268  0.19425723  1
