# generated using pymatgen
data_Rb2PrO3
_symmetry_space_group_name_H-M   'P 1'
_cell_length_a   11.33607483
_cell_length_b   7.53520656
_cell_length_c   6.57640867
_cell_angle_alpha   89.96961988
_cell_angle_beta   90.00130093
_cell_angle_gamma   89.99380631
_symmetry_Int_Tables_number   1
_chemical_formula_structural   Rb2PrO3
_chemical_formula_sum   'Rb8 Pr4 O12'
_cell_volume   561.75454557
_cell_formula_units_Z   4
loop_
 _symmetry_equiv_pos_site_id
 _symmetry_equiv_pos_as_xyz
  1  'x, y, z'
loop_
 _atom_site_type_symbol
 _atom_site_label
 _atom_site_symmetry_multiplicity
 _atom_site_fract_x
 _atom_site_fract_y
 _atom_site_fract_z
 _atom_site_occupancy
  Rb  Rb0  1  0.08457693  0.61305719  0.23076530  1
  Rb  Rb1  1  0.08451327  0.88707547  0.73053951  1
  Rb  Rb2  1  0.41546554  0.88708491  0.73058079  1
  Rb  Rb3  1  0.41540690  0.61305401  0.23072040  1
  Rb  Rb4  1  0.58431880  0.11299588  0.26918264  1
  Rb  Rb5  1  0.58431722  0.38706328  0.76930682  1
  Rb  Rb6  1  0.91567918  0.11297798  0.26921766  1
  Rb  Rb7  1  0.91568017  0.38708737  0.76926510  1
  Pr  Pr8  1  0.24998979  0.14966169  0.26419467  1
  Pr  Pr9  1  0.24999565  0.35076563  0.76445315  1
  Pr  Pr10  1  0.75004315  0.64914757  0.23550907  1
  Pr  Pr11  1  0.75004700  0.85070525  0.73587032  1
  O  O12  1  0.11739486  0.22550027  0.99991745  1
  O  O13  1  0.11741551  0.27429042  0.49986868  1
  O  O14  1  0.24999805  0.86768635  0.35643997  1
  O  O15  1  0.24999867  0.63190994  0.85618025  1
  O  O16  1  0.38260346  0.22550072  0.99992440  1
  O  O17  1  0.38258957  0.27428833  0.49986901  1
  O  O18  1  0.61733083  0.72562773  0.50014318  1
  O  O19  1  0.61737339  0.77440167  0.00013645  1
  O  O20  1  0.74999858  0.13207985  0.64377794  1
  O  O21  1  0.74999953  0.36800428  0.14384538  1
  O  O22  1  0.88264501  0.72563139  0.50015049  1
  O  O23  1  0.88261892  0.77440282  0.00014136  1
