# generated using pymatgen
data_Li7Mn4CoO12
_symmetry_space_group_name_H-M   'P 1'
_cell_length_a   2.87739889
_cell_length_b   13.30976075
_cell_length_c   5.88345303
_cell_angle_alpha   77.48755961
_cell_angle_beta   90.00000000
_cell_angle_gamma   90.00000000
_symmetry_Int_Tables_number   1
_chemical_formula_structural   Li7Mn4CoO12
_chemical_formula_sum   'Li7 Mn4 Co1 O12'
_cell_volume   219.96987539
_cell_formula_units_Z   1
loop_
 _symmetry_equiv_pos_site_id
 _symmetry_equiv_pos_as_xyz
  1  'x, y, z'
loop_
 _atom_site_type_symbol
 _atom_site_label
 _atom_site_symmetry_multiplicity
 _atom_site_fract_x
 _atom_site_fract_y
 _atom_site_fract_z
 _atom_site_occupancy
  Li  Li0  1  0.50000000  0.17881078  0.17095206  1
  Li  Li1  1  0.50000000  0.47994183  0.50429377  1
  Li  Li2  1  0.50000000  0.83981161  0.82853282  1
  Li  Li3  1  -0.00000000  0.33628534  0.84031816  1
  Li  Li4  1  -0.00000000  0.65520779  0.17395060  1
  Li  Li5  1  -0.00000000  0.01559385  0.49682039  1
  Li  Li6  1  -0.00000000  0.33292397  0.32659256  1
  Mn  Mn7  1  0.00000000  0.00842585  0.99045597  1
  Mn  Mn8  1  0.50000000  0.48565284  0.01219112  1
  Mn  Mn9  1  0.00000000  0.65838076  0.67081437  1
  Mn  Mn10  1  0.50000000  0.83455839  0.33433398  1
  Co  Co11  1  0.50000000  0.19418136  0.63804137  1
  O  O12  1  0.50000000  0.00496525  0.21472091  1
  O  O13  1  0.50000000  0.33001031  0.59066154  1
  O  O14  1  0.50000000  0.65279586  0.90336228  1
  O  O15  1  -0.00000000  0.15287850  0.90354858  1
  O  O16  1  -0.00000000  0.49868641  0.22385766  1
  O  O17  1  -0.00000000  0.83421739  0.56124434  1
  O  O18  1  0.50000000  0.34686743  0.07909765  1
  O  O19  1  0.50000000  0.66258437  0.44129935  1
  O  O20  1  0.50000000  -0.00581925  0.78048931  1
  O  O21  1  -0.00000000  0.49331788  0.78284491  1
  O  O22  1  -0.00000000  0.84150975  0.10145602  1
  O  O23  1  -0.00000000  0.16821173  0.43012027  1
