# generated using pymatgen
data_Li9Mn2Co5O16
_symmetry_space_group_name_H-M   'P 1'
_cell_length_a   5.88459096
_cell_length_b   7.83622577
_cell_length_c   6.44260770
_cell_angle_alpha   85.84782391
_cell_angle_beta   76.69667394
_cell_angle_gamma   76.02758447
_symmetry_Int_Tables_number   1
_chemical_formula_structural   Li9Mn2Co5O16
_chemical_formula_sum   'Li9 Mn2 Co5 O16'
_cell_volume   280.51669320
_cell_formula_units_Z   1
loop_
 _symmetry_equiv_pos_site_id
 _symmetry_equiv_pos_as_xyz
  1  'x, y, z'
loop_
 _atom_site_type_symbol
 _atom_site_label
 _atom_site_symmetry_multiplicity
 _atom_site_fract_x
 _atom_site_fract_y
 _atom_site_fract_z
 _atom_site_occupancy
  Li  Li0  1  0.93508497  0.38130699  0.87458737  1
  Li  Li1  1  0.18790591  0.87304895  0.38274490  1
  Li  Li2  1  0.44185187  0.38151445  0.87533402  1
  Li  Li3  1  0.06287215  0.62601050  0.11679023  1
  Li  Li4  1  0.30814813  0.11848555  0.62466598  1
  Li  Li5  1  0.56209409  0.62695105  0.11725510  1
  Li  Li6  1  0.68712785  0.87398950  0.38320977  1
  Li  Li7  1  0.81491503  0.11869301  0.62541263  1
  Li  Li8  1  0.87500000  0.75000000  0.75000000  1
  Mn  Mn9  1  0.99417196  0.99452944  0.99733871  1
  Mn  Mn10  1  0.75582804  0.50547056  0.50266129  1
  Co  Co11  1  0.25190145  0.50438692  0.50272028  1
  Co  Co12  1  0.49809855  0.99561308  0.99727972  1
  Co  Co13  1  0.37500000  0.75000000  0.75000000  1
  Co  Co14  1  0.62672292  0.25175411  0.24896031  1
  Co  Co15  1  0.12327708  0.24824589  0.25103969  1
  O  O16  1  0.72774911  0.18364360  0.95194236  1
  O  O17  1  0.96818181  0.66190468  0.44462959  1
  O  O18  1  0.20668418  0.16711447  0.95840027  1
  O  O19  1  0.85712071  0.43206996  0.20163519  1
  O  O20  1  0.10059108  0.93510127  0.70521064  1
  O  O21  1  0.35521644  0.42857697  0.20781202  1
  O  O22  1  0.48722286  0.68704354  0.45025035  1
  O  O23  1  0.57032288  0.92699210  0.71338884  1
  O  O24  1  0.17967612  0.57300790  0.78661116  1
  O  O25  1  0.39478356  0.07142303  0.29218798  1
  O  O26  1  0.64940792  0.56489873  0.79478936  1
  O  O27  1  0.26277614  0.81295646  0.04974965  1
  O  O28  1  0.54331582  0.33288553  0.54159973  1
  O  O29  1  0.78181719  0.83809532  0.05537041  1
  O  O30  1  0.89287929  0.06793004  0.29836481  1
  O  O31  1  0.02224989  0.31635640  0.54805764  1
