# generated using pymatgen
data_Li7Mn2(CoO4)3
_symmetry_space_group_name_H-M   'P 1'
_cell_length_a   5.04921553
_cell_length_b   8.78020073
_cell_length_c   5.16432168
_cell_angle_alpha   106.93043182
_cell_angle_beta   79.95070229
_cell_angle_gamma   95.33908133
_symmetry_Int_Tables_number   1
_chemical_formula_structural   Li7Mn2(CoO4)3
_chemical_formula_sum   'Li7 Mn2 Co3 O12'
_cell_volume   215.45037850
_cell_formula_units_Z   1
loop_
 _symmetry_equiv_pos_site_id
 _symmetry_equiv_pos_as_xyz
  1  'x, y, z'
loop_
 _atom_site_type_symbol
 _atom_site_label
 _atom_site_symmetry_multiplicity
 _atom_site_fract_x
 _atom_site_fract_y
 _atom_site_fract_z
 _atom_site_occupancy
  Li  Li0  1  0.24384943  0.90815405  0.41731273  1
  Li  Li1  1  0.75175687  0.08855687  0.58772565  1
  Li  Li2  1  0.25546961  0.25629014  0.75607002  1
  Li  Li3  1  0.24192933  0.57832689  0.07499764  1
  Li  Li4  1  0.75295345  0.73830442  0.24232085  1
  Li  Li5  1  0.75566088  0.42293488  0.91316486  1
  Li  Li6  1  0.00308900  0.66512261  0.66804566  1
  Mn  Mn7  1  0.99784027  0.99756131  0.99521707  1
  Mn  Mn8  1  0.49898508  0.82939025  0.83100479  1
  Co  Co9  1  0.49601366  0.17657731  0.17149940  1
  Co  Co10  1  -0.00535982  0.34283414  0.33892008  1
  Co  Co11  1  0.49481445  0.50456320  0.51500848  1
  O  O12  1  0.13891898  0.80755109  0.03367273  1
  O  O13  1  0.63441266  0.96226316  0.17582319  1
  O  O14  1  0.11968908  0.12423980  0.33949316  1
  O  O15  1  0.14352310  0.45207353  0.68518050  1
  O  O16  1  0.60718979  0.63698516  0.87030431  1
  O  O17  1  0.62738076  0.28892070  0.52607165  1
  O  O18  1  0.35866477  0.02992515  0.80662096  1
  O  O19  1  0.87761353  0.19563768  0.97057480  1
  O  O20  1  0.38240679  0.36904846  0.13549044  1
  O  O21  1  0.39690570  0.71612207  0.48913554  1
  O  O22  1  0.85783301  0.88150790  0.66140886  1
  O  O23  1  0.86845964  0.52710923  0.29493662  1
