# generated using pymatgen
data_Li9Co7O16
_symmetry_space_group_name_H-M   'P 1'
_cell_length_a   5.76014942
_cell_length_b   10.15795215
_cell_length_c   5.76669114
_cell_angle_alpha   90.04395200
_cell_angle_beta   119.96248062
_cell_angle_gamma   73.52905600
_symmetry_Int_Tables_number   1
_chemical_formula_structural   Li9Co7O16
_chemical_formula_sum   'Li9 Co7 O16'
_cell_volume   276.26885517
_cell_formula_units_Z   1
loop_
 _symmetry_equiv_pos_site_id
 _symmetry_equiv_pos_as_xyz
  1  'x, y, z'
loop_
 _atom_site_type_symbol
 _atom_site_label
 _atom_site_symmetry_multiplicity
 _atom_site_fract_x
 _atom_site_fract_y
 _atom_site_fract_z
 _atom_site_occupancy
  Li  Li0  1  0.00192560  0.24656647  0.75041767  1
  Li  Li1  1  0.50183443  0.75260349  0.25627236  1
  Li  Li2  1  0.00587437  0.24916028  0.25308112  1
  Li  Li3  1  0.50195353  0.75083972  0.74691888  1
  Li  Li4  1  0.49804647  0.24916028  0.25308112  1
  Li  Li5  1  0.99412563  0.75083972  0.74691888  1
  Li  Li6  1  0.49816557  0.24739651  0.74372764  1
  Li  Li7  1  -0.00192560  0.75343353  0.24958233  1
  Li  Li8  1  0.50000000  -0.00000000  0.50000000  1
  Co  Co9  1  0.00000000  -0.00000000  0.00000000  1
  Co  Co10  1  0.00000000  -0.00000000  0.50000000  1
  Co  Co11  1  0.50000000  0.50000000  0.50000000  1
  Co  Co12  1  0.50000000  0.50000000  0.00000000  1
  Co  Co13  1  0.00000000  0.50000000  0.00000000  1
  Co  Co14  1  0.50000000  -0.00000000  0.00000000  1
  Co  Co15  1  0.00000000  0.50000000  0.50000000  1
  O  O16  1  0.25181346  0.10497686  0.10860379  1
  O  O17  1  0.75120951  0.62252164  0.62494065  1
  O  O18  1  0.25176866  0.10480771  0.64197625  1
  O  O19  1  0.75518382  0.61978024  0.13057212  1
  O  O20  1  0.78539988  0.10480771  0.64197625  1
  O  O21  1  0.25560806  0.61978024  0.13057212  1
  O  O22  1  0.76269657  0.10697095  0.13236409  1
  O  O23  1  0.25130859  0.62002244  0.62263961  1
  O  O24  1  0.74869141  0.37997756  0.37736039  1
  O  O25  1  0.23730343  0.89302905  0.86763591  1
  O  O26  1  0.74439194  0.38021976  0.86942788  1
  O  O27  1  0.21460012  0.89519229  0.35802375  1
  O  O28  1  0.24481618  0.38021976  0.86942788  1
  O  O29  1  0.74823134  0.89519229  0.35802375  1
  O  O30  1  0.24879049  0.37747836  0.37505935  1
  O  O31  1  0.74818654  0.89502314  0.89139621  1
