# generated using pymatgen
data_MnV5(PO4)6
_symmetry_space_group_name_H-M   'P 1'
_cell_length_a   8.59154493
_cell_length_b   8.66144221
_cell_length_c   8.66144200
_cell_angle_alpha   60.00000052
_cell_angle_beta   59.73051107
_cell_angle_gamma   59.73051117
_symmetry_Int_Tables_number   1
_chemical_formula_structural   MnV5(PO4)6
_chemical_formula_sum   'Mn1 V5 P6 O24'
_cell_volume   453.89520988
_cell_formula_units_Z   1
loop_
 _symmetry_equiv_pos_site_id
 _symmetry_equiv_pos_as_xyz
  1  'x, y, z'
loop_
 _atom_site_type_symbol
 _atom_site_label
 _atom_site_symmetry_multiplicity
 _atom_site_fract_x
 _atom_site_fract_y
 _atom_site_fract_z
 _atom_site_occupancy
  Mn  Mn0  1  0.56391828  0.14536091  0.14536091  1
  V  V1  1  0.99649507  0.00116864  0.00116864  1
  V  V2  1  0.06368116  0.64543928  0.64543928  1
  V  V3  1  0.49682974  0.50105642  0.50105642  1
  V  V4  1  0.43113687  0.85628804  0.85628804  1
  V  V5  1  0.93564718  0.35478427  0.35478427  1
  P  P6  1  0.24915418  0.24948268  0.54774012  1
  P  P7  1  0.24915418  0.95362302  0.24948268  1
  P  P8  1  0.24915418  0.54774012  0.95362302  1
  P  P9  1  0.75321126  0.45936958  0.04230698  1
  P  P10  1  0.75321126  0.04230698  0.74511218  1
  P  P11  1  0.75321126  0.74511218  0.45936958  1
  O  O12  1  0.06736174  0.11924413  0.30823937  1
  O  O13  1  0.06736174  0.50515476  0.11924413  1
  O  O14  1  0.06736174  0.30823937  0.50515476  1
  O  O15  1  0.22686388  0.08763026  0.74639653  1
  O  O16  1  0.43355827  0.19099926  0.39810117  1
  O  O17  1  0.25331420  0.41545820  0.57209577  1
  O  O18  1  0.22686388  0.93911033  0.08763026  1
  O  O19  1  0.25331420  0.75913183  0.41545820  1
  O  O20  1  0.56909859  0.61817222  0.00391313  1
  O  O21  1  0.25331420  0.57209577  0.75913183  1
  O  O22  1  0.78473409  0.26551496  0.04909543  1
  O  O23  1  0.56909859  0.00391313  0.80881605  1
  O  O24  1  0.43355827  0.97734131  0.19099926  1
  O  O25  1  0.22686388  0.74639653  0.93911033  1
  O  O26  1  0.73522854  0.44647627  0.23773400  1
  O  O27  1  0.43355827  0.39810117  0.97734131  1
  O  O28  1  0.73522854  0.23773400  0.58056120  1
  O  O29  1  0.78473409  0.04909543  0.90065552  1
  O  O30  1  0.73522854  0.58056120  0.44647627  1
  O  O31  1  0.56909859  0.80881605  0.61817222  1
  O  O32  1  0.78473409  0.90065552  0.26551496  1
  O  O33  1  0.93157282  0.67060121  0.51135911  1
  O  O34  1  0.93157282  0.51135911  0.88646686  1
  O  O35  1  0.93157282  0.88646686  0.67060121  1
