# generated using pymatgen
data_MnCu(PO4)2
_symmetry_space_group_name_H-M   'P 1'
_cell_length_a   8.49645296
_cell_length_b   8.51683596
_cell_length_c   8.51683650
_cell_angle_alpha   59.99999990
_cell_angle_beta   59.92061109
_cell_angle_gamma   59.92060821
_symmetry_Int_Tables_number   1
_chemical_formula_structural   MnCu(PO4)2
_chemical_formula_sum   'Mn3 Cu3 P6 O24'
_cell_volume   435.26832244
_cell_formula_units_Z   3
loop_
 _symmetry_equiv_pos_site_id
 _symmetry_equiv_pos_as_xyz
  1  'x, y, z'
loop_
 _atom_site_type_symbol
 _atom_site_label
 _atom_site_symmetry_multiplicity
 _atom_site_fract_x
 _atom_site_fract_y
 _atom_site_fract_z
 _atom_site_occupancy
  Mn  Mn0  1  0.07400706  0.64199698  0.64199698  1
  Mn  Mn1  1  0.42541012  0.85819696  0.85819696  1
  Mn  Mn2  1  0.92638201  0.35787300  0.35787300  1
  Cu  Cu3  1  0.99417688  0.00194104  0.00194104  1
  Cu  Cu4  1  0.56950264  0.14349879  0.14349879  1
  Cu  Cu5  1  0.49872387  0.50042571  0.50042571  1
  P  P6  1  0.24988505  0.24958850  0.54107255  1
  P  P7  1  0.24988505  0.95945491  0.24958850  1
  P  P8  1  0.24988505  0.54107255  0.95945491  1
  P  P9  1  0.75118801  0.45863120  0.03977481  1
  P  P10  1  0.75118801  0.03977481  0.75040598  1
  P  P11  1  0.75118801  0.75040598  0.45863120  1
  O  O12  1  0.06453036  0.12028658  0.30731184  1
  O  O13  1  0.06453036  0.50787122  0.12028658  1
  O  O14  1  0.06453036  0.30731184  0.50787122  1
  O  O15  1  0.22917828  0.08462245  0.74175205  1
  O  O16  1  0.43924722  0.19378667  0.38522613  1
  O  O17  1  0.26267213  0.41763121  0.56012946  1
  O  O18  1  0.22917828  0.94444721  0.08462245  1
  O  O19  1  0.26267213  0.75956720  0.41763121  1
  O  O20  1  0.56418290  0.61760171  0.00910224  1
  O  O21  1  0.26267213  0.56012946  0.75956720  1
  O  O22  1  0.77178393  0.26067075  0.05285392  1
  O  O23  1  0.56418290  0.00910224  0.80911315  1
  O  O24  1  0.43924722  0.98173999  0.19378667  1
  O  O25  1  0.22917828  0.74175205  0.94444721  1
  O  O26  1  0.73440390  0.44669166  0.23775205  1
  O  O27  1  0.43924722  0.38522613  0.98173999  1
  O  O28  1  0.73440390  0.23775205  0.58115240  1
  O  O29  1  0.77178393  0.05285392  0.91469140  1
  O  O30  1  0.73440390  0.58115240  0.44669166  1
  O  O31  1  0.56418290  0.80911315  0.61760171  1
  O  O32  1  0.77178393  0.91469140  0.26067075  1
  O  O33  1  0.93686269  0.69005467  0.49385139  1
  O  O34  1  0.93686269  0.49385139  0.87923025  1
  O  O35  1  0.93686269  0.87923025  0.69005467  1
