# generated using pymatgen
data_YZr5O11
_symmetry_space_group_name_H-M   'P 1'
_cell_length_a   3.57782671
_cell_length_b   9.07689319
_cell_length_c   6.57055068
_cell_angle_alpha   90.26110015
_cell_angle_beta   90.00000000
_cell_angle_gamma   90.00000000
_symmetry_Int_Tables_number   1
_chemical_formula_structural   YZr5O11
_chemical_formula_sum   'Y1 Zr5 O11'
_cell_volume   213.38003742
_cell_formula_units_Z   1
loop_
 _symmetry_equiv_pos_site_id
 _symmetry_equiv_pos_as_xyz
  1  'x, y, z'
loop_
 _atom_site_type_symbol
 _atom_site_label
 _atom_site_symmetry_multiplicity
 _atom_site_fract_x
 _atom_site_fract_y
 _atom_site_fract_z
 _atom_site_occupancy
  Y  Y0  1  0.50000000  0.66632738  0.83187041  1
  Zr  Zr1  1  0.50000000  0.33231629  0.18380959  1
  Zr  Zr2  1  0.50000000  0.99508032  0.50646896  1
  Zr  Zr3  1  0.00000000  0.32904736  0.66557992  1
  Zr  Zr4  1  0.00000000  0.66701368  0.31599334  1
  Zr  Zr5  1  0.00000000  0.00139801  0.99061154  1
  O  O6  1  0.50000000  0.41452151  0.77523564  1
  O  O7  1  0.50000000  0.22640030  0.46408048  1
  O  O8  1  0.50000000  0.71904976  0.47879192  1
  O  O9  1  0.50000000  0.91168002  0.79522136  1
  O  O10  1  0.50000000  0.06848300  0.13074080  1
  O  O11  1  0.50000000  0.55970403  0.14410897  1
  O  O12  1  0.00000000  0.92429293  0.36957945  1
  O  O13  1  0.00000000  0.10184103  0.70208947  1
  O  O14  1  0.00000000  0.27728145  0.03433336  1
  O  O15  1  0.00000000  0.76827456  0.02611939  1
  O  O16  1  0.00000000  0.43865636  0.38809840  1
