# generated using pymatgen
data_LiTiSiO4
_symmetry_space_group_name_H-M   'P 1'
_cell_length_a   18.00124215
_cell_length_b   8.42314227
_cell_length_c   5.65410374
_cell_angle_alpha   90.00000000
_cell_angle_beta   90.00000000
_cell_angle_gamma   90.00000000
_symmetry_Int_Tables_number   1
_chemical_formula_structural   LiTiSiO4
_chemical_formula_sum   'Li12 Ti12 Si12 O48'
_cell_volume   857.31492160
_cell_formula_units_Z   12
loop_
 _symmetry_equiv_pos_site_id
 _symmetry_equiv_pos_as_xyz
  1  'x, y, z'
loop_
 _atom_site_type_symbol
 _atom_site_label
 _atom_site_symmetry_multiplicity
 _atom_site_fract_x
 _atom_site_fract_y
 _atom_site_fract_z
 _atom_site_occupancy
  Li  Li0  1  0.08331796  0.58630578  0.02528292  1
  Li  Li1  1  0.08266008  0.08619852  0.48502671  1
  Li  Li2  1  0.25035294  0.90984574  0.00278865  1
  Li  Li3  1  0.24964706  0.40984574  0.50278865  1
  Li  Li4  1  0.41733992  0.58619852  0.98502671  1
  Li  Li5  1  0.41668204  0.08630578  0.52528292  1
  Li  Li6  1  0.58331796  0.91369422  0.02528292  1
  Li  Li7  1  0.58266008  0.41380148  0.48502671  1
  Li  Li8  1  0.75035294  0.59015426  0.00278865  1
  Li  Li9  1  0.74964706  0.09015426  0.50278865  1
  Li  Li10  1  0.91733992  0.91380148  0.98502671  1
  Li  Li11  1  0.91668204  0.41369422  0.52528292  1
  Ti  Ti12  1  0.99936914  0.25040704  0.00637957  1
  Ti  Ti13  1  0.00063086  0.74959296  0.50637957  1
  Ti  Ti14  1  0.17070155  0.74848924  0.50742316  1
  Ti  Ti15  1  0.17137267  0.24845512  0.00421423  1
  Ti  Ti16  1  0.32862733  0.74845512  0.50421423  1
  Ti  Ti17  1  0.32929845  0.24848924  0.00742316  1
  Ti  Ti18  1  0.49936914  0.24959296  0.00637957  1
  Ti  Ti19  1  0.50063086  0.75040704  0.50637957  1
  Ti  Ti20  1  0.67070155  0.75151076  0.50742316  1
  Ti  Ti21  1  0.67137267  0.25154488  0.00421423  1
  Ti  Ti22  1  0.82862733  0.75154488  0.50421423  1
  Ti  Ti23  1  0.82929845  0.25151076  0.00742316  1
  Si  Si24  1  0.08410294  0.90218343  0.00566437  1
  Si  Si25  1  0.08387376  0.40103132  0.50708846  1
  Si  Si26  1  0.25028604  0.59505017  0.00584906  1
  Si  Si27  1  0.24971396  0.09505017  0.50584906  1
  Si  Si28  1  0.41612624  0.90103132  0.00708846  1
  Si  Si29  1  0.41589706  0.40218343  0.50566437  1
  Si  Si30  1  0.58410294  0.59781657  0.00566437  1
  Si  Si31  1  0.58387376  0.09896868  0.50708846  1
  Si  Si32  1  0.75028604  0.90494983  0.00584906  1
  Si  Si33  1  0.74971396  0.40494983  0.50584906  1
  Si  Si34  1  0.91612624  0.59896868  0.00708846  1
  Si  Si35  1  0.91589706  0.09781757  0.50566437  1
  O  O36  1  0.98875386  0.98284701  0.50921118  1
  O  O37  1  0.01124614  0.01715299  0.00921118  1
  O  O38  1  0.01084294  0.51620472  0.50461101  1
  O  O39  1  0.08383290  0.27767927  0.73859445  1
  O  O40  1  0.08401989  0.27997487  0.27123755  1
  O  O41  1  0.08390829  0.78028610  0.24092250  1
  O  O42  1  0.08390399  0.77784436  0.77498869  1
  O  O43  1  0.15740881  0.01542920  0.00768825  1
  O  O44  1  0.15677014  0.51590905  0.50482500  1
  O  O45  1  0.17712478  0.48291967  0.00573369  1
  O  O46  1  0.17655094  0.98287979  0.50715582  1
  O  O47  1  0.24961287  0.22057223  0.27677185  1
  O  O48  1  0.25012262  0.22093540  0.73454189  1
  O  O49  1  0.25038713  0.72057223  0.77677185  1
  O  O50  1  0.24987738  0.72093540  0.23454189  1
  O  O51  1  0.32344906  0.48287979  0.00715582  1
  O  O52  1  0.32287522  0.98291967  0.50573369  1
  O  O53  1  0.34322986  0.01590905  0.00482500  1
  O  O54  1  0.34259119  0.51542920  0.50768825  1
  O  O55  1  0.41609601  0.27784436  0.27498869  1
  O  O56  1  0.41609171  0.28028610  0.74092250  1
  O  O57  1  0.41598011  0.77997487  0.77123755  1
  O  O58  1  0.41616710  0.77767927  0.23859445  1
  O  O59  1  0.48915706  0.01620472  0.00461101  1
  O  O60  1  0.48875386  0.51715299  0.50921118  1
  O  O61  1  0.51124614  0.48284701  0.00921118  1
  O  O62  1  0.51084294  0.98379528  0.50461101  1
  O  O63  1  0.58383290  0.22232073  0.73859445  1
  O  O64  1  0.58401989  0.22002513  0.27123755  1
  O  O65  1  0.58390829  0.71971390  0.24092250  1
  O  O66  1  0.58390399  0.72215564  0.77498869  1
  O  O67  1  0.65740881  0.48457080  0.00768825  1
  O  O68  1  0.65677014  0.98409095  0.50482500  1
  O  O69  1  0.67712478  0.01708033  0.00573369  1
  O  O70  1  0.67655094  0.51712021  0.50715582  1
  O  O71  1  0.75012262  0.27906460  0.73454189  1
  O  O72  1  0.74961287  0.27942777  0.27677185  1
  O  O73  1  0.74987738  0.77906460  0.23454189  1
  O  O74  1  0.75038713  0.77942777  0.77677185  1
  O  O75  1  0.82344906  0.01712021  0.00715582  1
  O  O76  1  0.82287522  0.51708033  0.50573369  1
  O  O77  1  0.84322986  0.48409095  0.00482500  1
  O  O78  1  0.84259119  0.98457080  0.50768825  1
  O  O79  1  0.91609601  0.22215564  0.27498869  1
  O  O80  1  0.91609171  0.21971390  0.74092250  1
  O  O81  1  0.91598011  0.72002513  0.77123755  1
  O  O82  1  0.91616710  0.72232073  0.23859445  1
  O  O83  1  0.98915706  0.48379528  0.00461101  1
