# generated using pymatgen
data_Na5Mn2As(CO4)4
_symmetry_space_group_name_H-M   'P 1'
_cell_length_a   10.10890646
_cell_length_b   10.02362707
_cell_length_c   10.10890646
_cell_angle_alpha   60.09058633
_cell_angle_beta   89.36098844
_cell_angle_gamma   119.90941367
_symmetry_Int_Tables_number   1
_chemical_formula_structural   Na5Mn2As(CO4)4
_chemical_formula_sum   'Na10 Mn4 As2 C8 O32'
_cell_volume   722.17120982
_cell_formula_units_Z   2
loop_
 _symmetry_equiv_pos_site_id
 _symmetry_equiv_pos_as_xyz
  1  'x, y, z'
loop_
 _atom_site_type_symbol
 _atom_site_label
 _atom_site_symmetry_multiplicity
 _atom_site_fract_x
 _atom_site_fract_y
 _atom_site_fract_z
 _atom_site_occupancy
  Na  Na0  1  0.67123037  0.32535805  0.09112873  1
  Na  Na1  1  0.90887127  0.82535805  0.32876963  1
  Na  Na2  1  0.34427484  0.26270442  0.32796655  1
  Na  Na3  1  0.90932903  0.23729558  0.91842958  1
  Na  Na4  1  0.08351321  0.17464195  0.65412769  1
  Na  Na5  1  0.08157042  0.73729558  0.09067097  1
  Na  Na6  1  0.67203345  0.76270442  0.65572516  1
  Na  Na7  1  0.33755859  0.25000000  0.91244141  1
  Na  Na8  1  0.34587231  0.67464195  0.91648679  1
  Na  Na9  1  0.08755859  0.75000000  0.66244141  1
  Mn  Mn10  1  0.49987815  0.99518297  0.00369500  1
  Mn  Mn11  1  0.50469517  0.00481703  0.49887797  1
  Mn  Mn12  1  0.50112203  0.50481703  0.49530483  1
  Mn  Mn13  1  0.99630500  0.49518297  0.50012185  1
  As  As14  1  0.12493609  0.25000000  0.12506391  1
  As  As15  1  0.87493609  0.75000000  0.87506391  1
  C  C16  1  0.71500434  0.06748824  0.71963530  1
  C  C17  1  0.71287646  0.43251176  0.35248489  1
  C  C18  1  0.34885963  0.06574113  0.71582133  1
  C  C19  1  0.71843754  0.43425887  0.71688150  1
  C  C20  1  0.28036470  0.56748824  0.28499566  1
  C  C21  1  0.64751511  0.93251176  0.28712354  1
  C  C22  1  0.28417867  0.56574113  0.65114037  1
  C  C23  1  0.28311850  0.93425887  0.28156246  1
  O  O24  1  0.65534889  0.05284841  0.14651392  1
  O  O25  1  0.69061621  0.29783128  0.34461227  1
  O  O26  1  0.85755646  0.20216872  0.60721506  1
  O  O27  1  0.39605163  0.05185073  0.30378435  1
  O  O28  1  0.85348608  0.55284841  0.34465111  1
  O  O29  1  0.33482439  0.38934668  0.05374911  1
  O  O30  1  0.05690421  0.11065332  0.05452229  1
  O  O31  1  0.68985627  0.05544860  0.85238197  1
  O  O32  1  0.59216943  0.44455140  0.36559333  1
  O  O33  1  0.35193249  0.04375815  0.59886524  1
  O  O34  1  0.85737561  0.45624185  0.69182566  1
  O  O35  1  0.06272622  0.39712394  0.04330270  1
  O  O36  1  0.05957336  0.10287606  0.33439872  1
  O  O37  1  0.39278494  0.70216872  0.14244354  1
  O  O38  1  0.65538773  0.79783128  0.30938379  1
  O  O39  1  0.69621565  0.55185073  0.60394837  1
  O  O40  1  0.30063767  0.44715159  0.39749952  1
  O  O41  1  0.34562986  0.20428061  0.69153428  1
  O  O42  1  0.60418611  0.29571939  0.85864975  1
  O  O43  1  0.94625089  0.88934668  0.66517561  1
  O  O44  1  0.94547771  0.61065332  0.94309579  1
  O  O45  1  0.14761803  0.55544860  0.31014373  1
  O  O46  1  0.63440667  0.94455140  0.40783057  1
  O  O47  1  0.30817434  0.95624185  0.14262439  1
  O  O48  1  0.40113476  0.54375815  0.64806751  1
  O  O49  1  0.95669730  0.89712394  0.93727378  1
  O  O50  1  0.66560128  0.60287606  0.94042664  1
  O  O51  1  0.14436492  0.44814927  0.65579910  1
  O  O52  1  0.60250048  0.94715159  0.69936233  1
  O  O53  1  0.30846572  0.70428061  0.65437014  1
  O  O54  1  0.14135025  0.79571939  0.39581389  1
  O  O55  1  0.34420090  0.94814927  0.85563508  1
