# generated using pymatgen
data_Na5Mn2As(CO4)4
_symmetry_space_group_name_H-M   'P 1'
_cell_length_a   10.01672065
_cell_length_b   10.07535167
_cell_length_c   10.01672065
_cell_angle_alpha   60.46889190
_cell_angle_beta   89.51654547
_cell_angle_gamma   119.53110810
_symmetry_Int_Tables_number   1
_chemical_formula_structural   Na5Mn2As(CO4)4
_chemical_formula_sum   'Na10 Mn4 As2 C8 O32'
_cell_volume   721.88688165
_cell_formula_units_Z   2
loop_
 _symmetry_equiv_pos_site_id
 _symmetry_equiv_pos_as_xyz
  1  'x, y, z'
loop_
 _atom_site_type_symbol
 _atom_site_label
 _atom_site_symmetry_multiplicity
 _atom_site_fract_x
 _atom_site_fract_y
 _atom_site_fract_z
 _atom_site_occupancy
  Na  Na0  1  0.91415655  0.25000000  0.33584345  1
  Na  Na1  1  0.66563270  0.33126539  0.08436730  1
  Na  Na2  1  0.66197194  0.75000000  0.08802806  1
  Na  Na3  1  0.91699884  0.83399668  0.33300116  1
  Na  Na4  1  0.33675901  0.25000000  0.33675901  1
  Na  Na5  1  0.91324099  0.25000000  0.91324099  1
  Na  Na6  1  0.08436730  0.16873461  0.66563270  1
  Na  Na7  1  0.33584345  0.25000000  0.91415655  1
  Na  Na8  1  0.33300116  0.66600332  0.91699884  1
  Na  Na9  1  0.08802806  0.75000000  0.66197194  1
  Mn  Mn10  1  0.49498710  0.99738291  0.00091974  1
  Mn  Mn11  1  0.50239581  0.99738291  0.50169735  1
  Mn  Mn12  1  0.50169735  0.50261709  0.50239581  1
  Mn  Mn13  1  0.00091974  0.50261709  0.49498710  1
  As  As14  1  0.12500000  0.25000000  0.12500000  1
  As  As15  1  0.87500000  0.75000000  0.87500000  1
  C  C16  1  0.71251773  0.06719745  0.71644752  1
  C  C17  1  0.71635503  0.43280255  0.35467972  1
  C  C18  1  0.35467972  0.06719745  0.71635503  1
  C  C19  1  0.71644752  0.43280255  0.71251773  1
  C  C20  1  0.28514526  0.56348272  0.28886814  1
  C  C21  1  0.64764914  0.93651728  0.27833647  1
  C  C22  1  0.27833647  0.56348272  0.64764914  1
  C  C23  1  0.28886814  0.93651728  0.28514526  1
  O  O24  1  0.64322049  0.04933614  0.13942955  1
  O  O25  1  0.69776886  0.30219205  0.34494329  1
  O  O26  1  0.85286466  0.19780795  0.60442219  1
  O  O27  1  0.40611565  0.04933614  0.31123531  1
  O  O28  1  0.84766198  0.54082152  0.36833528  1
  O  O29  1  0.33470350  0.38655186  0.05863699  1
  O  O30  1  0.05481215  0.11344814  0.05184836  1
  O  O31  1  0.69173642  0.03987574  0.85926415  1
  O  O32  1  0.60086011  0.46012426  0.34813931  1
  O  O33  1  0.34813931  0.03987574  0.60086011  1
  O  O34  1  0.85926415  0.46012426  0.69173642  1
  O  O35  1  0.05184836  0.38655186  0.05481215  1
  O  O36  1  0.05863699  0.11344814  0.33470350  1
  O  O37  1  0.39713751  0.69720847  0.14884861  1
  O  O38  1  0.65394293  0.80279153  0.30007096  1
  O  O39  1  0.69315954  0.54082152  0.59084320  1
  O  O40  1  0.31123531  0.45066386  0.40611565  1
  O  O41  1  0.34494329  0.19780795  0.69776886  1
  O  O42  1  0.60442219  0.30219205  0.85286466  1
  O  O43  1  0.95806226  0.89254902  0.66597678  1
  O  O44  1  0.94147420  0.60745098  0.93448676  1
  O  O45  1  0.14327260  0.53394857  0.31425019  1
  O  O46  1  0.65180024  0.96605143  0.39067597  1
  O  O47  1  0.31425019  0.96605143  0.14327260  1
  O  O48  1  0.39067597  0.53394857  0.65180024  1
  O  O49  1  0.93448676  0.89254902  0.94147420  1
  O  O50  1  0.66597678  0.60745098  0.95806226  1
  O  O51  1  0.13942955  0.45066386  0.64322049  1
  O  O52  1  0.59084320  0.95917848  0.69315954  1
  O  O53  1  0.30007096  0.69720847  0.65394293  1
  O  O54  1  0.14884861  0.80279153  0.39713751  1
  O  O55  1  0.36833528  0.95917848  0.84766198  1
