# generated using pymatgen
data_LiVCO5
_symmetry_space_group_name_H-M   'P 1'
_cell_length_a   9.90310472
_cell_length_b   11.72129479
_cell_length_c   6.04207855
_cell_angle_alpha   91.09554657
_cell_angle_beta   88.77280477
_cell_angle_gamma   92.23921601
_symmetry_Int_Tables_number   1
_chemical_formula_structural   LiVCO5
_chemical_formula_sum   'Li8 V8 C8 O40'
_cell_volume   700.53398690
_cell_formula_units_Z   8
loop_
 _symmetry_equiv_pos_site_id
 _symmetry_equiv_pos_as_xyz
  1  'x, y, z'
loop_
 _atom_site_type_symbol
 _atom_site_label
 _atom_site_symmetry_multiplicity
 _atom_site_fract_x
 _atom_site_fract_y
 _atom_site_fract_z
 _atom_site_occupancy
  Li  Li0  1  0.00197502  0.49552542  0.51023672  1
  Li  Li1  1  0.98941025  0.27107840  0.26048639  1
  Li  Li2  1  0.50141348  0.77053274  0.20674337  1
  Li  Li3  1  0.49285127  0.00272395  0.99924403  1
  Li  Li4  1  0.49441156  0.00017843  0.51044912  1
  Li  Li5  1  0.49636771  0.23480247  0.78654845  1
  Li  Li6  1  0.00866570  0.71970041  0.24385266  1
  Li  Li7  1  0.01253836  0.72608138  0.74773478  1
  V  V8  1  0.24812266  0.10640641  0.44331900  1
  V  V9  1  0.21426039  0.10932948  0.93320070  1
  V  V10  1  0.23829135  0.59621301  0.04203967  1
  V  V11  1  0.29123363  0.61286074  0.54870517  1
  V  V12  1  0.77323830  0.40098065  0.95433777  1
  V  V13  1  0.71079029  0.38519340  0.45214836  1
  V  V14  1  0.78320581  0.89336154  0.06232587  1
  V  V15  1  0.74856643  0.89535513  0.55826232  1
  C  C16  1  0.25566369  0.85739590  0.49042505  1
  C  C17  1  0.24821054  0.85862069  0.00193473  1
  C  C18  1  0.23592970  0.35054236  0.00231655  1
  C  C19  1  0.24152824  0.36029657  0.49859170  1
  C  C20  1  0.76511757  0.64855481  0.00061614  1
  C  C21  1  0.76531804  0.64072355  0.49803457  1
  C  C22  1  0.74286207  0.14308714  0.99983272  1
  C  C23  1  0.73697769  0.14174460  0.50570330  1
  O  O24  1  0.13389159  0.13647333  0.23851767  1
  O  O25  1  0.10347234  0.13495233  0.74374376  1
  O  O26  1  0.11280570  0.56643071  0.21747628  1
  O  O27  1  0.15387950  0.58277629  0.74086924  1
  O  O28  1  0.11201287  0.34298526  0.02906833  1
  O  O29  1  0.11562477  0.36165697  0.48714635  1
  O  O30  1  0.18278750  0.94871885  0.48980249  1
  O  O31  1  0.17466220  0.94884051  0.98678593  1
  O  O32  1  0.17527765  0.76142553  0.00790926  1
  O  O33  1  0.18376517  0.75982708  0.50980403  1
  O  O34  1  0.31235912  0.26088265  0.97394816  1
  O  O35  1  0.30814167  0.26514385  0.50516852  1
  O  O36  1  0.30690502  0.44958036  0.99615482  1
  O  O37  1  0.32135621  0.45313252  0.50459821  1
  O  O38  1  0.37478689  0.86302902  0.01026412  1
  O  O39  1  0.38211972  0.85906301  0.47573034  1
  O  O40  1  0.37898707  0.07275029  0.28174847  1
  O  O41  1  0.35256105  0.07996395  0.75364314  1
  O  O42  1  0.36012615  0.64190511  0.24423441  1
  O  O43  1  0.40428109  0.64870046  0.73182949  1
  O  O44  1  0.59107937  0.35413363  0.28059404  1
  O  O45  1  0.64604107  0.35916068  0.75438734  1
  O  O46  1  0.64618851  0.91602079  0.24959796  1
  O  O47  1  0.61802931  0.92416897  0.72401496  1
  O  O48  1  0.61633366  0.13719647  0.99010407  1
  O  O49  1  0.61109873  0.13845474  0.53125990  1
  O  O50  1  0.69731131  0.55063769  0.99847725  1
  O  O51  1  0.68903409  0.54841801  0.50403694  1
  O  O52  1  0.68976323  0.73899155  0.01973980  1
  O  O53  1  0.69878246  0.73511636  0.49034621  1
  O  O54  1  0.80756704  0.23717002  0.47255011  1
  O  O55  1  0.81585276  0.23807616  0.00058197  1
  O  O56  1  0.81649902  0.05121319  0.01116156  1
  O  O57  1  0.81070180  0.04975889  0.50746634  1
  O  O58  1  0.89224374  0.65823674  0.98976805  1
  O  O59  1  0.89439313  0.64181670  0.49848249  1
  O  O60  1  0.84700647  0.41742960  0.25554263  1
  O  O61  1  0.89556396  0.43465756  0.78065697  1
  O  O62  1  0.89967175  0.86556775  0.24558673  1
  O  O63  1  0.86563955  0.86357025  0.76011253  1
