# generated using pymatgen
data_LiFeF3
_symmetry_space_group_name_H-M   'P 1'
_cell_length_a   6.29334520
_cell_length_b   6.29334520
_cell_length_c   6.45306926
_cell_angle_alpha   90.00000000
_cell_angle_beta   90.00000000
_cell_angle_gamma   70.72494027
_symmetry_Int_Tables_number   1
_chemical_formula_structural   LiFeF3
_chemical_formula_sum   'Li4 Fe4 F12'
_cell_volume   241.25482148
_cell_formula_units_Z   4
loop_
 _symmetry_equiv_pos_site_id
 _symmetry_equiv_pos_as_xyz
  1  'x, y, z'
loop_
 _atom_site_type_symbol
 _atom_site_label
 _atom_site_symmetry_multiplicity
 _atom_site_fract_x
 _atom_site_fract_y
 _atom_site_fract_z
 _atom_site_occupancy
  Li  Li0  1  0.99717501  0.99717501  0.25000000  1
  Li  Li1  1  0.50021808  0.50021808  0.75000000  1
  Li  Li2  1  0.49978192  0.49978192  0.25000000  1
  Li  Li3  1  0.00282599  0.00282599  0.75000000  1
  Fe  Fe4  1  -0.00000000  0.50000000  -0.00000000  1
  Fe  Fe5  1  -0.00000000  0.50000000  0.50000000  1
  Fe  Fe6  1  0.50000000  -0.00000000  -0.00000000  1
  Fe  Fe7  1  0.50000000  -0.00000000  0.50000000  1
  F  F8  1  0.18525625  0.55181492  0.75000000  1
  F  F9  1  0.44818508  0.81474375  0.25000000  1
  F  F10  1  0.18308315  0.56475695  0.25000000  1
  F  F11  1  0.43524305  0.81691685  0.75000000  1
  F  F12  1  0.86022367  0.86022367  0.50628862  1
  F  F13  1  0.86022367  0.86022367  0.99371138  1
  F  F14  1  0.13977633  0.13977633  0.00628862  1
  F  F15  1  0.13977633  0.13977633  0.49371138  1
  F  F16  1  0.81691685  0.43524305  0.75000000  1
  F  F17  1  0.56475695  0.18308315  0.25000000  1
  F  F18  1  0.81474375  0.44818508  0.25000000  1
  F  F19  1  0.55181492  0.18525625  0.75000000  1
