# generated using pymatgen
data_Li9Mn2Co5O16
_symmetry_space_group_name_H-M   'P 1'
_cell_length_a   5.88841608
_cell_length_b   6.44157557
_cell_length_c   7.81295649
_cell_angle_alpha   87.70348869
_cell_angle_beta   76.25242337
_cell_angle_gamma   76.86334569
_symmetry_Int_Tables_number   1
_chemical_formula_structural   Li9Mn2Co5O16
_chemical_formula_sum   'Li9 Mn2 Co5 O16'
_cell_volume   280.29737248
_cell_formula_units_Z   1
loop_
 _symmetry_equiv_pos_site_id
 _symmetry_equiv_pos_as_xyz
  1  'x, y, z'
loop_
 _atom_site_type_symbol
 _atom_site_label
 _atom_site_symmetry_multiplicity
 _atom_site_fract_x
 _atom_site_fract_y
 _atom_site_fract_z
 _atom_site_occupancy
  Li  Li0  1  0.87162763  0.12600013  0.38250357  1
  Li  Li1  1  0.87878646  0.61634072  0.87449736  1
  Li  Li2  1  0.11870073  0.88517087  0.62823533  1
  Li  Li3  1  0.11909810  0.37448360  0.11669890  1
  Li  Li4  1  0.38129927  0.61482913  0.87176467  1
  Li  Li5  1  0.38090190  0.12551640  0.38330110  1
  Li  Li6  1  0.62837237  0.37399987  0.11749643  1
  Li  Li7  1  0.62121354  0.88365928  0.62550264  1
  Li  Li8  1  0.75000000  0.25000000  0.75000000  1
  Mn  Mn9  1  0.99337964  0.00111993  0.99499579  1
  Mn  Mn10  1  0.50662036  0.49888007  0.50500421  1
  Co  Co11  1  0.00447937  0.49915312  0.50483567  1
  Co  Co12  1  0.25000000  0.75000000  0.25000000  1
  Co  Co13  1  0.25000000  0.25000000  0.75000000  1
  Co  Co14  1  0.49552063  0.00084688  0.99516433  1
  Co  Co15  1  0.75000000  0.75000000  0.25000000  1
  O  O16  1  0.70565608  0.04687949  0.18520741  1
  O  O17  1  0.69075615  0.55810151  0.66248580  1
  O  O18  1  0.96135563  0.79415960  0.43244967  1
  O  O19  1  0.95206528  0.29358901  0.93432216  1
  O  O20  1  0.21442604  0.54810888  0.68709636  1
  O  O21  1  0.18479104  0.04144498  0.16731789  1
  O  O22  1  0.42794039  0.28491460  0.92766763  1
  O  O23  1  0.45739972  0.79907498  0.42897148  1
  O  O24  1  0.07205961  0.21508540  0.57233237  1
  O  O25  1  0.04260028  0.70092502  0.07102852  1
  O  O26  1  0.28557396  0.95189112  0.81290364  1
  O  O27  1  0.31520896  0.45855502  0.33268211  1
  O  O28  1  0.53864437  0.70584040  0.06755033  1
  O  O29  1  0.54793472  0.20641099  0.56567784  1
  O  O30  1  0.79434392  0.45312051  0.31479259  1
  O  O31  1  0.80924385  0.94189849  0.83751420  1
