# generated using pymatgen
data_LiFePO4
_symmetry_space_group_name_H-M   'P 1'
_cell_length_a   9.53015264
_cell_length_b   6.32700280
_cell_length_c   4.97150376
_cell_angle_alpha   90.00000000
_cell_angle_beta   90.00000000
_cell_angle_gamma   90.00000000
_symmetry_Int_Tables_number   1
_chemical_formula_structural   LiFePO4
_chemical_formula_sum   'Li4 Fe4 P4 O16'
_cell_volume   299.76826579
_cell_formula_units_Z   4
loop_
 _symmetry_equiv_pos_site_id
 _symmetry_equiv_pos_as_xyz
  1  'x, y, z'
loop_
 _atom_site_type_symbol
 _atom_site_label
 _atom_site_symmetry_multiplicity
 _atom_site_fract_x
 _atom_site_fract_y
 _atom_site_fract_z
 _atom_site_occupancy
  Li  Li0  1  -0.00000000  0.00000000  0.00000000  1
  Li  Li1  1  -0.00000000  0.50000000  0.00000000  1
  Li  Li2  1  0.50000000  0.00000000  0.50000000  1
  Li  Li3  1  0.50000000  0.50000000  0.50000000  1
  Fe  Fe4  1  0.14857824  0.75000000  0.46945119  1
  Fe  Fe5  1  0.35142176  0.25000000  0.96945119  1
  Fe  Fe6  1  0.64857824  0.75000000  0.03054881  1
  Fe  Fe7  1  0.85142176  0.25000000  0.53054881  1
  P  P8  1  0.18199739  0.25000000  0.46272538  1
  P  P9  1  0.31800261  0.75000000  0.96272538  1
  P  P10  1  0.68199739  0.25000000  0.03727462  1
  P  P11  1  0.81800261  0.75000000  0.53727462  1
  O  O12  1  0.15685894  0.25000000  0.77070735  1
  O  O13  1  0.11214947  0.05214459  0.33473170  1
  O  O14  1  0.11214947  0.44785541  0.33473170  1
  O  O15  1  0.15693374  0.75000000  0.89289368  1
  O  O16  1  0.34306626  0.25000000  0.39289368  1
  O  O17  1  0.38785053  0.94785541  0.83473170  1
  O  O18  1  0.38785053  0.55214459  0.83473170  1
  O  O19  1  0.34314106  0.75000000  0.27070735  1
  O  O20  1  0.65685894  0.25000000  0.72929265  1
  O  O21  1  0.61214947  0.05214459  0.16526830  1
  O  O22  1  0.61214947  0.44785541  0.16526830  1
  O  O23  1  0.65693374  0.75000000  0.60710632  1
  O  O24  1  0.84306626  0.25000000  0.10710632  1
  O  O25  1  0.88785053  0.55214459  0.66526830  1
  O  O26  1  0.88785053  0.94785541  0.66526830  1
  O  O27  1  0.84314106  0.75000000  0.22929265  1
