# generated using pymatgen
data_Li4Mn5Cu(PO4)6
_symmetry_space_group_name_H-M   'P 1'
_cell_length_a   8.51826515
_cell_length_b   8.94893899
_cell_length_c   9.06568259
_cell_angle_alpha   58.72083396
_cell_angle_beta   59.37775817
_cell_angle_gamma   58.53193580
_symmetry_Int_Tables_number   1
_chemical_formula_structural   Li4Mn5Cu(PO4)6
_chemical_formula_sum   'Li4 Mn5 Cu1 P6 O24'
_cell_volume   476.07382520
_cell_formula_units_Z   1
loop_
 _symmetry_equiv_pos_site_id
 _symmetry_equiv_pos_as_xyz
  1  'x, y, z'
loop_
 _atom_site_type_symbol
 _atom_site_label
 _atom_site_symmetry_multiplicity
 _atom_site_fract_x
 _atom_site_fract_y
 _atom_site_fract_z
 _atom_site_occupancy
  Li  Li0  1  0.25446552  0.84964075  0.64172378  1
  Li  Li1  1  0.74555558  0.15934111  0.33011573  1
  Li  Li2  1  0.71754119  0.78947152  0.14054655  1
  Li  Li3  1  0.71591356  0.32670869  0.81000002  1
  Mn  Mn4  1  0.00179963  0.99534876  0.01093905  1
  Mn  Mn5  1  0.06178789  0.65172291  0.64045094  1
  Mn  Mn6  1  0.50337964  0.49181572  0.49910749  1
  Mn  Mn7  1  0.44195724  0.85116397  0.84965423  1
  Mn  Mn8  1  0.96219869  0.34991647  0.34502126  1
  Cu  Cu9  1  0.52142366  0.14961050  0.18059058  1
  P  P10  1  0.25934856  0.25388484  0.55865712  1
  P  P11  1  0.24144725  0.94505487  0.24834391  1
  P  P12  1  0.25875641  0.54978778  0.94611800  1
  P  P13  1  0.75842906  0.46255739  0.03054936  1
  P  P14  1  0.77034029  0.03211646  0.74803306  1
  P  P15  1  0.72368082  0.75820407  0.45391700  1
  O  O16  1  0.05488593  0.10196649  0.30352041  1
  O  O17  1  0.06801943  0.53037212  0.09423212  1
  O  O18  1  0.07733044  0.30346334  0.52499357  1
  O  O19  1  0.24857267  0.08531990  0.74713971  1
  O  O20  1  0.45292749  0.20557731  0.40559704  1
  O  O21  1  0.25892883  0.41328298  0.58577664  1
  O  O22  1  0.22845642  0.91365069  0.10345371  1
  O  O23  1  0.26084811  0.75495394  0.41974181  1
  O  O24  1  0.57295560  0.60563762  0.98210963  1
  O  O25  1  0.29066907  0.57358381  0.75057394  1
  O  O26  1  0.79445073  0.26834873  0.03803157  1
  O  O27  1  0.60679718  0.96484746  0.81292929  1
  O  O28  1  0.43279740  0.97279312  0.18705827  1
  O  O29  1  0.24069701  0.74868021  0.91879077  1
  O  O30  1  0.72463140  0.43913885  0.22701795  1
  O  O31  1  0.43940062  0.38201159  0.99199017  1
  O  O32  1  0.72830848  0.23502871  0.60452717  1
  O  O33  1  0.78653953  0.04241582  0.90673787  1
  O  O34  1  0.72345011  0.60927132  0.41064923  1
  O  O35  1  0.52627989  0.81831251  0.59476273  1
  O  O36  1  0.74774493  0.92672632  0.26288169  1
  O  O37  1  0.89320106  0.69589873  0.51121058  1
  O  O38  1  0.93414062  0.52161812  0.88734589  1
  O  O39  1  0.96994107  0.89375150  0.67216215  1
