# generated using pymatgen
data_LiFePCO7
_symmetry_space_group_name_H-M   'P 1'
_cell_length_a   8.40320653
_cell_length_b   5.17599759
_cell_length_c   19.25164594
_cell_angle_alpha   89.89607548
_cell_angle_beta   90.34292215
_cell_angle_gamma   84.83332973
_symmetry_Int_Tables_number   1
_chemical_formula_structural   LiFePCO7
_chemical_formula_sum   'Li6 Fe6 P6 C6 O42'
_cell_volume   833.93043608
_cell_formula_units_Z   6
loop_
 _symmetry_equiv_pos_site_id
 _symmetry_equiv_pos_as_xyz
  1  'x, y, z'
loop_
 _atom_site_type_symbol
 _atom_site_label
 _atom_site_symmetry_multiplicity
 _atom_site_fract_x
 _atom_site_fract_y
 _atom_site_fract_z
 _atom_site_occupancy
  Li  Li0  1  0.11085957  0.77058603  0.41576472  1
  Li  Li1  1  0.11201879  0.76990584  0.75091188  1
  Li  Li2  1  0.73383537  0.74231439  0.99568920  1
  Li  Li3  1  0.89700269  0.23844206  0.91472734  1
  Li  Li4  1  0.89015688  0.22951694  0.24734181  1
  Li  Li5  1  0.88893242  0.22974377  0.58342065  1
  Fe  Fe6  1  0.33358275  0.80174499  0.91709488  1
  Fe  Fe7  1  0.33342068  0.80671927  0.24910531  1
  Fe  Fe8  1  0.33376427  0.80210423  0.58330951  1
  Fe  Fe9  1  0.66102617  0.20266735  0.08573552  1
  Fe  Fe10  1  0.66709050  0.19764895  0.75012970  1
  Fe  Fe11  1  0.66607688  0.19862787  0.41717680  1
  P  P12  1  0.42481994  0.72738993  0.75028013  1
  P  P13  1  0.41998949  0.72819551  0.08156817  1
  P  P14  1  0.42260180  0.72947641  0.41654816  1
  P  P15  1  0.57562259  0.27637224  0.25163211  1
  P  P16  1  0.57670076  0.27116605  0.58363264  1
  P  P17  1  0.57906589  0.26868865  0.91673467  1
  C  C18  1  0.04292127  0.70706395  0.24793615  1
  C  C19  1  0.04145708  0.70672261  0.58329851  1
  C  C20  1  0.03956966  0.71202184  0.92023249  1
  C  C21  1  0.95434045  0.29106337  0.08001587  1
  C  C22  1  0.95890180  0.29335210  0.41706105  1
  C  C23  1  0.95958989  0.29316666  0.74994616  1
  O  O24  1  0.07040333  0.94856084  0.25018278  1
  O  O25  1  0.06926778  0.94850484  0.58306162  1
  O  O26  1  0.06782499  0.95245770  0.91562915  1
  O  O27  1  0.09810207  0.33993582  0.08336390  1
  O  O28  1  0.09380252  0.38147491  0.41629912  1
  O  O29  1  0.09464912  0.38121858  0.74985442  1
  O  O30  1  0.16858129  0.54139560  0.58320297  1
  O  O31  1  0.17011745  0.54280910  0.24670307  1
  O  O32  1  0.16524745  0.54460233  0.91728749  1
  O  O33  1  0.31041398  0.80504351  0.01892811  1
  O  O34  1  0.32405312  0.81291287  0.14623880  1
  O  O35  1  0.30908144  0.79613489  0.35387119  1
  O  O36  1  0.30998018  0.79666678  0.47893990  1
  O  O37  1  0.31367969  0.78983541  0.81360437  1
  O  O38  1  0.31026003  0.79865915  0.68824430  1
  O  O39  1  0.42621894  0.12788596  0.91319027  1
  O  O40  1  0.42548817  0.12888279  0.25295710  1
  O  O41  1  0.42620866  0.12322606  0.58322898  1
  O  O42  1  0.46968905  0.43171401  0.08131833  1
  O  O43  1  0.47820640  0.43645359  0.41680419  1
  O  O44  1  0.47899472  0.43430497  0.74962948  1
  O  O45  1  0.52204673  0.56970674  0.25262391  1
  O  O46  1  0.52159222  0.56433709  0.58391353  1
  O  O47  1  0.53433945  0.56565468  0.92447316  1
  O  O48  1  0.57923005  0.86221624  0.07603138  1
  O  O49  1  0.57524025  0.87543042  0.75088666  1
  O  O50  1  0.57320468  0.87762972  0.41683466  1
  O  O51  1  0.68413999  0.21217430  0.18764141  1
  O  O52  1  0.69250052  0.20615614  0.31285675  1
  O  O53  1  0.68958398  0.20467436  0.52132429  1
  O  O54  1  0.69020723  0.20254852  0.64621827  1
  O  O55  1  0.69247105  0.21110882  0.85421798  1
  O  O56  1  0.69078623  0.17394177  0.97879393  1
  O  O57  1  0.83820322  0.47475484  0.07376029  1
  O  O58  1  0.83277340  0.45905944  0.75012337  1
  O  O59  1  0.83203845  0.45902879  0.41744905  1
  O  O60  1  0.90220053  0.62905849  0.92649250  1
  O  O61  1  0.90810696  0.61871120  0.24831653  1
  O  O62  1  0.90650230  0.61881838  0.58369113  1
  O  O63  1  0.91015833  0.05848524  0.08421936  1
  O  O64  1  0.93187079  0.05141679  0.75007491  1
  O  O65  1  0.93114866  0.05173231  0.41756097  1
