# generated using pymatgen
data_Li6Mn3V(PO4)6
_symmetry_space_group_name_H-M   'P 1'
_cell_length_a   8.74419184
_cell_length_b   8.53878200
_cell_length_c   8.48053689
_cell_angle_alpha   61.85463087
_cell_angle_beta   62.29474789
_cell_angle_gamma   61.29993560
_symmetry_Int_Tables_number   1
_chemical_formula_structural   Li6Mn3V(PO4)6
_chemical_formula_sum   'Li6 Mn3 V1 P6 O24'
_cell_volume   465.88658603
_cell_formula_units_Z   1
loop_
 _symmetry_equiv_pos_site_id
 _symmetry_equiv_pos_as_xyz
  1  'x, y, z'
loop_
 _atom_site_type_symbol
 _atom_site_label
 _atom_site_symmetry_multiplicity
 _atom_site_fract_x
 _atom_site_fract_y
 _atom_site_fract_z
 _atom_site_occupancy
  Li  Li0  1  0.02461237  0.01674924  0.98172275  1
  Li  Li1  1  0.74863771  0.16220245  0.34431476  1
  Li  Li2  1  0.47840956  0.50707253  0.49379613  1
  Li  Li3  1  0.26272062  0.83473594  0.65528596  1
  Li  Li4  1  0.64452287  0.27872745  0.84316870  1
  Li  Li5  1  0.85885118  0.65796931  0.26171925  1
  Mn  Mn6  1  0.14121701  0.14126848  0.14465929  1
  Mn  Mn7  1  0.35630947  0.35644900  0.35936403  1
  Mn  Mn8  1  0.64867753  0.65267544  0.64343947  1
  V  V9  1  0.85541697  0.85377785  0.85498224  1
  P  P10  1  0.05595162  0.75009065  0.44178348  1
  P  P11  1  0.44819462  0.05024025  0.75199875  1
  P  P12  1  0.74910696  0.45478302  0.04339436  1
  P  P13  1  0.24762308  0.53330505  0.96259799  1
  P  P14  1  0.54687874  0.96168009  0.25471215  1
  P  P15  1  0.95001154  0.24845814  0.54056654  1
  O  O16  1  0.12392862  0.27880383  0.49666486  1
  O  O17  1  0.31202260  0.49819879  0.12001766  1
  O  O18  1  0.06814499  0.91925476  0.25318943  1
  O  O19  1  0.53987063  0.12183783  0.29861413  1
  O  O20  1  0.24104698  0.58569438  0.43268845  1
  O  O21  1  0.01765299  0.80733696  0.60757897  1
  O  O22  1  0.26137653  0.07314441  0.90562908  1
  O  O23  1  0.44767443  0.23539456  0.57855766  1
  O  O24  1  0.60173468  0.44336366  0.23732635  1
  O  O25  1  0.17629228  0.37938992  0.00902195  1
  O  O26  1  0.09437929  0.73319455  0.93599159  1
  O  O27  1  0.37615910  0.00474605  0.21618831  1
  O  O28  1  0.60787074  0.01285664  0.81020002  1
  O  O29  1  0.89717734  0.25672361  0.06109086  1
  O  O30  1  0.81979615  0.61136348  0.99419038  1
  O  O31  1  0.40370698  0.54427680  0.77029108  1
  O  O32  1  0.56486232  0.76779530  0.42114060  1
  O  O33  1  0.73355485  0.92300406  0.09707967  1
  O  O34  1  0.95417137  0.19666625  0.38650279  1
  O  O35  1  0.76830437  0.42321003  0.55890843  1
  O  O36  1  0.47579858  0.88593542  0.69676240  1
  O  O37  1  0.91758191  0.09538978  0.74073762  1
  O  O38  1  0.67967850  0.49183441  0.88503944  1
  O  O39  1  0.90007291  0.69940063  0.46007941  1
