# generated using pymatgen
data_Li6Co3Ni(PO4)6
_symmetry_space_group_name_H-M   'P 1'
_cell_length_a   8.41291496
_cell_length_b   8.50538659
_cell_length_c   8.47702949
_cell_angle_alpha   62.45319142
_cell_angle_beta   62.80725608
_cell_angle_gamma   62.58654568
_symmetry_Int_Tables_number   1
_chemical_formula_structural   Li6Co3Ni(PO4)6
_chemical_formula_sum   'Li6 Co3 Ni1 P6 O24'
_cell_volume   453.88477521
_cell_formula_units_Z   1
loop_
 _symmetry_equiv_pos_site_id
 _symmetry_equiv_pos_as_xyz
  1  'x, y, z'
loop_
 _atom_site_type_symbol
 _atom_site_label
 _atom_site_symmetry_multiplicity
 _atom_site_fract_x
 _atom_site_fract_y
 _atom_site_fract_z
 _atom_site_occupancy
  Li  Li0  1  0.02517451  0.00525246  0.99183088  1
  Li  Li1  1  0.75322421  0.14959726  0.34931402  1
  Li  Li2  1  0.47710143  0.51019213  0.49322285  1
  Li  Li3  1  0.23411335  0.84369472  0.65811014  1
  Li  Li4  1  0.66119970  0.23664839  0.84190136  1
  Li  Li5  1  0.84066020  0.65993431  0.23207851  1
  Co  Co6  1  0.14312931  0.14683729  0.13904606  1
  Co  Co7  1  0.35444323  0.36028892  0.35437166  1
  Co  Co8  1  0.64839175  0.64750293  0.64774679  1
  Ni  Ni9  1  0.85638411  0.85411772  0.85402889  1
  P  P10  1  0.05235047  0.75083207  0.45030442  1
  P  P11  1  0.44938256  0.05053189  0.74882667  1
  P  P12  1  0.74921756  0.45443252  0.04985242  1
  P  P13  1  0.25098121  0.54216395  0.95816476  1
  P  P14  1  0.54243289  0.96084414  0.25130165  1
  P  P15  1  0.95605417  0.24970051  0.53958476  1
  O  O16  1  0.12860098  0.30293940  0.48972256  1
  O  O17  1  0.31368186  0.50968644  0.11767970  1
  O  O18  1  0.04893068  0.91742052  0.26450111  1
  O  O19  1  0.52836011  0.11800894  0.30543119  1
  O  O20  1  0.24278781  0.59182363  0.42873134  1
  O  O21  1  0.02954059  0.80690321  0.60933534  1
  O  O22  1  0.25832354  0.06985783  0.90365271  1
  O  O23  1  0.44959640  0.23492969  0.57818757  1
  O  O24  1  0.59356166  0.42640138  0.24488935  1
  O  O25  1  0.19118222  0.38068124  0.99499320  1
  O  O26  1  0.09132512  0.73433248  0.94298570  1
  O  O27  1  0.36862881  0.00456508  0.20421884  1
  O  O28  1  0.61156341  0.02727355  0.80425027  1
  O  O29  1  0.90401238  0.25853387  0.06830702  1
  O  O30  1  0.80809107  0.61037976  0.02634496  1
  O  O31  1  0.40778571  0.56445606  0.76291755  1
  O  O32  1  0.56357693  0.76575418  0.40868883  1
  O  O33  1  0.73053411  0.94089887  0.08759763  1
  O  O34  1  0.96825229  0.19779194  0.38168424  1
  O  O35  1  0.76396429  0.41012815  0.56899150  1
  O  O36  1  0.48435170  0.88630428  0.68980518  1
  O  O37  1  0.94626609  0.09038241  0.73091342  1
  O  O38  1  0.68524037  0.49008775  0.88820264  1
  O  O39  1  0.88760218  0.68688613  0.48927833  1
