# generated using pymatgen
data_BeClO
_symmetry_space_group_name_H-M   'P 1'
_cell_length_a   13.47143641
_cell_length_b   13.47143641
_cell_length_c   13.47143635
_cell_angle_alpha   11.53560065
_cell_angle_beta   11.53560065
_cell_angle_gamma   11.53560017
_symmetry_Int_Tables_number   1
_chemical_formula_structural   BeClO
_chemical_formula_sum   'Be2 Cl2 O2'
_cell_volume   84.95636985
_cell_formula_units_Z   2
loop_
 _symmetry_equiv_pos_site_id
 _symmetry_equiv_pos_as_xyz
  1  'x, y, z'
loop_
 _atom_site_type_symbol
 _atom_site_label
 _atom_site_symmetry_multiplicity
 _atom_site_fract_x
 _atom_site_fract_y
 _atom_site_fract_z
 _atom_site_occupancy
  Be  Be0  1  0.13434270  0.13434270  0.13434270  1
  Be  Be1  1  0.86565730  0.86565730  0.86565730  1
  Cl  Cl2  1  0.37913968  0.37913968  0.37913968  1
  Cl  Cl3  1  0.62086032  0.62086032  0.62086032  1
  O  O4  1  0.19969281  0.19969281  0.19969281  1
  O  O5  1  0.80030719  0.80030719  0.80030719  1
