# generated using pymatgen
data_Li4V3OF11
_symmetry_space_group_name_H-M   'P 1'
_cell_length_a   5.24981035
_cell_length_b   5.48028996
_cell_length_c   16.20643630
_cell_angle_alpha   100.34605134
_cell_angle_beta   89.75696106
_cell_angle_gamma   91.86881194
_symmetry_Int_Tables_number   1
_chemical_formula_structural   Li4V3OF11
_chemical_formula_sum   'Li8 V6 O2 F22'
_cell_volume   458.44138199
_cell_formula_units_Z   2
loop_
 _symmetry_equiv_pos_site_id
 _symmetry_equiv_pos_as_xyz
  1  'x, y, z'
loop_
 _atom_site_type_symbol
 _atom_site_label
 _atom_site_symmetry_multiplicity
 _atom_site_fract_x
 _atom_site_fract_y
 _atom_site_fract_z
 _atom_site_occupancy
  Li  Li0  1  0.48777916  0.98919049  0.10208059  1
  Li  Li1  1  0.33104302  0.98020120  0.51177892  1
  Li  Li2  1  0.54397588  0.65485895  0.22576507  1
  Li  Li3  1  0.01141709  0.54200743  0.09726333  1
  Li  Li4  1  0.83915322  0.53547852  0.49488051  1
  Li  Li5  1  0.78099827  0.63009339  0.82355802  1
  Li  Li6  1  0.97732424  0.18974734  0.22243307  1
  Li  Li7  1  0.23931271  0.18687875  0.84911716  1
  V  V8  1  0.00220495  0.67978112  0.33320693  1
  V  V9  1  0.49688211  0.50150762  0.99873160  1
  V  V10  1  0.50011366  0.83245166  0.67000692  1
  V  V11  1  0.99497766  0.99560974  0.99970788  1
  V  V12  1  0.99939926  0.32951655  0.66677497  1
  V  V13  1  0.49350902  0.17234069  0.33343085  1
  O  O14  1  0.77791838  0.71941179  0.02767906  1
  O  O15  1  0.22074588  0.29436055  0.98564483  1
  F  F16  1  0.17005677  0.98623213  0.29078142  1
  F  F17  1  0.64580547  0.85406365  0.34449644  1
  F  F18  1  0.08760817  0.75552664  0.45793850  1
  F  F19  1  0.37693868  0.61995171  0.11974974  1
  F  F20  1  0.41247731  0.91951892  0.78521180  1
  F  F21  1  0.91983451  0.94263177  0.88211947  1
  F  F22  1  0.58557448  0.75498519  0.55107015  1
  F  F23  1  0.88242281  0.53449142  0.20797283  1
  F  F24  1  0.18576267  0.62965110  0.64578262  1
  F  F25  1  0.33058091  0.45541799  0.29324945  1
  F  F26  1  0.31072660  0.78907171  0.97461584  1
  F  F27  1  0.69955440  0.23142941  0.04098018  1
  F  F28  1  0.69360293  0.54632496  0.70314498  1
  F  F29  1  0.82098409  0.36370281  0.36519676  1
  F  F30  1  0.07840523  0.40502158  0.78625412  1
  F  F31  1  0.40320911  0.23374853  0.44784084  1
  F  F32  1  0.12746228  0.07221454  0.11739116  1
  F  F33  1  0.62748364  0.06715040  0.21527861  1
  F  F34  1  0.58346958  0.41559121  0.88249003  1
  F  F35  1  0.90064415  0.27136433  0.55189263  1
  F  F36  1  0.30972321  0.11802045  0.63393161  1
  F  F37  1  0.81824349  0.03014874  0.68996610  1
