# generated using pymatgen
data_LiFe4(BO3)4
_symmetry_space_group_name_H-M   'P 1'
_cell_length_a   5.32594556
_cell_length_b   8.97087973
_cell_length_c   10.17064163
_cell_angle_alpha   90.31058777
_cell_angle_beta   90.93524696
_cell_angle_gamma   89.94046435
_symmetry_Int_Tables_number   1
_chemical_formula_structural   LiFe4(BO3)4
_chemical_formula_sum   'Li2 Fe8 B8 O24'
_cell_volume   485.86506314
_cell_formula_units_Z   2
loop_
 _symmetry_equiv_pos_site_id
 _symmetry_equiv_pos_as_xyz
  1  'x, y, z'
loop_
 _atom_site_type_symbol
 _atom_site_label
 _atom_site_symmetry_multiplicity
 _atom_site_fract_x
 _atom_site_fract_y
 _atom_site_fract_z
 _atom_site_occupancy
  Li  Li0  1  0.34747045  0.00831108  0.84255059  1
  Li  Li1  1  0.65955835  0.00163377  0.10402056  1
  Fe  Fe2  1  0.15776986  0.16495590  0.12426050  1
  Fe  Fe3  1  0.83891659  0.16909941  0.37194762  1
  Fe  Fe4  1  0.33394920  0.34170357  0.87183166  1
  Fe  Fe5  1  0.65894924  0.33491849  0.62286884  1
  Fe  Fe6  1  0.33616740  0.66555875  0.37018763  1
  Fe  Fe7  1  0.15302589  0.83013992  0.62003740  1
  Fe  Fe8  1  0.66286530  0.66082247  0.12456317  1
  Fe  Fe9  1  0.84723873  0.83185860  0.87179207  1
  B  B10  1  0.16273131  0.17139248  0.62727926  1
  B  B11  1  0.32769280  0.32896987  0.37655894  1
  B  B12  1  0.82476862  0.16893489  0.87194991  1
  B  B13  1  0.65829158  0.32964194  0.12143648  1
  B  B14  1  0.34160838  0.67190771  0.87252685  1
  B  B15  1  0.66574362  0.67141936  0.61837063  1
  B  B16  1  0.17449572  0.83097720  0.12313519  1
  B  B17  1  0.83051585  0.83060021  0.36838097  1
  O  O18  1  0.25688819  0.03168184  0.64703082  1
  O  O19  1  0.08256629  0.18078960  0.90097162  1
  O  O20  1  0.70109355  0.03764062  0.89462624  1
  O  O21  1  0.18939445  0.20608360  0.33325819  1
  O  O22  1  0.30156082  0.29642946  0.66749737  1
  O  O23  1  0.77775193  0.19974309  0.16994060  1
  O  O24  1  0.92272368  0.19212928  0.57197555  1
  O  O25  1  0.42470862  0.31174687  0.06039584  1
  O  O26  1  0.23359214  0.46885269  0.36979710  1
  O  O27  1  0.57105221  0.30350574  0.42783607  1
  O  O28  1  0.69411504  0.29274335  0.82305489  1
  O  O29  1  0.22562884  0.53789843  0.86020303  1
  O  O30  1  0.77110175  0.46437615  0.13486710  1
  O  O31  1  0.29985920  0.70422380  0.17123748  1
  O  O32  1  0.42406585  0.69729853  0.56597749  1
  O  O33  1  0.76070329  0.53188038  0.62543500  1
  O  O34  1  0.57323767  0.68910609  0.93478684  1
  O  O35  1  0.07224823  0.80861244  0.42261397  1
  O  O36  1  0.22484310  0.80072766  0.82064487  1
  O  O37  1  0.69416591  0.70519305  0.32663069  1
  O  O38  1  0.80427537  0.79407073  0.66293160  1
  O  O39  1  0.30081109  0.96133168  0.10492599  1
  O  O40  1  0.91729091  0.82012227  0.09102592  1
  O  O41  1  0.73444500  0.96974801  0.35470745  1
