# generated using pymatgen
data_LiFePCO7
_symmetry_space_group_name_H-M   'P 1'
_cell_length_a   9.50944147
_cell_length_b   8.23964611
_cell_length_c   8.25335434
_cell_angle_alpha   77.58728787
_cell_angle_beta   72.97138158
_cell_angle_gamma   107.29612257
_symmetry_Int_Tables_number   1
_chemical_formula_structural   LiFePCO7
_chemical_formula_sum   'Li4 Fe4 P4 C4 O28'
_cell_volume   557.13155332
_cell_formula_units_Z   4
loop_
 _symmetry_equiv_pos_site_id
 _symmetry_equiv_pos_as_xyz
  1  'x, y, z'
loop_
 _atom_site_type_symbol
 _atom_site_label
 _atom_site_symmetry_multiplicity
 _atom_site_fract_x
 _atom_site_fract_y
 _atom_site_fract_z
 _atom_site_occupancy
  Li  Li0  1  0.89156339  0.18420860  0.06446715  1
  Li  Li1  1  0.71484920  0.46457221  0.98595303  1
  Li  Li2  1  0.11245284  0.82151930  0.93296747  1
  Li  Li3  1  0.11102121  0.31946112  0.43340856  1
  Fe  Fe4  1  0.66193946  0.81054356  0.94294387  1
  Fe  Fe5  1  0.66608167  0.30657052  0.44790825  1
  Fe  Fe6  1  0.33062292  0.19042822  0.05970750  1
  Fe  Fe7  1  0.34014011  0.69516355  0.55607952  1
  P  P8  1  0.57573967  0.54678403  0.70349424  1
  P  P9  1  0.57829468  0.05470048  0.20031665  1
  P  P10  1  0.42421560  0.44616025  0.30006343  1
  P  P11  1  0.42155355  0.94865558  0.80127148  1
  C  C12  1  0.95623013  0.50249934  0.24754452  1
  C  C13  1  0.95606360  0.99522872  0.74774120  1
  C  C14  1  0.03810156  0.99896587  0.25016038  1
  C  C15  1  0.04508959  0.50262777  0.75652742  1
  O  O16  1  0.92779371  0.86167307  0.88519863  1
  O  O17  1  0.92872839  0.36945111  0.38432889  1
  O  O18  1  0.89722530  0.89558073  0.35426347  1
  O  O19  1  0.82895682  0.51717818  0.22468632  1
  O  O20  1  0.90579741  0.41057745  0.87255723  1
  O  O21  1  0.82992797  0.01460046  0.72766198  1
  O  O22  1  0.68759679  0.98210856  0.08102253  1
  O  O23  1  0.69454813  0.16892666  0.26995082  1
  O  O24  1  0.68006979  0.64439088  0.79485204  1
  O  O25  1  0.68085842  0.47052866  0.58818883  1
  O  O26  1  0.57914602  0.58823186  0.14351425  1
  O  O27  1  0.53175816  0.18775295  0.08081294  1
  O  O28  1  0.52843149  0.67687416  0.58545750  1
  O  O29  1  0.57389614  0.09628056  0.65217424  1
  O  O30  1  0.42764817  0.90588369  0.34779453  1
  O  O31  1  0.47763944  0.32435628  0.41763370  1
  O  O32  1  0.47438526  0.82797505  0.92212306  1
  O  O33  1  0.42058902  0.39620344  0.84924876  1
  O  O34  1  0.32096410  0.52695446  0.41185905  1
  O  O35  1  0.30827729  0.33106351  0.23120385  1
  O  O36  1  0.30966875  0.83235849  0.73036428  1
  O  O37  1  0.31209619  0.02059271  0.91939121  1
  O  O38  1  0.15733250  0.97158577  0.27759991  1
  O  O39  1  0.09058738  0.61465460  0.13591526  1
  O  O40  1  0.16773030  0.47048231  0.77163944  1
  O  O41  1  0.09071956  0.10802344  0.63772402  1
  O  O42  1  0.08729541  0.63640472  0.61347585  1
  O  O43  1  0.07218493  0.13588815  0.11214674  1
