# generated using pymatgen
data_Li6MnV3(PO4)6
_symmetry_space_group_name_H-M   'P 1'
_cell_length_a   10.25421240
_cell_length_b   10.21634906
_cell_length_c   10.25421282
_cell_angle_alpha   109.65419680
_cell_angle_beta   109.28216313
_cell_angle_gamma   109.65419370
_symmetry_Int_Tables_number   1
_chemical_formula_structural   Li6MnV3(PO4)6
_chemical_formula_sum   'Li12 Mn2 V6 P12 O48'
_cell_volume   825.12959323
_cell_formula_units_Z   2
loop_
 _symmetry_equiv_pos_site_id
 _symmetry_equiv_pos_as_xyz
  1  'x, y, z'
loop_
 _atom_site_type_symbol
 _atom_site_label
 _atom_site_symmetry_multiplicity
 _atom_site_fract_x
 _atom_site_fract_y
 _atom_site_fract_z
 _atom_site_occupancy
  Li  Li0  1  0.25059465  0.87525272  0.62517323  1
  Li  Li1  1  0.12517323  0.37525272  0.75059465  1
  Li  Li2  1  0.12592679  0.25000000  0.37407321  1
  Li  Li3  1  0.62522200  0.87639879  0.74968155  1
  Li  Li4  1  0.37524712  0.75000000  0.12475288  1
  Li  Li5  1  0.24968155  0.37639879  0.12522200  1
  Li  Li6  1  0.75031845  0.62360121  0.87477800  1
  Li  Li7  1  0.62475288  0.25000000  0.87524712  1
  Li  Li8  1  0.37477800  0.12360121  0.25031845  1
  Li  Li9  1  0.87407321  0.75000000  0.62592679  1
  Li  Li10  1  0.87482677  0.62474728  0.24940535  1
  Li  Li11  1  0.74940535  0.12474728  0.37482677  1
  Mn  Mn12  1  0.50000000  0.50000000  0.00000000  1
  Mn  Mn13  1  0.50000000  0.00000000  0.00000000  1
  V  V14  1  0.00000000  0.50000000  0.50000000  1
  V  V15  1  0.00000000  0.00000000  0.50000000  1
  V  V16  1  0.00000000  0.50000000  0.00000000  1
  V  V17  1  0.00000000  0.00000000  0.00000000  1
  V  V18  1  0.50000000  0.50000000  0.50000000  1
  V  V19  1  0.50000000  0.00000000  0.50000000  1
  P  P20  1  0.12291087  0.74839346  0.87477536  1
  P  P21  1  0.12516108  0.87469625  0.24946236  1
  P  P22  1  0.37483743  0.62600661  0.75089344  1
  P  P23  1  0.25053764  0.62530375  0.37483892  1
  P  P24  1  0.25089344  0.12600661  0.87483743  1
  P  P25  1  0.37477536  0.24839346  0.62291087  1
  P  P26  1  0.62522464  0.75160654  0.37708913  1
  P  P27  1  0.74946236  0.37469625  0.62516108  1
  P  P28  1  0.74910656  0.87399339  0.12516257  1
  P  P29  1  0.62516257  0.37399339  0.24910656  1
  P  P30  1  0.87483892  0.12530375  0.75053764  1
  P  P31  1  0.87708913  0.25160654  0.12522464  1
  O  O32  1  0.10982544  0.99547462  0.70144233  1
  O  O33  1  0.11467902  0.60781060  0.90787019  1
  O  O34  1  0.00717602  0.29952201  0.89048536  1
  O  O35  1  0.09039064  0.70625221  0.70151491  1
  O  O36  1  0.09098341  0.88262091  0.38805951  1
  O  O37  1  0.11194049  0.61737909  0.40901659  1
  O  O38  1  0.20144233  0.49547462  0.60982544  1
  O  O39  1  0.41157126  0.80321123  0.79556393  1
  O  O40  1  0.38101632  0.59234006  0.88800021  1
  O  O41  1  0.29556393  0.30321123  0.91157126  1
  O  O42  1  0.29728534  0.90864571  0.29086390  1
  O  O43  1  0.00892922  0.21104151  0.11932779  1
  O  O44  1  0.20151491  0.20625221  0.59039064  1
  O  O45  1  0.20913610  0.59135429  0.20271466  1
  O  O46  1  0.39048536  0.79952201  0.50717602  1
  O  O47  1  0.29386785  0.49452095  0.38396357  1
  O  O48  1  0.29487694  0.88804595  0.00699918  1
  O  O49  1  0.11603643  0.00547905  0.20613215  1
  O  O50  1  0.50470728  0.61808573  0.70693206  1
  O  O51  1  0.38800021  0.09234006  0.88101632  1
  O  O52  1  0.50699918  0.38804595  0.79487694  1
  O  O53  1  0.38067221  0.28895849  0.49107078  1
  O  O54  1  0.59212981  0.89218940  0.38532098  1
  O  O55  1  0.20693206  0.11808573  0.00470728  1
  O  O56  1  0.79306794  0.88191427  0.99529272  1
  O  O57  1  0.40787019  0.10781060  0.61468002  1
  O  O58  1  0.61932779  0.71104151  0.50892922  1
  O  O59  1  0.49300082  0.61195405  0.20512306  1
  O  O60  1  0.61199979  0.90765994  0.11898368  1
  O  O61  1  0.49529272  0.38191427  0.29306794  1
  O  O62  1  0.88396357  0.99452095  0.79386785  1
  O  O63  1  0.70512306  0.11195405  0.99300082  1
  O  O64  1  0.70613215  0.50547905  0.61603643  1
  O  O65  1  0.60951464  0.20047799  0.49282398  1
  O  O66  1  0.79086390  0.40864571  0.79728534  1
  O  O67  1  0.79848509  0.79374779  0.40960936  1
  O  O68  1  0.99107078  0.78895849  0.88067221  1
  O  O69  1  0.70271466  0.09135429  0.70913610  1
  O  O70  1  0.70443607  0.69678877  0.08842874  1
  O  O71  1  0.61898368  0.40765994  0.11199979  1
  O  O72  1  0.58842874  0.19678877  0.20443607  1
  O  O73  1  0.79855767  0.50452538  0.39017456  1
  O  O74  1  0.88805951  0.38262091  0.59098341  1
  O  O75  1  0.90901659  0.11737909  0.61194049  1
  O  O76  1  0.90960936  0.29374779  0.29848509  1
  O  O77  1  0.99282398  0.70047799  0.10951464  1
  O  O78  1  0.88531998  0.39218940  0.09212981  1
  O  O79  1  0.89017456  0.00452538  0.29855767  1
