# generated using pymatgen
data_Li3V2F8
_symmetry_space_group_name_H-M   'P 1'
_cell_length_a   6.12402843
_cell_length_b   5.44392463
_cell_length_c   9.49458930
_cell_angle_alpha   90.00000000
_cell_angle_beta   94.23022903
_cell_angle_gamma   90.00000000
_symmetry_Int_Tables_number   1
_chemical_formula_structural   Li3V2F8
_chemical_formula_sum   'Li6 V4 F16'
_cell_volume   315.67538729
_cell_formula_units_Z   2
loop_
 _symmetry_equiv_pos_site_id
 _symmetry_equiv_pos_as_xyz
  1  'x, y, z'
loop_
 _atom_site_type_symbol
 _atom_site_label
 _atom_site_symmetry_multiplicity
 _atom_site_fract_x
 _atom_site_fract_y
 _atom_site_fract_z
 _atom_site_occupancy
  Li  Li0  1  0.12493247  0.47922170  0.72361665  1
  Li  Li1  1  0.12493247  0.02077830  0.22361665  1
  Li  Li2  1  0.50000000  0.50000000  0.50000000  1
  Li  Li3  1  0.50000000  0.00000000  0.00000000  1
  Li  Li4  1  0.87506653  0.97922170  0.77638335  1
  Li  Li5  1  0.87506653  0.52077830  0.27638335  1
  V  V6  1  0.37368112  0.98930673  0.62779601  1
  V  V7  1  0.37368112  0.51069327  0.12779601  1
  V  V8  1  0.62631888  0.48930673  0.87220399  1
  V  V9  1  0.62631888  0.01069327  0.37220399  1
  F  F10  1  0.10068752  0.13759825  0.69089639  1
  F  F11  1  0.10068752  0.36240175  0.19089639  1
  F  F12  1  0.23912641  0.66128214  0.57536424  1
  F  F13  1  0.33393236  0.34729174  0.93174542  1
  F  F14  1  0.23912641  0.83871786  0.07536424  1
  F  F15  1  0.33393236  0.15270826  0.43174542  1
  F  F16  1  0.45748613  0.81892073  0.81685734  1
  F  F17  1  0.45748613  0.68107927  0.31685734  1
  F  F18  1  0.54251387  0.31892073  0.68314266  1
  F  F19  1  0.54251387  0.18107927  0.18314266  1
  F  F20  1  0.66606764  0.84729174  0.56825458  1
  F  F21  1  0.76087359  0.16128214  0.92463576  1
  F  F22  1  0.66606764  0.65270826  0.06825458  1
  F  F23  1  0.76087359  0.33871786  0.42463576  1
  F  F24  1  0.89931248  0.63759825  0.80910361  1
  F  F25  1  0.89931248  0.86240175  0.30910361  1
