# generated using pymatgen
data_Li3Fe8(BO3)8
_symmetry_space_group_name_H-M   'P 1'
_cell_length_a   5.23560933
_cell_length_b   5.26274021
_cell_length_c   20.13812708
_cell_angle_alpha   89.93499256
_cell_angle_beta   90.52528560
_cell_angle_gamma   60.79776856
_symmetry_Int_Tables_number   1
_chemical_formula_structural   Li3Fe8(BO3)8
_chemical_formula_sum   'Li3 Fe8 B8 O24'
_cell_volume   484.32518369
_cell_formula_units_Z   1
loop_
 _symmetry_equiv_pos_site_id
 _symmetry_equiv_pos_as_xyz
  1  'x, y, z'
loop_
 _atom_site_type_symbol
 _atom_site_label
 _atom_site_symmetry_multiplicity
 _atom_site_fract_x
 _atom_site_fract_y
 _atom_site_fract_z
 _atom_site_occupancy
  Li  Li0  1  0.32550477  0.64978226  0.67114507  1
  Li  Li1  1  0.35622696  0.67017775  0.92018490  1
  Li  Li2  1  0.65934959  0.34989089  0.54330390  1
  Fe  Fe3  1  0.98680275  0.67371938  0.81111480  1
  Fe  Fe4  1  0.00218924  0.67196087  0.30943398  1
  Fe  Fe5  1  0.68527746  0.01141940  0.93852739  1
  Fe  Fe6  1  0.67296401  0.99557059  0.43293318  1
  Fe  Fe7  1  0.31984017  0.00637062  0.55976786  1
  Fe  Fe8  1  0.32555988  0.00152254  0.06092838  1
  Fe  Fe9  1  0.99005988  0.32037604  0.68791455  1
  Fe  Fe10  1  0.99935211  0.32729482  0.18554352  1
  B  B11  1  0.00304881  0.34328611  0.93654534  1
  B  B12  1  0.00078798  0.33722182  0.43460879  1
  B  B13  1  0.33094736  0.00832113  0.81338782  1
  B  B14  1  0.34084348  0.00298829  0.31071508  1
  B  B15  1  0.65691813  0.99813415  0.68647508  1
  B  B16  1  0.65780463  0.99894669  0.18672991  1
  B  B17  1  0.99683571  0.66464075  0.55927664  1
  B  B18  1  0.99719412  0.66265214  0.06307628  1
  O  O19  1  0.10753140  0.27313166  0.79045865  1
  O  O20  1  0.12232141  0.26979447  0.28543458  1
  O  O21  1  0.25635672  0.09000999  0.95895523  1
  O  O22  1  0.03070069  0.58345202  0.91478781  1
  O  O23  1  0.27201318  0.11127668  0.45388818  1
  O  O24  1  0.98412793  0.59605825  0.41131370  1
  O  O25  1  0.60017426  0.98180584  0.83123546  1
  O  O26  1  0.26041282  0.66090183  0.56766642  1
  O  O27  1  0.60285428  0.99087127  0.33273792  1
  O  O28  1  0.23872715  0.69606069  0.06171914  1
  O  O29  1  0.28969881  0.77131143  0.82099680  1
  O  O30  1  0.29924499  0.76937131  0.31405829  1
  O  O31  1  0.64686779  0.26222994  0.68202351  1
  O  O32  1  0.70100141  0.23175249  0.18500267  1
  O  O33  1  0.73811839  0.35582787  0.93582280  1
  O  O34  1  0.41209779  0.97305186  0.66846177  1
  O  O35  1  0.75379030  0.31105508  0.44117702  1
  O  O36  1  0.39791681  0.01103907  0.16451891  1
  O  O37  1  0.97365080  0.42046137  0.57595125  1
  O  O38  1  0.01519715  0.40081374  0.08552238  1
  O  O39  1  0.74748042  0.91596981  0.53500550  1
  O  O40  1  0.72741945  0.88335969  0.04118836  1
  O  O41  1  0.91844934  0.74694347  0.70751592  1
  O  O42  1  0.87655863  0.73020393  0.21224429  1
