# generated using pymatgen
data_Li3MnV(PO4)3
_symmetry_space_group_name_H-M   'P 1'
_cell_length_a   8.37598759
_cell_length_b   8.78706168
_cell_length_c   12.63026698
_cell_angle_alpha   91.09618168
_cell_angle_beta   88.06439293
_cell_angle_gamma   89.19797542
_symmetry_Int_Tables_number   1
_chemical_formula_structural   Li3MnV(PO4)3
_chemical_formula_sum   'Li12 Mn4 V4 P12 O48'
_cell_volume   928.79149990
_cell_formula_units_Z   4
loop_
 _symmetry_equiv_pos_site_id
 _symmetry_equiv_pos_as_xyz
  1  'x, y, z'
loop_
 _atom_site_type_symbol
 _atom_site_label
 _atom_site_symmetry_multiplicity
 _atom_site_fract_x
 _atom_site_fract_y
 _atom_site_fract_z
 _atom_site_occupancy
  Li  Li0  1  0.00008569  0.00018320  0.00308952  1
  Li  Li1  1  0.00172501  0.10598482  0.24525535  1
  Li  Li2  1  0.99678948  0.01039660  0.49751269  1
  Li  Li3  1  0.98803921  0.89520319  0.75759956  1
  Li  Li4  1  0.28682362  0.81010332  0.04525355  1
  Li  Li5  1  0.28904561  0.18640480  0.54810236  1
  Li  Li6  1  0.50361622  0.50381039  0.00206786  1
  Li  Li7  1  0.50141923  0.39222274  0.25481964  1
  Li  Li8  1  0.51044244  0.49477595  0.50261552  1
  Li  Li9  1  0.49774292  0.60053472  0.74837341  1
  Li  Li10  1  0.71461809  0.81994014  0.44916962  1
  Li  Li11  1  0.70947306  0.19145542  0.95394188  1
  Mn  Mn12  1  0.21023588  0.49981952  0.14639037  1
  Mn  Mn13  1  0.71636261  0.00139444  0.64414402  1
  Mn  Mn14  1  0.78863435  0.50352423  0.35322309  1
  Mn  Mn15  1  0.78868010  0.49870481  0.85404210  1
  V  V16  1  0.21207555  0.50209786  0.64272185  1
  V  V17  1  0.28494359  0.99725101  0.35866632  1
  V  V18  1  0.28484811  0.00130601  0.85686315  1
  V  V19  1  0.71621793  0.99753355  0.14279152  1
  P  P20  1  0.00099882  0.79870874  0.24976286  1
  P  P21  1  0.00053332  0.20417983  0.74923780  1
  P  P22  1  0.15795002  0.35749877  0.39582618  1
  P  P23  1  0.15773959  0.64311066  0.89193836  1
  P  P24  1  0.34197394  0.14436085  0.10367566  1
  P  P25  1  0.35068842  0.85569744  0.60236708  1
  P  P26  1  0.50157927  0.70283165  0.24763281  1
  P  P27  1  0.50293431  0.29193598  0.74956089  1
  P  P28  1  0.65295983  0.14568987  0.39589818  1
  P  P29  1  0.65986171  0.85057156  0.89897216  1
  P  P30  1  0.84067138  0.35601933  0.10732900  1
  P  P31  1  0.83084747  0.64682428  0.60572431  1
  O  O32  1  0.00731480  0.42550692  0.10611281  1
  O  O33  1  0.00081402  0.58329850  0.60826320  1
  O  O34  1  0.07077278  0.90983666  0.33438571  1
  O  O35  1  0.06961232  0.09586851  0.83388367  1
  O  O36  1  0.13032408  0.70239037  0.18844763  1
  O  O37  1  0.12610958  0.29799790  0.68999152  1
  O  O38  1  0.13993339  0.18027048  0.40868486  1
  O  O39  1  0.13559740  0.82165028  0.90290026  1
  O  O40  1  0.25882628  0.39963588  0.29791794  1
  O  O41  1  0.24701681  0.05666819  0.01759964  1
  O  O42  1  0.25041584  0.40782896  0.49568295  1
  O  O43  1  0.24885087  0.59778433  0.78693122  1
  O  O44  1  0.25071676  0.94399709  0.52043219  1
  O  O45  1  0.26820047  0.09263330  0.21039886  1
  O  O46  1  0.26256211  0.59670223  0.98487713  1
  O  O47  1  0.27921988  0.90508427  0.71216864  1
  O  O48  1  0.33360377  0.32035645  0.09041240  1
  O  O49  1  0.34593193  0.67983503  0.58673809  1
  O  O50  1  0.38117546  0.79894642  0.31367951  1
  O  O51  1  0.38675784  0.19449289  0.81267193  1
  O  O52  1  0.42813745  0.59053547  0.16430002  1
  O  O53  1  0.43055450  0.39812819  0.66529839  1
  O  O54  1  0.47462904  0.09943246  0.40985095  1
  O  O55  1  0.47952480  0.89282589  0.90673376  1
  O  O56  1  0.52239235  0.10686354  0.09087474  1
  O  O57  1  0.52989002  0.89634565  0.58928014  1
  O  O58  1  0.57781193  0.59630672  0.33251546  1
  O  O59  1  0.57552554  0.40156053  0.83516225  1
  O  O60  1  0.61672707  0.80073148  0.18444795  1
  O  O61  1  0.62494000  0.19333807  0.68500169  1
  O  O62  1  0.64914934  0.32003841  0.41396604  1
  O  O63  1  0.66039835  0.67394953  0.91296328  1
  O  O64  1  0.72120701  0.10055643  0.28354027  1
  O  O65  1  0.73680400  0.40311085  0.01395362  1
  O  O66  1  0.74363907  0.90074932  0.79599325  1
  O  O67  1  0.75711559  0.05488463  0.47243011  1
  O  O68  1  0.74741757  0.39719696  0.21143944  1
  O  O69  1  0.73792622  0.60214719  0.50549735  1
  O  O70  1  0.75198047  0.93560692  0.98749771  1
  O  O71  1  0.73112488  0.60229906  0.70362656  1
  O  O72  1  0.86569657  0.17785579  0.09394071  1
  O  O73  1  0.85409983  0.82606530  0.59672558  1
  O  O74  1  0.87336276  0.71060780  0.30998102  1
  O  O75  1  0.87113793  0.29785546  0.81186235  1
  O  O76  1  0.93523632  0.90782327  0.16435238  1
  O  O77  1  0.93164922  0.09309185  0.66394009  1
  O  O78  1  0.98765692  0.42249472  0.39365269  1
  O  O79  1  0.98995709  0.57674016  0.89442635  1
