# generated using pymatgen
data_Li3Fe3WO8
_symmetry_space_group_name_H-M   'P 1'
_cell_length_a   10.45383387
_cell_length_b   10.54574549
_cell_length_c   14.83789819
_cell_angle_alpha   19.99329836
_cell_angle_beta   19.67269065
_cell_angle_gamma   34.10307591
_symmetry_Int_Tables_number   1
_chemical_formula_structural   Li3Fe3WO8
_chemical_formula_sum   'Li3 Fe3 W1 O8'
_cell_volume   163.71392802
_cell_formula_units_Z   1
loop_
 _symmetry_equiv_pos_site_id
 _symmetry_equiv_pos_as_xyz
  1  'x, y, z'
loop_
 _atom_site_type_symbol
 _atom_site_label
 _atom_site_symmetry_multiplicity
 _atom_site_fract_x
 _atom_site_fract_y
 _atom_site_fract_z
 _atom_site_occupancy
  Li  Li0  1  -0.00004206  0.50002538  0.50000591  1
  Li  Li1  1  0.49996766  0.00001411  0.50000726  1
  Li  Li2  1  0.49993377  0.50000516  0.50003453  1
  Fe  Fe3  1  -0.00034622  0.49974870  0.00041142  1
  Fe  Fe4  1  0.50051194  0.00038188  -0.00063694  1
  Fe  Fe5  1  0.50032017  0.49969526  0.00009365  1
  W  W6  1  -0.00004740  0.00002565  0.00000249  1
  O  O7  1  0.01132612  0.03730616  0.23094149  1
  O  O8  1  0.01518539  0.56180945  0.20777003  1
  O  O9  1  0.52843123  0.97773781  0.25249400  1
  O  O10  1  0.98859746  0.96270701  0.76909916  1
  O  O11  1  0.45281697  0.43674671  0.33098640  1
  O  O12  1  0.98479336  0.43821503  0.79221282  1
  O  O13  1  0.47147972  0.02230182  0.74751971  1
  O  O14  1  0.54707291  0.56328086  0.66905908  1
