# generated using pymatgen
data_Li3MnV(PO4)3
_symmetry_space_group_name_H-M   'P 1'
_cell_length_a   8.77410510
_cell_length_b   8.77748119
_cell_length_c   14.47232101
_cell_angle_alpha   106.05754175
_cell_angle_beta   73.94362538
_cell_angle_gamma   118.81117171
_symmetry_Int_Tables_number   1
_chemical_formula_structural   Li3MnV(PO4)3
_chemical_formula_sum   'Li12 Mn4 V4 P12 O48'
_cell_volume   924.81832876
_cell_formula_units_Z   4
loop_
 _symmetry_equiv_pos_site_id
 _symmetry_equiv_pos_as_xyz
  1  'x, y, z'
loop_
 _atom_site_type_symbol
 _atom_site_label
 _atom_site_symmetry_multiplicity
 _atom_site_fract_x
 _atom_site_fract_y
 _atom_site_fract_z
 _atom_site_occupancy
  Li  Li0  1  0.01386603  0.85755687  0.11169290  1
  Li  Li1  1  0.99778750  0.49882141  0.99863498  1
  Li  Li2  1  0.10740340  0.76522776  0.63873766  1
  Li  Li3  1  0.25394639  0.25237590  0.24828721  1
  Li  Li4  1  0.48660088  0.64345748  0.38643006  1
  Li  Li5  1  0.39228976  0.73547129  0.86203151  1
  Li  Li6  1  0.60510920  0.26463337  0.13705668  1
  Li  Li7  1  0.51632920  0.35781073  0.61165990  1
  Li  Li8  1  0.75236983  0.75179429  0.74883219  1
  Li  Li9  1  0.50294326  0.00213033  0.50139483  1
  Li  Li10  1  0.89342093  0.23609544  0.36365462  1
  Li  Li11  1  0.98427387  0.14466855  0.88709788  1
  Mn  Mn12  1  0.07156927  0.42436475  0.78463244  1
  Mn  Mn13  1  0.32474084  0.17624804  0.03471084  1
  Mn  Mn14  1  0.42901810  0.07792167  0.71510906  1
  Mn  Mn15  1  0.82926222  0.67891588  0.53466937  1
  V  V16  1  0.17567833  0.31871996  0.46279319  1
  V  V17  1  0.56919245  0.92361307  0.28691212  1
  V  V18  1  0.67181282  0.81613226  0.96279222  1
  V  V19  1  0.93150832  0.57676172  0.21261514  1
  P  P20  1  0.33111688  0.86809010  0.11752156  1
  P  P21  1  0.16847386  0.63331717  0.38198885  1
  P  P22  1  0.06933109  0.81693872  0.87355693  1
  P  P23  1  0.11871669  0.08410345  0.63499808  1
  P  P24  1  0.43025447  0.67923001  0.62404791  1
  P  P25  1  0.61822403  0.58204108  0.13299231  1
  P  P26  1  0.38100984  0.41630493  0.86830850  1
  P  P27  1  0.57399404  0.32350274  0.37438495  1
  P  P28  1  0.88158787  0.91721317  0.37010851  1
  P  P29  1  0.92553644  0.17350502  0.12386983  1
  P  P30  1  0.83461379  0.37069996  0.61688412  1
  P  P31  1  0.66415909  0.13065110  0.88197892  1
  O  O32  1  0.14113205  0.71914006  0.11343333  1
  O  O33  1  0.08882037  0.61791676  0.29700231  1
  O  O34  1  0.05805779  0.67073500  0.48132717  1
  O  O35  1  0.44296764  0.83351165  0.01917465  1
  O  O36  1  0.40914397  0.88539839  0.20358141  1
  O  O37  1  0.10825447  0.18537173  0.12698047  1
  O  O38  1  0.18875571  0.88759896  0.78026249  1
  O  O39  1  0.17880452  0.45347549  0.36531346  1
  O  O40  1  0.13724515  0.93280573  0.96858643  1
  O  O41  1  0.03136242  0.10780185  0.36577951  1
  O  O42  1  0.35872265  0.78206902  0.38655979  1
  O  O43  1  0.05794694  0.63390150  0.87664348  1
  O  O44  1  0.44090935  0.86073625  0.61989624  1
  O  O45  1  0.13674396  0.16059770  0.54797878  1
  O  O46  1  0.63081647  0.65862548  0.04727662  1
  O  O47  1  0.35511260  0.55618105  0.53112028  1
  O  O48  1  0.08208889  0.19913561  0.73279822  1
  O  O49  1  0.47004598  0.39452956  0.14129622  1
  O  O50  1  0.31548568  0.61168024  0.71919311  1
  O  O51  1  0.58751169  0.69848414  0.23127763  1
  O  O52  1  0.32015781  0.04880577  0.13337027  1
  O  O53  1  0.20082541  0.42750083  0.88327881  1
  O  O54  1  0.39072611  0.30752543  0.36950126  1
  O  O55  1  0.70295490  0.92976614  0.38608165  1
  O  O56  1  0.30197299  0.07671350  0.61912359  1
  O  O57  1  0.61381223  0.69147440  0.62550668  1
  O  O58  1  0.79961961  0.57308187  0.11497008  1
  O  O59  1  0.67259330  0.94962122  0.86550336  1
  O  O60  1  0.41873869  0.30645543  0.76910326  1
  O  O61  1  0.69638049  0.39674742  0.28125439  1
  O  O62  1  0.52921058  0.60623963  0.86420654  1
  O  O63  1  0.91631111  0.80615255  0.27076966  1
  O  O64  1  0.63991229  0.43968596  0.46910914  1
  O  O65  1  0.36196406  0.33649199  0.95434149  1
  O  O66  1  0.86709381  0.83867678  0.45534297  1
  O  O67  1  0.55831248  0.13952775  0.37659905  1
  O  O68  1  0.94234024  0.35762139  0.12123205  1
  O  O69  1  0.64705101  0.22292712  0.60914156  1
  O  O70  1  0.97276419  0.89671661  0.64274386  1
  O  O71  1  0.85292578  0.05322265  0.03059456  1
  O  O72  1  0.82465675  0.55235661  0.63260950  1
  O  O73  1  0.80616131  0.10363680  0.21838309  1
  O  O74  1  0.88592649  0.80231544  0.87065969  1
  O  O75  1  0.58713341  0.11725685  0.79596831  1
  O  O76  1  0.55012786  0.16635723  0.98105529  1
  O  O77  1  0.95140189  0.33927897  0.51914904  1
  O  O78  1  0.91077009  0.38799376  0.70408156  1
  O  O79  1  0.85208816  0.27783850  0.89045640  1
