# generated using pymatgen
data_Li3MnV(PO4)3
_symmetry_space_group_name_H-M   'P 1'
_cell_length_a   8.41919421
_cell_length_b   8.83438327
_cell_length_c   12.47743820
_cell_angle_alpha   89.14184326
_cell_angle_beta   88.11902907
_cell_angle_gamma   89.88984551
_symmetry_Int_Tables_number   1
_chemical_formula_structural   Li3MnV(PO4)3
_chemical_formula_sum   'Li12 Mn4 V4 P12 O48'
_cell_volume   927.44669776
_cell_formula_units_Z   4
loop_
 _symmetry_equiv_pos_site_id
 _symmetry_equiv_pos_as_xyz
  1  'x, y, z'
loop_
 _atom_site_type_symbol
 _atom_site_label
 _atom_site_symmetry_multiplicity
 _atom_site_fract_x
 _atom_site_fract_y
 _atom_site_fract_z
 _atom_site_occupancy
  Li  Li0  1  0.00390562  0.99841542  0.00051718  1
  Li  Li1  1  0.00040916  0.10344246  0.25110621  1
  Li  Li2  1  0.00149469  0.99979887  0.50041820  1
  Li  Li3  1  0.01455022  0.89220460  0.74814550  1
  Li  Li4  1  0.28788817  0.81308103  0.04602309  1
  Li  Li5  1  0.28662193  0.19189724  0.54871775  1
  Li  Li6  1  0.50466870  0.50846947  0.00043081  1
  Li  Li7  1  0.50326158  0.39791708  0.25151065  1
  Li  Li8  1  0.49893727  0.50221890  0.50008133  1
  Li  Li9  1  0.49657332  0.60668832  0.75310810  1
  Li  Li10  1  0.71204185  0.80374519  0.45068389  1
  Li  Li11  1  0.71681019  0.18993337  0.94634933  1
  Mn  Mn12  1  0.21192918  0.49697750  0.64703627  1
  Mn  Mn13  1  0.28720830  0.00665130  0.85695536  1
  Mn  Mn14  1  0.78932696  0.50153582  0.35280123  1
  Mn  Mn15  1  0.78908474  0.49836839  0.85471123  1
  V  V16  1  0.21365902  0.49983235  0.14380065  1
  V  V17  1  0.28510362  0.99612257  0.35780592  1
  V  V18  1  0.71621867  0.99972766  0.14092305  1
  V  V19  1  0.71624359  0.00237521  0.64192953  1
  P  P20  1  0.00082981  0.79732420  0.25058082  1
  P  P21  1  0.00245768  0.19705131  0.74909728  1
  P  P22  1  0.15560867  0.35532345  0.39346026  1
  P  P23  1  0.15546953  0.64453927  0.89563454  1
  P  P24  1  0.34594598  0.14669180  0.10410937  1
  P  P25  1  0.34737591  0.85122735  0.60258524  1
  P  P26  1  0.50318411  0.70622134  0.24902286  1
  P  P27  1  0.50113385  0.29589211  0.74964934  1
  P  P28  1  0.65366301  0.14665787  0.39586953  1
  P  P29  1  0.64422281  0.85666449  0.89800937  1
  P  P30  1  0.83940426  0.35635336  0.10246681  1
  P  P31  1  0.84599992  0.64284113  0.60855550  1
  O  O32  1  0.00702504  0.41751593  0.10672192  1
  O  O33  1  0.01614397  0.58170755  0.60690965  1
  O  O34  1  0.06897042  0.90713876  0.33488435  1
  O  O35  1  0.07738336  0.08769555  0.83516408  1
  O  O36  1  0.12651428  0.70184222  0.19131842  1
  O  O37  1  0.12772832  0.29118605  0.68585115  1
  O  O38  1  0.13923258  0.17823954  0.40637217  1
  O  O39  1  0.13775837  0.82083002  0.90799341  1
  O  O40  1  0.24721648  0.40302028  0.28936892  1
  O  O41  1  0.24495122  0.05826997  0.02414909  1
  O  O42  1  0.25703805  0.40504266  0.48791805  1
  O  O43  1  0.25370935  0.59927367  0.79563178  1
  O  O44  1  0.25021908  0.93658599  0.51546253  1
  O  O45  1  0.27496511  0.09933141  0.21566447  1
  O  O46  1  0.25155900  0.59299805  0.99470509  1
  O  O47  1  0.26829251  0.90095794  0.70910103  1
  O  O48  1  0.34190471  0.32121412  0.08801717  1
  O  O49  1  0.34898725  0.67623649  0.58969025  1
  O  O50  1  0.38270043  0.80139164  0.31214671  1
  O  O51  1  0.38366459  0.20195116  0.81766063  1
  O  O52  1  0.43277304  0.59583343  0.16664153  1
  O  O53  1  0.42320576  0.40410006  0.66397805  1
  O  O54  1  0.47623933  0.10377073  0.40863778  1
  O  O55  1  0.46508881  0.90142481  0.91105552  1
  O  O56  1  0.52437112  0.10649641  0.09170960  1
  O  O57  1  0.52518945  0.89540919  0.59151508  1
  O  O58  1  0.57894624  0.60108434  0.33789430  1
  O  O59  1  0.57639066  0.40528132  0.83220757  1
  O  O60  1  0.62015978  0.80514950  0.18491682  1
  O  O61  1  0.61682690  0.19952511  0.68410717  1
  O  O62  1  0.65322252  0.32209795  0.40690162  1
  O  O63  1  0.64097476  0.68411553  0.91384260  1
  O  O64  1  0.72984966  0.09561942  0.28787740  1
  O  O65  1  0.74421542  0.40975575  0.00223887  1
  O  O66  1  0.71607359  0.90620279  0.78771681  1
  O  O67  1  0.75249475  0.06192457  0.48227939  1
  O  O68  1  0.73848637  0.40010400  0.20153309  1
  O  O69  1  0.74343279  0.59173357  0.51543633  1
  O  O70  1  0.74497334  0.94367448  0.98009983  1
  O  O71  1  0.75547771  0.59723956  0.71437842  1
  O  O72  1  0.85582894  0.18013877  0.08805934  1
  O  O73  1  0.86152161  0.81942768  0.59575265  1
  O  O74  1  0.87245395  0.70614589  0.31385414  1
  O  O75  1  0.87527945  0.28285952  0.81242987  1
  O  O76  1  0.93275973  0.90766568  0.16372886  1
  O  O77  1  0.93536766  0.08580719  0.66506977  1
  O  O78  1  0.98517113  0.41604626  0.39489381  1
  O  O79  1  0.98603110  0.58274411  0.89441472  1
