# generated using pymatgen
data_Li2V2Cr(PO4)3
_symmetry_space_group_name_H-M   'P 1'
_cell_length_a   8.45217322
_cell_length_b   8.97951296
_cell_length_c   8.97951309
_cell_angle_alpha   60.11646203
_cell_angle_beta   59.63487191
_cell_angle_gamma   59.63487445
_symmetry_Int_Tables_number   1
_chemical_formula_structural   Li2V2Cr(PO4)3
_chemical_formula_sum   'Li4 V4 Cr2 P6 O24'
_cell_volume   479.64117615
_cell_formula_units_Z   2
loop_
 _symmetry_equiv_pos_site_id
 _symmetry_equiv_pos_as_xyz
  1  'x, y, z'
loop_
 _atom_site_type_symbol
 _atom_site_label
 _atom_site_symmetry_multiplicity
 _atom_site_fract_x
 _atom_site_fract_y
 _atom_site_fract_z
 _atom_site_occupancy
  Li  Li0  1  0.25000000  0.85831183  0.64168817  1
  Li  Li1  1  0.75000000  0.16035006  0.33964994  1
  Li  Li2  1  0.74522439  0.74607814  0.15538694  1
  Li  Li3  1  0.75477561  0.34461306  0.75392186  1
  V  V4  1  0.06463544  0.64456762  0.64478196  1
  V  V5  1  0.55161620  0.15103141  0.14882436  1
  V  V6  1  0.43536456  0.85521804  0.85543238  1
  V  V7  1  0.94838380  0.35117564  0.34896859  1
  Cr  Cr8  1  0.00315904  0.99594466  0.00542766  1
  Cr  Cr9  1  0.49684096  0.49457234  0.50405534  1
  P  P10  1  0.25705635  0.25271519  0.55637044  1
  P  P11  1  0.24294365  0.94362956  0.24728481  1
  P  P12  1  0.25000000  0.55889233  0.94110767  1
  P  P13  1  0.75000000  0.45988619  0.04011381  1
  P  P14  1  0.76789696  0.03813346  0.74922712  1
  P  P15  1  0.73210304  0.75077288  0.46186654  1
  O  O16  1  0.05616037  0.09958997  0.30237713  1
  O  O17  1  0.06152396  0.53483576  0.09625580  1
  O  O18  1  0.06491544  0.31094983  0.53156669  1
  O  O19  1  0.24525315  0.08825299  0.74272079  1
  O  O20  1  0.44383963  0.19762287  0.40041003  1
  O  O21  1  0.27133678  0.40747153  0.57978635  1
  O  O22  1  0.22866322  0.92021365  0.09252847  1
  O  O23  1  0.25474685  0.75727921  0.41174701  1
  O  O24  1  0.56664921  0.61147141  -0.00149756  1
  O  O25  1  0.26571671  0.58833737  0.74533639  1
  O  O26  1  0.77110467  0.26732198  0.05936362  1
  O  O27  1  0.59524977  0.98073067  0.81920681  1
  O  O28  1  0.43508456  0.96843331  0.18905017  1
  O  O29  1  0.23428329  0.75466361  0.91166263  1
  O  O30  1  0.72889533  0.44063638  0.23267802  1
  O  O31  1  0.43847604  0.40374420  0.96516424  1
  O  O32  1  0.73594975  0.23203677  0.59890801  1
  O  O33  1  0.78434443  0.06372562  0.90354727  1
  O  O34  1  0.71565557  0.59645273  0.43627438  1
  O  O35  1  0.53909138  0.81723646  0.60728049  1
  O  O36  1  0.76405025  0.90109199  0.26796323  1
  O  O37  1  0.90475023  0.68079319  0.51926933  1
  O  O38  1  0.93335079  0.50149756  0.88852859  1
  O  O39  1  0.96090862  0.89271951  0.68276354  1
