# generated using pymatgen
data_Li3Co2(SiO4)2
_symmetry_space_group_name_H-M   'P 1'
_cell_length_a   6.13203630
_cell_length_b   5.53271876
_cell_length_c   5.01471939
_cell_angle_alpha   90.33688146
_cell_angle_beta   89.83776009
_cell_angle_gamma   90.19156021
_symmetry_Int_Tables_number   1
_chemical_formula_structural   Li3Co2(SiO4)2
_chemical_formula_sum   'Li3 Co2 Si2 O8'
_cell_volume   170.12897932
_cell_formula_units_Z   1
loop_
 _symmetry_equiv_pos_site_id
 _symmetry_equiv_pos_as_xyz
  1  'x, y, z'
loop_
 _atom_site_type_symbol
 _atom_site_label
 _atom_site_symmetry_multiplicity
 _atom_site_fract_x
 _atom_site_fract_y
 _atom_site_fract_z
 _atom_site_occupancy
  Li  Li0  1  0.24752754  0.65807148  0.49128765  1
  Li  Li1  1  0.75071130  0.66339601  0.49105640  1
  Li  Li2  1  0.75349467  0.33303410  0.99978031  1
  Co  Co3  1  0.00586065  0.16051845  0.50132559  1
  Co  Co4  1  0.49626953  0.84142419  0.99301344  1
  Si  Si5  1  0.99607828  0.83953730  0.00183373  1
  Si  Si6  1  0.50217860  0.16962018  0.49840872  1
  O  O7  1  0.97778158  0.11342167  0.88772281  1
  O  O8  1  0.99867200  0.83031100  0.33000689  1
  O  O9  1  0.22470188  0.71461178  0.88790765  1
  O  O10  1  0.28299381  0.31738697  0.42543596  1
  O  O11  1  0.52057863  0.13889180  0.82693852  1
  O  O12  1  0.50038657  0.88508278  0.37433523  1
  O  O13  1  0.72110052  0.31738132  0.39554113  1
  O  O14  1  0.77221143  0.68454597  0.90147397  1
