# generated using pymatgen
data_Li3Fe2P2(CO7)2
_symmetry_space_group_name_H-M   'P 1'
_cell_length_a   9.38028065
_cell_length_b   8.19191364
_cell_length_c   8.18528378
_cell_angle_alpha   77.11890992
_cell_angle_beta   73.14230429
_cell_angle_gamma   106.66230013
_symmetry_Int_Tables_number   1
_chemical_formula_structural   Li3Fe2P2(CO7)2
_chemical_formula_sum   'Li6 Fe4 P4 C4 O28'
_cell_volume   543.58993133
_cell_formula_units_Z   2
loop_
 _symmetry_equiv_pos_site_id
 _symmetry_equiv_pos_as_xyz
  1  'x, y, z'
loop_
 _atom_site_type_symbol
 _atom_site_label
 _atom_site_symmetry_multiplicity
 _atom_site_fract_x
 _atom_site_fract_y
 _atom_site_fract_z
 _atom_site_occupancy
  Li  Li0  1  0.89631763  0.18993491  0.06082999  1
  Li  Li1  1  0.89978174  0.68783550  0.55662326  1
  Li  Li2  1  0.71896845  0.46474479  0.99618676  1
  Li  Li3  1  0.27904715  0.25296460  0.71418149  1
  Li  Li4  1  0.10686297  0.80988574  0.93581330  1
  Li  Li5  1  0.10162687  0.30919704  0.44171088  1
  Fe  Fe6  1  0.66866277  0.81678006  0.94006108  1
  Fe  Fe7  1  0.67625706  0.31374835  0.43722031  1
  Fe  Fe8  1  0.33109347  0.18864363  0.06535983  1
  Fe  Fe9  1  0.32871746  0.69573612  0.55728652  1
  P  P10  1  0.57613326  0.54664300  0.69610099  1
  P  P11  1  0.57835790  0.05597975  0.20169873  1
  P  P12  1  0.42432827  0.44759745  0.30222307  1
  P  P13  1  0.42250361  0.95301593  0.79606018  1
  C  C14  1  0.95523447  0.50343320  0.24262593  1
  C  C15  1  0.96024770  0.00334360  0.75182997  1
  C  C16  1  0.03896643  0.99508204  0.25107446  1
  C  C17  1  0.04118672  0.49595664  0.75814219  1
  O  O18  1  0.92524966  0.86001900  0.88899901  1
  O  O19  1  0.91880006  0.36735304  0.38834826  1
  O  O20  1  0.90123657  0.88538422  0.35905724  1
  O  O21  1  0.82491610  0.51799407  0.21854012  1
  O  O22  1  0.90145057  0.40364174  0.87877332  1
  O  O23  1  0.83681145  0.02082250  0.71832343  1
  O  O24  1  0.69142247  0.98372556  0.08563069  1
  O  O25  1  0.69512081  0.16833671  0.27541665  1
  O  O26  1  0.68369067  0.64173948  0.78741275  1
  O  O27  1  0.69621918  0.47900506  0.57868123  1
  O  O28  1  0.58006009  0.58368997  0.14489295  1
  O  O29  1  0.53789777  0.19485836  0.07592873  1
  O  O30  1  0.52711587  0.67617092  0.57920389  1
  O  O31  1  0.57688417  0.09880871  0.64629836  1
  O  O32  1  0.42444783  0.91051528  0.34579519  1
  O  O33  1  0.46783849  0.32655200  0.44351678  1
  O  O34  1  0.47415358  0.83565866  0.92508336  1
  O  O35  1  0.42108001  0.38771018  0.83578803  1
  O  O36  1  0.31522560  0.52840671  0.40906636  1
  O  O37  1  0.30859617  0.32751749  0.23509736  1
  O  O38  1  0.30746025  0.83228429  0.73017285  1
  O  O39  1  0.30904363  0.03367782  0.90399019  1
  O  O40  1  0.16529375  0.97198328  0.27421692  1
  O  O41  1  0.09282042  0.61015615  0.13761466  1
  O  O42  1  0.16586680  0.45827494  0.76673486  1
  O  O43  1  0.10089784  0.12103946  0.65727120  1
  O  O44  1  0.07440465  0.63686070  0.61969298  1
  O  O45  1  0.07170263  0.13530635  0.11343669  1
