# generated using pymatgen
data_Li2Mn3FeO8
_symmetry_space_group_name_H-M   'P 1'
_cell_length_a   5.91521807
_cell_length_b   5.91521738
_cell_length_c   5.91521778
_cell_angle_alpha   60.20130600
_cell_angle_beta   60.20130477
_cell_angle_gamma   60.20130500
_symmetry_Int_Tables_number   1
_chemical_formula_structural   Li2Mn3FeO8
_chemical_formula_sum   'Li2 Mn3 Fe1 O8'
_cell_volume   147.01861995
_cell_formula_units_Z   1
loop_
 _symmetry_equiv_pos_site_id
 _symmetry_equiv_pos_as_xyz
  1  'x, y, z'
loop_
 _atom_site_type_symbol
 _atom_site_label
 _atom_site_symmetry_multiplicity
 _atom_site_fract_x
 _atom_site_fract_y
 _atom_site_fract_z
 _atom_site_occupancy
  Li  Li0  1  0.11591788  0.11591788  0.11591788  1
  Li  Li1  1  0.49791013  0.49791013  0.49791013  1
  Mn  Mn2  1  0.01054981  0.49752831  0.49752831  1
  Mn  Mn3  1  0.49752831  0.01054981  0.49752831  1
  Mn  Mn4  1  0.49752831  0.49752831  0.01054981  1
  Fe  Fe5  1  0.88324232  0.88324232  0.88324232  1
  O  O6  1  0.25871946  0.25871946  0.25871946  1
  O  O7  1  0.25297133  0.25297133  0.70899561  1
  O  O8  1  0.25297133  0.70899561  0.25297133  1
  O  O9  1  0.70899561  0.25297133  0.25297133  1
  O  O10  1  0.27896612  0.74995004  0.74995004  1
  O  O11  1  0.74995004  0.27896612  0.74995004  1
  O  O12  1  0.74995004  0.74995004  0.27896612  1
  O  O13  1  0.74480031  0.74480031  0.74480031  1
