# generated using pymatgen
data_KLi2FeO3
_symmetry_space_group_name_H-M   'P 1'
_cell_length_a   6.55042713
_cell_length_b   6.13782662
_cell_length_c   8.79284725
_cell_angle_alpha   90.00000000
_cell_angle_beta   90.00000000
_cell_angle_gamma   90.00000000
_symmetry_Int_Tables_number   1
_chemical_formula_structural   KLi2FeO3
_chemical_formula_sum   'K4 Li8 Fe4 O12'
_cell_volume   353.51981782
_cell_formula_units_Z   4
loop_
 _symmetry_equiv_pos_site_id
 _symmetry_equiv_pos_as_xyz
  1  'x, y, z'
loop_
 _atom_site_type_symbol
 _atom_site_label
 _atom_site_symmetry_multiplicity
 _atom_site_fract_x
 _atom_site_fract_y
 _atom_site_fract_z
 _atom_site_occupancy
  K  K0  1  0.17768280  0.75000000  0.48911885  1
  K  K1  1  0.32231720  0.25000000  0.98911885  1
  K  K2  1  0.67768280  0.75000000  0.01088115  1
  K  K3  1  0.82231720  0.25000000  0.51088115  1
  Li  Li4  1  0.00506815  0.50529915  0.76914354  1
  Li  Li5  1  0.00506815  0.99470085  0.76914354  1
  Li  Li6  1  0.49493185  0.49470085  0.26914354  1
  Li  Li7  1  0.49493185  0.00529915  0.26914354  1
  Li  Li8  1  0.50506815  0.50529915  0.73085646  1
  Li  Li9  1  0.50506815  0.99470085  0.73085646  1
  Li  Li10  1  0.99493185  0.00529915  0.23085646  1
  Li  Li11  1  0.99493185  0.49470085  0.23085646  1
  Fe  Fe12  1  0.18382106  0.75000000  0.00383623  1
  Fe  Fe13  1  0.31617894  0.25000000  0.50383623  1
  Fe  Fe14  1  0.68382106  0.75000000  0.49616377  1
  Fe  Fe15  1  0.81617894  0.25000000  0.99616377  1
  O  O16  1  0.00000000  0.00000000  0.00000000  1
  O  O17  1  0.00000000  0.50000000  0.00000000  1
  O  O18  1  0.15501301  0.25000000  0.32780341  1
  O  O19  1  0.16290907  0.25000000  0.68269967  1
  O  O20  1  0.33709093  0.75000000  0.18269967  1
  O  O21  1  0.34498699  0.75000000  0.82780341  1
  O  O22  1  0.50000000  0.50000000  0.50000000  1
  O  O23  1  0.50000000  0.00000000  0.50000000  1
  O  O24  1  0.65501301  0.25000000  0.17219659  1
  O  O25  1  0.66290907  0.25000000  0.81730033  1
  O  O26  1  0.83709093  0.75000000  0.31730033  1
  O  O27  1  0.84498699  0.75000000  0.67219659  1
