# generated using pymatgen
data_FePtO2
_symmetry_space_group_name_H-M   'P 1'
_cell_length_a   2.99288787
_cell_length_b   6.42373946
_cell_length_c   2.99429147
_cell_angle_alpha   103.51683890
_cell_angle_beta   59.92380657
_cell_angle_gamma   103.52025505
_symmetry_Int_Tables_number   1
_chemical_formula_structural   FePtO2
_chemical_formula_sum   'Fe1 Pt1 O2'
_cell_volume   47.96840073
_cell_formula_units_Z   1
loop_
 _symmetry_equiv_pos_site_id
 _symmetry_equiv_pos_as_xyz
  1  'x, y, z'
loop_
 _atom_site_type_symbol
 _atom_site_label
 _atom_site_symmetry_multiplicity
 _atom_site_fract_x
 _atom_site_fract_y
 _atom_site_fract_z
 _atom_site_occupancy
  Fe  Fe0  1  0.50000000  0.50000000  0.50000000  1
  Pt  Pt1  1  -0.00000000  -0.00000000  -0.00000000  1
  O  O2  1  0.11034518  0.32841834  0.10987082  1
  O  O3  1  0.88965482  0.67158166  0.89012818  1
