# generated using pymatgen
data_Fe3Sb(PO4)4
_symmetry_space_group_name_H-M   'P 1'
_cell_length_a   4.95858680
_cell_length_b   10.13627660
_cell_length_c   6.09521763
_cell_angle_alpha   90.00000000
_cell_angle_beta   90.00000000
_cell_angle_gamma   88.64629075
_symmetry_Int_Tables_number   1
_chemical_formula_structural   Fe3Sb(PO4)4
_chemical_formula_sum   'Fe3 Sb1 P4 O16'
_cell_volume   306.26993196
_cell_formula_units_Z   1
loop_
 _symmetry_equiv_pos_site_id
 _symmetry_equiv_pos_as_xyz
  1  'x, y, z'
loop_
 _atom_site_type_symbol
 _atom_site_label
 _atom_site_symmetry_multiplicity
 _atom_site_fract_x
 _atom_site_fract_y
 _atom_site_fract_z
 _atom_site_occupancy
  Fe  Fe0  1  0.46232263  0.22826050  0.75000000  1
  Fe  Fe1  1  0.53027032  0.77722397  0.25000000  1
  Fe  Fe2  1  0.96738845  0.27311489  0.25000000  1
  Sb  Sb3  1  0.03684140  0.72001708  0.75000000  1
  P  P4  1  0.07764638  0.58977126  0.25000000  1
  P  P5  1  0.42179118  0.10331037  0.25000000  1
  P  P6  1  0.59459984  0.90840232  0.75000000  1
  P  P7  1  0.90498724  0.39543474  0.75000000  1
  O  O8  1  0.14586466  0.44203351  0.25000000  1
  O  O9  1  0.22764033  0.66242332  0.05391419  1
  O  O10  1  0.22764033  0.66242332  0.44608581  1
  O  O11  1  0.21301689  0.38010680  0.75000000  1
  O  O12  1  0.28813648  0.88582328  0.75000000  1
  O  O13  1  0.27687898  0.17851898  0.05164039  1
  O  O14  1  0.27687898  0.17851898  0.44835961  1
  O  O15  1  0.35950479  0.95797733  0.25000000  1
  O  O16  1  0.64487126  0.05616271  0.75000000  1
  O  O17  1  0.74314844  0.83435694  0.55391844  1
  O  O18  1  0.74314844  0.83435694  0.94608156  1
  O  O19  1  0.72565209  0.12737327  0.25000000  1
  O  O20  1  0.77686899  0.61673391  0.25000000  1
  O  O21  1  0.77008273  0.32245968  0.55211095  1
  O  O22  1  0.77008273  0.32245968  0.94788905  1
  O  O23  1  0.81473739  0.54273820  0.75000000  1
