# generated using pymatgen
data_Fe5(OF4)2
_symmetry_space_group_name_H-M   'P 1'
_cell_length_a   4.81529590
_cell_length_b   4.81529590
_cell_length_c   16.02752832
_cell_angle_alpha   89.76954929
_cell_angle_beta   89.76954929
_cell_angle_gamma   89.46130590
_symmetry_Int_Tables_number   1
_chemical_formula_structural   Fe5(OF4)2
_chemical_formula_sum   'Fe10 O4 F16'
_cell_volume   371.60911293
_cell_formula_units_Z   2
loop_
 _symmetry_equiv_pos_site_id
 _symmetry_equiv_pos_as_xyz
  1  'x, y, z'
loop_
 _atom_site_type_symbol
 _atom_site_label
 _atom_site_symmetry_multiplicity
 _atom_site_fract_x
 _atom_site_fract_y
 _atom_site_fract_z
 _atom_site_occupancy
  Fe  Fe0  1  0.97210142  0.97083046  0.99909223  1
  Fe  Fe1  1  0.02916954  0.02789858  0.20090777  1
  Fe  Fe2  1  0.99660682  0.98400033  0.40759974  1
  Fe  Fe3  1  0.03636492  0.96363508  0.60000000  1
  Fe  Fe4  1  0.01599967  0.00339318  0.79240026  1
  Fe  Fe5  1  0.50066221  0.49933779  0.10000000  1
  Fe  Fe6  1  0.48491554  0.51529512  0.50050078  1
  Fe  Fe7  1  0.48898148  0.48535743  0.29279292  1
  Fe  Fe8  1  0.48470488  0.51508446  0.69949922  1
  Fe  Fe9  1  0.51464257  0.51101852  0.90720708  1
  O  O10  1  0.19631683  0.81066650  0.50221632  1
  O  O11  1  0.18933350  0.80368317  0.69778368  1
  O  O12  1  0.32751733  0.32336502  0.19603832  1
  O  O13  1  0.67663498  0.67248267  0.00396168  1
  F  F14  1  0.20426908  0.79573092  0.10000000  1
  F  F15  1  0.21021151  0.79338758  0.29803485  1
  F  F16  1  0.20661242  0.78978849  0.90196515  1
  F  F17  1  0.29664347  0.29337213  0.00189387  1
  F  F18  1  0.30309479  0.30336624  0.38710200  1
  F  F19  1  0.28745952  0.29618611  0.60035300  1
  F  F20  1  0.31020009  0.31078473  0.81710903  1
  F  F21  1  0.70662787  0.70335653  0.19810613  1
  F  F22  1  0.68921527  0.68979991  0.38289097  1
  F  F23  1  0.70381389  0.71254048  0.59964700  1
  F  F24  1  0.69663376  0.69690521  0.81289800  1
  F  F25  1  0.79739542  0.20260458  0.10000000  1
  F  F26  1  0.78844117  0.20835741  0.50369102  1
  F  F27  1  0.79748074  0.20369327  0.30071214  1
  F  F28  1  0.79630673  0.20251926  0.89928786  1
  F  F29  1  0.79164259  0.21155883  0.69630898  1
