# generated using pymatgen
data_Li12MnCr3P4(CO7)4
_symmetry_space_group_name_H-M   'P 1'
_cell_length_a   8.68172000
_cell_length_b   10.00003665
_cell_length_c   6.49949146
_cell_angle_alpha   90.00000000
_cell_angle_beta   90.00000000
_cell_angle_gamma   85.37969195
_symmetry_Int_Tables_number   1
_chemical_formula_structural   Li12MnCr3P4(CO7)4
_chemical_formula_sum   'Li12 Mn1 Cr3 P4 C4 O28'
_cell_volume   562.43606126
_cell_formula_units_Z   1
loop_
 _symmetry_equiv_pos_site_id
 _symmetry_equiv_pos_as_xyz
  1  'x, y, z'
loop_
 _atom_site_type_symbol
 _atom_site_label
 _atom_site_symmetry_multiplicity
 _atom_site_fract_x
 _atom_site_fract_y
 _atom_site_fract_z
 _atom_site_occupancy
  Li  Li0  1  0.10226048  0.38896833  0.25000000  1
  Li  Li1  1  0.10264206  0.88204193  0.25000000  1
  Li  Li2  1  0.27158180  0.13004033  0.02605908  1
  Li  Li3  1  0.27158180  0.13004033  0.47394092  1
  Li  Li4  1  0.27136453  0.62736556  0.02358601  1
  Li  Li5  1  0.27136453  0.62736556  0.47641399  1
  Li  Li6  1  0.72712709  0.37186340  0.52545790  1
  Li  Li7  1  0.72712709  0.37186340  0.97454210  1
  Li  Li8  1  0.72975880  0.87152963  0.52749127  1
  Li  Li9  1  0.72975880  0.87152963  0.97250873  1
  Li  Li10  1  0.89261095  0.11450762  0.75000000  1
  Li  Li11  1  0.89082555  0.61331975  0.75000000  1
  Mn  Mn12  1  0.65918429  0.61053531  0.25000000  1
  Cr  Cr13  1  0.33469617  0.39658891  0.75000000  1
  Cr  Cr14  1  0.33508125  0.89662223  0.75000000  1
  Cr  Cr15  1  0.66679505  0.10345273  0.25000000  1
  P  P16  1  0.41199141  0.35998868  0.25000000  1
  P  P17  1  0.41214465  0.86196082  0.25000000  1
  P  P18  1  0.58869234  0.13796758  0.75000000  1
  P  P19  1  0.58955773  0.63675192  0.75000000  1
  C  C20  1  0.03324545  0.35230712  0.75000000  1
  C  C21  1  0.03373010  0.85223048  0.75000000  1
  C  C22  1  0.96782261  0.14890736  0.25000000  1
  C  C23  1  0.96530155  0.65033637  0.25000000  1
  O  O24  1  0.05555225  0.47774839  0.75000000  1
  O  O25  1  0.10656330  0.19009974  0.25000000  1
  O  O26  1  0.05580720  0.97752871  0.75000000  1
  O  O27  1  0.15389046  0.26390456  0.75000000  1
  O  O28  1  0.10844875  0.68229020  0.25000000  1
  O  O29  1  0.15445404  0.76382492  0.75000000  1
  O  O30  1  0.31348339  0.41726593  0.06373155  1
  O  O31  1  0.31348339  0.41726593  0.43626845  1
  O  O32  1  0.31325469  0.91659366  0.06373370  1
  O  O33  1  0.31325469  0.91659366  0.43626630  1
  O  O34  1  0.42288827  0.09140717  0.75000000  1
  O  O35  1  0.41832257  0.20438618  0.25000000  1
  O  O36  1  0.42292217  0.59152190  0.75000000  1
  O  O37  1  0.42374983  0.70545207  0.25000000  1
  O  O38  1  0.58096059  0.29326711  0.75000000  1
  O  O39  1  0.57826440  0.40461352  0.25000000  1
  O  O40  1  0.58190582  0.79247989  0.75000000  1
  O  O41  1  0.57818377  0.90749671  0.25000000  1
  O  O42  1  0.68727704  0.08134391  0.93628507  1
  O  O43  1  0.68727704  0.08134391  0.56371493  1
  O  O44  1  0.68788994  0.58003604  0.56469514  1
  O  O45  1  0.68788994  0.58003604  0.93530486  1
  O  O46  1  0.84747733  0.23753312  0.25000000  1
  O  O47  1  0.89463654  0.31112758  0.75000000  1
  O  O48  1  0.85268424  0.74533135  0.25000000  1
  O  O49  1  0.94519703  0.02384230  0.25000000  1
  O  O50  1  0.89513605  0.81080963  0.75000000  1
  O  O51  1  0.93290023  0.52677186  0.25000000  1
