# generated using pymatgen
data_Fe3NiSb2(PO4)6
_symmetry_space_group_name_H-M   'P 1'
_cell_length_a   8.79340617
_cell_length_b   8.79340571
_cell_length_c   8.79340633
_cell_angle_alpha   59.35217505
_cell_angle_beta   59.35217260
_cell_angle_gamma   59.35217964
_symmetry_Int_Tables_number   1
_chemical_formula_structural   Fe3NiSb2(PO4)6
_chemical_formula_sum   'Fe3 Ni1 Sb2 P6 O24'
_cell_volume   473.70112574
_cell_formula_units_Z   1
loop_
 _symmetry_equiv_pos_site_id
 _symmetry_equiv_pos_as_xyz
  1  'x, y, z'
loop_
 _atom_site_type_symbol
 _atom_site_label
 _atom_site_symmetry_multiplicity
 _atom_site_fract_x
 _atom_site_fract_y
 _atom_site_fract_z
 _atom_site_occupancy
  Fe  Fe0  1  0.14792026  0.14792026  0.14792026  1
  Fe  Fe1  1  0.35104035  0.35104035  0.35104035  1
  Fe  Fe2  1  0.64929912  0.64929912  0.64929912  1
  Ni  Ni3  1  0.85128498  0.85128498  0.85128498  1
  Sb  Sb4  1  0.99523681  0.99523681  0.99523681  1
  Sb  Sb5  1  0.49790585  0.49790585  0.49790585  1
  P  P6  1  0.04172238  0.74950745  0.45896561  1
  P  P7  1  0.45896561  0.04172238  0.74950745  1
  P  P8  1  0.74950745  0.45896561  0.04172238  1
  P  P9  1  0.25236020  0.54125372  0.95892567  1
  P  P10  1  0.54125372  0.95892567  0.25236020  1
  P  P11  1  0.95892567  0.25236020  0.54125372  1
  O  O12  1  0.11448936  0.30931731  0.50471119  1
  O  O13  1  0.30931731  0.50471119  0.11448936  1
  O  O14  1  0.06019626  0.91511161  0.26176314  1
  O  O15  1  0.50471119  0.11448936  0.30931731  1
  O  O16  1  0.01327488  0.80705128  0.60887604  1
  O  O17  1  0.23676852  0.58409874  0.43386072  1
  O  O18  1  0.26176314  0.06019626  0.91511161  1
  O  O19  1  0.43386072  0.23676852  0.58409874  1
  O  O20  1  0.19037492  0.38854555  0.99496456  1
  O  O21  1  0.58409874  0.43386072  0.23676852  1
  O  O22  1  0.08686140  0.73851813  0.94124464  1
  O  O23  1  0.38854555  0.99496456  0.19037492  1
  O  O24  1  0.60887604  0.01327488  0.80705128  1
  O  O25  1  0.91511161  0.26176314  0.06019626  1
  O  O26  1  0.41527387  0.56191454  0.76543404  1
  O  O27  1  0.80705128  0.60887604  0.01327488  1
  O  O28  1  0.56191454  0.76543404  0.41527387  1
  O  O29  1  0.73851813  0.94124464  0.08686140  1
  O  O30  1  0.76543404  0.41527387  0.56191454  1
  O  O31  1  0.99496456  0.19037492  0.38854555  1
  O  O32  1  0.49292652  0.88629243  0.69270896  1
  O  O33  1  0.94124464  0.08686140  0.73851813  1
  O  O34  1  0.69270896  0.49292652  0.88629243  1
  O  O35  1  0.88629243  0.69270896  0.49292652  1
