# generated using pymatgen
data_LaNb2AgO7
_symmetry_space_group_name_H-M   'P 1'
_cell_length_a   7.90282374
_cell_length_b   22.46849075
_cell_length_c   7.90282374
_cell_angle_alpha   79.87102315
_cell_angle_beta   90.00000000
_cell_angle_gamma   100.12897685
_symmetry_Int_Tables_number   1
_chemical_formula_structural   LaNb2AgO7
_chemical_formula_sum   'La8 Nb16 Ag8 O56'
_cell_volume   1359.16780451
_cell_formula_units_Z   8
loop_
 _symmetry_equiv_pos_site_id
 _symmetry_equiv_pos_as_xyz
  1  'x, y, z'
loop_
 _atom_site_type_symbol
 _atom_site_label
 _atom_site_symmetry_multiplicity
 _atom_site_fract_x
 _atom_site_fract_y
 _atom_site_fract_z
 _atom_site_occupancy
  La  La0  1  -0.00000000  0.00000000  -0.00000000  1
  La  La1  1  0.50000000  0.00000000  -0.00000000  1
  La  La2  1  -0.00000000  0.50000000  -0.00000000  1
  La  La3  1  0.50000000  0.50000000  -0.00000000  1
  La  La4  1  -0.00000000  0.00000000  0.50000000  1
  La  La5  1  0.50000000  0.00000000  0.50000000  1
  La  La6  1  0.50000000  0.50000000  0.50000000  1
  La  La7  1  -0.00000000  0.50000000  0.50000000  1
  Nb  Nb8  1  0.29832558  0.10405289  0.19768455  1
  Nb  Nb9  1  0.79832558  0.10405289  0.19826256  1
  Nb  Nb10  1  0.19768455  0.39594711  0.30572732  1
  Nb  Nb11  1  0.30231545  0.60405289  0.20167442  1
  Nb  Nb12  1  0.69826256  0.39594711  0.29832558  1
  Nb  Nb13  1  0.80173744  0.60405289  0.19427268  1
  Nb  Nb14  1  0.69427268  0.89594711  0.30173744  1
  Nb  Nb15  1  0.80572732  0.10405289  0.69768455  1
  Nb  Nb16  1  0.19427268  0.89594711  0.30231545  1
  Nb  Nb17  1  0.30572732  0.10405289  0.69826256  1
  Nb  Nb18  1  0.30173744  0.60405289  0.70167442  1
  Nb  Nb19  1  0.19826256  0.39594711  0.80572732  1
  Nb  Nb20  1  0.69768455  0.39594711  0.79832558  1
  Nb  Nb21  1  0.80231545  0.60405289  0.69427268  1
  Nb  Nb22  1  0.20167442  0.89594711  0.80173744  1
  Nb  Nb23  1  0.70167442  0.89594711  0.80231545  1
  Ag  Ag24  1  0.12618158  0.25000000  0.12381842  1
  Ag  Ag25  1  0.62618158  0.25000000  0.12618158  1
  Ag  Ag26  1  0.12381842  0.25000000  0.62381842  1
  Ag  Ag27  1  0.37618158  0.75000000  0.37381842  1
  Ag  Ag28  1  0.62381842  0.25000000  0.62618158  1
  Ag  Ag29  1  0.87618158  0.75000000  0.37618158  1
  Ag  Ag30  1  0.37381842  0.75000000  0.87381842  1
  Ag  Ag31  1  0.87381842  0.75000000  0.87618158  1
  O  O32  1  0.53951880  0.08543396  0.20722638  1
  O  O33  1  0.20722638  0.41456604  0.04591516  1
  O  O34  1  0.34162015  0.18776592  0.15309549  1
  O  O35  1  0.24232876  0.00000000  0.25000000  1
  O  O36  1  0.74232876  0.00000000  0.25000000  1
  O  O37  1  0.84162015  0.18776592  0.15913859  1
  O  O38  1  0.70722638  0.41456604  0.03951880  1
  O  O39  1  0.03951880  0.08543396  0.20733966  1
  O  O40  1  0.75000000  0.50000000  0.24232876  1
  O  O41  1  0.65913859  0.31223408  0.34162015  1
  O  O42  1  0.84086141  0.68776592  0.15385324  1
  O  O43  1  0.29221828  0.08443757  0.45778172  1
  O  O44  1  0.70835379  0.91670758  0.04164621  1
  O  O45  1  0.04221828  0.58443757  0.20778172  1
  O  O46  1  0.45778172  0.41556243  0.29221828  1
  O  O47  1  0.54164621  0.58329242  0.20835379  1
  O  O48  1  0.20778172  0.91556243  0.04221828  1
  O  O49  1  0.95835379  0.41670758  0.29164621  1
  O  O50  1  0.79164621  0.08329242  0.45835379  1
  O  O51  1  0.15309549  0.31223408  0.34614676  1
  O  O52  1  0.34690451  0.68776592  0.15837985  1
  O  O53  1  0.25000000  0.50000000  0.25767124  1
  O  O54  1  0.54591516  0.08543396  0.70722638  1
  O  O55  1  0.95408484  0.91456604  0.29266034  1
  O  O56  1  0.20733966  0.41456604  0.54591516  1
  O  O57  1  0.29266034  0.58543396  0.46048120  1
  O  O58  1  0.65385324  0.81223408  0.34086141  1
  O  O59  1  0.84614676  0.18776592  0.65309549  1
  O  O60  1  0.25767124  1.00000000  0.75000000  1
  O  O61  1  0.75767124  1.00000000  0.75000000  1
  O  O62  1  0.15385324  0.81223408  0.34690451  1
  O  O63  1  0.34614676  0.18776592  0.65913859  1
  O  O64  1  0.79266034  0.58543396  0.45408484  1
  O  O65  1  0.70733966  0.41456604  0.53951880  1
  O  O66  1  0.04591516  0.08543396  0.70733966  1
  O  O67  1  0.45408484  0.91456604  0.29277362  1
  O  O68  1  0.75000000  0.50000000  0.74232876  1
  O  O69  1  0.65309549  0.31223408  0.84162015  1
  O  O70  1  0.84690451  0.68776592  0.65385324  1
  O  O71  1  0.04164621  0.58329242  0.70835379  1
  O  O72  1  0.20835379  0.91670758  0.54164621  1
  O  O73  1  0.29164621  0.08329242  0.95835379  1
  O  O74  1  0.79221828  0.08443757  0.95778172  1
  O  O75  1  0.45835379  0.41670758  0.79164621  1
  O  O76  1  0.95778172  0.41556243  0.79221828  1
  O  O77  1  0.54221828  0.58443757  0.70778172  1
  O  O78  1  0.70778172  0.91556243  0.54221828  1
  O  O79  1  0.34086141  0.68776592  0.65837985  1
  O  O80  1  0.15913859  0.31223408  0.84614676  1
  O  O81  1  0.25000000  0.50000000  0.75767124  1
  O  O82  1  0.96048120  0.91456604  0.79266034  1
  O  O83  1  0.29277362  0.58543396  0.96048120  1
  O  O84  1  0.15837985  0.81223408  0.84086141  1
  O  O85  1  0.65837985  0.81223408  0.84690451  1
  O  O86  1  0.79277362  0.58543396  0.95408484  1
  O  O87  1  0.46048120  0.91456604  0.79277362  1
