# generated using pymatgen
data_La2Cu2O5
_symmetry_space_group_name_H-M   'P 1'
_cell_length_a   3.76801615
_cell_length_b   7.21676797
_cell_length_c   26.97628403
_cell_angle_alpha   92.48488842
_cell_angle_beta   93.00513334
_cell_angle_gamma   75.00097200
_symmetry_Int_Tables_number   1
_chemical_formula_structural   La2Cu2O5
_chemical_formula_sum   'La12 Cu12 O30'
_cell_volume   707.25912677
_cell_formula_units_Z   6
loop_
 _symmetry_equiv_pos_site_id
 _symmetry_equiv_pos_as_xyz
  1  'x, y, z'
loop_
 _atom_site_type_symbol
 _atom_site_label
 _atom_site_symmetry_multiplicity
 _atom_site_fract_x
 _atom_site_fract_y
 _atom_site_fract_z
 _atom_site_occupancy
  La  La0  1  0.37264729  0.99218784  0.76863711  1
  La  La1  1  0.61575732  0.84734713  0.09768650  1
  La  La2  1  0.44012353  0.82675448  0.63472958  1
  La  La3  1  0.88479362  0.65259078  0.40230606  1
  La  La4  1  0.06053567  0.67328506  0.86527737  1
  La  La5  1  0.87264729  0.49218784  0.26863711  1
  La  La6  1  0.13106713  0.50748190  0.73133609  1
  La  La7  1  0.94012353  0.32675448  0.13472958  1
  La  La8  1  0.11575732  0.34734713  0.59768650  1
  La  La9  1  0.56053567  0.17328506  0.36527737  1
  La  La10  1  0.38479362  0.15259078  0.90230506  1
  La  La11  1  0.63106713  0.00748190  0.23133609  1
  Cu  Cu12  1  0.24274339  0.98476060  0.46035709  1
  Cu  Cu13  1  0.23533049  0.83335939  0.31909576  1
  Cu  Cu14  1  0.19444073  0.84009491  0.97104073  1
  Cu  Cu15  1  0.26790627  0.66652106  0.18085219  1
  Cu  Cu16  1  0.30551192  0.65996334  0.52897781  1
  Cu  Cu17  1  0.25728246  0.51519262  0.03969192  1
  Cu  Cu18  1  0.74274339  0.48476060  0.96035709  1
  Cu  Cu19  1  0.69444073  0.34009491  0.47104073  1
  Cu  Cu20  1  0.73533049  0.33335939  0.81909576  1
  Cu  Cu21  1  0.80551192  0.15996334  0.02897781  1
  Cu  Cu22  1  0.76790627  0.16652106  0.68085219  1
  Cu  Cu23  1  0.75728246  0.01519262  0.53969192  1
  O  O24  1  0.88366214  0.99329940  0.83739070  1
  O  O25  1  0.28819705  0.94882789  0.53570380  1
  O  O26  1  0.05349188  0.88012146  0.03900589  1
  O  O27  1  0.23366914  0.91346244  0.38941157  1
  O  O28  1  0.73361513  0.83523834  0.31898113  1
  O  O29  1  0.96056141  0.83285952  0.70851849  1
  O  O30  1  0.25374322  0.75029997  0.24988551  1
  O  O31  1  0.49149338  0.82022949  0.91249126  1
  O  O32  1  0.76973928  0.66474997  0.18105452  1
  O  O33  1  0.00857019  0.67985520  0.58753073  1
  O  O34  1  0.26712453  0.58662808  0.11066166  1
  O  O35  1  0.53929825  0.66717755  0.79148424  1
  O  O36  1  0.44670716  0.61986380  0.46102409  1
  O  O37  1  0.38366214  0.49329940  0.33739070  1
  O  O38  1  0.78819705  0.44882789  0.03570380  1
  O  O39  1  0.21189545  0.55121899  0.96432044  1
  O  O40  1  0.61650698  0.50662978  0.66254877  1
  O  O41  1  0.55349188  0.38012146  0.53900589  1
  O  O42  1  0.46056141  0.33285952  0.20851849  1
  O  O43  1  0.73366914  0.41346244  0.88941157  1
  O  O44  1  0.99149338  0.32022949  0.41249126  1
  O  O45  1  0.23361513  0.33523834  0.81898113  1
  O  O46  1  0.50857019  0.17985520  0.08753073  1
  O  O47  1  0.75374322  0.25029997  0.74988551  1
  O  O48  1  0.03929825  0.16717755  0.29148424  1
  O  O49  1  0.26973928  0.16474997  0.68105452  1
  O  O50  1  0.76712453  0.08662808  0.61066166  1
  O  O51  1  0.94670716  0.11986380  0.96102409  1
  O  O52  1  0.71189545  0.05121899  0.46432044  1
  O  O53  1  0.11650698  0.00662978  0.16254877  1
