# generated using pymatgen
data_Li2AlCoO4
_symmetry_space_group_name_H-M   'P 1'
_cell_length_a   6.25878010
_cell_length_b   10.97432691
_cell_length_c   5.01553773
_cell_angle_alpha   90.00000000
_cell_angle_beta   90.00000000
_cell_angle_gamma   90.00000000
_symmetry_Int_Tables_number   1
_chemical_formula_structural   Li2AlCoO4
_chemical_formula_sum   'Li8 Al4 Co4 O16'
_cell_volume   344.49671733
_cell_formula_units_Z   4
loop_
 _symmetry_equiv_pos_site_id
 _symmetry_equiv_pos_as_xyz
  1  'x, y, z'
loop_
 _atom_site_type_symbol
 _atom_site_label
 _atom_site_symmetry_multiplicity
 _atom_site_fract_x
 _atom_site_fract_y
 _atom_site_fract_z
 _atom_site_occupancy
  Li  Li0  1  0.00073029  0.41382742  0.18192251  1
  Li  Li1  1  0.00073029  0.91382742  0.31807749  1
  Li  Li2  1  0.49926971  0.91382742  0.31807749  1
  Li  Li3  1  0.49926971  0.41382742  0.18192251  1
  Li  Li4  1  0.50073029  0.08617358  0.68192251  1
  Li  Li5  1  0.50073029  0.58617258  0.81807749  1
  Li  Li6  1  0.99926971  0.58617258  0.81807749  1
  Li  Li7  1  0.99926971  0.08617358  0.68192251  1
  Al  Al8  1  0.25000000  0.33023553  0.67306491  1
  Al  Al9  1  0.25000000  0.83023553  0.82693509  1
  Al  Al10  1  0.75000000  0.66976447  0.32693509  1
  Al  Al11  1  0.75000000  0.16976447  0.17306491  1
  Co  Co12  1  0.25000000  0.16222767  0.17763727  1
  Co  Co13  1  0.25000000  0.66222767  0.32236273  1
  Co  Co14  1  0.75000000  0.33777233  0.67763727  1
  Co  Co15  1  0.75000000  0.83777233  0.82236273  1
  O  O16  1  0.01130471  0.40705169  0.77624184  1
  O  O17  1  0.01130471  0.90705169  0.72375816  1
  O  O18  1  0.25000000  0.32339492  0.31668627  1
  O  O19  1  0.25000000  0.67786894  0.69938168  1
  O  O20  1  0.25000000  0.82339492  0.18331373  1
  O  O21  1  0.25000000  0.17786894  0.80061832  1
  O  O22  1  0.48869529  0.90705169  0.72375816  1
  O  O23  1  0.48869529  0.40705169  0.77624184  1
  O  O24  1  0.51130471  0.59294831  0.22375816  1
  O  O25  1  0.51130471  0.09294831  0.27624184  1
  O  O26  1  0.75000000  0.67660508  0.68331373  1
  O  O27  1  0.75000000  0.17660508  0.81668627  1
  O  O28  1  0.75000000  0.32213106  0.30061832  1
  O  O29  1  0.75000000  0.82213106  0.19938168  1
  O  O30  1  0.98869529  0.59294831  0.22375816  1
  O  O31  1  0.98869529  0.09294831  0.27624184  1
