# generated using pymatgen
data_Co2OF3
_symmetry_space_group_name_H-M   'P 1'
_cell_length_a   4.73062030
_cell_length_b   4.73062030
_cell_length_c   15.65146359
_cell_angle_alpha   90.00000000
_cell_angle_beta   90.00000000
_cell_angle_gamma   92.58482234
_symmetry_Int_Tables_number   1
_chemical_formula_structural   Co2OF3
_chemical_formula_sum   'Co10 O5 F15'
_cell_volume   349.90410769
_cell_formula_units_Z   5
loop_
 _symmetry_equiv_pos_site_id
 _symmetry_equiv_pos_as_xyz
  1  'x, y, z'
loop_
 _atom_site_type_symbol
 _atom_site_label
 _atom_site_symmetry_multiplicity
 _atom_site_fract_x
 _atom_site_fract_y
 _atom_site_fract_z
 _atom_site_occupancy
  Co  Co0  1  0.96623317  0.96623317  0.00000000  1
  Co  Co1  1  0.02732417  0.02732417  0.20039313  1
  Co  Co2  1  0.00598921  0.00598921  0.39925306  1
  Co  Co3  1  0.00598921  0.00598921  0.60074694  1
  Co  Co4  1  0.02732417  0.02732417  0.79960687  1
  Co  Co5  1  0.50045211  0.50045211  0.10097239  1
  Co  Co6  1  0.48652539  0.48652539  0.50000000  1
  Co  Co7  1  0.47426960  0.47426960  0.30379457  1
  Co  Co8  1  0.50045211  0.50045211  0.89902761  1
  Co  Co9  1  0.47426960  0.47426960  0.69620543  1
  O  O10  1  0.30313617  0.30313617  0.20013345  1
  O  O11  1  0.31097467  0.31097467  0.60518530  1
  O  O12  1  0.30313617  0.30313617  0.79986655  1
  O  O13  1  0.31097467  0.31097467  0.39481470  1
  O  O14  1  0.69333660  0.69333660  0.00000000  1
  F  F15  1  0.19262234  0.80595348  0.10016575  1
  F  F16  1  0.20009912  0.80456785  0.50000000  1
  F  F17  1  0.19899642  0.80369383  0.29603065  1
  F  F18  1  0.19899642  0.80369383  0.70396935  1
  F  F19  1  0.19262234  0.80595348  0.89983425  1
  F  F20  1  0.28351635  0.28351635  0.00000000  1
  F  F21  1  0.71021280  0.71021280  0.20376920  1
  F  F22  1  0.69923695  0.69923695  0.39687884  1
  F  F23  1  0.69923695  0.69923695  0.60312116  1
  F  F24  1  0.71021280  0.71021280  0.79623080  1
  F  F25  1  0.80595348  0.19262234  0.10016575  1
  F  F26  1  0.80456785  0.20009912  0.50000000  1
  F  F27  1  0.80369383  0.19899642  0.29603065  1
  F  F28  1  0.80595348  0.19262234  0.89983425  1
  F  F29  1  0.80369383  0.19899642  0.70396935  1
