# generated using pymatgen
data_MnH4(CO3)2
_symmetry_space_group_name_H-M   'P 1'
_cell_length_a   6.23223047
_cell_length_b   6.23223047
_cell_length_c   9.30703833
_cell_angle_alpha   63.00108889
_cell_angle_beta   116.99891111
_cell_angle_gamma   125.24820964
_symmetry_Int_Tables_number   1
_chemical_formula_structural   MnH4(CO3)2
_chemical_formula_sum   'Mn2 H8 C4 O12'
_cell_volume   253.72205935
_cell_formula_units_Z   2
loop_
 _symmetry_equiv_pos_site_id
 _symmetry_equiv_pos_as_xyz
  1  'x, y, z'
loop_
 _atom_site_type_symbol
 _atom_site_label
 _atom_site_symmetry_multiplicity
 _atom_site_fract_x
 _atom_site_fract_y
 _atom_site_fract_z
 _atom_site_occupancy
  Mn  Mn0  1  0.81119742  0.81119742  0.75000000  1
  Mn  Mn1  1  0.18880258  0.18880258  0.25000000  1
  H  H2  1  0.69404778  0.05290761  0.86295706  1
  H  H3  1  0.05290761  0.69404778  0.63704294  1
  H  H4  1  0.30595222  0.94709239  0.13704294  1
  H  H5  1  0.94709239  0.30595222  0.36295706  1
  H  H6  1  0.66167434  0.19899017  0.66777455  1
  H  H7  1  0.19899017  0.66167434  0.83222545  1
  H  H8  1  0.33832566  0.80100983  0.33222545  1
  H  H9  1  0.80100983  0.33832566  0.16777455  1
  C  C10  1  0.36345349  0.26379606  0.84715416  1
  C  C11  1  0.26379606  0.36345349  0.65284584  1
  C  C12  1  0.63654651  0.73620394  0.15284584  1
  C  C13  1  0.73620394  0.63654651  0.34715416  1
  O  O14  1  0.59813869  0.42138209  0.91842438  1
  O  O15  1  0.42138209  0.59813869  0.58157562  1
  O  O16  1  0.40186131  0.57861791  0.08157562  1
  O  O17  1  0.57861791  0.40186131  0.41842438  1
  O  O18  1  0.20094759  0.03120243  0.91932673  1
  O  O19  1  0.03120243  0.20094759  0.58067327  1
  O  O20  1  0.79905241  0.96879757  0.08067327  1
  O  O21  1  0.96879757  0.79905241  0.41932673  1
  O  O22  1  0.02179388  0.62222623  0.74941197  1
  O  O23  1  0.62222623  0.02179388  0.75058803  1
  O  O24  1  0.97820612  0.37777377  0.25058803  1
  O  O25  1  0.37777377  0.97820612  0.24941197  1
