# generated using pymatgen
data_U2MoO8
_symmetry_space_group_name_H-M   'P 1'
_cell_length_a   4.14214793
_cell_length_b   6.66527468
_cell_length_c   23.73933857
_cell_angle_alpha   90.12681277
_cell_angle_beta   89.95049495
_cell_angle_gamma   90.20572952
_symmetry_Int_Tables_number   1
_chemical_formula_structural   U2MoO8
_chemical_formula_sum   'U8 Mo4 O32'
_cell_volume   655.40273370
_cell_formula_units_Z   4
loop_
 _symmetry_equiv_pos_site_id
 _symmetry_equiv_pos_as_xyz
  1  'x, y, z'
loop_
 _atom_site_type_symbol
 _atom_site_label
 _atom_site_symmetry_multiplicity
 _atom_site_fract_x
 _atom_site_fract_y
 _atom_site_fract_z
 _atom_site_occupancy
  U  U0  1  0.99491749  0.80753292  0.87958934  1
  U  U1  1  0.99544196  0.16540760  0.28633071  1
  U  U2  1  0.99565680  0.33487206  0.78656139  1
  U  U3  1  0.98825308  0.30633633  0.62062904  1
  U  U4  1  0.99461098  0.83404753  0.71385565  1
  U  U5  1  0.98872761  0.69360819  0.37937376  1
  U  U6  1  0.00390122  0.66571748  0.21341360  1
  U  U7  1  0.00509679  0.19241356  0.12040772  1
  Mo  Mo8  1  0.07643414  0.16535924  0.45190506  1
  Mo  Mo9  1  0.08914627  0.33720455  0.95203834  1
  Mo  Mo10  1  0.91016223  0.66342523  0.04792063  1
  Mo  Mo11  1  0.07641156  0.83408125  0.54817615  1
  O  O12  1  0.99546333  0.16157236  0.70783153  1
  O  O13  1  0.98837502  0.45188880  0.43141581  1
  O  O14  1  0.00284842  0.94973136  0.06844277  1
  O  O15  1  0.49589132  0.17890106  0.45439926  1
  O  O16  1  0.00319936  0.96508178  0.18798550  1
  O  O17  1  0.99840090  0.83846306  0.29218568  1
  O  O18  1  0.00138362  0.33890781  0.20773960  1
  O  O19  1  0.50382061  0.66406039  0.21535611  1
  O  O20  1  0.98430875  0.08260140  0.37359364  1
  O  O21  1  0.50584082  0.20616137  0.12197132  1
  O  O22  1  0.50861755  0.32328664  0.95429028  1
  O  O23  1  0.00929701  0.63980461  0.96364336  1
  O  O24  1  0.99507657  0.86211081  0.46330472  1
  O  O25  1  0.99393311  0.53505329  0.68788316  1
  O  O26  1  0.49559520  0.16444965  0.28447593  1
  O  O27  1  0.49418587  0.79398521  0.87798868  1
  O  O28  1  0.48864270  0.70754689  0.37793043  1
  O  O29  1  0.99751913  0.46521629  0.31215425  1
  O  O30  1  0.00582633  0.58075445  0.12619347  1
  O  O31  1  0.99006595  0.54765309  0.56835272  1
  O  O32  1  0.49592962  0.33588903  0.78459939  1
  O  O33  1  0.49133387  0.67708739  0.04576341  1
  O  O34  1  0.99747893  0.66127159  0.79230302  1
  O  O35  1  0.48794795  0.29258010  0.62208185  1
  O  O36  1  0.99567617  0.03474799  0.81189933  1
  O  O37  1  0.99459585  0.13711511  0.53677858  1
  O  O38  1  0.99712983  0.05041057  0.93137215  1
  O  O39  1  0.99410472  0.41929683  0.87375485  1
  O  O40  1  0.49634638  0.82106518  0.54561661  1
  O  O41  1  0.99010383  0.36063400  0.03626186  1
  O  O42  1  0.98731614  0.91664583  0.62660641  1
  O  O43  1  0.49498602  0.83602311  0.71562090  1
