# generated using pymatgen
data_PrHfO3
_symmetry_space_group_name_H-M   'P 1'
_cell_length_a   5.88939029
_cell_length_b   8.15655359
_cell_length_c   5.75929175
_cell_angle_alpha   89.99993720
_cell_angle_beta   90.00009498
_cell_angle_gamma   90.00019550
_symmetry_Int_Tables_number   1
_chemical_formula_structural   PrHfO3
_chemical_formula_sum   'Pr4 Hf4 O12'
_cell_volume   276.65983218
_cell_formula_units_Z   4
loop_
 _symmetry_equiv_pos_site_id
 _symmetry_equiv_pos_as_xyz
  1  'x, y, z'
loop_
 _atom_site_type_symbol
 _atom_site_label
 _atom_site_symmetry_multiplicity
 _atom_site_fract_x
 _atom_site_fract_y
 _atom_site_fract_z
 _atom_site_occupancy
  Pr  Pr0  1  0.06070981  0.25000460  0.00413067  1
  Pr  Pr1  1  0.43929326  0.74999832  0.50412813  1
  Pr  Pr2  1  0.56070534  0.25000675  0.49586871  1
  Pr  Pr3  1  0.93929478  0.74999504  0.99587076  1
  Hf  Hf4  1  0.00000205  -0.00000027  0.49999883  1
  Hf  Hf5  1  0.99999939  0.50000139  0.50000067  1
  Hf  Hf6  1  0.49999895  0.99999970  0.00000045  1
  Hf  Hf7  1  0.49999919  0.50000025  0.99999929  1
  O  O8  1  0.03076504  0.75000054  0.58410174  1
  O  O9  1  0.19500659  0.54279136  0.18904593  1
  O  O10  1  0.19500680  0.95720673  0.18904818  1
  O  O11  1  0.30499415  0.04279217  0.68904507  1
  O  O12  1  0.30499336  0.45720830  0.68904278  1
  O  O13  1  0.46923509  0.24999807  0.08410177  1
  O  O14  1  0.53076455  0.75000192  0.91589694  1
  O  O15  1  0.69500489  0.54278976  0.31095680  1
  O  O16  1  0.69500464  0.95720627  0.31095484  1
  O  O17  1  0.80499387  0.04279271  0.81095380  1
  O  O18  1  0.80499461  0.45720892  0.81095547  1
  O  O19  1  0.96923364  0.24999747  0.41589919  1
