# generated using pymatgen
data_Fe3OF5
_symmetry_space_group_name_H-M   'P 1'
_cell_length_a   4.81394700
_cell_length_b   4.81394700
_cell_length_c   9.67112959
_cell_angle_alpha   90.00000000
_cell_angle_beta   90.00000000
_cell_angle_gamma   87.99078997
_symmetry_Int_Tables_number   1
_chemical_formula_structural   Fe3OF5
_chemical_formula_sum   'Fe6 O2 F10'
_cell_volume   223.98179791
_cell_formula_units_Z   2
loop_
 _symmetry_equiv_pos_site_id
 _symmetry_equiv_pos_as_xyz
  1  'x, y, z'
loop_
 _atom_site_type_symbol
 _atom_site_label
 _atom_site_symmetry_multiplicity
 _atom_site_fract_x
 _atom_site_fract_y
 _atom_site_fract_z
 _atom_site_occupancy
  Fe  Fe0  1  0.00766540  0.99233460  0.00881973  1
  Fe  Fe1  1  0.02961648  0.97038352  0.33333300  1
  Fe  Fe2  1  0.00766540  0.99233460  0.65784627  1
  Fe  Fe3  1  0.48274397  0.51725603  0.17105671  1
  Fe  Fe4  1  0.50543887  0.49456113  0.83333300  1
  Fe  Fe5  1  0.48274397  0.51725603  0.49560929  1
  O  O6  1  0.19582153  0.80417847  0.17644953  1
  O  O7  1  0.19582153  0.80417847  0.49021747  1
  F  F8  1  0.20258178  0.79741822  0.83333300  1
  F  F9  1  0.30579315  0.30339331  0.00596627  1
  F  F10  1  0.29529579  0.29742923  0.33333300  1
  F  F11  1  0.30579315  0.30339331  0.66070073  1
  F  F12  1  0.69660669  0.69420685  0.00596627  1
  F  F13  1  0.70257077  0.70470421  0.33333300  1
  F  F14  1  0.69660669  0.69420685  0.66070073  1
  F  F15  1  0.78926513  0.21073487  0.18193641  1
  F  F16  1  0.80870555  0.19129445  0.83333300  1
  F  F17  1  0.78926513  0.21073487  0.48473059  1
