# generated using pymatgen
data_BaYCo2O5
_symmetry_space_group_name_H-M   'P 1'
_cell_length_a   3.94777138
_cell_length_b   7.58428097
_cell_length_c   7.85817952
_cell_angle_alpha   90.00000000
_cell_angle_beta   90.00000000
_cell_angle_gamma   90.00000000
_symmetry_Int_Tables_number   1
_chemical_formula_structural   BaYCo2O5
_chemical_formula_sum   'Ba2 Y2 Co4 O10'
_cell_volume   235.28181078
_cell_formula_units_Z   2
loop_
 _symmetry_equiv_pos_site_id
 _symmetry_equiv_pos_as_xyz
  1  'x, y, z'
loop_
 _atom_site_type_symbol
 _atom_site_label
 _atom_site_symmetry_multiplicity
 _atom_site_fract_x
 _atom_site_fract_y
 _atom_site_fract_z
 _atom_site_occupancy
  Ba  Ba0  1  -0.00000000  0.00000000  0.50000000  1
  Ba  Ba1  1  -0.00000000  0.00000000  0.00000000  1
  Y  Y2  1  -0.00000000  0.50000000  0.50000000  1
  Y  Y3  1  -0.00000000  0.50000000  0.00000000  1
  Co  Co4  1  0.50000000  0.72793435  0.75000000  1
  Co  Co5  1  0.50000000  0.27206565  0.25000000  1
  Co  Co6  1  0.50000000  0.75116876  0.25000000  1
  Co  Co7  1  0.50000000  0.24883124  0.75000000  1
  O  O8  1  -0.00000000  0.68931725  0.75000000  1
  O  O9  1  0.50000000  0.68720688  0.49688457  1
  O  O10  1  -0.00000000  0.68545831  0.25000000  1
  O  O11  1  0.50000000  0.00851928  0.75000000  1
  O  O12  1  -0.00000000  0.31454169  0.75000000  1
  O  O13  1  -0.00000000  0.31068275  0.25000000  1
  O  O14  1  0.50000000  0.31279312  0.99688457  1
  O  O15  1  0.50000000  0.31279312  0.50311543  1
  O  O16  1  0.50000000  0.68720688  0.00311543  1
  O  O17  1  0.50000000  0.99148072  0.25000000  1
