# generated using pymatgen
data_YbPS4
_symmetry_space_group_name_H-M   'P 1'
_cell_length_a   11.47416153
_cell_length_b   11.47416203
_cell_length_c   13.07901440
_cell_angle_alpha   114.49667441
_cell_angle_beta   119.48617974
_cell_angle_gamma   88.06918264
_symmetry_Int_Tables_number   1
_chemical_formula_structural   YbPS4
_chemical_formula_sum   'Yb8 P8 S32'
_cell_volume   1332.04472320
_cell_formula_units_Z   8
loop_
 _symmetry_equiv_pos_site_id
 _symmetry_equiv_pos_as_xyz
  1  'x, y, z'
loop_
 _atom_site_type_symbol
 _atom_site_label
 _atom_site_symmetry_multiplicity
 _atom_site_fract_x
 _atom_site_fract_y
 _atom_site_fract_z
 _atom_site_occupancy
  Yb  Yb0  1  0.88321052  0.13191061  0.74634419  1
  Yb  Yb1  1  0.11678848  0.86808939  0.25365581  1
  Yb  Yb2  1  0.61443358  0.36313267  0.24634419  1
  Yb  Yb3  1  0.38556642  0.63686733  0.75365581  1
  Yb  Yb4  1  0.15193317  0.40193317  0.25000000  1
  Yb  Yb5  1  0.35199598  0.10199598  0.75000000  1
  Yb  Yb6  1  0.84806683  0.59806683  0.75000000  1
  Yb  Yb7  1  0.64800402  0.89800402  0.25000000  1
  P  P8  1  0.27169117  0.72459898  0.06754818  1
  P  P9  1  0.79027808  0.22814113  0.49725084  1
  P  P10  1  0.65705179  0.70414399  0.43245182  1
  P  P11  1  0.73089128  0.79302824  0.00274916  1
  P  P12  1  0.72830883  0.27540102  0.93245182  1
  P  P13  1  0.20972192  0.77185887  0.50274916  1
  P  P14  1  0.34294821  0.29585601  0.56754818  1
  P  P15  1  0.26910872  0.20697176  0.99725084  1
  S  S16  1  0.36414257  0.63646129  0.97581160  1
  S  S17  1  0.89333758  0.36797806  0.48368072  1
  S  S18  1  0.63698920  0.57094243  0.48542463  1
  S  S19  1  0.88429734  0.90965786  0.01631928  1
  S  S20  1  0.08551780  0.65156457  0.01457537  1
  S  S21  1  0.66064969  0.88833097  0.52418840  1
  S  S22  1  0.88147605  0.07475517  0.50815602  1
  S  S23  1  0.56659914  0.87332003  0.99184398  1
  S  S24  1  0.63585743  0.36353971  0.02418840  1
  S  S25  1  0.10666242  0.63202194  0.51631928  1
  S  S26  1  0.36301080  0.42905757  0.51457537  1
  S  S27  1  0.11570266  0.09034214  0.98368072  1
  S  S28  1  0.91448220  0.34843543  0.98542463  1
  S  S29  1  0.33935031  0.11166903  0.47581160  1
  S  S30  1  0.11852395  0.92524483  0.49184398  1
  S  S31  1  0.43340086  0.12667997  0.00815602  1
  S  S32  1  0.76409685  0.31836123  0.65380290  1
  S  S33  1  0.84789432  0.80754645  0.18842227  1
  S  S34  1  0.37073777  0.88643192  0.23386365  1
  S  S35  1  0.61912418  0.15947305  0.31157773  1
  S  S36  1  0.65256927  0.63687412  0.26613635  1
  S  S37  1  0.66455934  0.61029396  0.84619711  1
  S  S38  1  0.03156179  0.51159820  0.66980247  1
  S  S39  1  0.84179573  0.86175932  0.83019753  1
  S  S40  1  0.23590315  0.68163877  0.34619710  1
  S  S41  1  0.15210568  0.19245355  0.81157773  1
  S  S42  1  0.62926223  0.11356808  0.76613635  1
  S  S43  1  0.38087582  0.84052695  0.68842227  1
  S  S44  1  0.34743073  0.36312588  0.73386365  1
  S  S45  1  0.33544066  0.38970604  0.15380289  1
  S  S46  1  0.96843821  0.48840180  0.33019753  1
  S  S47  1  0.15820427  0.13824068  0.16980247  1
