# generated using pymatgen
data_Cr(PO3)2
_symmetry_space_group_name_H-M   'P 1'
_cell_length_a   7.25223189
_cell_length_b   7.32928274
_cell_length_c   17.61020500
_cell_angle_alpha   90.00000000
_cell_angle_beta   97.93253574
_cell_angle_gamma   90.00000000
_symmetry_Int_Tables_number   1
_chemical_formula_structural   Cr(PO3)2
_chemical_formula_sum   'Cr8 P16 O48'
_cell_volume   927.09002054
_cell_formula_units_Z   8
loop_
 _symmetry_equiv_pos_site_id
 _symmetry_equiv_pos_as_xyz
  1  'x, y, z'
loop_
 _atom_site_type_symbol
 _atom_site_label
 _atom_site_symmetry_multiplicity
 _atom_site_fract_x
 _atom_site_fract_y
 _atom_site_fract_z
 _atom_site_occupancy
  Cr  Cr0  1  0.06343369  0.10909655  0.90088820  1
  Cr  Cr1  1  0.06343369  0.39090345  0.40088820  1
  Cr  Cr2  1  0.52711910  0.62305825  0.66033149  1
  Cr  Cr3  1  0.52711910  0.87694175  0.16033149  1
  Cr  Cr4  1  0.47288090  0.12305825  0.83966851  1
  Cr  Cr5  1  0.47288090  0.37694175  0.33966851  1
  Cr  Cr6  1  0.93656631  0.60909655  0.59911180  1
  Cr  Cr7  1  0.93656631  0.89090345  0.09911180  1
  P  P8  1  0.13774281  0.98174587  0.68631138  1
  P  P9  1  0.13774281  0.51825413  0.18631138  1
  P  P10  1  0.26196585  0.30290451  0.60069837  1
  P  P11  1  0.26196585  0.19709549  0.10069837  1
  P  P12  1  0.27123631  0.50487219  0.85444040  1
  P  P13  1  0.27123631  0.99512781  0.35444040  1
  P  P14  1  0.37909100  0.78502921  0.97085547  1
  P  P15  1  0.37909100  0.71497079  0.47085547  1
  P  P16  1  0.62090900  0.28502921  0.52914453  1
  P  P17  1  0.62090900  0.21497079  0.02914453  1
  P  P18  1  0.72876369  0.00487219  0.64555960  1
  P  P19  1  0.72876369  0.49512781  0.14555960  1
  P  P20  1  0.73803415  0.80290451  0.89930163  1
  P  P21  1  0.73803415  0.69709549  0.39930163  1
  P  P22  1  0.86225719  0.48174587  0.81368862  1
  P  P23  1  0.86225719  0.01825413  0.31368862  1
  O  O24  1  0.07006239  0.56226680  0.81058518  1
  O  O25  1  0.09226877  0.39505491  0.55661394  1
  O  O26  1  0.07006239  0.93773320  0.31058518  1
  O  O27  1  0.09226877  0.10494509  0.05661394  1
  O  O28  1  0.12737538  0.78620287  0.66016365  1
  O  O29  1  0.12737538  0.71379713  0.16016365  1
  O  O30  1  0.24695454  0.02943869  0.76166431  1
  O  O31  1  0.20151439  0.09872418  0.61727270  1
  O  O32  1  0.24695454  0.47056131  0.26166431  1
  O  O33  1  0.20151439  0.40127582  0.11727270  1
  O  O34  1  0.26295899  0.29925772  0.87146324  1
  O  O35  1  0.27685910  0.59989263  0.93868682  1
  O  O36  1  0.26295899  0.20074228  0.37146324  1
  O  O37  1  0.27685910  0.90010737  0.43868682  1
  O  O38  1  0.35224501  0.40315334  0.67026809  1
  O  O39  1  0.35224501  0.09684666  0.17026809  1
  O  O40  1  0.37085851  0.70831684  0.55505764  1
  O  O41  1  0.29928140  0.94372858  0.92202435  1
  O  O42  1  0.37085851  0.79168316  0.05505764  1
  O  O43  1  0.29928140  0.55627142  0.42202435  1
  O  O44  1  0.42121887  0.57215430  0.81352340  1
  O  O45  1  0.40544225  0.25864433  0.54076241  1
  O  O46  1  0.42121887  0.92784570  0.31352340  1
  O  O47  1  0.40544225  0.24135567  0.04076241  1
  O  O48  1  0.59455775  0.75864433  0.95923759  1
  O  O49  1  0.57878113  0.07215430  0.68647660  1
  O  O50  1  0.59455775  0.74135567  0.45923759  1
  O  O51  1  0.57878113  0.42784570  0.18647660  1
  O  O52  1  0.70071860  0.44372858  0.57797565  1
  O  O53  1  0.62914149  0.20831684  0.94494236  1
  O  O54  1  0.70071860  0.05627142  0.07797565  1
  O  O55  1  0.62914149  0.29168316  0.44494236  1
  O  O56  1  0.64775499  0.90315334  0.82973191  1
  O  O57  1  0.64775499  0.59684666  0.32973191  1
  O  O58  1  0.72314090  0.09989263  0.56131318  1
  O  O59  1  0.73704101  0.79925772  0.62853676  1
  O  O60  1  0.72314090  0.40010737  0.06131318  1
  O  O61  1  0.73704101  0.70074228  0.12853676  1
  O  O62  1  0.79848561  0.59872418  0.88272730  1
  O  O63  1  0.75304546  0.52943869  0.73833569  1
  O  O64  1  0.79848561  0.90127582  0.38272730  1
  O  O65  1  0.75304546  0.97056131  0.23833569  1
  O  O66  1  0.87262462  0.28620287  0.83983635  1
  O  O67  1  0.87262462  0.21379713  0.33983635  1
  O  O68  1  0.90773123  0.89505491  0.94338606  1
  O  O69  1  0.92993761  0.06226680  0.68941482  1
  O  O70  1  0.90773123  0.60494509  0.44338606  1
  O  O71  1  0.92993761  0.43773320  0.18941482  1
