# generated using pymatgen
data_La8Cu7O19
_symmetry_space_group_name_H-M   'P 1'
_cell_length_a   3.78543015
_cell_length_b   7.23219716
_cell_length_c   34.33104298
_cell_angle_alpha   87.14984108
_cell_angle_beta   86.80688157
_cell_angle_gamma   74.85468520
_symmetry_Int_Tables_number   1
_chemical_formula_structural   La8Cu7O19
_chemical_formula_sum   'La16 Cu14 O38'
_cell_volume   905.22276945
_cell_formula_units_Z   2
loop_
 _symmetry_equiv_pos_site_id
 _symmetry_equiv_pos_as_xyz
  1  'x, y, z'
loop_
 _atom_site_type_symbol
 _atom_site_label
 _atom_site_symmetry_multiplicity
 _atom_site_fract_x
 _atom_site_fract_y
 _atom_site_fract_z
 _atom_site_occupancy
  La  La0  1  0.46151202  0.94715046  0.18213812  1
  La  La1  1  0.34143597  0.07809962  0.28875968  1
  La  La2  1  0.53344384  0.05137473  0.81818257  1
  La  La3  1  0.66160904  0.92068246  0.71143299  1
  La  La4  1  0.40559158  0.44582125  0.68203788  1
  La  La5  1  0.70377633  0.42176407  0.21139185  1
  La  La6  1  0.75293121  0.79057090  0.60614496  1
  La  La7  1  0.58977976  0.55243767  0.31796275  1
  La  La8  1  0.84296683  0.29139451  0.10609971  1
  La  La9  1  0.56047696  0.31860990  0.57648608  1
  La  La10  1  0.45719381  0.18059408  0.92400233  1
  La  La11  1  0.24314389  0.20937937  0.39403263  1
  La  La12  1  0.29696592  0.57571970  0.78865241  1
  La  La13  1  0.54228027  0.81804455  0.07628682  1
  La  La14  1  0.43588120  0.68228368  0.42341418  1
  La  La15  1  0.15420689  0.70716353  0.89395637  1
  Cu  Cu16  1  0.76208372  0.99061643  0.46917316  1
  Cu  Cu17  1  0.02594253  0.74985088  0.25009352  1
  Cu  Cu18  1  0.77436961  0.49455728  0.96901827  1
  Cu  Cu19  1  0.22623723  0.50529328  0.03110783  1
  Cu  Cu20  1  0.13835122  0.61929417  0.14223027  1
  Cu  Cu21  1  0.23448375  0.00867688  0.53094738  1
  Cu  Cu22  1  0.77491778  0.15154459  0.02287695  1
  Cu  Cu23  1  0.85952323  0.37921594  0.85803053  1
  Cu  Cu24  1  0.97395507  0.24803192  0.75010250  1
  Cu  Cu25  1  0.94886044  0.34923591  0.47682335  1
  Cu  Cu26  1  0.04641955  0.65140635  0.52312005  1
  Cu  Cu27  1  0.90065530  0.88247185  0.35777536  1
  Cu  Cu28  1  0.09621402  0.11814297  0.64205264  1
  Cu  Cu29  1  0.22314617  0.84652082  0.97707755  1
  O  O30  1  0.67469156  0.71950836  0.83476253  1
  O  O31  1  0.64010422  0.61715848  0.14219645  1
  O  O32  1  0.08384048  0.67794584  0.19702839  1
  O  O33  1  0.67296557  0.34767934  0.43011001  1
  O  O34  1  0.40015806  0.88485478  0.35786109  1
  O  O35  1  0.79011104  0.59297190  0.73023815  1
  O  O36  1  0.81649999  0.44111822  0.91312697  1
  O  O37  1  0.44910400  0.15387561  0.06957083  1
  O  O38  1  0.76174300  0.44007774  0.02852934  1
  O  O39  1  0.22590460  0.06378284  0.47154283  1
  O  O40  1  0.21355488  0.40472408  0.26984634  1
  O  O41  1  0.76255603  0.22130768  0.33435862  1
  O  O42  1  0.23876917  0.55940367  0.97146985  1
  O  O43  1  0.18310737  0.55675637  0.08712560  1
  O  O44  1  0.76984073  0.93704839  0.52858379  1
  O  O45  1  0.52697218  0.74971249  0.25013230  1
  O  O46  1  0.32240399  0.65302271  0.56991624  1
  O  O47  1  0.07390366  0.36826984  0.53021563  1
  O  O48  1  0.59579243  0.11632474  0.64214589  1
  O  O49  1  0.97300596  0.12955408  0.96958980  1
  O  O50  1  0.16953218  0.05706522  0.58679914  1
  O  O51  1  0.92206422  0.63272931  0.46957503  1
  O  O52  1  0.82751502  0.94385125  0.41311833  1
  O  O53  1  0.47370276  0.24736042  0.75014291  1
  O  O54  1  0.02616131  0.86793471  0.03055372  1
  O  O55  1  0.88759172  0.46469476  0.62908728  1
  O  O56  1  0.32161371  0.27872347  0.16563946  1
  O  O57  1  0.10620139  0.53497703  0.37058711  1
  O  O58  1  0.54928349  0.84474709  0.93033602  1
  O  O59  1  0.91502576  0.31982719  0.80325355  1
  O  O60  1  0.35737158  0.38148487  0.85802536  1
  O  O61  1  0.23019784  0.77711580  0.66534081  1
  O  O62  1  0.11778760  0.90262279  0.76937077  1
  O  O63  1  0.98799932  0.03318559  0.87056453  1
  O  O64  1  0.88323311  0.09495805  0.23032714  1
  O  O65  1  0.00956833  0.96557188  0.12944984  1
  O  O66  1  0.03835619  0.17829201  0.69679968  1
  O  O67  1  0.96077742  0.82148863  0.30311194  1
