# generated using pymatgen
data_Sb2Te2O9
_symmetry_space_group_name_H-M   'P 1'
_cell_length_a   5.05332231
_cell_length_b   14.63838681
_cell_length_c   22.74980588
_cell_angle_alpha   108.95058240
_cell_angle_beta   90.00000000
_cell_angle_gamma   90.00000000
_symmetry_Int_Tables_number   1
_chemical_formula_structural   Sb2Te2O9
_chemical_formula_sum   'Sb16 Te16 O72'
_cell_volume   1591.64707680
_cell_formula_units_Z   8
loop_
 _symmetry_equiv_pos_site_id
 _symmetry_equiv_pos_as_xyz
  1  'x, y, z'
loop_
 _atom_site_type_symbol
 _atom_site_label
 _atom_site_symmetry_multiplicity
 _atom_site_fract_x
 _atom_site_fract_y
 _atom_site_fract_z
 _atom_site_occupancy
  Sb  Sb0  1  0.19305681  0.98700346  0.65273331  1
  Sb  Sb1  1  0.66143805  0.83856942  0.82644058  1
  Sb  Sb2  1  0.30804789  0.16718686  0.44845745  1
  Sb  Sb3  1  0.83856195  0.33856942  0.82644058  1
  Sb  Sb4  1  0.18116053  0.25637984  0.94291657  1
  Sb  Sb5  1  0.80694319  0.01299654  0.34726669  1
  Sb  Sb6  1  0.16143805  0.66143058  0.17355942  1
  Sb  Sb7  1  0.33856195  0.16143058  0.17355942  1
  Sb  Sb8  1  0.68116053  0.24362016  0.05708343  1
  Sb  Sb9  1  0.81883947  0.74362016  0.05708343  1
  Sb  Sb10  1  0.30694319  0.48700346  0.65273331  1
  Sb  Sb11  1  0.69195211  0.83281314  0.55154255  1
  Sb  Sb12  1  0.69305681  0.51299654  0.34726669  1
  Sb  Sb13  1  0.19195211  0.66718686  0.44845745  1
  Sb  Sb14  1  0.80804789  0.33281314  0.55154255  1
  Sb  Sb15  1  0.31883947  0.75637984  0.94291657  1
  Te  Te16  1  0.29369709  0.49935377  0.92471177  1
  Te  Te17  1  0.87699333  0.19807158  0.28772706  1
  Te  Te18  1  0.85532204  0.11010159  0.55693533  1
  Te  Te19  1  0.79369709  0.00064623  0.07528823  1
  Te  Te20  1  0.16337469  0.41450090  0.23355703  1
  Te  Te21  1  0.12300667  0.80192842  0.71227294  1
  Te  Te22  1  0.83662531  0.58549910  0.76644297  1
  Te  Te23  1  0.62300667  0.69807158  0.28772706  1
  Te  Te24  1  0.35532204  0.38989841  0.44306467  1
  Te  Te25  1  0.64467796  0.61010159  0.55693533  1
  Te  Te26  1  0.70630291  0.50064623  0.07528823  1
  Te  Te27  1  0.14467796  0.88989841  0.44306467  1
  Te  Te28  1  0.37699333  0.30192842  0.71227294  1
  Te  Te29  1  0.33662531  0.91450090  0.23355703  1
  Te  Te30  1  0.66337469  0.08549910  0.76644297  1
  Te  Te31  1  0.20630291  0.99935377  0.92471177  1
  O  O32  1  0.39627679  0.77671297  0.21748784  1
  O  O33  1  0.66993324  0.10002734  0.03722585  1
  O  O34  1  0.96379437  0.72574034  0.52427125  1
  O  O35  1  0.12264933  0.06790507  0.10401338  1
  O  O36  1  0.59696090  0.22811680  0.24179196  1
  O  O37  1  0.09696090  0.27188320  0.75820804  1
  O  O38  1  0.41678845  0.59025153  0.61878633  1
  O  O39  1  0.11239250  0.44171803  0.84766121  1
  O  O40  1  0.16993324  0.39997266  0.96277415  1
  O  O41  1  0.03914477  0.75714461  0.40616760  1
  O  O42  1  0.60372321  0.22328703  0.78251216  1
  O  O43  1  0.49326699  0.29119586  0.99887470  1
  O  O44  1  0.98948123  0.93253865  0.26524015  1
  O  O45  1  0.10353630  0.10520073  0.37075029  1
  O  O46  1  0.37735067  0.56790507  0.10401338  1
  O  O47  1  0.00673301  0.79119586  0.99887470  1
  O  O48  1  0.00629958  0.42827438  0.31229787  1
  O  O49  1  0.60353630  0.39479927  0.62924971  1
  O  O50  1  0.99370042  0.57172562  0.68770213  1
  O  O51  1  0.51051877  0.43253865  0.26524015  1
  O  O52  1  0.48948123  0.56746135  0.73475985  1
  O  O53  1  0.50629958  0.07172562  0.68770213  1
  O  O54  1  0.69571800  0.87126385  0.10593035  1
  O  O55  1  0.87632761  0.89081377  0.76931353  1
  O  O56  1  0.96085523  0.24285539  0.59383240  1
  O  O57  1  0.19571800  0.62873615  0.89406965  1
  O  O58  1  0.90303910  0.72811680  0.24179196  1
  O  O59  1  0.62264933  0.43209493  0.89598662  1
  O  O60  1  0.46085523  0.25714461  0.40616760  1
  O  O61  1  0.87523961  0.91891307  0.50791300  1
  O  O62  1  0.53914477  0.74285539  0.59383240  1
  O  O63  1  0.90693250  0.56966142  0.42384585  1
  O  O64  1  0.91678845  0.90974847  0.38121367  1
  O  O65  1  0.40303910  0.77188320  0.75820804  1
  O  O66  1  0.39646370  0.60520073  0.37075029  1
  O  O67  1  0.10372321  0.27671297  0.21748784  1
  O  O68  1  0.12367239  0.10918623  0.23068647  1
  O  O69  1  0.49370042  0.92827438  0.31229787  1
  O  O70  1  0.16944103  0.40686644  0.70251347  1
  O  O71  1  0.07370748  0.74787382  0.12524714  1
  O  O72  1  0.80428200  0.37126385  0.10593035  1
  O  O73  1  0.89646370  0.89479927  0.62924971  1
  O  O74  1  0.42629252  0.24787382  0.12524714  1
  O  O75  1  0.99326699  0.20880414  0.00112530  1
  O  O76  1  0.58321155  0.40974847  0.38121367  1
  O  O77  1  0.53620563  0.22574034  0.52427125  1
  O  O78  1  0.33055897  0.90686644  0.70251347  1
  O  O79  1  0.61239250  0.05828197  0.15233879  1
  O  O80  1  0.30428200  0.12873615  0.89406965  1
  O  O81  1  0.83006676  0.60002734  0.03722585  1
  O  O82  1  0.62367239  0.39081377  0.76931353  1
  O  O83  1  0.59306750  0.06966142  0.42384585  1
  O  O84  1  0.12476039  0.08108693  0.49208700  1
  O  O85  1  0.08321155  0.09025153  0.61878633  1
  O  O86  1  0.50673301  0.70880414  0.00112530  1
  O  O87  1  0.40693250  0.93033858  0.57615415  1
  O  O88  1  0.62476039  0.41891307  0.50791300  1
  O  O89  1  0.92629252  0.25212618  0.87475286  1
  O  O90  1  0.33006676  0.89997266  0.96277415  1
  O  O91  1  0.03620563  0.27425966  0.47572875  1
  O  O92  1  0.89627679  0.72328703  0.78251216  1
  O  O93  1  0.66944103  0.09313356  0.29748653  1
  O  O94  1  0.57370748  0.75212618  0.87475286  1
  O  O95  1  0.09306750  0.43033858  0.57615415  1
  O  O96  1  0.46379437  0.77425966  0.47572875  1
  O  O97  1  0.83055897  0.59313356  0.29748653  1
  O  O98  1  0.37632761  0.60918623  0.23068647  1
  O  O99  1  0.88760750  0.55828197  0.15233879  1
  O  O100  1  0.38760750  0.94171803  0.84766121  1
  O  O101  1  0.87735067  0.93209493  0.89598662  1
  O  O102  1  0.37523961  0.58108693  0.49208700  1
  O  O103  1  0.01051877  0.06746135  0.73475985  1
