# generated using pymatgen
data_Ba4Fe9O20
_symmetry_space_group_name_H-M   'P 1'
_cell_length_a   5.97536716
_cell_length_b   5.97536716
_cell_length_c   14.54798794
_cell_angle_alpha   89.46392763
_cell_angle_beta   89.46392763
_cell_angle_gamma   60.12911985
_symmetry_Int_Tables_number   1
_chemical_formula_structural   Ba4Fe9O20
_chemical_formula_sum   'Ba4 Fe9 O20'
_cell_volume   450.40268041
_cell_formula_units_Z   1
loop_
 _symmetry_equiv_pos_site_id
 _symmetry_equiv_pos_as_xyz
  1  'x, y, z'
loop_
 _atom_site_type_symbol
 _atom_site_label
 _atom_site_symmetry_multiplicity
 _atom_site_fract_x
 _atom_site_fract_y
 _atom_site_fract_z
 _atom_site_occupancy
  Ba  Ba0  1  0.83343547  0.83343547  0.42049422  1
  Ba  Ba1  1  0.16656453  0.16656453  0.57950578  1
  Ba  Ba2  1  0.49877229  0.49877229  0.26261327  1
  Ba  Ba3  1  0.50122771  0.50122771  0.73738673  1
  Fe  Fe4  1  0.50000000  0.50000000  0.00000000  1
  Fe  Fe5  1  0.83008693  0.83008693  0.17540651  1
  Fe  Fe6  1  0.16991307  0.16991307  0.82459349  1
  Fe  Fe7  1  0.16264875  0.16264875  0.21134148  1
  Fe  Fe8  1  0.83735125  0.83735125  0.78865852  1
  Fe  Fe9  1  -0.00000000  0.50000000  0.00000000  1
  Fe  Fe10  1  0.50000000  -0.00000000  0.00000000  1
  Fe  Fe11  1  0.50000000  0.50000000  0.50000000  1
  Fe  Fe12  1  -0.00000000  -0.00000000  0.00000000  1
  O  O13  1  0.15714458  0.66948707  0.07508643  1
  O  O14  1  0.66948707  0.15714458  0.07508643  1
  O  O15  1  0.84285542  0.33051293  0.92491357  1
  O  O16  1  0.33051293  0.84285542  0.92491357  1
  O  O17  1  0.98619687  0.51046348  0.24518973  1
  O  O18  1  0.51046348  0.98619687  0.24518973  1
  O  O19  1  0.01380313  0.48953652  0.75481027  1
  O  O20  1  0.48953652  0.01380313  0.75481027  1
  O  O21  1  0.79866779  0.35870209  0.42915679  1
  O  O22  1  0.35870209  0.79866779  0.42915679  1
  O  O23  1  0.20133221  0.64129791  0.57084321  1
  O  O24  1  0.64129791  0.20133221  0.57084321  1
  O  O25  1  0.66926424  0.66926424  0.07495711  1
  O  O26  1  0.33073576  0.33073576  0.92504289  1
  O  O27  1  0.98710301  0.98710301  0.24682229  1
  O  O28  1  0.01289699  0.01289699  0.75317771  1
  O  O29  1  0.64224775  0.64224775  0.57640758  1
  O  O30  1  0.35775225  0.35775225  0.42359242  1
  O  O31  1  0.16521833  0.16521833  0.07465274  1
  O  O32  1  0.83478167  0.83478167  0.92534726  1
