# generated using pymatgen
data_Ac3Y
_symmetry_space_group_name_H-M   'P 1'
_cell_length_a   7.84607017
_cell_length_b   7.84607034
_cell_length_c   6.35558407
_cell_angle_alpha   90.00000000
_cell_angle_beta   90.00000000
_cell_angle_gamma   120.00000791
_symmetry_Int_Tables_number   1
_chemical_formula_structural   Ac3Y
_chemical_formula_sum   'Ac6 Y2'
_cell_volume   338.83670527
_cell_formula_units_Z   2
loop_
 _symmetry_equiv_pos_site_id
 _symmetry_equiv_pos_as_xyz
  1  'x, y, z'
loop_
 _atom_site_type_symbol
 _atom_site_label
 _atom_site_symmetry_multiplicity
 _atom_site_fract_x
 _atom_site_fract_y
 _atom_site_fract_z
 _atom_site_occupancy
  Ac  Ac0  1  0.16928320  0.33856641  0.24999900  1
  Ac  Ac1  1  0.66143459  0.83071680  0.24999900  1
  Ac  Ac2  1  0.16928320  0.83071680  0.24999900  1
  Ac  Ac3  1  0.83071580  0.66143359  0.75000000  1
  Ac  Ac4  1  0.33856541  0.16928320  0.75000000  1
  Ac  Ac5  1  0.83071680  0.16928320  0.75000000  1
  Y  Y6  1  0.33333300  0.66666600  0.75000000  1
  Y  Y7  1  0.66666700  0.33333200  0.24999900  1
