# generated using pymatgen
data_GaHg3
_symmetry_space_group_name_H-M   'P 1'
_cell_length_a   6.64458198
_cell_length_b   6.64458307
_cell_length_c   5.29960651
_cell_angle_alpha   90.00000000
_cell_angle_beta   90.00000000
_cell_angle_gamma   120.00001253
_symmetry_Int_Tables_number   1
_chemical_formula_structural   GaHg3
_chemical_formula_sum   'Ga2 Hg6'
_cell_volume   202.63273261
_cell_formula_units_Z   2
loop_
 _symmetry_equiv_pos_site_id
 _symmetry_equiv_pos_as_xyz
  1  'x, y, z'
loop_
 _atom_site_type_symbol
 _atom_site_label
 _atom_site_symmetry_multiplicity
 _atom_site_fract_x
 _atom_site_fract_y
 _atom_site_fract_z
 _atom_site_occupancy
  Ga  Ga0  1  0.33333300  0.66666600  0.75000100  1
  Ga  Ga1  1  0.66666700  0.33333300  0.25000100  1
  Hg  Hg2  1  0.16908150  0.33816400  0.25000100  1
  Hg  Hg3  1  0.66183700  0.83091950  0.25000100  1
  Hg  Hg4  1  0.16908250  0.83091950  0.25000100  1
  Hg  Hg5  1  0.83091850  0.66183600  0.75000100  1
  Hg  Hg6  1  0.33816500  0.16908150  0.75000100  1
  Hg  Hg7  1  0.83091650  0.16908150  0.75000100  1
