# generated using pymatgen
data_BaEu3
_symmetry_space_group_name_H-M   'P 1'
_cell_length_a   8.24872757
_cell_length_b   8.24872650
_cell_length_c   6.65840159
_cell_angle_alpha   90.00000000
_cell_angle_beta   90.00000000
_cell_angle_gamma   119.99999416
_symmetry_Int_Tables_number   1
_chemical_formula_structural   BaEu3
_chemical_formula_sum   'Ba2 Eu6'
_cell_volume   392.35076816
_cell_formula_units_Z   2
loop_
 _symmetry_equiv_pos_site_id
 _symmetry_equiv_pos_as_xyz
  1  'x, y, z'
loop_
 _atom_site_type_symbol
 _atom_site_label
 _atom_site_symmetry_multiplicity
 _atom_site_fract_x
 _atom_site_fract_y
 _atom_site_fract_z
 _atom_site_occupancy
  Ba  Ba0  1  0.33333400  0.66666700  0.75000100  1
  Ba  Ba1  1  0.66666700  0.33333300  0.25000100  1
  Eu  Eu2  1  0.16427686  0.32855472  0.25000100  1
  Eu  Eu3  1  0.67144528  0.83572114  0.25000100  1
  Eu  Eu4  1  0.16427586  0.83572114  0.25000100  1
  Eu  Eu5  1  0.83572314  0.67144728  0.75000100  1
  Eu  Eu6  1  0.32855472  0.16427686  0.75000100  1
  Eu  Eu7  1  0.83572214  0.16427686  0.75000100  1
