# generated using pymatgen
data_TaSi2H35(C3N)4
_symmetry_space_group_name_H-M   'P 1'
_cell_length_a   8.34555473
_cell_length_b   10.25545735
_cell_length_c   14.74779295
_cell_angle_alpha   71.36884400
_cell_angle_beta   87.51390280
_cell_angle_gamma   67.53511533
_symmetry_Int_Tables_number   1
_chemical_formula_structural   TaSi2H35(C3N)4
_chemical_formula_sum   'Ta2 Si4 H70 C24 N8'
_cell_volume   1100.84059315
_cell_formula_units_Z   2
loop_
 _symmetry_equiv_pos_site_id
 _symmetry_equiv_pos_as_xyz
  1  'x, y, z'
loop_
 _atom_site_type_symbol
 _atom_site_label
 _atom_site_symmetry_multiplicity
 _atom_site_fract_x
 _atom_site_fract_y
 _atom_site_fract_z
 _atom_site_occupancy
  Ta  Ta0  1  0.19409029  0.07728776  0.18989506  1
  Ta  Ta1  1  0.80590971  0.92271224  0.81010494  1
  Si  Si2  1  0.44214642  0.76584413  0.23017455  1
  Si  Si3  1  0.55785358  0.23415587  0.76982545  1
  Si  Si4  1  0.81980676  0.21267251  0.60800808  1
  Si  Si5  1  0.18019324  0.78732749  0.39199192  1
  H  H6  1  0.05770873  0.29765491  0.35870422  1
  H  H7  1  0.42951409  0.27293720  0.03432570  1
  H  H8  1  0.09456433  0.57010513  0.46365294  1
  H  H9  1  0.90543567  0.42989487  0.53634706  1
  H  H10  1  0.96627602  0.03022484  0.40443744  1
  H  H11  1  0.21248367  0.24909030  0.93258252  1
  H  H12  1  0.01916427  0.37010666  0.23068725  1
  H  H13  1  0.35703813  0.09450818  0.42489908  1
  H  H14  1  0.32339529  0.84653577  0.51138515  1
  H  H15  1  0.98701125  0.75240677  0.01926551  1
  H  H16  1  0.29321140  0.78341217  0.80437971  1
  H  H17  1  0.38225433  0.94572701  0.05755343  1
  H  H18  1  0.05060449  0.41660647  0.94278041  1
  H  H19  1  0.03372398  0.96977516  0.59556256  1
  H  H20  1  0.64095387  0.68402795  0.85886003  1
  H  H21  1  0.90143881  0.88096566  0.46482825  1
  H  H22  1  0.45881005  0.67188630  0.49924523  1
  H  H23  1  0.69001475  0.75886136  0.32505865  1
  H  H24  1  0.52364098  0.83868450  0.66873661  1
  H  H25  1  0.57048591  0.72706280  0.96567430  1
  H  H26  1  0.80643361  0.61870693  0.71143065  1
  H  H27  1  0.29551537  0.66271195  0.14118198  1
  H  H28  1  0.46772774  0.98228277  0.35329392  1
  H  H29  1  0.47635902  0.16131550  0.33126339  1
  H  H30  1  0.70678860  0.21658783  0.19562029  1
  H  H31  1  0.52580626  0.97742317  0.12503566  1
  H  H32  1  0.28066627  0.51901618  0.39960722  1
  H  H33  1  0.72405045  0.31378607  0.43231423  1
  H  H34  1  0.70448463  0.33728805  0.85881802  1
  H  H35  1  0.86803840  0.95940008  0.33763939  1
  H  H36  1  0.92899162  0.37343453  0.66377268  1
  H  H37  1  0.54118995  0.32811370  0.50075477  1
  H  H38  1  0.30998525  0.24113864  0.67494135  1
  H  H39  1  0.47419374  0.02257683  0.87496434  1
  H  H40  1  0.52559727  0.57049213  0.15095167  1
  H  H41  1  0.40725395  0.52457331  0.25093109  1
  H  H42  1  0.59274605  0.47542669  0.74906891  1
  H  H43  1  0.76331714  0.62356998  0.26560577  1
  H  H44  1  0.07100838  0.62656547  0.33622732  1
  H  H45  1  0.74246195  0.55387956  0.97379524  1
  H  H46  1  0.64296187  0.90549182  0.57510092  1
  H  H47  1  0.19356639  0.38129307  0.28856935  1
  H  H48  1  0.67660471  0.15346423  0.48861485  1
  H  H49  1  0.27594955  0.68621393  0.56768577  1
  H  H50  1  0.01298875  0.24759323  0.98073449  1
  H  H51  1  0.94229127  0.70234509  0.64129578  1
  H  H52  1  0.25753805  0.44612044  0.02620476  1
  H  H53  1  0.23668286  0.37643002  0.73439423  1
  H  H54  1  0.47440273  0.42950787  0.84904833  1
  H  H55  1  0.16823530  0.04973443  0.81289333  1
  H  H56  1  0.53227226  0.01771723  0.64670608  1
  H  H57  1  0.94939551  0.58339353  0.05721959  1
  H  H58  1  0.09856119  0.11903434  0.53517175  1
  H  H59  1  0.73079182  0.28912897  0.07105239  1
  H  H60  1  0.83542457  0.32557779  0.15720295  1
  H  H61  1  0.83287923  0.03869755  0.06173975  1
  H  H62  1  0.65841505  0.58910867  0.37289985  1
  H  H63  1  0.16712077  0.96130245  0.93826025  1
  H  H64  1  0.98083573  0.62989334  0.76931275  1
  H  H65  1  0.83176470  0.95026557  0.18710667  1
  H  H66  1  0.02778061  0.89686853  0.13044413  1
  H  H67  1  0.34158495  0.41089133  0.62710015  1
  H  H68  1  0.13196160  0.04059992  0.66236061  1
  H  H69  1  0.78751633  0.75090970  0.06741748  1
  H  H70  1  0.35904613  0.31597205  0.14113997  1
  H  H71  1  0.61774567  0.05427299  0.94244657  1
  H  H72  1  0.71933373  0.48098382  0.60039278  1
  H  H73  1  0.26920818  0.71087103  0.92894761  1
  H  H74  1  0.16457543  0.67442221  0.84279705  1
  H  H75  1  0.97221939  0.10313147  0.86955587  1
  C  C76  1  0.58160159  0.06130075  0.86959252  1
  C  C77  1  0.91023254  0.99264837  0.13188071  1
  C  C78  1  0.04133217  0.07229269  0.59989943  1
  C  C79  1  0.19993233  0.75972973  0.85621349  1
  C  C80  1  0.41428402  0.61734681  0.18989942  1
  C  C81  1  0.87886106  0.68996215  0.70921801  1
  C  C82  1  0.58571598  0.38265319  0.81010058  1
  C  C83  1  0.60813717  0.90257154  0.64876859  1
  C  C84  1  0.11218174  0.29415757  0.97853963  1
  C  C85  1  0.31405896  0.32616405  0.06942063  1
  C  C86  1  0.65764669  0.67615058  0.30569106  1
  C  C87  1  0.32323848  0.74416797  0.50255519  1
  C  C88  1  0.68594104  0.67383595  0.93057937  1
  C  C89  1  0.12113894  0.31003785  0.29078199  1
  C  C90  1  0.88781826  0.70584243  0.02146037  1
  C  C91  1  0.08976746  0.00735163  0.86811929  1
  C  C92  1  0.34235331  0.32384942  0.69430894  1
  C  C93  1  0.15464120  0.60943370  0.39808311  1
  C  C94  1  0.84535880  0.39056630  0.60191689  1
  C  C95  1  0.80006767  0.24027027  0.14378651  1
  C  C96  1  0.41839841  0.93869925  0.13040748  1
  C  C97  1  0.67676152  0.25583203  0.49744481  1
  C  C98  1  0.95866783  0.92770731  0.40010057  1
  C  C99  1  0.39186283  0.09742846  0.35123141  1
  N  N100  1  0.81295064  0.74134447  0.92479517  1
  N  N101  1  0.23633697  0.16563461  0.28425851  1
  N  N102  1  0.95368148  0.10596245  0.15189673  1
  N  N103  1  0.26660977  0.85666155  0.28677345  1
  N  N104  1  0.04631852  0.89403755  0.84810327  1
  N  N105  1  0.18704936  0.25865553  0.07520483  1
  N  N106  1  0.76366303  0.83436539  0.71574149  1
  N  N107  1  0.73339023  0.14333845  0.71322655  1
