# generated using pymatgen
data_Mg16Al12Au
_symmetry_space_group_name_H-M   'P 1'
_cell_length_a   9.28574065
_cell_length_b   9.03742237
_cell_length_c   9.03742358
_cell_angle_alpha   108.90794641
_cell_angle_beta   110.02878325
_cell_angle_gamma   110.02878189
_symmetry_Int_Tables_number   1
_chemical_formula_structural   Mg16Al12Au
_chemical_formula_sum   'Mg16 Al12 Au1'
_cell_volume   579.76115405
_cell_formula_units_Z   1
loop_
 _symmetry_equiv_pos_site_id
 _symmetry_equiv_pos_as_xyz
  1  'x, y, z'
loop_
 _atom_site_type_symbol
 _atom_site_label
 _atom_site_symmetry_multiplicity
 _atom_site_fract_x
 _atom_site_fract_y
 _atom_site_fract_z
 _atom_site_occupancy
  Mg  Mg0  1  0.31668731  0.59822533  0.99999900  1
  Mg  Mg1  1  0.00263608  0.34904823  0.99999900  1
  Mg  Mg2  1  0.58300643  0.28087641  0.00000000  1
  Mg  Mg3  1  0.99589185  0.99999900  0.00000000  1
  Mg  Mg4  1  0.68125433  0.67766255  0.27574691  1
  Mg  Mg5  1  0.58300743  0.99999900  0.28087641  1
  Mg  Mg6  1  0.00359178  0.59808436  0.32233745  1
  Mg  Mg7  1  0.00263508  1.00000000  0.34904823  1
  Mg  Mg8  1  0.71846298  0.40177467  0.40177467  1
  Mg  Mg9  1  0.40550942  0.72425409  0.40191664  1
  Mg  Mg10  1  0.00359178  0.32233745  0.59808436  1
  Mg  Mg11  1  0.31668831  0.99999900  0.59822533  1
  Mg  Mg12  1  0.65358685  0.65095077  0.65095077  1
  Mg  Mg13  1  0.68125433  0.27574691  0.67766255  1
  Mg  Mg14  1  0.30213102  0.71912359  0.71912359  1
  Mg  Mg15  1  0.40550842  0.40191664  0.72425409  1
  Al  Al16  1  0.81482959  0.62002611  0.99999900  1
  Al  Al17  1  0.64732653  0.81118329  0.00000000  1
  Al  Al18  1  0.36729978  0.36853919  0.18477571  1
  Al  Al19  1  0.18252307  0.81522229  0.18376148  1
  Al  Al20  1  0.83614324  0.18881771  0.18881771  1
  Al  Al21  1  0.36729978  0.18477671  0.36853919  1
  Al  Al22  1  0.19480248  0.37997389  0.37997389  1
  Al  Al23  1  0.81482959  0.99999900  0.62002611  1
  Al  Al24  1  0.99876258  0.81623852  0.63146181  1
  Al  Al25  1  0.64732653  0.00000000  0.81118329  1
  Al  Al26  1  0.99876158  0.63146181  0.81623952  1
  Al  Al27  1  0.18252307  0.18376048  0.81522229  1
  Au  Au28  1  0.29213277  1.00000000  0.00000100  1
