# generated using pymatgen
data_BrClO
_symmetry_space_group_name_H-M   'P 1'
_cell_length_a   9.27490718
_cell_length_b   9.27490672
_cell_length_c   9.27490734
_cell_angle_alpha   114.85015809
_cell_angle_beta   114.85015954
_cell_angle_gamma   114.85015558
_symmetry_Int_Tables_number   1
_chemical_formula_structural   BrClO
_chemical_formula_sum   'Br6 Cl6 O6'
_cell_volume   452.56612900
_cell_formula_units_Z   6
loop_
 _symmetry_equiv_pos_site_id
 _symmetry_equiv_pos_as_xyz
  1  'x, y, z'
loop_
 _atom_site_type_symbol
 _atom_site_label
 _atom_site_symmetry_multiplicity
 _atom_site_fract_x
 _atom_site_fract_y
 _atom_site_fract_z
 _atom_site_occupancy
  Br  Br0  1  0.25973075  0.73884477  0.58218575  1
  Br  Br1  1  0.26115523  0.41781425  0.74026925  1
  Br  Br2  1  0.41781425  0.74026925  0.26115523  1
  Br  Br3  1  0.58218575  0.25973075  0.73884477  1
  Br  Br4  1  0.73884477  0.58218575  0.25973075  1
  Br  Br5  1  0.74026925  0.26115523  0.41781425  1
  Cl  Cl6  1  0.08673691  0.13393809  0.37814138  1
  Cl  Cl7  1  0.62185862  0.91326309  0.86606191  1
  Cl  Cl8  1  0.13393809  0.37814138  0.08673691  1
  Cl  Cl9  1  0.86606191  0.62185862  0.91326309  1
  Cl  Cl10  1  0.37814138  0.08673691  0.13393809  1
  Cl  Cl11  1  0.91326309  0.86606191  0.62185862  1
  O  O12  1  0.13832681  0.51379419  0.68672796  1
  O  O13  1  0.31327204  0.86167319  0.48620581  1
  O  O14  1  0.48620581  0.31327204  0.86167319  1
  O  O15  1  0.51379419  0.68672796  0.13832681  1
  O  O16  1  0.68672796  0.13832681  0.51379419  1
  O  O17  1  0.86167319  0.48620581  0.31327204  1
