# generated using pymatgen
data_Mg16BeAl12
_symmetry_space_group_name_H-M   'P 1'
_cell_length_a   9.33326295
_cell_length_b   8.98771281
_cell_length_c   8.98771440
_cell_angle_alpha   108.67933065
_cell_angle_beta   110.25195228
_cell_angle_gamma   110.25194343
_symmetry_Int_Tables_number   1
_chemical_formula_structural   Mg16BeAl12
_chemical_formula_sum   'Mg16 Be1 Al12'
_cell_volume   574.69120958
_cell_formula_units_Z   1
loop_
 _symmetry_equiv_pos_site_id
 _symmetry_equiv_pos_as_xyz
  1  'x, y, z'
loop_
 _atom_site_type_symbol
 _atom_site_label
 _atom_site_symmetry_multiplicity
 _atom_site_fract_x
 _atom_site_fract_y
 _atom_site_fract_z
 _atom_site_occupancy
  Mg  Mg0  1  0.58054868  0.28106659  1.00000000  1
  Mg  Mg1  1  0.31720215  0.59702586  0.00000000  1
  Mg  Mg2  1  0.00305894  0.34986225  1.00000000  1
  Mg  Mg3  1  0.99645608  0.00000000  1.00000000  1
  Mg  Mg4  1  0.68282069  0.67842751  0.27792708  1
  Mg  Mg5  1  0.58054868  1.00000000  0.28106659  1
  Mg  Mg6  1  0.00439317  0.59949957  0.32157249  1
  Mg  Mg7  1  0.00305994  0.00000100  0.34986225  1
  Mg  Mg8  1  0.40489461  0.72207392  0.40050143  1
  Mg  Mg9  1  0.72017629  0.40297414  0.40297414  1
  Mg  Mg10  1  0.31720215  1.00000000  0.59702586  1
  Mg  Mg11  1  0.00439317  0.32157249  0.59949957  1
  Mg  Mg12  1  0.65319569  0.65013575  0.65013675  1
  Mg  Mg13  1  0.68282069  0.27792708  0.67842751  1
  Mg  Mg14  1  0.29948209  0.71893441  0.71893441  1
  Mg  Mg15  1  0.40489461  0.40050143  0.72207392  1
  Be  Be16  1  0.27866300  -0.00000000  0.00000100  1
  Al  Al17  1  0.64467837  0.81036216  0.00000000  1
  Al  Al18  1  0.81668633  0.62151146  1.00000000  1
  Al  Al19  1  0.36666230  0.36147032  0.18152663  1
  Al  Al20  1  0.18513366  0.81847237  0.17994269  1
  Al  Al21  1  0.83431421  0.18963584  0.18963584  1
  Al  Al22  1  0.36666130  0.18152663  0.36147132  1
  Al  Al23  1  0.19517387  0.37849054  0.37848954  1
  Al  Al24  1  0.81668633  0.00000000  0.62151146  1
  Al  Al25  1  0.00519098  0.82005531  0.63852968  1
  Al  Al26  1  0.64467837  0.99999900  0.81036316  1
  Al  Al27  1  0.00519098  0.63852968  0.82005531  1
  Al  Al28  1  0.18513466  0.17994369  0.81847237  1
