# generated using pymatgen
data_Mg16NpAl12
_symmetry_space_group_name_H-M   'P 1'
_cell_length_a   9.09268135
_cell_length_b   9.09268055
_cell_length_c   9.09268135
_cell_angle_alpha   109.47122316
_cell_angle_beta   109.47122193
_cell_angle_gamma   109.47122316
_symmetry_Int_Tables_number   1
_chemical_formula_structural   Mg16NpAl12
_chemical_formula_sum   'Mg16 Np1 Al12'
_cell_volume   578.70062517
_cell_formula_units_Z   1
loop_
 _symmetry_equiv_pos_site_id
 _symmetry_equiv_pos_as_xyz
  1  'x, y, z'
loop_
 _atom_site_type_symbol
 _atom_site_label
 _atom_site_symmetry_multiplicity
 _atom_site_fract_x
 _atom_site_fract_y
 _atom_site_fract_z
 _atom_site_occupancy
  Mg  Mg0  1  0.99999900  0.35635595  0.99999900  1
  Mg  Mg1  1  0.35635595  0.99999900  1.00000000  1
  Mg  Mg2  1  0.32163352  0.60510879  0.00000000  1
  Mg  Mg3  1  0.60510879  0.32163252  0.00000100  1
  Mg  Mg4  1  0.67836848  0.67836748  0.28347627  1
  Mg  Mg5  1  0.60510879  0.00000100  0.32163252  1
  Mg  Mg6  1  0.00000000  0.60510879  0.32163352  1
  Mg  Mg7  1  1.00000000  0.99999900  0.35635595  1
  Mg  Mg8  1  0.71652573  0.39489321  0.39489221  1
  Mg  Mg9  1  0.39489321  0.71652473  0.39489321  1
  Mg  Mg10  1  0.00000100  0.32163252  0.60510879  1
  Mg  Mg11  1  0.32163252  0.00000100  0.60510879  1
  Mg  Mg12  1  0.64364205  0.64364205  0.64364205  1
  Mg  Mg13  1  0.67836748  0.28347627  0.67836748  1
  Mg  Mg14  1  0.28347627  0.67836748  0.67836848  1
  Mg  Mg15  1  0.39489221  0.39489321  0.71652573  1
  Np  Np16  1  -0.00000000  -0.00000000  0.00000000  1
  Al  Al17  1  0.81618973  0.63709165  0.00000000  1
  Al  Al18  1  0.63709165  0.81619073  0.00000100  1
  Al  Al19  1  0.36290935  0.36290935  0.17909808  1
  Al  Al20  1  0.82089992  0.18381027  0.18380927  1
  Al  Al21  1  0.18381027  0.82089992  0.18381027  1
  Al  Al22  1  0.36290935  0.17909808  0.36290935  1
  Al  Al23  1  0.17909808  0.36290935  0.36290935  1
  Al  Al24  1  0.81618973  0.00000100  0.63709165  1
  Al  Al25  1  0.00000100  0.81619073  0.63709165  1
  Al  Al26  1  0.00000000  0.63709165  0.81618973  1
  Al  Al27  1  0.63709165  0.00000100  0.81618973  1
  Al  Al28  1  0.18380927  0.18381027  0.82089992  1
