# generated using pymatgen
data_Pr3AlCoS7
_symmetry_space_group_name_H-M   'P 1'
_cell_length_a   6.02906500
_cell_length_b   10.04541075
_cell_length_c   10.05556215
_cell_angle_alpha   119.99908709
_cell_angle_beta   90.00000000
_cell_angle_gamma   90.00000000
_symmetry_Int_Tables_number   1
_chemical_formula_structural   Pr3AlCoS7
_chemical_formula_sum   'Pr6 Al2 Co2 S14'
_cell_volume   527.42249280
_cell_formula_units_Z   2
loop_
 _symmetry_equiv_pos_site_id
 _symmetry_equiv_pos_as_xyz
  1  'x, y, z'
loop_
 _atom_site_type_symbol
 _atom_site_label
 _atom_site_symmetry_multiplicity
 _atom_site_fract_x
 _atom_site_fract_y
 _atom_site_fract_z
 _atom_site_occupancy
  Pr  Pr0  1  0.25903523  0.22954767  0.37134114  1
  Pr  Pr1  1  0.25907890  0.62869739  0.85820052  1
  Pr  Pr2  1  0.25911648  0.14158160  0.77036152  1
  Pr  Pr3  1  0.75903523  0.77045233  0.62865886  1
  Pr  Pr4  1  0.75907890  0.37130261  0.14179948  1
  Pr  Pr5  1  0.75911648  0.85841840  0.22963848  1
  Al  Al6  1  0.83532415  0.33327115  0.66664903  1
  Al  Al7  1  0.33532415  0.66672885  0.33335097  1
  Co  Co8  1  0.47445994  0.99991035  0.00007195  1
  Co  Co9  1  0.97445994  0.00008965  0.99992805  1
  S  S10  1  0.71347232  0.13402900  0.21798355  1
  S  S11  1  0.71336186  0.78291024  0.91642313  1
  S  S12  1  0.71357865  0.08353244  0.86632492  1
  S  S13  1  0.21347232  0.86597100  0.78201645  1
  S  S14  1  0.21336186  0.21708976  0.08357687  1
  S  S15  1  0.21357865  0.91646756  0.13367508  1
  S  S16  1  0.98037741  0.09695040  0.51748560  1
  S  S17  1  0.98033416  0.48271532  0.57966230  1
  S  S18  1  0.98029372  0.42035171  0.90299284  1
  S  S19  1  0.48037741  0.90304960  0.48251440  1
  S  S20  1  0.48033416  0.51728468  0.42033770  1
  S  S21  1  0.48029372  0.57964829  0.09700716  1
  S  S22  1  0.46756718  0.33335515  0.66671522  1
  S  S23  1  0.96756718  0.66664485  0.33328478  1
