# generated using pymatgen
data_Pr2Ga2Co15
_symmetry_space_group_name_H-M   'P 1'
_cell_length_a   6.38199402
_cell_length_b   6.38199402
_cell_length_c   6.38199405
_cell_angle_alpha   83.02222730
_cell_angle_beta   83.02222730
_cell_angle_gamma   83.02222666
_symmetry_Int_Tables_number   1
_chemical_formula_structural   Pr2Ga2Co15
_chemical_formula_sum   'Pr2 Ga2 Co15'
_cell_volume   254.59436547
_cell_formula_units_Z   1
loop_
 _symmetry_equiv_pos_site_id
 _symmetry_equiv_pos_as_xyz
  1  'x, y, z'
loop_
 _atom_site_type_symbol
 _atom_site_label
 _atom_site_symmetry_multiplicity
 _atom_site_fract_x
 _atom_site_fract_y
 _atom_site_fract_z
 _atom_site_occupancy
  Pr  Pr0  1  0.64872863  0.64872863  0.64872863  1
  Pr  Pr1  1  0.35127137  0.35127137  0.35127137  1
  Ga  Ga2  1  0.89386953  0.89386953  0.89386953  1
  Ga  Ga3  1  0.10613047  0.10613047  0.10613047  1
  Co  Co4  1  -0.00000000  -0.00000000  0.50000000  1
  Co  Co5  1  -0.00000000  0.50000000  0.00000000  1
  Co  Co6  1  0.50000000  -0.00000000  0.00000000  1
  Co  Co7  1  0.28584265  0.71415735  0.00000000  1
  Co  Co8  1  0.71415735  1.00000000  0.28584265  1
  Co  Co9  1  0.00000000  0.28584265  0.71415735  1
  Co  Co10  1  0.28584265  0.00000000  0.71415735  1
  Co  Co11  1  1.00000000  0.71415735  0.28584265  1
  Co  Co12  1  0.71415735  0.28584265  0.00000000  1
  Co  Co13  1  0.34788047  0.34788047  0.84932463  1
  Co  Co14  1  0.34788047  0.84932463  0.34788047  1
  Co  Co15  1  0.84932463  0.34788047  0.34788047  1
  Co  Co16  1  0.65211953  0.65211953  0.15067537  1
  Co  Co17  1  0.65211953  0.15067537  0.65211953  1
  Co  Co18  1  0.15067537  0.65211953  0.65211953  1
