# generated using pymatgen
data_U3Al2Si3
_symmetry_space_group_name_H-M   'P 1'
_cell_length_a   7.57231172
_cell_length_b   7.57231172
_cell_length_c   7.64974333
_cell_angle_alpha   119.66572002
_cell_angle_beta   119.66572002
_cell_angle_gamma   90.00000000
_symmetry_Int_Tables_number   1
_chemical_formula_structural   U3Al2Si3
_chemical_formula_sum   'U6 Al4 Si6'
_cell_volume   313.27024921
_cell_formula_units_Z   2
loop_
 _symmetry_equiv_pos_site_id
 _symmetry_equiv_pos_as_xyz
  1  'x, y, z'
loop_
 _atom_site_type_symbol
 _atom_site_label
 _atom_site_symmetry_multiplicity
 _atom_site_fract_x
 _atom_site_fract_y
 _atom_site_fract_z
 _atom_site_occupancy
  U  U0  1  0.75901219  0.75901219  0.51802439  1
  U  U1  1  0.25925599  0.25925599  0.51851198  1
  U  U2  1  0.62641991  0.81906110  0.94552725  1
  U  U3  1  0.31910735  0.12646615  0.94552725  1
  U  U4  1  0.12646615  0.62641991  0.94552725  1
  U  U5  1  0.81906110  0.31910735  0.94552725  1
  Al  Al6  1  0.30760069  0.52672743  0.33443219  1
  Al  Al7  1  0.02683150  0.80770477  0.33443219  1
  Al  Al8  1  0.80770477  0.30760069  0.33443219  1
  Al  Al9  1  0.52672743  0.02683150  0.33443219  1
  Si  Si10  1  0.01061273  0.01061273  0.02122546  1
  Si  Si11  1  0.51044799  0.51044799  0.02089599  1
  Si  Si12  1  0.63932824  0.43914004  0.57917610  1
  Si  Si13  1  0.93984787  0.14003606  0.57917610  1
  Si  Si14  1  0.14003606  0.63932824  0.57917610  1
  Si  Si15  1  0.43914004  0.93984787  0.57917610  1
