# generated using pymatgen
data_CuCO3
_symmetry_space_group_name_H-M   'P 1'
_cell_length_a   8.10577211
_cell_length_b   8.10470612
_cell_length_c   3.25826878
_cell_angle_alpha   90.00000000
_cell_angle_beta   90.00000000
_cell_angle_gamma   119.91938618
_symmetry_Int_Tables_number   1
_chemical_formula_structural   CuCO3
_chemical_formula_sum   'Cu3 C3 O9'
_cell_volume   185.52456116
_cell_formula_units_Z   3
loop_
 _symmetry_equiv_pos_site_id
 _symmetry_equiv_pos_as_xyz
  1  'x, y, z'
loop_
 _atom_site_type_symbol
 _atom_site_label
 _atom_site_symmetry_multiplicity
 _atom_site_fract_x
 _atom_site_fract_y
 _atom_site_fract_z
 _atom_site_occupancy
  Cu  Cu0  1  0.01098376  0.36705772  0.00000000  1
  Cu  Cu1  1  0.35550070  0.98769964  0.00000000  1
  Cu  Cu2  1  0.63193703  0.64433462  0.00000000  1
  C  C3  1  0.33301423  0.66654185  0.50000000  1
  C  C4  1  0.00009306  -0.00008133  0.00000000  1
  C  C5  1  0.66669432  0.33333699  0.00000000  1
  O  O6  1  0.09173897  0.90802693  0.00000000  1
  O  O7  1  0.15236938  0.54341996  0.50000000  1
  O  O8  1  0.39150704  0.84859868  0.50000000  1
  O  O9  1  0.09161240  0.18375252  0.00000000  1
  O  O10  1  0.45757404  0.60935562  0.50000000  1
  O  O11  1  0.81639448  0.90822502  0.00000000  1
  O  O12  1  0.48442993  0.26245871  0.00000000  1
  O  O13  1  0.77856971  0.51571025  0.00000000  1
  O  O14  1  0.73758595  0.22156782  0.00000000  1
