# generated using pymatgen
data_Pr2Cr3Co14
_symmetry_space_group_name_H-M   'P 1'
_cell_length_a   6.30760935
_cell_length_b   6.30760935
_cell_length_c   6.30760932
_cell_angle_alpha   83.49242233
_cell_angle_beta   83.49242233
_cell_angle_gamma   83.49242292
_symmetry_Int_Tables_number   1
_chemical_formula_structural   Pr2Cr3Co14
_chemical_formula_sum   'Pr2 Cr3 Co14'
_cell_volume   246.44377496
_cell_formula_units_Z   1
loop_
 _symmetry_equiv_pos_site_id
 _symmetry_equiv_pos_as_xyz
  1  'x, y, z'
loop_
 _atom_site_type_symbol
 _atom_site_label
 _atom_site_symmetry_multiplicity
 _atom_site_fract_x
 _atom_site_fract_y
 _atom_site_fract_z
 _atom_site_occupancy
  Pr  Pr0  1  0.64832777  0.64832777  0.64832777  1
  Pr  Pr1  1  0.35167223  0.35167223  0.35167223  1
  Cr  Cr2  1  -0.00000000  -0.00000000  0.50000000  1
  Cr  Cr3  1  -0.00000000  0.50000000  -0.00000000  1
  Cr  Cr4  1  0.50000000  -0.00000000  -0.00000000  1
  Co  Co5  1  0.28425231  0.71574769  -0.00000000  1
  Co  Co6  1  0.71574769  0.00000000  0.28425231  1
  Co  Co7  1  1.00000000  0.28425231  0.71574769  1
  Co  Co8  1  0.28425231  1.00000000  0.71574769  1
  Co  Co9  1  0.00000000  0.71574769  0.28425231  1
  Co  Co10  1  0.71574769  0.28425231  -0.00000000  1
  Co  Co11  1  0.34008486  0.34008486  0.86269079  1
  Co  Co12  1  0.34008486  0.86269079  0.34008486  1
  Co  Co13  1  0.86269079  0.34008486  0.34008486  1
  Co  Co14  1  0.65991514  0.65991514  0.13730921  1
  Co  Co15  1  0.65991514  0.13730921  0.65991514  1
  Co  Co16  1  0.13730921  0.65991514  0.65991514  1
  Co  Co17  1  0.90267781  0.90267781  0.90267781  1
  Co  Co18  1  0.09732219  0.09732219  0.09732219  1
