# generated using pymatgen
data_SnPb3
_symmetry_space_group_name_H-M   'P 1'
_cell_length_a   6.99699153
_cell_length_b   6.99699344
_cell_length_c   5.78970580
_cell_angle_alpha   90.00000000
_cell_angle_beta   90.00000000
_cell_angle_gamma   120.00000166
_symmetry_Int_Tables_number   1
_chemical_formula_structural   SnPb3
_chemical_formula_sum   'Sn2 Pb6'
_cell_volume   245.47650711
_cell_formula_units_Z   2
loop_
 _symmetry_equiv_pos_site_id
 _symmetry_equiv_pos_as_xyz
  1  'x, y, z'
loop_
 _atom_site_type_symbol
 _atom_site_label
 _atom_site_symmetry_multiplicity
 _atom_site_fract_x
 _atom_site_fract_y
 _atom_site_fract_z
 _atom_site_occupancy
  Sn  Sn0  1  0.33333400  0.66666700  0.75000000  1
  Sn  Sn1  1  0.66666800  0.33333400  0.24999900  1
  Pb  Pb2  1  0.16930449  0.33860899  0.24999900  1
  Pb  Pb3  1  0.66139101  0.83069551  0.24999900  1
  Pb  Pb4  1  0.16930349  0.83069551  0.24999900  1
  Pb  Pb5  1  0.83069651  0.66139201  0.75000000  1
  Pb  Pb6  1  0.33860699  0.16930249  0.75000000  1
  Pb  Pb7  1  0.83069551  0.16930249  0.75000000  1
