# generated using pymatgen
data_La5Si3
_symmetry_space_group_name_H-M   'P 1'
_cell_length_a   6.82089600
_cell_length_b   8.99312169
_cell_length_c   8.99282284
_cell_angle_alpha   120.00110083
_cell_angle_beta   90.00000000
_cell_angle_gamma   90.00000000
_symmetry_Int_Tables_number   1
_chemical_formula_structural   La5Si3
_chemical_formula_sum   'La10 Si6'
_cell_volume   477.72035857
_cell_formula_units_Z   2
loop_
 _symmetry_equiv_pos_site_id
 _symmetry_equiv_pos_as_xyz
  1  'x, y, z'
loop_
 _atom_site_type_symbol
 _atom_site_label
 _atom_site_symmetry_multiplicity
 _atom_site_fract_x
 _atom_site_fract_y
 _atom_site_fract_z
 _atom_site_occupancy
  La  La0  1  0.49999165  0.33335493  0.66677803  1
  La  La1  1  0.49999165  0.66657690  0.33322197  1
  La  La2  1  0.99999165  0.66664507  0.33322197  1
  La  La3  1  0.99999165  0.33342310  0.66677803  1
  La  La4  1  0.75000438  0.25173536  0.00000000  1
  La  La5  1  0.74999836  0.74834765  0.74840346  1
  La  La6  1  0.74999836  0.99994419  0.25159654  1
  La  La7  1  0.25000438  0.74826464  1.00000000  1
  La  La8  1  0.24999836  0.25165235  0.25159654  1
  La  La9  1  0.24999836  0.00005581  0.74840346  1
  Si  Si10  1  0.75000233  0.60928973  0.00000000  1
  Si  Si11  1  0.75000663  0.39069960  0.39072033  1
  Si  Si12  1  0.75000663  0.99997927  0.60927967  1
  Si  Si13  1  0.25000233  0.39071027  1.00000000  1
  Si  Si14  1  0.25000663  0.60930040  0.60927967  1
  Si  Si15  1  0.25000663  0.00002073  0.39072033  1
