# generated using pymatgen
data_Ce2B5H7(C2O7)2
_symmetry_space_group_name_H-M   'P 1'
_cell_length_a   6.45976311
_cell_length_b   11.07113224
_cell_length_c   11.70548794
_cell_angle_alpha   61.77706590
_cell_angle_beta   90.33244486
_cell_angle_gamma   90.70300355
_symmetry_Int_Tables_number   1
_chemical_formula_structural   Ce2B5H7(C2O7)2
_chemical_formula_sum   'Ce4 B10 H14 C8 O28'
_cell_volume   737.56054412
_cell_formula_units_Z   2
loop_
 _symmetry_equiv_pos_site_id
 _symmetry_equiv_pos_as_xyz
  1  'x, y, z'
loop_
 _atom_site_type_symbol
 _atom_site_label
 _atom_site_symmetry_multiplicity
 _atom_site_fract_x
 _atom_site_fract_y
 _atom_site_fract_z
 _atom_site_occupancy
  Ce  Ce0  1  0.32884965  0.13076133  0.48091271  1
  Ce  Ce1  1  0.82884965  0.61167404  0.51908729  1
  Ce  Ce2  1  0.16841152  0.07508854  0.13337404  1
  Ce  Ce3  1  0.66841152  0.20846258  0.86662596  1
  B  B4  1  0.82057468  0.99702432  0.41331617  1
  B  B5  1  0.32057468  0.41034049  0.58668383  1
  B  B6  1  0.71800091  0.02603117  0.19180874  1
  B  B7  1  0.21800091  0.21783991  0.80819126  1
  B  B8  1  0.47350162  0.92178522  0.37916718  1
  B  B9  1  0.97350162  0.30095239  0.62083282  1
  B  B10  1  0.86837077  0.18502953  0.48624229  1
  B  B11  1  0.36837077  0.67127182  0.51375771  1
  B  B12  1  0.13231585  0.85079298  0.50378167  1
  B  B13  1  0.63231585  0.35457465  0.49621833  1
  H  H14  1  0.56725882  0.44674638  0.20349429  1
  H  H15  1  0.06725882  0.65024066  0.79650571  1
  H  H16  1  0.74813409  0.38459288  0.12772140  1
  H  H17  1  0.24813409  0.51231428  0.87227860  1
  H  H18  1  0.56467446  0.50870310  0.03053271  1
  H  H19  1  0.06467446  0.53923581  0.96946729  1
  H  H20  1  0.20285608  0.65816283  0.09471576  1
  H  H21  1  0.70285608  0.75287859  0.90528424  1
  H  H22  1  0.18000334  0.53838884  0.26434840  1
  H  H23  1  0.68000334  0.80273724  0.73565160  1
  H  H24  1  0.95346481  0.59077681  0.16441983  1
  H  H25  1  0.45346481  0.75519663  0.83558017  1
  H  H26  1  0.33324432  0.84379779  0.64517732  1
  H  H27  1  0.83324432  0.48897511  0.35482268  1
  C  C28  1  0.44359542  0.30659857  0.13826813  1
  C  C29  1  0.94359542  0.44486670  0.86173187  1
  C  C30  1  0.07795643  0.74093209  0.21301701  1
  C  C31  1  0.57795643  0.95394910  0.78698299  1
  C  C32  1  0.58865416  0.41924174  0.12601337  1
  C  C33  1  0.08865416  0.54525511  0.87398663  1
  C  C34  1  0.10631553  0.62476413  0.18116746  1
  C  C35  1  0.60631553  0.80593159  0.81883254  1
  O  O36  1  0.93325311  0.09410626  0.44663029  1
  O  O37  1  0.43325311  0.54073655  0.55336971  1
  O  O38  1  0.85868950  0.04753458  0.27141041  1
  O  O39  1  0.35868950  0.31894499  0.72858959  1
  O  O40  1  0.59622870  0.99305290  0.43617074  1
  O  O41  1  0.09622870  0.42922364  0.56382926  1
  O  O42  1  0.78761750  0.05770018  0.07206942  1
  O  O43  1  0.28761750  0.12976959  0.92793058  1
  O  O44  1  0.52130916  0.97556306  0.23888214  1
  O  O45  1  0.02130916  0.21444520  0.76111786  1
  O  O46  1  0.01846164  0.22038081  0.55003671  1
  O  O47  1  0.51846164  0.77041752  0.44996329  1
  O  O48  1  0.25155395  0.94520170  0.38490812  1
  O  O49  1  0.75155395  0.33010982  0.61509188  1
  O  O50  1  0.17848561  0.70330523  0.54221315  1
  O  O51  1  0.67848561  0.24551838  0.45778685  1
  O  O52  1  0.19892203  0.88258030  0.60940660  1
  O  O53  1  0.69892203  0.49198690  0.39059340  1
  O  O54  1  0.91139550  0.86063587  0.48770273  1
  O  O55  1  0.41139550  0.34833860  0.51229727  1
  O  O56  1  0.44379151  0.27043203  0.04976430  1
  O  O57  1  0.94379151  0.32019632  0.95023570  1
  O  O58  1  0.31922250  0.24811145  0.23567203  1
  O  O59  1  0.81922250  0.48378347  0.76432797  1
  O  O60  1  0.17029741  0.85343013  0.14468321  1
  O  O61  1  0.67029741  -0.00188666  0.85531679  1
  O  O62  1  0.96191940  0.71911013  0.30928593  1
  O  O63  1  0.46191940  0.02839606  0.69071407  1
