# generated using pymatgen
data_KAgCO3
_symmetry_space_group_name_H-M   'P 1'
_cell_length_a   5.86144418
_cell_length_b   5.93818586
_cell_length_c   11.05620986
_cell_angle_alpha   105.57772353
_cell_angle_beta   105.37139464
_cell_angle_gamma   90.00000000
_symmetry_Int_Tables_number   1
_chemical_formula_structural   KAgCO3
_chemical_formula_sum   'K4 Ag4 C4 O12'
_cell_volume   356.37877910
_cell_formula_units_Z   4
loop_
 _symmetry_equiv_pos_site_id
 _symmetry_equiv_pos_as_xyz
  1  'x, y, z'
loop_
 _atom_site_type_symbol
 _atom_site_label
 _atom_site_symmetry_multiplicity
 _atom_site_fract_x
 _atom_site_fract_y
 _atom_site_fract_z
 _atom_site_occupancy
  K  K0  1  0.31971686  0.56971686  0.63943372  1
  K  K1  1  0.18028314  0.93028314  0.36056628  1
  K  K2  1  0.68028314  0.43028314  0.36056628  1
  K  K3  1  0.81971686  0.06971686  0.63943372  1
  Ag  Ag4  1  0.75000000  0.86702996  1.00000000  1
  Ag  Ag5  1  0.25000000  0.63297004  0.00000000  1
  Ag  Ag6  1  0.25000000  0.13297004  0.00000000  1
  Ag  Ag7  1  0.75000000  0.36702996  1.00000000  1
  C  C8  1  0.62314730  0.87314730  0.24629459  1
  C  C9  1  0.87685270  0.62685270  0.75370541  1
  C  C10  1  0.37685270  0.12685270  0.75370541  1
  C  C11  1  0.12314730  0.37314730  0.24629459  1
  O  O12  1  0.68600313  0.93600313  0.37200625  1
  O  O13  1  0.81399687  0.56399687  0.62799375  1
  O  O14  1  0.31399687  0.06399687  0.62799375  1
  O  O15  1  0.18600313  0.43600313  0.37200625  1
  O  O16  1  0.74208788  0.71926846  0.18336732  1
  O  O17  1  0.44127945  0.96409886  0.18336732  1
  O  O18  1  0.05872055  0.78073154  0.81663268  1
  O  O19  1  0.75791212  0.53590114  0.81663268  1
  O  O20  1  0.25791212  0.28073154  0.81663268  1
  O  O21  1  0.55872055  0.03590114  0.81663268  1
  O  O22  1  0.94127945  0.21926846  0.18336732  1
  O  O23  1  0.24208788  0.46409886  0.18336732  1
