# generated using pymatgen
data_IrS2Cl3O7
_symmetry_space_group_name_H-M   'P 1'
_cell_length_a   8.49848800
_cell_length_b   10.27457583
_cell_length_c   12.75646335
_cell_angle_alpha   90.00000000
_cell_angle_beta   85.35874613
_cell_angle_gamma   90.00000000
_symmetry_Int_Tables_number   1
_chemical_formula_structural   IrS2Cl3O7
_chemical_formula_sum   'Ir2 S4 Cl6 O14'
_cell_volume   1110.22092199
_cell_formula_units_Z   2
loop_
 _symmetry_equiv_pos_site_id
 _symmetry_equiv_pos_as_xyz
  1  'x, y, z'
loop_
 _atom_site_type_symbol
 _atom_site_label
 _atom_site_symmetry_multiplicity
 _atom_site_fract_x
 _atom_site_fract_y
 _atom_site_fract_z
 _atom_site_occupancy
  Ir  Ir0  1  0.79170022  0.75000000  0.89867231  1
  Ir  Ir1  1  0.20829978  0.25000000  0.10132769  1
  S  S2  1  0.55191376  0.75000000  0.64836843  1
  S  S3  1  0.44808624  0.25000000  0.35163157  1
  S  S4  1  0.11738578  0.75000000  0.88239123  1
  S  S5  1  0.88261422  0.25000000  0.11760877  1
  Cl  Cl6  1  0.55163822  0.75000000  0.98258917  1
  Cl  Cl7  1  0.44836178  0.25000000  0.01741083  1
  Cl  Cl8  1  0.77420116  0.53559279  0.86652838  1
  Cl  Cl9  1  0.22579884  0.03559279  0.13347162  1
  Cl  Cl10  1  0.22579884  0.46440721  0.13347162  1
  Cl  Cl11  1  0.77420116  0.96440721  0.86652838  1
  O  O12  1  0.99330445  0.75000000  0.79809140  1
  O  O13  1  0.00669555  0.25000000  0.20190860  1
  O  O14  1  0.97542240  0.75000000  0.97954324  1
  O  O15  1  0.02457760  0.25000000  0.02045676  1
  O  O16  1  0.66487866  0.75000000  0.55860829  1
  O  O17  1  0.33512134  0.25000000  0.44139171  1
  O  O18  1  0.49602060  0.62895204  0.69412557  1
  O  O19  1  0.50397940  0.12895204  0.30587443  1
  O  O20  1  0.50397940  0.37104796  0.30587443  1
  O  O21  1  0.49602060  0.87104796  0.69412557  1
  O  O22  1  0.20215691  0.62945178  0.88468921  1
  O  O23  1  0.79784309  0.12945178  0.11531079  1
  O  O24  1  0.79784309  0.37054822  0.11531079  1
  O  O25  1  0.20215691  0.87054822  0.88468921  1
