# generated using pymatgen
data_Dy3GaFeS7
_symmetry_space_group_name_H-M   'P 1'
_cell_length_a   6.16016362
_cell_length_b   9.49815611
_cell_length_c   9.50329329
_cell_angle_alpha   120.01645068
_cell_angle_beta   90.00000000
_cell_angle_gamma   90.00000000
_symmetry_Int_Tables_number   1
_chemical_formula_structural   Dy3GaFeS7
_chemical_formula_sum   'Dy6 Ga2 Fe2 S14'
_cell_volume   481.46453199
_cell_formula_units_Z   2
loop_
 _symmetry_equiv_pos_site_id
 _symmetry_equiv_pos_as_xyz
  1  'x, y, z'
loop_
 _atom_site_type_symbol
 _atom_site_label
 _atom_site_symmetry_multiplicity
 _atom_site_fract_x
 _atom_site_fract_y
 _atom_site_fract_z
 _atom_site_occupancy
  Dy  Dy0  1  0.17378518  0.84517338  0.21846220  1
  Dy  Dy1  1  0.17378222  0.78160779  0.62664921  1
  Dy  Dy2  1  0.17391010  0.37332175  0.15488894  1
  Dy  Dy3  1  0.67378518  0.15482662  0.78153780  1
  Dy  Dy4  1  0.67378222  0.21839221  0.37335079  1
  Dy  Dy5  1  0.67391010  0.62667825  0.84511106  1
  Ga  Ga6  1  0.10543979  0.33335979  0.66669685  1
  Ga  Ga7  1  0.60543979  0.66664021  0.33330315  1
  Fe  Fe8  1  0.50923423  0.00004318  0.00003916  1
  Fe  Fe9  1  0.00923423  -0.00004318  0.99996084  1
  S  S10  1  0.44736536  0.56605908  0.08558731  1
  S  S11  1  0.44728478  0.91451481  0.48058101  1
  S  S12  1  0.44742643  0.51944699  0.43384925  1
  S  S13  1  0.94736536  0.43394092  0.91441269  1
  S  S14  1  0.94728478  0.08548519  0.51941899  1
  S  S15  1  0.94742643  0.48055301  0.56615075  1
  S  S16  1  0.47027826  0.33332657  0.66668135  1
  S  S17  1  0.97027826  0.66667343  0.33331865  1
  S  S18  1  0.26544114  0.12461989  0.21764589  1
  S  S19  1  0.26543353  0.78288063  0.90717121  1
  S  S20  1  0.26532897  0.09307346  0.87544857  1
  S  S21  1  0.76544114  0.87538011  0.78235411  1
  S  S22  1  0.76543353  0.21711937  0.09282879  1
  S  S23  1  0.76532897  0.90692654  0.12455143  1
