# generated using pymatgen
data_Tb3AlFeS7
_symmetry_space_group_name_H-M   'P 1'
_cell_length_a   5.82704234
_cell_length_b   9.88187245
_cell_length_c   9.88187245
_cell_angle_alpha   120.00000159
_cell_angle_beta   90.00000000
_cell_angle_gamma   90.00000000
_symmetry_Int_Tables_number   1
_chemical_formula_structural   Tb3AlFeS7
_chemical_formula_sum   'Tb6 Al2 Fe2 S14'
_cell_volume   492.78478030
_cell_formula_units_Z   2
loop_
 _symmetry_equiv_pos_site_id
 _symmetry_equiv_pos_as_xyz
  1  'x, y, z'
loop_
 _atom_site_type_symbol
 _atom_site_label
 _atom_site_symmetry_multiplicity
 _atom_site_fract_x
 _atom_site_fract_y
 _atom_site_fract_z
 _atom_site_occupancy
  Tb  Tb0  1  0.76718598  0.62793372  0.76007089  1
  Tb  Tb1  1  0.76718598  0.13213716  0.37206628  1
  Tb  Tb2  1  0.26718598  0.37206628  0.23992911  1
  Tb  Tb3  1  0.76718598  0.23992911  0.86786284  1
  Tb  Tb4  1  0.26718598  0.86786284  0.62793372  1
  Tb  Tb5  1  0.26718598  0.76007089  0.13213716  1
  Al  Al6  1  0.84665569  0.66666700  0.33333300  1
  Al  Al7  1  0.34665569  0.33333300  0.66666700  1
  Fe  Fe8  1  0.00477699  0.00000000  0.00000000  1
  Fe  Fe9  1  0.50477699  -0.00000000  0.00000000  1
  S  S10  1  0.46790969  0.66666700  0.33333300  1
  S  S11  1  0.96790969  0.33333300  0.66666700  1
  S  S12  1  0.00517525  0.90303087  0.41475528  1
  S  S13  1  0.00517525  0.51172441  0.09696913  1
  S  S14  1  0.50517525  0.09696913  0.58524472  1
  S  S15  1  0.00517525  0.58524472  0.48827559  1
  S  S16  1  0.50517525  0.48827559  0.90303087  1
  S  S17  1  0.50517525  0.41475528  0.51172441  1
  S  S18  1  0.74419131  0.84680555  0.08645968  1
  S  S19  1  0.74419131  0.23965413  0.15319445  1
  S  S20  1  0.24419131  0.15319445  0.91354032  1
  S  S21  1  0.74419131  0.91354032  0.76034587  1
  S  S22  1  0.24419131  0.76034587  0.84680555  1
  S  S23  1  0.24419131  0.08645968  0.23965413  1
