# generated using pymatgen
data_FeH4C3O8
_symmetry_space_group_name_H-M   'P 1'
_cell_length_a   5.38975570
_cell_length_b   6.73942803
_cell_length_c   9.22933291
_cell_angle_alpha   92.07962390
_cell_angle_beta   97.36866815
_cell_angle_gamma   93.59011584
_symmetry_Int_Tables_number   1
_chemical_formula_structural   FeH4C3O8
_chemical_formula_sum   'Fe2 H8 C6 O16'
_cell_volume   331.49117888
_cell_formula_units_Z   2
loop_
 _symmetry_equiv_pos_site_id
 _symmetry_equiv_pos_as_xyz
  1  'x, y, z'
loop_
 _atom_site_type_symbol
 _atom_site_label
 _atom_site_symmetry_multiplicity
 _atom_site_fract_x
 _atom_site_fract_y
 _atom_site_fract_z
 _atom_site_occupancy
  Fe  Fe0  1  0.52089701  0.70855906  0.75996104  1
  Fe  Fe1  1  0.47910299  0.29144094  0.24003896  1
  H  H2  1  0.21370869  0.89123000  0.56817538  1
  H  H3  1  0.78629131  0.10877000  0.43182462  1
  H  H4  1  0.21610924  0.00355159  0.73244035  1
  H  H5  1  0.78389076  0.99644841  0.26755965  1
  H  H6  1  0.79935662  0.14567293  0.69812984  1
  H  H7  1  0.20064338  0.85432707  0.30187016  1
  H  H8  1  0.99206947  0.29906487  0.64204092  1
  H  H9  1  0.00793053  0.70093513  0.35795908  1
  C  C10  1  0.87746363  0.93097762  0.98837691  1
  C  C11  1  0.12253637  0.06902238  0.01162309  1
  C  C12  1  0.61979447  0.55998857  0.48625067  1
  C  C13  1  0.38020553  0.44001143  0.51374933  1
  C  C14  1  0.61639922  0.44641865  0.98453714  1
  C  C15  1  0.38360078  0.55358135  0.01546286  1
  O  O16  1  0.79836099  0.84959943  0.09392531  1
  O  O17  1  0.20163901  0.15040057  0.90607469  1
  O  O18  1  0.77314590  0.91418343  0.85321888  1
  O  O19  1  0.22685410  0.08581657  0.14678112  1
  O  O20  1  0.71409498  0.68972983  0.58373628  1
  O  O21  1  0.28590502  0.31027017  0.41626372  1
  O  O22  1  0.70533917  0.51997251  0.36738583  1
  O  O23  1  0.29466083  0.48002749  0.63261417  1
  O  O24  1  0.70633680  0.48698214  0.86822281  1
  O  O25  1  0.29366320  0.51301786  0.13177719  1
  O  O26  1  0.29962648  0.67430641  0.92158341  1
  O  O27  1  0.70037352  0.32569359  0.07841659  1
  O  O28  1  0.30666461  0.91996371  0.66873949  1
  O  O29  1  0.69333539  0.08003629  0.33126051  1
  O  O30  1  0.84453613  0.20730358  0.60979764  1
  O  O31  1  0.15546387  0.79269642  0.39020236  1
