# generated using pymatgen
data_Ho8Rh5C12
_symmetry_space_group_name_H-M   'P 1'
_cell_length_a   3.53404413
_cell_length_b   7.39909151
_cell_length_c   14.05396564
_cell_angle_alpha   94.06534163
_cell_angle_beta   97.22298404
_cell_angle_gamma   90.00000000
_symmetry_Int_Tables_number   1
_chemical_formula_structural   Ho8Rh5C12
_chemical_formula_sum   'Ho8 Rh5 C12'
_cell_volume   363.64477232
_cell_formula_units_Z   1
loop_
 _symmetry_equiv_pos_site_id
 _symmetry_equiv_pos_as_xyz
  1  'x, y, z'
loop_
 _atom_site_type_symbol
 _atom_site_label
 _atom_site_symmetry_multiplicity
 _atom_site_fract_x
 _atom_site_fract_y
 _atom_site_fract_z
 _atom_site_occupancy
  Ho  Ho0  1  0.70647225  0.11586207  0.41294450  1
  Ho  Ho1  1  0.29352775  0.88413793  0.58705550  1
  Ho  Ho2  1  0.69976804  0.60918791  0.39953608  1
  Ho  Ho3  1  0.30023196  0.39081209  0.60046392  1
  Ho  Ho4  1  0.58804985  0.82833284  0.17609969  1
  Ho  Ho5  1  0.41195015  0.17166716  0.82390031  1
  Ho  Ho6  1  0.54707654  0.29656504  0.09415308  1
  Ho  Ho7  1  0.45292346  0.70343496  0.90584692  1
  Rh  Rh8  1  -0.00000000  0.00000000  -0.00000000  1
  Rh  Rh9  1  0.88987268  0.50673572  0.77974536  1
  Rh  Rh10  1  0.11012732  0.49326428  0.22025464  1
  Rh  Rh11  1  0.88347095  0.87261011  0.76694189  1
  Rh  Rh12  1  0.11652905  0.12738989  0.23305811  1
  C  C13  1  0.97724625  0.24506369  0.95449250  1
  C  C14  1  0.02275375  0.75493631  0.04550750  1
  C  C15  1  0.95222257  0.38620323  0.90444513  1
  C  C16  1  0.04777743  0.61379677  0.09555487  1
  C  C17  1  0.83149350  0.65293024  0.66298700  1
  C  C18  1  0.16850650  0.34706976  0.33701300  1
  C  C19  1  0.78348624  0.63515739  0.56697248  1
  C  C20  1  0.21651376  0.36484261  0.43302752  1
  C  C21  1  0.84135919  0.12683790  0.68271838  1
  C  C22  1  0.15864081  0.87316210  0.31728162  1
  C  C23  1  0.79274337  0.13100107  0.58548674  1
  C  C24  1  0.20725663  0.86899893  0.41451326  1
