# generated using pymatgen
data_Pr3InFeS7
_symmetry_space_group_name_H-M   'P 1'
_cell_length_a   6.42295203
_cell_length_b   10.06519072
_cell_length_c   10.07287404
_cell_angle_alpha   119.95033205
_cell_angle_beta   90.00000000
_cell_angle_gamma   90.00000000
_symmetry_Int_Tables_number   1
_chemical_formula_structural   Pr3InFeS7
_chemical_formula_sum   'Pr6 In2 Fe2 S14'
_cell_volume   564.23219489
_cell_formula_units_Z   2
loop_
 _symmetry_equiv_pos_site_id
 _symmetry_equiv_pos_as_xyz
  1  'x, y, z'
loop_
 _atom_site_type_symbol
 _atom_site_label
 _atom_site_symmetry_multiplicity
 _atom_site_fract_x
 _atom_site_fract_y
 _atom_site_fract_z
 _atom_site_occupancy
  Pr  Pr0  1  0.31887154  0.84520132  0.21957054  1
  Pr  Pr1  1  0.31888904  0.78056178  0.62581251  1
  Pr  Pr2  1  0.31895866  0.37423910  0.15468845  1
  Pr  Pr3  1  0.81887154  0.15479868  0.78042946  1
  Pr  Pr4  1  0.81888904  0.21943822  0.37418749  1
  Pr  Pr5  1  0.81895866  0.62576090  0.84531155  1
  In  In6  1  0.39033045  0.33355818  0.66655145  1
  In  In7  1  0.89033045  0.66644182  0.33344855  1
  Fe  Fe8  1  0.47734892  0.00017215  0.00045098  1
  Fe  Fe9  1  0.97734892  0.99982785  -0.00045098  1
  S  S10  1  0.21919791  0.12780158  0.22353777  1
  S  S11  1  0.21912062  0.77622245  0.90410961  1
  S  S12  1  0.21909787  0.09585545  0.87193919  1
  S  S13  1  0.71919791  0.87219842  0.77646223  1
  S  S14  1  0.71912062  0.22377755  0.09589039  1
  S  S15  1  0.71909787  0.90414455  0.12806081  1
  S  S16  1  0.05867183  0.56547689  0.08000987  1
  S  S17  1  0.05860088  0.91992074  0.48571271  1
  S  S18  1  0.05904057  0.51424679  0.43443060  1
  S  S19  1  0.55867183  0.43452311  0.91999013  1
  S  S20  1  0.55860088  0.08007926  0.51428729  1
  S  S21  1  0.55904057  0.48575321  0.56556940  1
  S  S22  1  0.01175170  0.33337647  0.66652397  1
  S  S23  1  0.51175170  0.66662353  0.33347603  1
