# generated using pymatgen
data_V3H4NO7
_symmetry_space_group_name_H-M   'P 1'
_cell_length_a   3.80092932
_cell_length_b   8.48305803
_cell_length_c   10.12876823
_cell_angle_alpha   84.16491022
_cell_angle_beta   79.18547176
_cell_angle_gamma   77.05411893
_symmetry_Int_Tables_number   1
_chemical_formula_structural   V3H4NO7
_chemical_formula_sum   'V6 H8 N2 O14'
_cell_volume   312.02582957
_cell_formula_units_Z   2
loop_
 _symmetry_equiv_pos_site_id
 _symmetry_equiv_pos_as_xyz
  1  'x, y, z'
loop_
 _atom_site_type_symbol
 _atom_site_label
 _atom_site_symmetry_multiplicity
 _atom_site_fract_x
 _atom_site_fract_y
 _atom_site_fract_z
 _atom_site_occupancy
  V  V0  1  0.29325939  0.86305899  0.55042223  1
  V  V1  1  0.70674061  0.13694101  0.44957777  1
  V  V2  1  0.55619795  0.55764493  0.32995918  1
  V  V3  1  0.44380205  0.44235507  0.67004082  1
  V  V4  1  0.05896986  0.15651082  0.72554947  1
  V  V5  1  0.94103014  0.84348918  0.27445053  1
  H  H6  1  0.68222293  0.80855542  0.82699872  1
  H  H7  1  0.31777707  0.19144458  0.17300128  1
  H  H8  1  0.84147338  0.77680785  0.97610468  1
  H  H9  1  0.59438590  0.22319215  0.02389532  1
  H  H10  1  0.15852662  0.22319215  0.02389532  1
  H  H11  1  0.40561410  0.77680785  0.97610468  1
  H  H12  1  0.73551029  0.62345046  0.90552896  1
  H  H13  1  0.26448971  0.37654954  0.09447104  1
  N  N14  1  0.66756977  0.74532393  0.91953653  1
  N  N15  1  0.33243023  0.25467607  0.08046347  1
  O  O16  1  0.18606604  0.91062468  0.71724323  1
  O  O17  1  0.81393396  0.08937532  0.28275677  1
  O  O18  1  0.42915167  0.80928711  0.33240955  1
  O  O19  1  0.57084833  0.19071289  0.66759045  1
  O  O20  1  0.19855892  0.10485647  0.49802569  1
  O  O21  1  0.80144108  0.89514353  0.50197431  1
  O  O22  1  0.39784468  0.62925755  0.57505308  1
  O  O23  1  0.60215532  0.37074245  0.42494692  1
  O  O24  1  0.97697053  0.38779546  0.65826347  1
  O  O25  1  0.02302947  0.61220454  0.34173653  1
  O  O26  1  0.65932293  0.50954514  0.17180900  1
  O  O27  1  0.34067707  0.49045486  0.82819100  1
  O  O28  1  0.97243022  0.16120739  0.89393216  1
  O  O29  1  0.02756978  0.83879261  0.10606784  1
