# generated using pymatgen
data_Ti11Fe17O42
_symmetry_space_group_name_H-M   'P 1'
_cell_length_a   11.63012839
_cell_length_b   7.53910937
_cell_length_c   9.17138789
_cell_angle_alpha   71.83076837
_cell_angle_beta   99.47946826
_cell_angle_gamma   86.95072648
_symmetry_Int_Tables_number   1
_chemical_formula_structural   Ti11Fe17O42
_chemical_formula_sum   'Ti11 Fe17 O42'
_cell_volume   748.92141703
_cell_formula_units_Z   1
loop_
 _symmetry_equiv_pos_site_id
 _symmetry_equiv_pos_as_xyz
  1  'x, y, z'
loop_
 _atom_site_type_symbol
 _atom_site_label
 _atom_site_symmetry_multiplicity
 _atom_site_fract_x
 _atom_site_fract_y
 _atom_site_fract_z
 _atom_site_occupancy
  Ti  Ti0  1  0.81528701  0.48719218  0.73545002  1
  Ti  Ti1  1  0.95785269  0.77611601  0.16354164  1
  Ti  Ti2  1  0.75376428  0.65450488  0.97649377  1
  Ti  Ti3  1  0.89362212  0.94214099  0.40342398  1
  Ti  Ti4  1  0.53145528  0.91635331  0.88207990  1
  Ti  Ti5  1  0.61442891  0.37025041  0.54612865  1
  Ti  Ti6  1  0.32902806  0.79493108  0.68946743  1
  Ti  Ti7  1  0.47473048  0.08653834  0.12464127  1
  Ti  Ti8  1  0.24173177  0.34417172  0.01900212  1
  Ti  Ti9  1  0.09764559  0.05932374  0.59323546  1
  Ti  Ti10  1  0.18421773  0.51595809  0.26513042  1
  Fe  Fe11  1  0.75771591  0.16566255  0.97250932  1
  Fe  Fe12  1  0.89806563  0.45068630  0.39965353  1
  Fe  Fe13  1  0.81670434  0.98726730  0.74015152  1
  Fe  Fe14  1  0.95487917  0.26999998  0.16389750  1
  Fe  Fe15  1  0.67335529  0.20414631  0.30792937  1
  Fe  Fe16  1  0.67100443  0.69007819  0.31524575  1
  Fe  Fe17  1  0.61384312  0.87459954  0.54608269  1
  Fe  Fe18  1  0.52774992  0.40826450  0.88522794  1
  Fe  Fe19  1  0.39070858  0.62846715  0.45193264  1
  Fe  Fe20  1  0.38646120  0.12656569  0.45063102  1
  Fe  Fe21  1  0.32957084  0.30431764  0.68873203  1
  Fe  Fe22  1  0.47255982  0.58309765  0.12129270  1
  Fe  Fe23  1  0.09706385  0.55711411  0.59664037  1
  Fe  Fe24  1  0.04190430  0.73851335  0.82726727  1
  Fe  Fe25  1  0.18822544  0.01094761  0.26393243  1
  Fe  Fe26  1  0.24323083  0.84555828  0.02237479  1
  Fe  Fe27  1  0.04171062  0.22830128  0.83380356  1
  O  O28  1  0.99254230  0.02755837  0.75533035  1
  O  O29  1  0.91847518  0.27736031  0.94645838  1
  O  O30  1  0.93604953  0.43572909  0.63704074  1
  O  O31  1  0.83550120  0.89437508  -0.00074849  1
  O  O32  1  0.97984728  0.18608275  0.41717896  1
  O  O33  1  0.86564687  0.68203229  0.81348439  1
  O  O34  1  0.70199422  0.46025321  0.90458683  1
  O  O35  1  0.84808576  0.74393225  0.33084691  1
  O  O36  1  0.73653606  0.24761480  0.72422909  1
  O  O37  1  0.88046645  0.52314273  0.14848478  1
  O  O38  1  0.77652425  0.98762170  0.50508490  1
  O  O39  1  0.65269879  0.86502316  0.78525995  1
  O  O40  1  0.80280142  0.15070800  0.20643005  1
  O  O41  1  0.69351684  0.61037335  0.56955951  1
  O  O42  1  0.72700468  0.40267085  0.38817518  1
  O  O43  1  0.58147119  0.11143155  0.95425688  1
  O  O44  1  0.56407108  0.17512035  0.47743152  1
  O  O45  1  0.59390109  0.95591895  0.28765624  1
  O  O46  1  0.44933221  0.67769063  0.85981929  1
  O  O47  1  0.48895272  0.41534636  0.65126856  1
  O  O48  1  0.63395783  0.70682360  0.07610941  1
  O  O49  1  0.36272894  0.29821139  0.91122723  1
  O  O50  1  0.51519552  0.57687162  0.35219725  1
  O  O51  1  0.40491453  0.04926056  0.71470412  1
  O  O52  1  0.54398527  0.32654772  0.12926793  1
  O  O53  1  0.43745397  0.83305549  0.53202226  1
  O  O54  1  0.41501761  0.88774372  0.04615972  1
  O  O55  1  0.27584189  0.59692329  0.62215255  1
  O  O56  1  0.30441181  0.38250531  0.43785634  1
  O  O57  1  0.20755097  0.84582594  0.80000319  1
  O  O58  1  0.34874375  0.13739598  0.21486373  1
  O  O59  1  0.22163276  0.00172902  0.50108118  1
  O  O60  1  0.12065944  0.47115513  0.85525564  1
  O  O61  1  0.26022756  0.75233420  0.27006492  1
  O  O62  1  0.16021173  0.25500336  0.66703884  1
  O  O63  1  0.29256140  0.53802996  0.09593558  1
  O  O64  1  0.12765555  0.31747432  0.18591130  1
  O  O65  1  0.17129246  0.09396417  0.00671353  1
  O  O66  1  0.02151031  0.82089037  0.57462735  1
  O  O67  1  0.06046594  0.56040485  0.35978378  1
  O  O68  1  0.08134454  0.72507771  0.06336114  1
  O  O69  1  0.00870089  0.97171533  0.23592888  1
