# generated using pymatgen
data_AlTeH6C2Cl3
_symmetry_space_group_name_H-M   'P 1'
_cell_length_a   6.64709222
_cell_length_b   11.05095044
_cell_length_c   14.00993389
_cell_angle_alpha   90.00000000
_cell_angle_beta   90.00000000
_cell_angle_gamma   90.00000000
_symmetry_Int_Tables_number   1
_chemical_formula_structural   AlTeH6C2Cl3
_chemical_formula_sum   'Al4 Te4 H24 C8 Cl12'
_cell_volume   1029.12332435
_cell_formula_units_Z   4
loop_
 _symmetry_equiv_pos_site_id
 _symmetry_equiv_pos_as_xyz
  1  'x, y, z'
loop_
 _atom_site_type_symbol
 _atom_site_label
 _atom_site_symmetry_multiplicity
 _atom_site_fract_x
 _atom_site_fract_y
 _atom_site_fract_z
 _atom_site_occupancy
  Al  Al0  1  0.45340385  0.25000000  0.93948311  1
  Al  Al1  1  0.54659615  0.75000000  0.06051689  1
  Al  Al2  1  0.45340385  0.75000000  0.56051689  1
  Al  Al3  1  0.54659615  0.25000000  0.43948311  1
  Te  Te4  1  0.36220104  0.25000000  0.13058582  1
  Te  Te5  1  0.63779896  0.75000000  0.86941418  1
  Te  Te6  1  0.36220104  0.75000000  0.36941418  1
  Te  Te7  1  0.63779896  0.25000000  0.63058582  1
  H  H8  1  0.04115824  0.11412338  0.07474995  1
  H  H9  1  0.95884176  0.61412338  0.92525005  1
  H  H10  1  0.04115824  0.88587662  0.42525005  1
  H  H11  1  0.95884176  0.38587662  0.57474995  1
  H  H12  1  0.95884176  0.88587662  0.92525005  1
  H  H13  1  0.04115824  0.38587662  0.07474995  1
  H  H14  1  0.95884176  0.11412338  0.57474995  1
  H  H15  1  0.04115824  0.61412338  0.42525005  1
  H  H16  1  0.22593405  0.02149525  0.13472491  1
  H  H17  1  0.77406595  0.52149525  0.86527509  1
  H  H18  1  0.22593405  0.97850475  0.36527509  1
  H  H19  1  0.77406595  0.47850475  0.63472491  1
  H  H20  1  0.77406595  0.97850475  0.86527509  1
  H  H21  1  0.22593405  0.47850475  0.13472491  1
  H  H22  1  0.77406595  0.02149525  0.63472491  1
  H  H23  1  0.22593405  0.52149525  0.36527509  1
  H  H24  1  0.06206325  0.11875190  0.20323611  1
  H  H25  1  0.93793675  0.61875190  0.79676389  1
  H  H26  1  0.06206325  0.88124810  0.29676389  1
  H  H27  1  0.93793675  0.38124810  0.70323611  1
  H  H28  1  0.93793675  0.88124810  0.79676389  1
  H  H29  1  0.06206325  0.38124810  0.20323611  1
  H  H30  1  0.93793675  0.11875190  0.70323611  1
  H  H31  1  0.06206325  0.61875190  0.29676389  1
  C  C32  1  0.14274853  0.10714349  0.13567698  1
  C  C33  1  0.85725147  0.60714349  0.86432302  1
  C  C34  1  0.14274853  0.89285651  0.36432302  1
  C  C35  1  0.85725147  0.39285651  0.63567698  1
  C  C36  1  0.85725147  0.89285651  0.86432302  1
  C  C37  1  0.14274853  0.39285651  0.13567698  1
  C  C38  1  0.85725147  0.10714349  0.63567698  1
  C  C39  1  0.14274853  0.60714349  0.36432302  1
  Cl  Cl40  1  0.77568214  0.25000000  0.92749587  1
  Cl  Cl41  1  0.22431786  0.75000000  0.07250413  1
  Cl  Cl42  1  0.77568214  0.75000000  0.57250413  1
  Cl  Cl43  1  0.22431786  0.25000000  0.42749587  1
  Cl  Cl44  1  0.33063340  0.41316081  0.88129989  1
  Cl  Cl45  1  0.66936660  0.91316081  0.11870011  1
  Cl  Cl46  1  0.33063340  0.58683919  0.61870011  1
  Cl  Cl47  1  0.66936660  0.08683919  0.38129989  1
  Cl  Cl48  1  0.66936660  0.58683919  0.11870011  1
  Cl  Cl49  1  0.33063340  0.08683919  0.88129989  1
  Cl  Cl50  1  0.66936660  0.41316081  0.38129989  1
  Cl  Cl51  1  0.33063340  0.91316081  0.61870011  1
