# generated using pymatgen
data_Mn5Fe2BC2
_symmetry_space_group_name_H-M   'P 1'
_cell_length_a   4.40335163
_cell_length_b   6.76280054
_cell_length_c   12.03845715
_cell_angle_alpha   90.00000000
_cell_angle_beta   90.00000000
_cell_angle_gamma   90.00000000
_symmetry_Int_Tables_number   1
_chemical_formula_structural   Mn5Fe2BC2
_chemical_formula_sum   'Mn20 Fe8 B4 C8'
_cell_volume   358.49308041
_cell_formula_units_Z   4
loop_
 _symmetry_equiv_pos_site_id
 _symmetry_equiv_pos_as_xyz
  1  'x, y, z'
loop_
 _atom_site_type_symbol
 _atom_site_label
 _atom_site_symmetry_multiplicity
 _atom_site_fract_x
 _atom_site_fract_y
 _atom_site_fract_z
 _atom_site_occupancy
  Mn  Mn0  1  0.75297854  0.25000000  0.09331586  1
  Mn  Mn1  1  0.25297854  0.25000000  0.40668414  1
  Mn  Mn2  1  0.24702146  0.75000000  0.90668414  1
  Mn  Mn3  1  0.74702146  0.75000000  0.59331586  1
  Mn  Mn4  1  0.55894319  0.06208773  0.69125871  1
  Mn  Mn5  1  0.05894319  0.43791227  0.80874129  1
  Mn  Mn6  1  0.44105681  0.56208773  0.30874129  1
  Mn  Mn7  1  0.94105681  0.93791227  0.19125871  1
  Mn  Mn8  1  0.44105681  0.93791227  0.30874129  1
  Mn  Mn9  1  0.94105681  0.56208773  0.19125871  1
  Mn  Mn10  1  0.55894319  0.43791227  0.69125871  1
  Mn  Mn11  1  0.05894319  0.06208773  0.80874129  1
  Mn  Mn12  1  0.75259795  0.06183865  0.47561314  1
  Mn  Mn13  1  0.25259795  0.43816135  0.02438686  1
  Mn  Mn14  1  0.24740205  0.56183865  0.52438686  1
  Mn  Mn15  1  0.74740205  0.93816135  0.97561314  1
  Mn  Mn16  1  0.24740205  0.93816135  0.52438686  1
  Mn  Mn17  1  0.74740205  0.56183865  0.97561314  1
  Mn  Mn18  1  0.75259795  0.43816135  0.47561314  1
  Mn  Mn19  1  0.25259795  0.06183865  0.02438686  1
  Fe  Fe20  1  0.54939981  0.25000000  0.87031741  1
  Fe  Fe21  1  0.04939981  0.25000000  0.62968259  1
  Fe  Fe22  1  0.45060019  0.75000000  0.12968259  1
  Fe  Fe23  1  0.95060019  0.75000000  0.37031741  1
  Fe  Fe24  1  0.76881929  0.25000000  0.29830097  1
  Fe  Fe25  1  0.26881929  0.25000000  0.20169903  1
  Fe  Fe26  1  0.23118071  0.75000000  0.70169903  1
  Fe  Fe27  1  0.73118071  0.75000000  0.79830097  1
  B  B28  1  0.95929356  0.25000000  0.94150692  1
  B  B29  1  0.45929356  0.25000000  0.55849308  1
  B  B30  1  0.04070644  0.75000000  0.05849308  1
  B  B31  1  0.54070644  0.75000000  0.44150692  1
  C  C32  1  0.52624816  0.02673716  0.15398082  1
  C  C33  1  0.02624816  0.47326284  0.34601918  1
  C  C34  1  0.47375184  0.52673716  0.84601918  1
  C  C35  1  0.97375184  0.97326284  0.65398082  1
  C  C36  1  0.47375184  0.97326284  0.84601918  1
  C  C37  1  0.97375184  0.52673716  0.65398082  1
  C  C38  1  0.52624816  0.47326284  0.15398082  1
  C  C39  1  0.02624816  0.02673716  0.34601918  1
