# generated using pymatgen
data_TlH(CO2)2
_symmetry_space_group_name_H-M   'P 1'
_cell_length_a   6.49766318
_cell_length_b   6.64060060
_cell_length_c   10.44962406
_cell_angle_alpha   90.00000000
_cell_angle_beta   95.15111381
_cell_angle_gamma   90.00000000
_symmetry_Int_Tables_number   1
_chemical_formula_structural   TlH(CO2)2
_chemical_formula_sum   'Tl4 H4 C8 O16'
_cell_volume   449.06345549
_cell_formula_units_Z   4
loop_
 _symmetry_equiv_pos_site_id
 _symmetry_equiv_pos_as_xyz
  1  'x, y, z'
loop_
 _atom_site_type_symbol
 _atom_site_label
 _atom_site_symmetry_multiplicity
 _atom_site_fract_x
 _atom_site_fract_y
 _atom_site_fract_z
 _atom_site_occupancy
  Tl  Tl0  1  0.93705368  0.04495884  0.19187312  1
  Tl  Tl1  1  0.56294632  0.54495884  0.80812688  1
  Tl  Tl2  1  0.06294632  0.95504116  0.80812688  1
  Tl  Tl3  1  0.43705368  0.45504116  0.19187312  1
  H  H4  1  0.55631919  0.06924219  0.69845798  1
  H  H5  1  0.94368081  0.56924219  0.30154202  1
  H  H6  1  0.44368081  0.93075781  0.30154202  1
  H  H7  1  0.05631919  0.43075781  0.69845798  1
  C  C8  1  0.58300945  0.08397582  0.50921425  1
  C  C9  1  0.91699055  0.58397582  0.49078575  1
  C  C10  1  0.41699055  0.91602418  0.49078575  1
  C  C11  1  0.08300945  0.41602418  0.50921425  1
  C  C12  1  0.44484462  0.95431101  0.05684475  1
  C  C13  1  0.05515538  0.45431101  0.94315525  1
  C  C14  1  0.55515538  0.04568899  0.94315525  1
  C  C15  1  0.94484462  0.54568899  0.05684475  1
  O  O16  1  0.62972007  0.14407037  0.62892167  1
  O  O17  1  0.87027993  0.64407037  0.37107833  1
  O  O18  1  0.37027993  0.85592963  0.37107833  1
  O  O19  1  0.12972007  0.35592963  0.62892167  1
  O  O20  1  0.66401617  0.15475741  0.41792493  1
  O  O21  1  0.83598383  0.65475741  0.58207507  1
  O  O22  1  0.33598383  0.84524259  0.58207507  1
  O  O23  1  0.16401617  0.34524259  0.41792493  1
  O  O24  1  0.51374600  0.01376986  0.16907458  1
  O  O25  1  0.98625400  0.51376986  0.83092542  1
  O  O26  1  0.48625400  0.98623014  0.83092542  1
  O  O27  1  0.01374600  0.48623014  0.16907458  1
  O  O28  1  0.29845664  0.83182299  0.03136569  1
  O  O29  1  0.20154336  0.33182299  0.96863431  1
  O  O30  1  0.70154336  0.16817701  0.96863431  1
  O  O31  1  0.79845664  0.66817701  0.03136569  1
