# generated using pymatgen
data_Tm2CrS4
_symmetry_space_group_name_H-M   'P 1'
_cell_length_a   7.41091705
_cell_length_b   12.50778973
_cell_length_c   12.38398713
_cell_angle_alpha   90.00000000
_cell_angle_beta   90.00000000
_cell_angle_gamma   90.00000000
_symmetry_Int_Tables_number   1
_chemical_formula_structural   Tm2CrS4
_chemical_formula_sum   'Tm16 Cr8 S32'
_cell_volume   1147.92368283
_cell_formula_units_Z   8
loop_
 _symmetry_equiv_pos_site_id
 _symmetry_equiv_pos_as_xyz
  1  'x, y, z'
loop_
 _atom_site_type_symbol
 _atom_site_label
 _atom_site_symmetry_multiplicity
 _atom_site_fract_x
 _atom_site_fract_y
 _atom_site_fract_z
 _atom_site_occupancy
  Tm  Tm0  1  0.88369325  0.56469041  0.12698623  1
  Tm  Tm1  1  0.11630675  0.06469041  0.87301377  1
  Tm  Tm2  1  0.88369325  0.06469041  0.37301377  1
  Tm  Tm3  1  0.11630675  0.56469041  0.62698623  1
  Tm  Tm4  1  0.87108746  0.73404240  0.86590361  1
  Tm  Tm5  1  0.12891254  0.23404240  0.13409639  1
  Tm  Tm6  1  0.87108746  0.23404240  0.63409639  1
  Tm  Tm7  1  0.12891254  0.73404240  0.36590361  1
  Tm  Tm8  1  0.38288520  0.92513341  0.10965632  1
  Tm  Tm9  1  0.61711480  0.42513341  0.89034368  1
  Tm  Tm10  1  0.38288520  0.42513341  0.39034368  1
  Tm  Tm11  1  0.61711480  0.92513341  0.60965632  1
  Tm  Tm12  1  0.36998842  0.72961035  0.86638739  1
  Tm  Tm13  1  0.63001158  0.22961035  0.13361261  1
  Tm  Tm14  1  0.36998842  0.22961035  0.63361261  1
  Tm  Tm15  1  0.63001158  0.72961035  0.36638739  1
  Cr  Cr16  1  0.87419027  0.93075104  0.10830983  1
  Cr  Cr17  1  0.12580973  0.43075104  0.89169017  1
  Cr  Cr18  1  0.87419027  0.43075104  0.39169017  1
  Cr  Cr19  1  0.12580973  0.93075104  0.60830983  1
  Cr  Cr20  1  0.38167313  0.56177516  0.12431536  1
  Cr  Cr21  1  0.61832687  0.06177516  0.87568464  1
  Cr  Cr22  1  0.38167313  0.06177516  0.37568464  1
  Cr  Cr23  1  0.61832687  0.56177516  0.62431536  1
  S  S24  1  0.62256716  0.87879837  0.95343293  1
  S  S25  1  0.37743284  0.37879837  0.04656707  1
  S  S26  1  0.62256716  0.37879837  0.54656707  1
  S  S27  1  0.37743284  0.87879837  0.45343293  1
  S  S28  1  0.62020943  0.61729760  0.98849232  1
  S  S29  1  0.37979057  0.11729760  0.01150768  1
  S  S30  1  0.62020943  0.11729760  0.51150768  1
  S  S31  1  0.37979057  0.61729760  0.48849232  1
  S  S32  1  0.87848118  0.76123488  0.21117235  1
  S  S33  1  0.12151882  0.26123488  0.78882765  1
  S  S34  1  0.87848118  0.26123488  0.28882765  1
  S  S35  1  0.12151882  0.76123488  0.71117235  1
  S  S36  1  0.85836426  0.51263061  0.76026312  1
  S  S37  1  0.14163574  0.01263061  0.23973688  1
  S  S38  1  0.85836426  0.01263061  0.73973688  1
  S  S39  1  0.14163574  0.51263061  0.26026312  1
  S  S40  1  0.11630624  0.86974281  0.97180802  1
  S  S41  1  0.88369376  0.36974281  0.02819198  1
  S  S42  1  0.11630624  0.36974281  0.52819198  1
  S  S43  1  0.88369376  0.86974281  0.47180802  1
  S  S44  1  0.12457385  0.60670197  0.97369043  1
  S  S45  1  0.87542615  0.10670197  0.02630957  1
  S  S46  1  0.12457385  0.10670197  0.52630957  1
  S  S47  1  0.87542615  0.60670197  0.47369043  1
  S  S48  1  0.38025275  0.73695385  0.20995474  1
  S  S49  1  0.61974725  0.23695385  0.79004526  1
  S  S50  1  0.38025275  0.23695385  0.29004526  1
  S  S51  1  0.61974725  0.73695385  0.70995474  1
  S  S52  1  0.36405638  0.51363715  0.77038429  1
  S  S53  1  0.63594362  0.01363715  0.22961571  1
  S  S54  1  0.36405638  0.01363715  0.72961571  1
  S  S55  1  0.63594362  0.51363715  0.27038429  1
