# generated using pymatgen
data_Yb2Fe17
_symmetry_space_group_name_H-M   'P 1'
_cell_length_a   8.24169661
_cell_length_b   8.48955334
_cell_length_c   8.48955334
_cell_angle_alpha   120.04444876
_cell_angle_beta   90.00000000
_cell_angle_gamma   90.00000000
_symmetry_Int_Tables_number   1
_chemical_formula_structural   Yb2Fe17
_chemical_formula_sum   'Yb4 Fe34'
_cell_volume   514.18836529
_cell_formula_units_Z   2
loop_
 _symmetry_equiv_pos_site_id
 _symmetry_equiv_pos_as_xyz
  1  'x, y, z'
loop_
 _atom_site_type_symbol
 _atom_site_label
 _atom_site_symmetry_multiplicity
 _atom_site_fract_x
 _atom_site_fract_y
 _atom_site_fract_z
 _atom_site_occupancy
  Yb  Yb0  1  0.75000000  0.00000954  0.99999046  1
  Yb  Yb1  1  0.25000000  0.99999046  0.00000954  1
  Yb  Yb2  1  0.25000000  0.66680652  0.33319348  1
  Yb  Yb3  1  0.75000000  0.33319348  0.66680652  1
  Fe  Fe4  1  0.60341228  0.66674670  0.33325330  1
  Fe  Fe5  1  0.39658772  0.33325330  0.66674670  1
  Fe  Fe6  1  0.10341228  0.33325330  0.66674670  1
  Fe  Fe7  1  0.89658772  0.66674670  0.33325330  1
  Fe  Fe8  1  0.50000000  0.50000000  0.00000000  1
  Fe  Fe9  1  0.50000000  0.50000000  0.50000000  1
  Fe  Fe10  1  0.50000000  0.00000000  0.50000000  1
  Fe  Fe11  1  0.00000000  0.50000000  0.00000000  1
  Fe  Fe12  1  0.00000000  0.50000000  0.50000000  1
  Fe  Fe13  1  0.00000000  0.00000000  0.50000000  1
  Fe  Fe14  1  0.75000000  0.67169581  0.04491482  1
  Fe  Fe15  1  0.75000000  0.37316325  0.32825546  1
  Fe  Fe16  1  0.75000000  0.95530199  0.62684584  1
  Fe  Fe17  1  0.75000000  0.37315416  0.04469801  1
  Fe  Fe18  1  0.75000000  0.95508518  0.32830419  1
  Fe  Fe19  1  0.75000000  0.67174454  0.62683675  1
  Fe  Fe20  1  0.25000000  0.32830419  0.95508518  1
  Fe  Fe21  1  0.25000000  0.62683675  0.67174454  1
  Fe  Fe22  1  0.25000000  0.04469801  0.37315416  1
  Fe  Fe23  1  0.25000000  0.62684584  0.95530199  1
  Fe  Fe24  1  0.25000000  0.04491482  0.67169581  1
  Fe  Fe25  1  0.25000000  0.32825546  0.37316325  1
  Fe  Fe26  1  0.48068130  0.83402468  0.66774177  1
  Fe  Fe27  1  0.48060847  0.83378387  0.16621613  1
  Fe  Fe28  1  0.48068130  0.33225823  0.16597532  1
  Fe  Fe29  1  0.51931870  0.16597532  0.33225823  1
  Fe  Fe30  1  0.51939153  0.16621613  0.83378387  1
  Fe  Fe31  1  0.51931870  0.66774177  0.83402468  1
  Fe  Fe32  1  0.98068130  0.16597532  0.33225823  1
  Fe  Fe33  1  0.98060847  0.16621613  0.83378387  1
  Fe  Fe34  1  0.98068130  0.66774177  0.83402468  1
  Fe  Fe35  1  0.01931870  0.83402468  0.66774177  1
  Fe  Fe36  1  0.01939153  0.83378387  0.16621613  1
  Fe  Fe37  1  0.01931870  0.33225823  0.16597532  1
