# generated using pymatgen
data_Ga40Mo8C
_symmetry_space_group_name_H-M   'P 1'
_cell_length_a   9.55691713
_cell_length_b   9.55691713
_cell_length_c   9.55691772
_cell_angle_alpha   94.10402854
_cell_angle_beta   94.10402854
_cell_angle_gamma   94.10402884
_symmetry_Int_Tables_number   1
_chemical_formula_structural   Ga40Mo8C
_chemical_formula_sum   'Ga40 Mo8 C1'
_cell_volume   865.82319257
_cell_formula_units_Z   1
loop_
 _symmetry_equiv_pos_site_id
 _symmetry_equiv_pos_as_xyz
  1  'x, y, z'
loop_
 _atom_site_type_symbol
 _atom_site_label
 _atom_site_symmetry_multiplicity
 _atom_site_fract_x
 _atom_site_fract_y
 _atom_site_fract_z
 _atom_site_occupancy
  Ga  Ga0  1  0.50000000  0.50000000  0.50000000  1
  Ga  Ga1  1  0.50000000  0.00000000  0.50000000  1
  Ga  Ga2  1  0.00000000  0.50000000  0.50000000  1
  Ga  Ga3  1  0.50000000  0.50000000  0.00000000  1
  Ga  Ga4  1  0.63392558  0.26397905  0.61007172  1
  Ga  Ga5  1  0.26397905  0.61007172  0.63392558  1
  Ga  Ga6  1  0.61007172  0.63392558  0.26397905  1
  Ga  Ga7  1  0.36607442  0.73602095  0.38992828  1
  Ga  Ga8  1  0.73602095  0.38992828  0.36607442  1
  Ga  Ga9  1  0.38992828  0.36607442  0.73602095  1
  Ga  Ga10  1  0.77939514  0.67324783  0.53133217  1
  Ga  Ga11  1  0.67324783  0.53133217  0.77939514  1
  Ga  Ga12  1  0.53133217  0.77939514  0.67324783  1
  Ga  Ga13  1  0.22060486  0.32675217  0.46866783  1
  Ga  Ga14  1  0.32675217  0.46866783  0.22060486  1
  Ga  Ga15  1  0.46866783  0.22060486  0.32675217  1
  Ga  Ga16  1  0.07496270  0.77698590  0.45088934  1
  Ga  Ga17  1  0.77698590  0.45088934  0.07496270  1
  Ga  Ga18  1  0.45088934  0.07496270  0.77698590  1
  Ga  Ga19  1  0.92503730  0.22301410  0.54911066  1
  Ga  Ga20  1  0.22301410  0.54911066  0.92503730  1
  Ga  Ga21  1  0.54911066  0.92503730  0.22301410  1
  Ga  Ga22  1  0.78500183  0.96770565  0.60006662  1
  Ga  Ga23  1  0.96770565  0.60006662  0.78500183  1
  Ga  Ga24  1  0.60006662  0.78500183  0.96770565  1
  Ga  Ga25  1  0.21499817  0.03229435  0.39993338  1
  Ga  Ga26  1  0.03229435  0.39993338  0.21499817  1
  Ga  Ga27  1  0.39993338  0.21499817  0.03229435  1
  Ga  Ga28  1  0.77406807  0.04967718  0.89011308  1
  Ga  Ga29  1  0.04967718  0.89011308  0.77406807  1
  Ga  Ga30  1  0.89011308  0.77406807  0.04967718  1
  Ga  Ga31  1  0.22593193  0.95032282  0.10988692  1
  Ga  Ga32  1  0.95032282  0.10988692  0.22593193  1
  Ga  Ga33  1  0.10988692  0.22593193  0.95032282  1
  Ga  Ga34  1  0.17695680  0.12621130  0.68128247  1
  Ga  Ga35  1  0.12621130  0.68128247  0.17695680  1
  Ga  Ga36  1  0.68128247  0.17695680  0.12621130  1
  Ga  Ga37  1  0.82304320  0.87378870  0.31871753  1
  Ga  Ga38  1  0.87378870  0.31871753  0.82304320  1
  Ga  Ga39  1  0.31871753  0.82304320  0.87378870  1
  Mo  Mo40  1  0.78933761  0.78933761  0.78933761  1
  Mo  Mo41  1  0.21066239  0.21066239  0.21066239  1
  Mo  Mo42  1  0.61509425  0.28435724  0.89156245  1
  Mo  Mo43  1  0.28435724  0.89156245  0.61509425  1
  Mo  Mo44  1  0.89156245  0.61509425  0.28435724  1
  Mo  Mo45  1  0.38490575  0.71564276  0.10843755  1
  Mo  Mo46  1  0.71564276  0.10843755  0.38490575  1
  Mo  Mo47  1  0.10843755  0.38490575  0.71564276  1
  C  C48  1  0.00000000  0.00000000  0.00000000  1
