# generated using pymatgen
data_Ga2B3O8
_symmetry_space_group_name_H-M   'P 1'
_cell_length_a   6.48587925
_cell_length_b   6.48587925
_cell_length_c   10.78434403
_cell_angle_alpha   90.00000000
_cell_angle_beta   90.00000000
_cell_angle_gamma   108.85458478
_symmetry_Int_Tables_number   1
_chemical_formula_structural   Ga2B3O8
_chemical_formula_sum   'Ga8 B12 O32'
_cell_volume   429.31837872
_cell_formula_units_Z   4
loop_
 _symmetry_equiv_pos_site_id
 _symmetry_equiv_pos_as_xyz
  1  'x, y, z'
loop_
 _atom_site_type_symbol
 _atom_site_label
 _atom_site_symmetry_multiplicity
 _atom_site_fract_x
 _atom_site_fract_y
 _atom_site_fract_z
 _atom_site_occupancy
  Ga  Ga0  1  0.79350523  0.79350523  0.86846925  1
  Ga  Ga1  1  0.20649477  0.20649477  0.13153075  1
  Ga  Ga2  1  0.70649477  0.70649477  0.36846925  1
  Ga  Ga3  1  0.29350523  0.29350523  0.63153075  1
  Ga  Ga4  1  0.35249826  0.64750174  0.00000000  1
  Ga  Ga5  1  0.85249826  0.14750174  0.50000000  1
  Ga  Ga6  1  0.64750174  0.35249826  0.00000000  1
  Ga  Ga7  1  0.14750174  0.85249826  0.50000000  1
  B  B8  1  0.02623531  0.27564302  0.86694732  1
  B  B9  1  0.72435698  0.97376469  0.13305268  1
  B  B10  1  0.22435698  0.47376469  0.36694732  1
  B  B11  1  0.52623531  0.77564302  0.63305268  1
  B  B12  1  0.97376469  0.72435698  0.13305268  1
  B  B13  1  0.27564302  0.02623531  0.86694732  1
  B  B14  1  0.77564302  0.52623531  0.63305268  1
  B  B15  1  0.47376469  0.22435698  0.36694732  1
  B  B16  1  0.14873525  0.64873525  0.75000000  1
  B  B17  1  0.35126475  0.85126475  0.25000000  1
  B  B18  1  0.85126475  0.35126475  0.25000000  1
  B  B19  1  0.64873525  0.14873525  0.75000000  1
  O  O20  1  0.21370598  0.75737602  0.13935077  1
  O  O21  1  0.24262398  0.78629402  0.86064923  1
  O  O22  1  0.74262398  0.28629402  0.63935077  1
  O  O23  1  0.71370598  0.25737602  0.36064923  1
  O  O24  1  0.78629402  0.24262398  0.86064923  1
  O  O25  1  0.75737602  0.21370598  0.13935077  1
  O  O26  1  0.25737602  0.71370598  0.36064923  1
  O  O27  1  0.28629402  0.74262398  0.63935077  1
  O  O28  1  0.10894008  0.36711114  0.98750220  1
  O  O29  1  0.63288886  0.89105992  0.01249780  1
  O  O30  1  0.13288886  0.39105992  0.48750220  1
  O  O31  1  0.60894008  0.86711114  0.51249780  1
  O  O32  1  0.89105992  0.63288886  0.01249780  1
  O  O33  1  0.36711114  0.10894008  0.98750220  1
  O  O34  1  0.86711114  0.60894008  0.51249780  1
  O  O35  1  0.39105992  0.13288886  0.48750220  1
  O  O36  1  0.05514639  0.05514639  0.85479882  1
  O  O37  1  0.94485361  0.94485361  0.14520118  1
  O  O38  1  0.44485361  0.44485361  0.35479882  1
  O  O39  1  0.55514639  0.55514639  0.64520118  1
  O  O40  1  0.14765161  0.42046765  0.76519334  1
  O  O41  1  0.57953235  0.85234839  0.23480666  1
  O  O42  1  0.07953235  0.35234839  0.26519334  1
  O  O43  1  0.64765161  0.92046765  0.73480666  1
  O  O44  1  0.85234839  0.57953235  0.23480666  1
  O  O45  1  0.42046765  0.14765161  0.76519334  1
  O  O46  1  0.92046765  0.64765161  0.73480666  1
  O  O47  1  0.35234839  0.07953235  0.26519334  1
  O  O48  1  0.54070508  0.54070508  0.88833502  1
  O  O49  1  0.45929492  0.45929492  0.11166498  1
  O  O50  1  0.95929492  0.95929492  0.38833502  1
  O  O51  1  0.04070508  0.04070508  0.61166498  1
