# generated using pymatgen
data_Mn7Zn4Si2(AsO12)2
_symmetry_space_group_name_H-M   'P 1'
_cell_length_a   8.65741735
_cell_length_b   9.99879779
_cell_length_c   11.67458089
_cell_angle_alpha   90.00000000
_cell_angle_beta   90.00000000
_cell_angle_gamma   115.65319632
_symmetry_Int_Tables_number   1
_chemical_formula_structural   Mn7Zn4Si2(AsO12)2
_chemical_formula_sum   'Mn14 Zn8 Si4 As4 O48'
_cell_volume   910.98224287
_cell_formula_units_Z   2
loop_
 _symmetry_equiv_pos_site_id
 _symmetry_equiv_pos_as_xyz
  1  'x, y, z'
loop_
 _atom_site_type_symbol
 _atom_site_label
 _atom_site_symmetry_multiplicity
 _atom_site_fract_x
 _atom_site_fract_y
 _atom_site_fract_z
 _atom_site_occupancy
  Mn  Mn0  1  0.50000000  -0.00000000  0.50000000  1
  Mn  Mn1  1  -0.00000000  -0.00000000  -0.00000000  1
  Mn  Mn2  1  0.66689668  0.33379337  0.50000000  1
  Mn  Mn3  1  0.16689668  0.33379337  -0.00000000  1
  Mn  Mn4  1  0.33310332  0.66620663  0.50000000  1
  Mn  Mn5  1  0.83310332  0.66620663  -0.00000000  1
  Mn  Mn6  1  0.84666136  0.18267406  0.36811215  1
  Mn  Mn7  1  0.33601269  0.18267406  0.63188785  1
  Mn  Mn8  1  0.83601269  0.18267406  0.86811215  1
  Mn  Mn9  1  0.34666136  0.18267406  0.13188785  1
  Mn  Mn10  1  0.15333864  0.81732594  0.63188785  1
  Mn  Mn11  1  0.66398731  0.81732594  0.36811215  1
  Mn  Mn12  1  0.16398731  0.81732594  0.13188785  1
  Mn  Mn13  1  0.65333864  0.81732594  0.86811215  1
  Zn  Zn14  1  0.31608734  0.34801844  0.38380050  1
  Zn  Zn15  1  0.03193110  0.34801844  0.61619950  1
  Zn  Zn16  1  0.53193110  0.34801844  0.88380050  1
  Zn  Zn17  1  0.81608734  0.34801844  0.11619950  1
  Zn  Zn18  1  0.68391266  0.65198156  0.61619950  1
  Zn  Zn19  1  0.96806890  0.65198156  0.38380050  1
  Zn  Zn20  1  0.46806890  0.65198156  0.11619950  1
  Zn  Zn21  1  0.18391266  0.65198156  0.88380050  1
  Si  Si22  1  0.13749462  0.50000000  0.25000000  1
  Si  Si23  1  0.36250538  0.50000000  0.75000000  1
  Si  Si24  1  0.86250538  0.50000000  0.75000000  1
  Si  Si25  1  0.63749462  0.50000000  0.25000000  1
  As  As26  1  0.12108527  1.00000000  0.36432721  1
  As  As27  1  0.87891473  0.00000000  0.63567279  1
  As  As28  1  0.37891473  0.00000000  0.86432721  1
  As  As29  1  0.62108527  1.00000000  0.13567279  1
  O  O30  1  0.76587497  1.00000000  0.51439188  1
  O  O31  1  0.23412503  0.00000000  0.48560812  1
  O  O32  1  0.73412503  0.00000000  0.01439188  1
  O  O33  1  0.26587497  1.00000000  0.98560812  1
  O  O34  1  0.08875261  0.15863612  0.36579063  1
  O  O35  1  0.06988351  0.15863612  0.63420937  1
  O  O36  1  0.56988351  0.15863612  0.86579063  1
  O  O37  1  0.58875261  0.15863612  0.13420937  1
  O  O38  1  0.91124739  0.84136388  0.63420937  1
  O  O39  1  0.93011649  0.84136388  0.36579063  1
  O  O40  1  0.43011649  0.84136388  0.13420937  1
  O  O41  1  0.41124739  0.84136388  0.86579063  1
  O  O42  1  0.73863556  0.49558576  0.36944809  1
  O  O43  1  0.75695020  0.49558576  0.63055191  1
  O  O44  1  0.25695020  0.49558576  0.86944809  1
  O  O45  1  0.23863556  0.49558576  0.13055191  1
  O  O46  1  0.26136444  0.50441424  0.63055191  1
  O  O47  1  0.24304980  0.50441424  0.36944809  1
  O  O48  1  0.74304980  0.50441424  0.13055191  1
  O  O49  1  0.76136444  0.50441424  0.86944809  1
  O  O50  1  0.74466476  0.00000000  0.25615251  1
  O  O51  1  0.25533524  1.00000000  0.74384749  1
  O  O52  1  0.75533524  1.00000000  0.75615251  1
  O  O53  1  0.24466476  0.00000000  0.24384749  1
  O  O54  1  0.95683848  0.34847594  0.24762491  1
  O  O55  1  0.39163746  0.34847594  0.75237509  1
  O  O56  1  0.89163746  0.34847594  0.74762491  1
  O  O57  1  0.45683848  0.34847594  0.25237509  1
  O  O58  1  0.04316152  0.65152406  0.75237509  1
  O  O59  1  0.60836254  0.65152406  0.24762491  1
  O  O60  1  0.10836254  0.65152406  0.25237509  1
  O  O61  1  0.54316152  0.65152406  0.74762491  1
  O  O62  1  0.88792203  0.32673182  0.48560181  1
  O  O63  1  0.43880979  0.32673182  0.51439819  1
  O  O64  1  0.93880979  0.32673182  0.98560181  1
  O  O65  1  0.38792203  0.32673182  0.01439819  1
  O  O66  1  0.11207797  0.67326818  0.51439819  1
  O  O67  1  0.56119021  0.67326818  0.48560181  1
  O  O68  1  0.06119021  0.67326818  0.01439819  1
  O  O69  1  0.61207797  0.67326818  0.98560181  1
  O  O70  1  0.61462395  0.15859901  0.39185106  1
  O  O71  1  0.54397506  0.15859901  0.60814894  1
  O  O72  1  0.04397506  0.15859901  0.89185106  1
  O  O73  1  0.11462395  0.15859901  0.10814894  1
  O  O74  1  0.38537605  0.84140099  0.60814894  1
  O  O75  1  0.45602494  0.84140099  0.39185106  1
  O  O76  1  0.95602494  0.84140099  0.10814894  1
  O  O77  1  0.88537605  0.84140099  0.89185106  1
