# generated using pymatgen
data_AgH24C9S3IN6
_symmetry_space_group_name_H-M   'P 1'
_cell_length_a   7.57673494
_cell_length_b   16.48539218
_cell_length_c   17.76404641
_cell_angle_alpha   90.00000000
_cell_angle_beta   98.60628162
_cell_angle_gamma   90.00000000
_symmetry_Int_Tables_number   1
_chemical_formula_structural   AgH24C9S3IN6
_chemical_formula_sum   'Ag4 H96 C36 S12 I4 N24'
_cell_volume   2193.84213111
_cell_formula_units_Z   4
loop_
 _symmetry_equiv_pos_site_id
 _symmetry_equiv_pos_as_xyz
  1  'x, y, z'
loop_
 _atom_site_type_symbol
 _atom_site_label
 _atom_site_symmetry_multiplicity
 _atom_site_fract_x
 _atom_site_fract_y
 _atom_site_fract_z
 _atom_site_occupancy
  Ag  Ag0  1  0.63289578  0.79031491  0.20302625  1
  Ag  Ag1  1  0.36710422  0.29031491  0.29697375  1
  Ag  Ag2  1  0.36710422  0.20968509  0.79697375  1
  Ag  Ag3  1  0.63289578  0.70968509  0.70302625  1
  H  H4  1  0.18840272  0.77064463  0.94682728  1
  H  H5  1  0.81159728  0.27064463  0.55317272  1
  H  H6  1  0.81159728  0.22935537  0.05317272  1
  H  H7  1  0.18840272  0.72935537  0.44682728  1
  H  H8  1  0.92328238  0.64037007  0.93441890  1
  H  H9  1  0.07671762  0.14037007  0.56558110  1
  H  H10  1  0.07671762  0.35962993  0.06558110  1
  H  H11  1  0.92328238  0.85962993  0.43441890  1
  H  H12  1  0.00605951  0.77244707  0.12117847  1
  H  H13  1  0.99394049  0.27244707  0.37882153  1
  H  H14  1  0.99394049  0.22755293  0.87882153  1
  H  H15  1  0.00605951  0.72755293  0.62117847  1
  H  H16  1  0.21661116  0.78474156  0.17526136  1
  H  H17  1  0.78338884  0.28474156  0.32473864  1
  H  H18  1  0.78338884  0.21525844  0.82473864  1
  H  H19  1  0.21661116  0.71525844  0.67526136  1
  H  H20  1  0.48615788  0.92538710  0.12193606  1
  H  H21  1  0.51384212  0.42538710  0.37806394  1
  H  H22  1  0.51384212  0.07461290  0.87806394  1
  H  H23  1  0.48615788  0.57461290  0.62193606  1
  H  H24  1  0.25209250  0.96856475  0.01336383  1
  H  H25  1  0.74790750  0.46856475  0.48663617  1
  H  H26  1  0.74790750  0.03143525  0.98663617  1
  H  H27  1  0.25209250  0.53143525  0.51336383  1
  H  H28  1  0.65596945  0.12509711  0.16667270  1
  H  H29  1  0.34403055  0.62509711  0.33332730  1
  H  H30  1  0.34403055  0.87490289  0.83332730  1
  H  H31  1  0.65596945  0.37490289  0.66667270  1
  H  H32  1  0.85791722  0.08886764  0.21297832  1
  H  H33  1  0.14208278  0.58886764  0.28702168  1
  H  H34  1  0.14208278  0.91113236  0.78702168  1
  H  H35  1  0.85791722  0.41113236  0.71297832  1
  H  H36  1  0.50648032  0.65006251  0.13194800  1
  H  H37  1  0.49351968  0.15006251  0.36805200  1
  H  H38  1  0.49351968  0.34993749  0.86805200  1
  H  H39  1  0.50648032  0.84993749  0.63194800  1
  H  H40  1  0.18271506  0.59303887  0.10792200  1
  H  H41  1  0.81728494  0.09303887  0.39207800  1
  H  H42  1  0.81728494  0.40696113  0.89207800  1
  H  H43  1  0.18271506  0.90696113  0.60792200  1
  H  H44  1  0.69470091  0.45518910  0.18253213  1
  H  H45  1  0.30529909  0.95518910  0.31746787  1
  H  H46  1  0.30529909  0.54481090  0.81746787  1
  H  H47  1  0.69470091  0.04481090  0.68253213  1
  H  H48  1  0.89066629  0.49585063  0.23082314  1
  H  H49  1  0.10933371  0.99585063  0.26917686  1
  H  H50  1  0.10933371  0.50414937  0.76917686  1
  H  H51  1  0.89066629  0.00414937  0.73082314  1
  H  H52  1  0.86144975  0.80095342  0.01612135  1
  H  H53  1  0.13855025  0.30095342  0.48387865  1
  H  H54  1  0.13855025  0.19904658  0.98387865  1
  H  H55  1  0.86144975  0.69904658  0.51612135  1
  H  H56  1  0.87924583  0.79036175  0.91889318  1
  H  H57  1  0.12075417  0.29036175  0.58110682  1
  H  H58  1  0.12075417  0.20963825  0.08110682  1
  H  H59  1  0.87924583  0.70963825  0.41889318  1
  H  H60  1  0.90788294  0.64839945  0.03333992  1
  H  H61  1  0.09211706  0.14839945  0.46666008  1
  H  H62  1  0.09211706  0.35160055  0.96666008  1
  H  H63  1  0.90788294  0.85160055  0.53333992  1
  H  H64  1  0.71957441  0.67215412  0.96346682  1
  H  H65  1  0.28042559  0.17215412  0.53653318  1
  H  H66  1  0.28042559  0.32784588  0.03653318  1
  H  H67  1  0.71957441  0.82784588  0.46346682  1
  H  H68  1  0.36426046  0.08858373  0.14516589  1
  H  H69  1  0.63573954  0.58858373  0.35483411  1
  H  H70  1  0.63573954  0.91141627  0.85483411  1
  H  H71  1  0.36426046  0.41141627  0.64516589  1
  H  H72  1  0.45797733  0.08508543  0.05936454  1
  H  H73  1  0.54202267  0.58508543  0.44063546  1
  H  H74  1  0.54202267  0.91491457  0.94063546  1
  H  H75  1  0.45797733  0.41491457  0.55936454  1
  H  H76  1  0.15708507  0.97379893  0.09911558  1
  H  H77  1  0.84291493  0.47379893  0.40088442  1
  H  H78  1  0.84291493  0.02620107  0.90088442  1
  H  H79  1  0.15708507  0.52620107  0.59911558  1
  H  H80  1  0.13186465  0.05615506  0.03398320  1
  H  H81  1  0.86813535  0.55615506  0.46601680  1
  H  H82  1  0.86813535  0.94384494  0.96601680  1
  H  H83  1  0.13186465  0.44384494  0.53398320  1
  H  H84  1  0.50006408  0.48873822  0.07468275  1
  H  H85  1  0.49993592  0.98873822  0.42531725  1
  H  H86  1  0.49993592  0.51126178  0.92531725  1
  H  H87  1  0.50006408  0.01126178  0.57468275  1
  H  H88  1  0.40074295  0.48457110  0.15874094  1
  H  H89  1  0.59925705  0.98457110  0.34125906  1
  H  H90  1  0.59925705  0.51542890  0.84125906  1
  H  H91  1  0.40074295  0.01542890  0.65874094  1
  H  H92  1  0.28232007  0.59943219  0.02342960  1
  H  H93  1  0.71767993  0.09943219  0.47657040  1
  H  H94  1  0.71767993  0.40056781  0.97657040  1
  H  H95  1  0.28232007  0.90056781  0.52342960  1
  H  H96  1  0.17149530  0.50895569  0.04480087  1
  H  H97  1  0.82850470  0.00895569  0.45519913  1
  H  H98  1  0.82850470  0.49104431  0.95519913  1
  H  H99  1  0.17149530  0.99104431  0.54480087  1
  C  C100  1  0.92403394  0.76433489  0.97541445  1
  C  C101  1  0.07596606  0.26433489  0.52458555  1
  C  C102  1  0.07596606  0.23566511  0.02458555  1
  C  C103  1  0.92403394  0.73566511  0.47541445  1
  C  C104  1  0.86583179  0.67569984  0.97721868  1
  C  C105  1  0.13416821  0.17569984  0.52278132  1
  C  C106  1  0.13416821  0.32430016  0.02278132  1
  C  C107  1  0.86583179  0.82430016  0.47721868  1
  C  C108  1  0.39509242  0.04774063  0.09963349  1
  C  C109  1  0.60490758  0.54774063  0.40036651  1
  C  C110  1  0.60490758  0.95225937  0.90036651  1
  C  C111  1  0.39509242  0.45225937  0.59963349  1
  C  C112  1  0.22441964  0.00903912  0.05925947  1
  C  C113  1  0.77558036  0.50903912  0.44074053  1
  C  C114  1  0.77558036  0.99096088  0.94074053  1
  C  C115  1  0.22441964  0.49096088  0.55925947  1
  C  C116  1  0.42956772  0.52538075  0.11286677  1
  C  C117  1  0.57043228  0.02538075  0.38713323  1
  C  C118  1  0.57043228  0.47461925  0.88713323  1
  C  C119  1  0.42956772  0.97461925  0.61286677  1
  C  C120  1  0.25660143  0.55893419  0.06969577  1
  C  C121  1  0.74339857  0.05893419  0.43030423  1
  C  C122  1  0.74339857  0.44106581  0.93030423  1
  C  C123  1  0.25660143  0.94106581  0.56969577  1
  C  C124  1  0.21790230  0.78039837  0.06029591  1
  C  C125  1  0.78209770  0.28039837  0.43970409  1
  C  C126  1  0.78209770  0.21960163  0.93970409  1
  C  C127  1  0.21790230  0.71960163  0.56029591  1
  C  C128  1  0.68252619  0.99910106  0.17131690  1
  C  C129  1  0.31747381  0.49910106  0.32868310  1
  C  C130  1  0.31747381  0.00089894  0.82868310  1
  C  C131  1  0.68252619  0.50089894  0.67131690  1
  C  C132  1  0.70688708  0.58156407  0.18626083  1
  C  C133  1  0.29311292  0.08156407  0.31373917  1
  C  C134  1  0.29311292  0.41843593  0.81373917  1
  C  C135  1  0.70688708  0.91843593  0.68626083  1
  S  S136  1  0.44598632  0.78751602  0.06514346  1
  S  S137  1  0.55401368  0.28751602  0.43485654  1
  S  S138  1  0.55401368  0.21248398  0.93485654  1
  S  S139  1  0.44598632  0.71248398  0.56514346  1
  S  S140  1  0.82183295  0.92180693  0.20776366  1
  S  S141  1  0.17816705  0.42180693  0.29223634  1
  S  S142  1  0.17816705  0.07819307  0.79223634  1
  S  S143  1  0.82183295  0.57819307  0.70776366  1
  S  S144  1  0.83552596  0.66280606  0.22199945  1
  S  S145  1  0.16447404  0.16280606  0.27800055  1
  S  S146  1  0.16447404  0.33719394  0.77800055  1
  S  S147  1  0.83552596  0.83719394  0.72199945  1
  I  I148  1  0.39236537  0.79217420  0.31695167  1
  I  I149  1  0.60763463  0.29217420  0.18304833  1
  I  I150  1  0.60763463  0.20782580  0.68304833  1
  I  I151  1  0.39236537  0.70782580  0.81695167  1
  N  N152  1  0.11787080  0.77559701  0.99115958  1
  N  N153  1  0.88212920  0.27559701  0.50884042  1
  N  N154  1  0.88212920  0.22440299  0.00884042  1
  N  N155  1  0.11787080  0.72440299  0.49115958  1
  N  N156  1  0.13961764  0.78014839  0.12279637  1
  N  N157  1  0.86038236  0.28014839  0.37720363  1
  N  N158  1  0.86038236  0.21985161  0.87720363  1
  N  N159  1  0.13961764  0.71985161  0.62279637  1
  N  N160  1  0.51981899  0.98502140  0.13261359  1
  N  N161  1  0.48018101  0.48502140  0.36738641  1
  N  N162  1  0.48018101  0.01497860  0.86738641  1
  N  N163  1  0.51981899  0.51497860  0.63261359  1
  N  N164  1  0.73734873  0.07646046  0.18124362  1
  N  N165  1  0.26265127  0.57646046  0.31875638  1
  N  N166  1  0.26265127  0.92353954  0.81875638  1
  N  N167  1  0.73734873  0.42353954  0.68124362  1
  N  N168  1  0.54478036  0.59152470  0.14534819  1
  N  N169  1  0.45521964  0.09152470  0.35465181  1
  N  N170  1  0.45521964  0.40847530  0.85465181  1
  N  N171  1  0.54478036  0.90847530  0.64534819  1
  N  N172  1  0.76828967  0.50576973  0.19935697  1
  N  N173  1  0.23171033  0.00576973  0.30064303  1
  N  N174  1  0.23171033  0.49423027  0.80064303  1
  N  N175  1  0.76828967  0.99423027  0.69935697  1
