# generated using pymatgen
data_Cu3Mo(HO2)4
_symmetry_space_group_name_H-M   'P 1'
_cell_length_a   6.18221237
_cell_length_b   8.58146508
_cell_length_c   12.83316836
_cell_angle_alpha   90.00000000
_cell_angle_beta   90.00000000
_cell_angle_gamma   90.00000000
_symmetry_Int_Tables_number   1
_chemical_formula_structural   Cu3Mo(HO2)4
_chemical_formula_sum   'Cu12 Mo4 H16 O32'
_cell_volume   680.83088891
_cell_formula_units_Z   4
loop_
 _symmetry_equiv_pos_site_id
 _symmetry_equiv_pos_as_xyz
  1  'x, y, z'
loop_
 _atom_site_type_symbol
 _atom_site_label
 _atom_site_symmetry_multiplicity
 _atom_site_fract_x
 _atom_site_fract_y
 _atom_site_fract_z
 _atom_site_occupancy
  Cu  Cu0  1  0.24946055  0.72813233  0.13065924  1
  Cu  Cu1  1  0.24946055  0.27186767  0.86934076  1
  Cu  Cu2  1  0.25053945  0.77186767  0.63065924  1
  Cu  Cu3  1  0.25053945  0.22813233  0.36934076  1
  Cu  Cu4  1  0.75053945  0.27186767  0.86934076  1
  Cu  Cu5  1  0.75053945  0.72813233  0.13065924  1
  Cu  Cu6  1  0.74946055  0.22813233  0.36934076  1
  Cu  Cu7  1  0.74946055  0.77186767  0.63065924  1
  Cu  Cu8  1  0.00000000  0.00000000  0.00000000  1
  Cu  Cu9  1  0.50000000  0.50000000  0.50000000  1
  Cu  Cu10  1  0.50000000  0.00000000  0.00000000  1
  Cu  Cu11  1  0.00000000  0.50000000  0.50000000  1
  Mo  Mo12  1  0.50000000  0.87686382  0.36855715  1
  Mo  Mo13  1  0.50000000  0.12313618  0.63144285  1
  Mo  Mo14  1  0.00000000  0.62313618  0.86855715  1
  Mo  Mo15  1  0.00000000  0.37686382  0.13144285  1
  H  H16  1  0.50000000  0.63209044  0.99445462  1
  H  H17  1  0.50000000  0.36790956  0.00554538  1
  H  H18  1  0.00000000  0.86790956  0.49445462  1
  H  H19  1  0.00000000  0.13209044  0.50554538  1
  H  H20  1  0.00000000  0.85019333  0.25223896  1
  H  H21  1  0.00000000  0.14980667  0.74776104  1
  H  H22  1  0.50000000  0.64980667  0.75223896  1
  H  H23  1  0.50000000  0.35019333  0.24776104  1
  H  H24  1  0.24181930  0.03303250  0.16212103  1
  H  H25  1  0.24181930  0.96696750  0.83787897  1
  H  H26  1  0.25818070  0.46696750  0.66212103  1
  H  H27  1  0.25818070  0.53303250  0.33787897  1
  H  H28  1  0.75818070  0.96696750  0.83787897  1
  H  H29  1  0.75818070  0.03303250  0.16212103  1
  H  H30  1  0.74181930  0.53303250  0.33787897  1
  H  H31  1  0.74181930  0.46696750  0.66212103  1
  O  O32  1  0.50000000  0.72467312  0.03875865  1
  O  O33  1  0.50000000  0.27532688  0.96124135  1
  O  O34  1  0.00000000  0.77532688  0.53875865  1
  O  O35  1  0.00000000  0.22467312  0.46124135  1
  O  O36  1  0.00000000  0.74500273  0.22202891  1
  O  O37  1  0.00000000  0.25499727  0.77797109  1
  O  O38  1  0.50000000  0.75499727  0.72202891  1
  O  O39  1  0.50000000  0.24500273  0.27797109  1
  O  O40  1  0.24967475  0.96746743  0.09942608  1
  O  O41  1  0.24967475  0.03253257  0.90057392  1
  O  O42  1  0.25032525  0.53253257  0.59942608  1
  O  O43  1  0.25032525  0.46746743  0.40057392  1
  O  O44  1  0.75032525  0.03253257  0.90057392  1
  O  O45  1  0.75032525  0.96746743  0.09942608  1
  O  O46  1  0.74967475  0.46746743  0.40057392  1
  O  O47  1  0.74967475  0.53253257  0.59942608  1
  O  O48  1  0.50000000  0.73192592  0.26829869  1
  O  O49  1  0.50000000  0.26807408  0.73170131  1
  O  O50  1  0.00000000  0.76807408  0.76829869  1
  O  O51  1  0.00000000  0.23192592  0.23170131  1
  O  O52  1  0.25846733  0.99409490  0.35667376  1
  O  O53  1  0.25846733  0.00590510  0.64332624  1
  O  O54  1  0.24153267  0.50590510  0.85667376  1
  O  O55  1  0.24153267  0.49409490  0.14332624  1
  O  O56  1  0.74153267  0.00590510  0.64332624  1
  O  O57  1  0.74153267  0.99409490  0.35667376  1
  O  O58  1  0.75846733  0.49409490  0.14332624  1
  O  O59  1  0.75846733  0.50590510  0.85667376  1
  O  O60  1  0.50000000  0.77740114  0.49200044  1
  O  O61  1  0.50000000  0.22259886  0.50799956  1
  O  O62  1  0.00000000  0.72259886  0.99200044  1
  O  O63  1  0.00000000  0.27740114  0.00799956  1
