# generated using pymatgen
data_Pb6CNO11
_symmetry_space_group_name_H-M   'P 1'
_cell_length_a   5.93230474
_cell_length_b   7.31190717
_cell_length_c   31.09193636
_cell_angle_alpha   90.00000000
_cell_angle_beta   90.00000000
_cell_angle_gamma   90.00000000
_symmetry_Int_Tables_number   1
_chemical_formula_structural   Pb6CNO11
_chemical_formula_sum   'Pb24 C4 N4 O44'
_cell_volume   1348.65818244
_cell_formula_units_Z   4
loop_
 _symmetry_equiv_pos_site_id
 _symmetry_equiv_pos_as_xyz
  1  'x, y, z'
loop_
 _atom_site_type_symbol
 _atom_site_label
 _atom_site_symmetry_multiplicity
 _atom_site_fract_x
 _atom_site_fract_y
 _atom_site_fract_z
 _atom_site_occupancy
  Pb  Pb0  1  0.75000000  0.55617312  0.91644707  1
  Pb  Pb1  1  0.75000000  0.94382688  0.41644707  1
  Pb  Pb2  1  0.25000000  0.44382688  0.08355293  1
  Pb  Pb3  1  0.25000000  0.05617312  0.58355293  1
  Pb  Pb4  1  0.25000000  0.83533616  0.84325622  1
  Pb  Pb5  1  0.25000000  0.66466384  0.34325622  1
  Pb  Pb6  1  0.75000000  0.16466384  0.15674378  1
  Pb  Pb7  1  0.75000000  0.33533616  0.65674378  1
  Pb  Pb8  1  0.75000000  0.19584043  0.80178896  1
  Pb  Pb9  1  0.75000000  0.30415957  0.30178896  1
  Pb  Pb10  1  0.25000000  0.80415957  0.19821104  1
  Pb  Pb11  1  0.25000000  0.69584043  0.69821104  1
  Pb  Pb12  1  0.25000000  0.32110765  0.86373084  1
  Pb  Pb13  1  0.25000000  0.17889235  0.36373084  1
  Pb  Pb14  1  0.75000000  0.67889235  0.13626916  1
  Pb  Pb15  1  0.75000000  0.82110765  0.63626916  1
  Pb  Pb16  1  0.25000000  0.80380598  0.96341658  1
  Pb  Pb17  1  0.25000000  0.69619402  0.46341658  1
  Pb  Pb18  1  0.75000000  0.19619402  0.03658342  1
  Pb  Pb19  1  0.75000000  0.30380598  0.53658342  1
  Pb  Pb20  1  0.75000000  0.03649447  0.90935895  1
  Pb  Pb21  1  0.75000000  0.46350553  0.40935895  1
  Pb  Pb22  1  0.25000000  0.96350553  0.09064105  1
  Pb  Pb23  1  0.25000000  0.53649447  0.59064105  1
  C  C24  1  0.25000000  0.27785341  0.96765902  1
  C  C25  1  0.25000000  0.22214659  0.46765902  1
  C  C26  1  0.75000000  0.72214659  0.03234098  1
  C  C27  1  0.75000000  0.77785341  0.53234098  1
  N  N28  1  0.75000000  0.73868472  0.75469722  1
  N  N29  1  0.75000000  0.76131528  0.25469722  1
  N  N30  1  0.25000000  0.26131528  0.24530278  1
  N  N31  1  0.25000000  0.23868472  0.74530278  1
  O  O32  1  0.00344729  0.77777095  0.90716704  1
  O  O33  1  0.49655271  0.72222905  0.40716704  1
  O  O34  1  0.50344729  0.22222905  0.09283296  1
  O  O35  1  0.99655271  0.27777095  0.59283296  1
  O  O36  1  0.99655271  0.22222905  0.09283296  1
  O  O37  1  0.50344729  0.27777095  0.59283296  1
  O  O38  1  0.49655271  0.77777095  0.90716704  1
  O  O39  1  0.00344729  0.72222905  0.40716704  1
  O  O40  1  0.00373760  0.08490471  0.85077370  1
  O  O41  1  0.49626240  0.41509529  0.35077370  1
  O  O42  1  0.50373760  0.91509529  0.14922630  1
  O  O43  1  0.99626240  0.58490471  0.64922630  1
  O  O44  1  0.99626240  0.91509529  0.14922630  1
  O  O45  1  0.50373760  0.58490471  0.64922630  1
  O  O46  1  0.49626240  0.08490471  0.85077370  1
  O  O47  1  0.00373760  0.41509529  0.35077370  1
  O  O48  1  0.25000000  0.14973279  0.93770862  1
  O  O49  1  0.25000000  0.35026721  0.43770862  1
  O  O50  1  0.75000000  0.85026721  0.06229138  1
  O  O51  1  0.75000000  0.64973279  0.56229138  1
  O  O52  1  0.25000000  0.22965770  0.00768611  1
  O  O53  1  0.25000000  0.27034230  0.50768611  1
  O  O54  1  0.75000000  0.77034230  0.99231389  1
  O  O55  1  0.75000000  0.72965770  0.49231389  1
  O  O56  1  0.25000000  0.44690094  0.95524088  1
  O  O57  1  0.25000000  0.05309906  0.45524088  1
  O  O58  1  0.75000000  0.55309906  0.04475912  1
  O  O59  1  0.75000000  0.94690094  0.54475912  1
  O  O60  1  0.75000000  0.43851247  0.85157744  1
  O  O61  1  0.75000000  0.06148753  0.35157744  1
  O  O62  1  0.25000000  0.56148753  0.14842256  1
  O  O63  1  0.25000000  0.93851247  0.64842256  1
  O  O64  1  0.75000000  0.79332290  0.79345107  1
  O  O65  1  0.75000000  0.70667710  0.29345107  1
  O  O66  1  0.25000000  0.20667710  0.20654893  1
  O  O67  1  0.25000000  0.29332290  0.70654893  1
  O  O68  1  0.75000000  0.85908438  0.72448146  1
  O  O69  1  0.75000000  0.64091562  0.22448146  1
  O  O70  1  0.25000000  0.14091562  0.27551854  1
  O  O71  1  0.25000000  0.35908438  0.77551854  1
  O  O72  1  0.75000000  0.57060443  0.74565015  1
  O  O73  1  0.75000000  0.92939557  0.24565015  1
  O  O74  1  0.25000000  0.42939557  0.25434985  1
  O  O75  1  0.25000000  0.07060443  0.75434985  1
