# generated using pymatgen
data_NiH16C4(N5O)2
_symmetry_space_group_name_H-M   'P 1'
_cell_length_a   7.25037747
_cell_length_b   7.38493949
_cell_length_c   22.91152611
_cell_angle_alpha   90.00000000
_cell_angle_beta   90.00000000
_cell_angle_gamma   90.00000000
_symmetry_Int_Tables_number   1
_chemical_formula_structural   NiH16C4(N5O)2
_chemical_formula_sum   'Ni4 H64 C16 N40 O8'
_cell_volume   1226.76556412
_cell_formula_units_Z   4
loop_
 _symmetry_equiv_pos_site_id
 _symmetry_equiv_pos_as_xyz
  1  'x, y, z'
loop_
 _atom_site_type_symbol
 _atom_site_label
 _atom_site_symmetry_multiplicity
 _atom_site_fract_x
 _atom_site_fract_y
 _atom_site_fract_z
 _atom_site_occupancy
  Ni  Ni0  1  -0.00000000  0.50000000  0.50000000  1
  Ni  Ni1  1  0.50000000  -0.00000000  0.50000000  1
  Ni  Ni2  1  -0.00000000  -0.00000000  0.00000000  1
  Ni  Ni3  1  0.50000000  0.50000000  0.00000000  1
  H  H4  1  0.12282597  0.16600225  0.49638792  1
  H  H5  1  0.62282597  0.33399775  0.50361208  1
  H  H6  1  0.87717403  0.66600225  0.00361208  1
  H  H7  1  0.37717403  0.83399775  0.99638792  1
  H  H8  1  0.87717403  0.83399775  0.50361208  1
  H  H9  1  0.37717403  0.66600225  0.49638792  1
  H  H10  1  0.12282597  0.33399775  0.99638792  1
  H  H11  1  0.62282597  0.16600225  0.00361208  1
  H  H12  1  0.15384112  0.94436796  0.43323272  1
  H  H13  1  0.65384112  0.55563204  0.56676728  1
  H  H14  1  0.84615888  0.44436796  0.06676728  1
  H  H15  1  0.34615888  0.05563204  0.93323272  1
  H  H16  1  0.84615888  0.05563204  0.56676728  1
  H  H17  1  0.34615888  0.44436796  0.43323272  1
  H  H18  1  0.15384112  0.55563204  0.93323272  1
  H  H19  1  0.65384112  0.94436796  0.06676728  1
  H  H20  1  0.08842584  0.97197138  0.36139142  1
  H  H21  1  0.58842584  0.52802862  0.63860858  1
  H  H22  1  0.91157416  0.47197138  0.13860858  1
  H  H23  1  0.41157416  0.02802862  0.86139142  1
  H  H24  1  0.91157416  0.02802862  0.63860858  1
  H  H25  1  0.41157416  0.47197138  0.36139142  1
  H  H26  1  0.08842584  0.52802862  0.86139142  1
  H  H27  1  0.58842584  0.97197138  0.13860858  1
  H  H28  1  0.85235170  0.68216939  0.41301731  1
  H  H29  1  0.35235170  0.81783061  0.58698269  1
  H  H30  1  0.14764830  0.18216939  0.08698269  1
  H  H31  1  0.64764830  0.31783061  0.91301731  1
  H  H32  1  0.14764830  0.31783061  0.58698269  1
  H  H33  1  0.64764830  0.18216939  0.41301731  1
  H  H34  1  0.85235170  0.81783061  0.91301731  1
  H  H35  1  0.35235170  0.68216939  0.08698269  1
  H  H36  1  0.79172775  0.64479427  0.32076105  1
  H  H37  1  0.29172775  0.85520573  0.67923895  1
  H  H38  1  0.20827225  0.14479427  0.17923895  1
  H  H39  1  0.70827225  0.35520573  0.82076105  1
  H  H40  1  0.20827225  0.35520573  0.67923895  1
  H  H41  1  0.70827225  0.14479427  0.32076105  1
  H  H42  1  0.79172775  0.85520573  0.82076105  1
  H  H43  1  0.29172775  0.64479427  0.17923895  1
  H  H44  1  0.86713398  0.45865516  0.28405759  1
  H  H45  1  0.36713398  0.04134484  0.71594241  1
  H  H46  1  0.13286602  0.95865516  0.21594241  1
  H  H47  1  0.63286602  0.54134484  0.78405759  1
  H  H48  1  0.13286602  0.54134484  0.71594241  1
  H  H49  1  0.63286602  0.95865516  0.28405759  1
  H  H50  1  0.86713398  0.04134484  0.78405759  1
  H  H51  1  0.36713398  0.45865516  0.21594241  1
  H  H52  1  0.30045069  0.79016447  0.30979390  1
  H  H53  1  0.80045069  0.70983553  0.69020610  1
  H  H54  1  0.69954931  0.29016447  0.19020610  1
  H  H55  1  0.19954931  0.20983553  0.80979390  1
  H  H56  1  0.69954931  0.20983553  0.69020610  1
  H  H57  1  0.19954931  0.29016447  0.30979390  1
  H  H58  1  0.30045069  0.70983553  0.80979390  1
  H  H59  1  0.80045069  0.79016447  0.19020610  1
  H  H60  1  0.10066372  0.71177615  0.29686060  1
  H  H61  1  0.60066372  0.78822385  0.70313940  1
  H  H62  1  0.89933628  0.21177615  0.20313940  1
  H  H63  1  0.39933628  0.28822385  0.79686060  1
  H  H64  1  0.89933628  0.28822385  0.70313940  1
  H  H65  1  0.39933628  0.21177615  0.29686060  1
  H  H66  1  0.10066372  0.78822385  0.79686060  1
  H  H67  1  0.60066372  0.71177615  0.20313940  1
  C  C68  1  0.04924763  0.19590544  0.41433922  1
  C  C69  1  0.54924763  0.30409456  0.58566078  1
  C  C70  1  0.95075237  0.69590544  0.08566078  1
  C  C71  1  0.45075237  0.80409456  0.91433922  1
  C  C72  1  0.95075237  0.80409456  0.58566078  1
  C  C73  1  0.45075237  0.69590544  0.41433922  1
  C  C74  1  0.04924763  0.30409456  0.91433922  1
  C  C75  1  0.54924763  0.19590544  0.08566078  1
  C  C76  1  0.92940176  0.46353969  0.37175919  1
  C  C77  1  0.42940176  0.03646031  0.62824081  1
  C  C78  1  0.07059824  0.96353969  0.12824081  1
  C  C79  1  0.57059824  0.53646031  0.87175919  1
  C  C80  1  0.07059824  0.53646031  0.62824081  1
  C  C81  1  0.57059824  0.96353969  0.37175919  1
  C  C82  1  0.92940176  0.03646031  0.87175919  1
  C  C83  1  0.42940176  0.46353969  0.12824081  1
  N  N84  1  0.07725193  0.26264314  0.46790489  1
  N  N85  1  0.57725193  0.23735686  0.53209511  1
  N  N86  1  0.92274807  0.76264314  0.03209511  1
  N  N87  1  0.42274807  0.73735686  0.96790489  1
  N  N88  1  0.92274807  0.73735686  0.53209511  1
  N  N89  1  0.42274807  0.76264314  0.46790489  1
  N  N90  1  0.07725193  0.23735686  0.96790489  1
  N  N91  1  0.57725193  0.26264314  0.03209511  1
  N  N92  1  0.07760052  0.01553057  0.40383389  1
  N  N93  1  0.57760052  0.48446943  0.59616611  1
  N  N94  1  0.92239948  0.51553057  0.09616611  1
  N  N95  1  0.42239948  0.98446943  0.90383389  1
  N  N96  1  0.92239948  0.98446943  0.59616611  1
  N  N97  1  0.42239948  0.51553057  0.40383389  1
  N  N98  1  0.07760052  0.48446943  0.90383389  1
  N  N99  1  0.57760052  0.01553057  0.09616611  1
  N  N100  1  0.99214695  0.29140211  0.36709631  1
  N  N101  1  0.49214695  0.20859789  0.63290369  1
  N  N102  1  0.00785305  0.79140211  0.13290369  1
  N  N103  1  0.50785305  0.70859789  0.86709631  1
  N  N104  1  0.00785305  0.70859789  0.63290369  1
  N  N105  1  0.50785305  0.79140211  0.36709631  1
  N  N106  1  0.99214695  0.20859789  0.86709631  1
  N  N107  1  0.49214695  0.29140211  0.13290369  1
  N  N108  1  0.90764977  0.55689032  0.42069579  1
  N  N109  1  0.40764977  0.94310968  0.57930421  1
  N  N110  1  0.09235023  0.05689032  0.07930421  1
  N  N111  1  0.59235023  0.44310968  0.92069579  1
  N  N112  1  0.09235023  0.44310968  0.57930421  1
  N  N113  1  0.59235023  0.05689032  0.42069579  1
  N  N114  1  0.90764977  0.94310968  0.92069579  1
  N  N115  1  0.40764977  0.55689032  0.07930421  1
  N  N116  1  0.88955471  0.54533617  0.31841371  1
  N  N117  1  0.38955471  0.95466383  0.68158629  1
  N  N118  1  0.11044529  0.04533617  0.18158629  1
  N  N119  1  0.61044529  0.45466383  0.81841371  1
  N  N120  1  0.11044529  0.45466383  0.68158629  1
  N  N121  1  0.61044529  0.04533617  0.31841371  1
  N  N122  1  0.88955471  0.95466383  0.81841371  1
  N  N123  1  0.38955471  0.54533617  0.18158629  1
  O  O124  1  0.18124571  0.81812006  0.29044278  1
  O  O125  1  0.68124571  0.68187994  0.70955722  1
  O  O126  1  0.81875429  0.31812006  0.20955722  1
  O  O127  1  0.31875429  0.18187994  0.79044278  1
  O  O128  1  0.81875429  0.18187994  0.70955722  1
  O  O129  1  0.31875429  0.31812006  0.29044278  1
  O  O130  1  0.18124571  0.68187994  0.79044278  1
  O  O131  1  0.68124571  0.81812006  0.20955722  1
