# generated using pymatgen
data_Fe4O7F
_symmetry_space_group_name_H-M   'P 1'
_cell_length_a   4.60446537
_cell_length_b   7.56669293
_cell_length_c   7.56669293
_cell_angle_alpha   74.97430299
_cell_angle_beta   91.17038193
_cell_angle_gamma   88.82961807
_symmetry_Int_Tables_number   1
_chemical_formula_structural   Fe4O7F
_chemical_formula_sum   'Fe8 O14 F2'
_cell_volume   254.47096040
_cell_formula_units_Z   2
loop_
 _symmetry_equiv_pos_site_id
 _symmetry_equiv_pos_as_xyz
  1  'x, y, z'
loop_
 _atom_site_type_symbol
 _atom_site_label
 _atom_site_symmetry_multiplicity
 _atom_site_fract_x
 _atom_site_fract_y
 _atom_site_fract_z
 _atom_site_occupancy
  Fe  Fe0  1  0.49851060  0.12280703  0.62912469  1
  Fe  Fe1  1  0.51581856  0.38672713  0.86672418  1
  Fe  Fe2  1  0.49851060  0.87087531  0.37719297  1
  Fe  Fe3  1  0.51581856  0.63327582  0.11327287  1
  Fe  Fe4  1  0.00640417  0.75394358  0.74605642  1
  Fe  Fe5  1  0.99325740  0.50292455  0.50906298  1
  Fe  Fe6  1  0.96983177  0.23373190  0.26626810  1
  Fe  Fe7  1  0.99325740  0.99093702  0.99707545  1
  O  O8  1  0.81437672  0.77620049  0.96107421  1
  O  O9  1  0.80469406  0.28380914  0.48015822  1
  O  O10  1  0.81437672  0.53892579  0.72379951  1
  O  O11  1  0.80469406  0.01984178  0.21619086  1
  O  O12  1  0.70334475  0.90444865  0.59555135  1
  O  O13  1  0.69173699  0.15566861  0.84963529  1
  O  O14  1  0.68838634  0.40223790  0.09776210  1
  O  O15  1  0.69173699  0.65036471  0.34433139  1
  O  O16  1  0.30699332  0.60132978  0.89867022  1
  O  O17  1  0.30587816  0.34884448  0.65612826  1
  O  O18  1  0.30587816  0.84387174  0.15115552  1
  O  O19  1  0.30786548  0.09451999  0.40548001  1
  O  O20  1  0.19182747  0.72122517  0.52955367  1
  O  O21  1  0.19182747  0.97044633  0.77877483  1
  F  F22  1  0.19248612  0.22279311  0.02975001  1
  F  F23  1  0.19248612  0.47024999  0.27720689  1
