# generated using pymatgen
data_Na4ZnP3H32C3NO22
_symmetry_space_group_name_H-M   'P 1'
_cell_length_a   11.24458263
_cell_length_b   11.38539955
_cell_length_c   12.52294791
_cell_angle_alpha   109.00788495
_cell_angle_beta   97.13379409
_cell_angle_gamma   117.17010617
_symmetry_Int_Tables_number   1
_chemical_formula_structural   Na4ZnP3H32C3NO22
_chemical_formula_sum   'Na8 Zn2 P6 H64 C6 N2 O44'
_cell_volume   1275.60238288
_cell_formula_units_Z   2
loop_
 _symmetry_equiv_pos_site_id
 _symmetry_equiv_pos_as_xyz
  1  'x, y, z'
loop_
 _atom_site_type_symbol
 _atom_site_label
 _atom_site_symmetry_multiplicity
 _atom_site_fract_x
 _atom_site_fract_y
 _atom_site_fract_z
 _atom_site_occupancy
  Na  Na0  1  0.01668763  0.41697450  0.80654380  1
  Na  Na1  1  0.98331237  0.58302550  0.19345620  1
  Na  Na2  1  0.82709810  0.45305309  0.41215428  1
  Na  Na3  1  0.17290190  0.54694691  0.58784572  1
  Na  Na4  1  0.75973578  0.47061917  0.68786911  1
  Na  Na5  1  0.24026422  0.52938083  0.31213089  1
  Na  Na6  1  0.38301124  0.81411808  0.97370864  1
  Na  Na7  1  0.61698876  0.18588192  0.02629136  1
  Zn  Zn8  1  0.92325651  0.89431167  0.86062168  1
  Zn  Zn9  1  0.07674349  0.10568833  0.13937832  1
  P  P10  1  0.05207183  0.78914151  0.68323037  1
  P  P11  1  0.94792817  0.21085849  0.31676963  1
  P  P12  1  0.12929765  0.24038567  0.93441017  1
  P  P13  1  0.87070235  0.75961433  0.06558983  1
  P  P14  1  0.67695861  0.84830890  0.68365939  1
  P  P15  1  0.32304139  0.15169110  0.31634061  1
  H  H16  1  0.66609947  0.92377420  0.94087549  1
  H  H17  1  0.33390053  0.07622580  0.05912451  1
  H  H18  1  0.69830621  0.99913288  0.08075587  1
  H  H19  1  0.30169379  0.00086712  0.91924413  1
  H  H20  1  0.08106465  0.70838405  0.86568449  1
  H  H21  1  0.91893535  0.29161595  0.13431551  1
  H  H22  1  0.76746871  0.24829800  0.57982632  1
  H  H23  1  0.23253129  0.75170200  0.42017368  1
  H  H24  1  0.62752427  0.63425516  0.76677553  1
  H  H25  1  0.37247573  0.36574484  0.23322447  1
  H  H26  1  0.66296001  0.56865909  0.53929867  1
  H  H27  1  0.33703999  0.43134091  0.46070133  1
  H  H28  1  0.37078842  0.51822623  0.96928590  1
  H  H29  1  0.62921158  0.48177377  0.03071410  1
  H  H30  1  0.56774598  0.18612356  0.26217479  1
  H  H31  1  0.43225402  0.81387644  0.73782521  1
  H  H32  1  0.53222240  0.15713163  0.46975859  1
  H  H33  1  0.46777760  0.84286837  0.53024141  1
  H  H34  1  0.85134429  0.50320340  0.92843487  1
  H  H35  1  0.14865571  0.49679660  0.07156513  1
  H  H36  1  0.64560739  0.57619825  0.86031737  1
  H  H37  1  0.35439261  0.42380175  0.13968263  1
  H  H38  1  0.69751107  0.17394695  0.24095608  1
  H  H39  1  0.30248893  0.82605305  0.75904392  1
  H  H40  1  0.56530279  0.40066274  0.47659459  1
  H  H41  1  0.43469721  0.59933726  0.52340541  1
  H  H42  1  0.90209404  0.31385025  0.53824635  1
  H  H43  1  0.09790596  0.68614975  0.46175365  1
  H  H44  1  0.51662503  0.63885125  0.97400424  1
  H  H45  1  0.48337497  0.36114875  0.02599576  1
  H  H46  1  0.08199255  0.69033477  0.98180812  1
  H  H47  1  0.91800745  0.30966523  0.01819188  1
  H  H48  1  0.24087402  0.38199515  0.68470236  1
  H  H49  1  0.75912598  0.61800485  0.31529764  1
  H  H50  1  0.52083482  0.13636773  0.58683293  1
  H  H51  1  0.47916518  0.86363227  0.41316707  1
  H  H52  1  0.74490230  0.32891428  0.84954517  1
  H  H53  1  0.25509770  0.67108572  0.15045483  1
  H  H54  1  0.64714070  0.70582883  0.43694338  1
  H  H55  1  0.35285930  0.29417117  0.56305662  1
  H  H56  1  0.30998549  0.01861724  0.68889970  1
  H  H57  1  0.69001451  0.98138276  0.31110030  1
  H  H58  1  0.47150011  0.85239399  0.22058777  1
  H  H59  1  0.52849989  0.14760601  0.77941223  1
  H  H60  1  0.28672178  0.52286093  0.79393684  1
  H  H61  1  0.71327822  0.47713907  0.20606316  1
  H  H62  1  0.38794516  0.92973105  0.21989975  1
  H  H63  1  0.61205484  0.07026895  0.78010025  1
  H  H64  1  0.55853711  0.60446520  0.30197644  1
  H  H65  1  0.44146289  0.39553480  0.69802356  1
  H  H66  1  0.35586828  0.16205384  0.66378446  1
  H  H67  1  0.64413172  0.83794616  0.33621554  1
  H  H68  1  0.18485585  0.10567036  0.78294368  1
  H  H69  1  0.81514415  0.89432964  0.21705632  1
  H  H70  1  0.02813920  0.92308184  0.57150463  1
  H  H71  1  0.97186080  0.07691816  0.42849537  1
  H  H72  1  0.86333727  0.78565194  0.56728615  1
  H  H73  1  0.13666273  0.21434806  0.43271385  1
  H  H74  1  0.10744037  0.18685791  0.72446289  1
  H  H75  1  0.89255963  0.81314209  0.27553711  1
  H  H76  1  0.86079627  0.09891409  0.75468258  1
  H  H77  1  0.13920373  0.90108591  0.24531742  1
  H  H78  1  0.83093566  0.00170417  0.60065505  1
  H  H79  1  0.16906434  -0.00170417  0.39934495  1
  C  C80  1  0.97109741  0.87372108  0.62582657  1
  C  C81  1  0.02890259  0.12627892  0.37417343  1
  C  C82  1  0.09877373  0.12646658  0.77918379  1
  C  C83  1  0.90122627  0.87353342  0.22081621  1
  C  C84  1  0.84213301  0.99637728  0.68749051  1
  C  C85  1  0.15786699  0.00362272  0.31250949  1
  N  N86  1  0.96374913  0.98277271  0.72494704  1
  N  N87  1  0.03625087  0.01722729  0.27505296  1
  O  O88  1  0.20920971  0.90787367  0.75346302  1
  O  O89  1  0.79079029  0.09212633  0.24653698  1
  O  O90  1  0.02900367  0.65749779  0.57709167  1
  O  O91  1  0.97099633  0.34250221  0.42290833  1
  O  O92  1  0.97022257  0.74281554  0.76934255  1
  O  O93  1  0.02977743  0.25718446  0.23065745  1
  O  O94  1  0.06812832  0.12085025  0.98292029  1
  O  O95  1  0.93187168  0.87914975  0.01707971  1
  O  O96  1  0.28958172  0.34792783  0.99203829  1
  O  O97  1  0.71041828  0.65207217  0.00796171  1
  O  O98  1  0.04665702  0.31736119  0.93802416  1
  O  O99  1  0.95334298  0.68263881  0.06197584  1
  O  O100  1  0.62698774  0.70670334  0.57237105  1
  O  O101  1  0.37301226  0.29329666  0.42762895  1
  O  O102  1  0.57013072  0.89651719  0.68204556  1
  O  O103  1  0.42986928  0.10348281  0.31795444  1
  O  O104  1  0.71828098  0.83526878  0.80140983  1
  O  O105  1  0.28171902  0.16473122  0.19859017  1
  O  O106  1  0.81917837  0.42122404  0.84973062  1
  O  O107  1  0.18082163  0.57877596  0.15026938  1
  O  O108  1  0.66713771  0.47862034  0.51141891  1
  O  O109  1  0.33286229  0.52137966  0.48858109  1
  O  O110  1  0.63079148  0.96320786  0.00245347  1
  O  O111  1  0.36920852  0.03679214  0.99754653  1
  O  O112  1  0.12462320  0.67915317  0.91727541  1
  O  O113  1  0.87537680  0.32084683  0.08272459  1
  O  O114  1  0.65297503  0.23184965  0.23899662  1
  O  O115  1  0.34702497  0.76815035  0.76100338  1
  O  O116  1  0.38662845  0.84025356  0.17070832  1
  O  O117  1  0.61337155  0.15974644  0.82929168  1
  O  O118  1  0.61081050  0.54340973  0.77175939  1
  O  O119  1  0.38918950  0.45659027  0.22824061  1
  O  O120  1  0.65377552  0.69333211  0.35556671  1
  O  O121  1  0.34622448  0.30666789  0.64443329  1
  O  O122  1  0.20462378  0.44492786  0.72201309  1
  O  O123  1  0.79537622  0.55507214  0.27798691  1
  O  O124  1  0.41595939  0.60600902  0.95354643  1
  O  O125  1  0.58404061  0.39399098  0.04645357  1
  O  O126  1  0.58803275  0.19279455  0.55349804  1
  O  O127  1  0.41196725  0.80720545  0.44650196  1
  O  O128  1  0.87094032  0.32020257  0.60960432  1
  O  O129  1  0.12905968  0.67979743  0.39039568  1
  O  O130  1  0.38117558  0.08956319  0.66605156  1
  O  O131  1  0.61882442  0.91043681  0.33394844  1
