# generated using pymatgen
data_H3NCl
_symmetry_space_group_name_H-M   'P 1'
_cell_length_a   7.92436300
_cell_length_b   7.92436300
_cell_length_c   7.92436300
_cell_angle_alpha   90.00000000
_cell_angle_beta   90.00000000
_cell_angle_gamma   90.00000000
_symmetry_Int_Tables_number   1
_chemical_formula_structural   H3NCl
_chemical_formula_sum   'H24 N8 Cl8'
_cell_volume   497.61456622
_cell_formula_units_Z   8
loop_
 _symmetry_equiv_pos_site_id
 _symmetry_equiv_pos_as_xyz
  1  'x, y, z'
loop_
 _atom_site_type_symbol
 _atom_site_label
 _atom_site_symmetry_multiplicity
 _atom_site_fract_x
 _atom_site_fract_y
 _atom_site_fract_z
 _atom_site_occupancy
  H  H0  1  0.47457762  0.14084594  0.38276964  1
  H  H1  1  0.52542238  0.64084594  0.11723036  1
  H  H2  1  0.02542238  0.85915406  0.88276964  1
  H  H3  1  0.97457762  0.35915406  0.61723036  1
  H  H4  1  0.38276964  0.47457762  0.14084594  1
  H  H5  1  0.11723036  0.52542238  0.64084594  1
  H  H6  1  0.88276964  0.02542238  0.85915406  1
  H  H7  1  0.61723036  0.97457762  0.35915406  1
  H  H8  1  0.14084594  0.38276964  0.47457762  1
  H  H9  1  0.64084594  0.11723036  0.52542238  1
  H  H10  1  0.85915406  0.88276964  0.02542238  1
  H  H11  1  0.35915406  0.61723036  0.97457762  1
  H  H12  1  0.52542238  0.85915406  0.61723036  1
  H  H13  1  0.47457762  0.35915406  0.88276964  1
  H  H14  1  0.97457762  0.14084594  0.11723036  1
  H  H15  1  0.02542238  0.64084594  0.38276964  1
  H  H16  1  0.61723036  0.52542238  0.85915406  1
  H  H17  1  0.88276964  0.47457762  0.35915406  1
  H  H18  1  0.11723036  0.97457762  0.14084594  1
  H  H19  1  0.38276964  0.02542238  0.64084594  1
  H  H20  1  0.85915406  0.61723036  0.52542238  1
  H  H21  1  0.35915406  0.88276964  0.47457762  1
  H  H22  1  0.14084594  0.11723036  0.97457762  1
  H  H23  1  0.64084594  0.38276964  0.02542238  1
  N  N24  1  0.55290304  0.05290304  0.44709696  1
  N  N25  1  0.44709696  0.55290304  0.05290304  1
  N  N26  1  0.94709696  0.94709696  0.94709696  1
  N  N27  1  0.05290304  0.44709696  0.55290304  1
  N  N28  1  0.44709696  0.94709696  0.55290304  1
  N  N29  1  0.55290304  0.44709696  0.94709696  1
  N  N30  1  0.05290304  0.05290304  0.05290304  1
  N  N31  1  0.94709696  0.55290304  0.44709696  1
  Cl  Cl32  1  0.28624783  0.28624783  0.28624783  1
  Cl  Cl33  1  0.71375217  0.78624783  0.21375217  1
  Cl  Cl34  1  0.21375217  0.71375217  0.78624783  1
  Cl  Cl35  1  0.78624783  0.21375217  0.71375217  1
  Cl  Cl36  1  0.71375217  0.71375217  0.71375217  1
  Cl  Cl37  1  0.28624783  0.21375217  0.78624783  1
  Cl  Cl38  1  0.78624783  0.28624783  0.21375217  1
  Cl  Cl39  1  0.21375217  0.78624783  0.28624783  1
