# generated using pymatgen
data_NiH20PtC4(NO3)4
_symmetry_space_group_name_H-M   'P 1'
_cell_length_a   7.58682564
_cell_length_b   7.24540292
_cell_length_c   9.13300841
_cell_angle_alpha   113.36956223
_cell_angle_beta   114.54148219
_cell_angle_gamma   90.00000000
_symmetry_Int_Tables_number   1
_chemical_formula_structural   NiH20PtC4(NO3)4
_chemical_formula_sum   'Ni1 H20 Pt1 C4 N4 O12'
_cell_volume   410.97969664
_cell_formula_units_Z   1
loop_
 _symmetry_equiv_pos_site_id
 _symmetry_equiv_pos_as_xyz
  1  'x, y, z'
loop_
 _atom_site_type_symbol
 _atom_site_label
 _atom_site_symmetry_multiplicity
 _atom_site_fract_x
 _atom_site_fract_y
 _atom_site_fract_z
 _atom_site_occupancy
  Ni  Ni0  1  0.50000000  0.50000000  0.00000000  1
  H  H1  1  0.20049445  0.80888785  0.83028841  1
  H  H2  1  0.62979396  0.02140056  0.83028841  1
  H  H3  1  0.37020604  0.19111215  0.16971159  1
  H  H4  1  0.79950555  0.97859944  0.16971159  1
  H  H5  1  0.16800417  0.02228086  0.80569705  1
  H  H6  1  0.63769288  0.78341619  0.80569705  1
  H  H7  1  0.36230712  0.97771914  0.19430295  1
  H  H8  1  0.83199583  0.21658381  0.19430295  1
  H  H9  1  0.98375708  0.81833589  0.68333693  1
  H  H10  1  0.69957986  0.86500105  0.68333693  1
  H  H11  1  0.30042014  0.18166411  0.31666307  1
  H  H12  1  0.01624292  0.13499895  0.31666307  1
  H  H13  1  0.81621834  0.42232731  0.62635823  1
  H  H14  1  0.81013988  0.20403091  0.62635823  1
  H  H15  1  0.18986012  0.57767269  0.37364177  1
  H  H16  1  0.18378166  0.79596909  0.37364177  1
  H  H17  1  0.09576273  0.44470281  0.89143742  1
  H  H18  1  0.79567469  0.44673461  0.89143742  1
  H  H19  1  0.20432531  0.55529719  0.10856258  1
  H  H20  1  0.90423727  0.55326539  0.10856258  1
  Pt  Pt21  1  -0.00000000  -0.00000000  -0.00000000  1
  C  C22  1  0.67803284  0.78840433  0.36009826  1
  C  C23  1  0.68206542  0.57169393  0.36009826  1
  C  C24  1  0.31793458  0.21159567  0.63990174  1
  C  C25  1  0.32196716  0.42830607  0.63990174  1
  N  N26  1  0.09988562  0.90197766  0.80858605  1
  N  N27  1  0.70870043  0.90660840  0.80858605  1
  N  N28  1  0.29129957  0.09802234  0.19141395  1
  N  N29  1  0.90011438  0.09339160  0.19141395  1
  O  O30  1  0.59870843  0.79226210  0.20775246  1
  O  O31  1  0.60904403  0.41549036  0.20775246  1
  O  O32  1  0.39095597  0.20773790  0.79224754  1
  O  O33  1  0.40129157  0.58450964  0.79224754  1
  O  O34  1  0.75314390  0.94089468  0.51072352  1
  O  O35  1  0.75757962  0.56982884  0.51072352  1
  O  O36  1  0.24242038  0.05910532  0.48927648  1
  O  O37  1  0.24685610  0.43017116  0.48927648  1
  O  O38  1  0.22528019  0.50000000  -0.00000000  1
  O  O39  1  0.77471981  0.50000000  0.00000000  1
  O  O40  1  0.85358207  0.35358207  0.70716414  1
  O  O41  1  0.14641793  0.64641793  0.29283586  1
