# generated using pymatgen
data_SI3O10
_symmetry_space_group_name_H-M   'P 1'
_cell_length_a   9.16438071
_cell_length_b   9.96817760
_cell_length_c   20.99460737
_cell_angle_alpha   90.00000000
_cell_angle_beta   90.00000000
_cell_angle_gamma   90.00000000
_symmetry_Int_Tables_number   1
_chemical_formula_structural   SI3O10
_chemical_formula_sum   'S8 I24 O80'
_cell_volume   1917.90303626
_cell_formula_units_Z   8
loop_
 _symmetry_equiv_pos_site_id
 _symmetry_equiv_pos_as_xyz
  1  'x, y, z'
loop_
 _atom_site_type_symbol
 _atom_site_label
 _atom_site_symmetry_multiplicity
 _atom_site_fract_x
 _atom_site_fract_y
 _atom_site_fract_z
 _atom_site_occupancy
  S  S0  1  0.77895966  0.18367650  0.75169966  1
  S  S1  1  0.22104034  0.68367650  0.24830034  1
  S  S2  1  0.72104034  0.68367650  0.25169966  1
  S  S3  1  0.27895966  0.18367650  0.74830034  1
  S  S4  1  0.92217235  0.66945724  0.73280613  1
  S  S5  1  0.07782765  0.16945724  0.26719387  1
  S  S6  1  0.57782765  0.16945724  0.23280613  1
  S  S7  1  0.42217235  0.66945724  0.76719387  1
  I  I8  1  0.74475058  0.67501165  -0.00005456  1
  I  I9  1  0.25524942  0.17501165  0.00005456  1
  I  I10  1  0.75524942  0.17501165  0.49994544  1
  I  I11  1  0.24475058  0.67501165  0.50005456  1
  I  I12  1  0.75491490  0.17543661  0.99558588  1
  I  I13  1  0.24508510  0.67543661  0.00441412  1
  I  I14  1  0.74508510  0.67543661  0.49558588  1
  I  I15  1  0.25491490  0.17543661  0.50441412  1
  I  I16  1  0.62160248  0.92839431  0.10610486  1
  I  I17  1  0.37839752  0.42839431  0.89389514  1
  I  I18  1  0.87839752  0.42839431  0.60610486  1
  I  I19  1  0.12160248  0.92839431  0.39389514  1
  I  I20  1  0.12097541  0.92470866  0.11151767  1
  I  I21  1  0.87902459  0.42470866  0.88848233  1
  I  I22  1  0.37902459  0.42470866  0.61151767  1
  I  I23  1  0.62097541  0.92470866  0.38848233  1
  I  I24  1  0.75102478  0.41669358  0.12359070  1
  I  I25  1  0.24897522  0.91669358  0.87640930  1
  I  I26  1  0.74897522  0.91669358  0.62359070  1
  I  I27  1  0.25102478  0.41669358  0.37640930  1
  I  I28  1  0.72984995  0.92945894  0.87179223  1
  I  I29  1  0.27015005  0.42945894  0.12820777  1
  I  I30  1  0.77015005  0.42945894  0.37179223  1
  I  I31  1  0.22984995  0.92945894  0.62820777  1
  O  O32  1  0.81639179  0.92001024  0.10707503  1
  O  O33  1  0.18360821  0.42001024  0.89292497  1
  O  O34  1  0.68360821  0.42001024  0.60707503  1
  O  O35  1  0.31639179  0.92001024  0.39292497  1
  O  O36  1  0.58898905  0.05430408  0.04054568  1
  O  O37  1  0.41101095  0.55430408  0.95945432  1
  O  O38  1  0.91101095  0.55430408  0.54054568  1
  O  O39  1  0.08898905  0.05430408  0.45945432  1
  O  O40  1  0.58313383  0.77645221  0.05162404  1
  O  O41  1  0.41686617  0.27645221  0.94837596  1
  O  O42  1  0.91686617  0.27645221  0.55162404  1
  O  O43  1  0.08313383  0.77645221  0.44837596  1
  O  O44  1  0.07941421  0.79196833  0.04883469  1
  O  O45  1  0.92058579  0.29196833  0.95116531  1
  O  O46  1  0.42058579  0.29196833  0.54883469  1
  O  O47  1  0.57941421  0.79196833  0.45116531  1
  O  O48  1  0.31602710  0.91990815  0.11131452  1
  O  O49  1  0.68397290  0.41990815  0.88868548  1
  O  O50  1  0.18397290  0.41990815  0.61131452  1
  O  O51  1  0.81602710  0.91990815  0.38868548  1
  O  O52  1  0.08537705  0.07272419  0.05867459  1
  O  O53  1  0.91462295  0.57272419  0.94132541  1
  O  O54  1  0.41462295  0.57272419  0.55867459  1
  O  O55  1  0.58537705  0.07272419  0.44132541  1
  O  O56  1  0.82834808  0.00102042  0.94297291  1
  O  O57  1  0.17165192  0.50102042  0.05702709  1
  O  O58  1  0.67165192  0.50102042  0.44297291  1
  O  O59  1  0.32834808  0.00102042  0.55702709  1
  O  O60  1  0.67856434  0.76565087  0.91076780  1
  O  O61  1  0.32143566  0.26565087  0.08923220  1
  O  O62  1  0.82143566  0.26565087  0.41076780  1
  O  O63  1  0.17856434  0.76565087  0.58923220  1
  O  O64  1  0.81028268  0.58226703  0.08615866  1
  O  O65  1  0.18971732  0.08226703  0.91384134  1
  O  O66  1  0.68971732  0.08226703  0.58615866  1
  O  O67  1  0.31028268  0.58226703  0.41384134  1
  O  O68  1  0.67885528  0.34480582  0.04502247  1
  O  O69  1  0.32114472  0.84480582  0.95497753  1
  O  O70  1  0.82114472  0.84480582  0.54502247  1
  O  O71  1  0.17885528  0.34480582  0.45497753  1
  O  O72  1  0.44297387  0.51170458  0.12414479  1
  O  O73  1  0.55702613  0.01170458  0.87585521  1
  O  O74  1  0.05702613  0.01170458  0.62414479  1
  O  O75  1  0.94297387  0.51170458  0.37585521  1
  O  O76  1  0.07253887  0.84397128  0.87062942  1
  O  O77  1  0.92746113  0.34397128  0.12937058  1
  O  O78  1  0.42746113  0.34397128  0.37062942  1
  O  O79  1  0.57253887  0.84397128  0.62937058  1
  O  O80  1  0.83894762  0.17911647  0.81705244  1
  O  O81  1  0.16105238  0.67911647  0.18294756  1
  O  O82  1  0.66105238  0.67911647  0.31705244  1
  O  O83  1  0.33894762  0.17911647  0.68294756  1
  O  O84  1  0.88733405  0.23688978  0.70438106  1
  O  O85  1  0.11266595  0.73688978  0.29561894  1
  O  O86  1  0.61266595  0.73688978  0.20438106  1
  O  O87  1  0.38733405  0.23688978  0.79561894  1
  O  O88  1  0.72681498  0.04806614  0.73375249  1
  O  O89  1  0.27318502  0.54806614  0.26624751  1
  O  O90  1  0.77318502  0.54806614  0.23375249  1
  O  O91  1  0.22681498  0.04806614  0.76624751  1
  O  O92  1  0.66215322  0.28799088  0.74496372  1
  O  O93  1  0.33784678  0.78799088  0.25503628  1
  O  O94  1  0.83784678  0.78799088  0.24496372  1
  O  O95  1  0.16215322  0.28799088  0.75503628  1
  O  O96  1  0.84775606  0.65218210  0.66955947  1
  O  O97  1  0.15224394  0.15218210  0.33044053  1
  O  O98  1  0.65224394  0.15218210  0.16955947  1
  O  O99  1  0.34775606  0.65218210  0.83044053  1
  O  O100  1  0.03422125  0.56203979  0.74183217  1
  O  O101  1  0.96577875  0.06203979  0.25816783  1
  O  O102  1  0.46577875  0.06203979  0.24183217  1
  O  O103  1  0.53422125  0.56203979  0.75816783  1
  O  O104  1  0.98179827  0.80515909  0.73719486  1
  O  O105  1  0.01820173  0.30515909  0.26280514  1
  O  O106  1  0.51820173  0.30515909  0.23719486  1
  O  O107  1  0.48179827  0.80515909  0.76280514  1
  O  O108  1  0.81735793  0.64163106  0.78614123  1
  O  O109  1  0.18264207  0.14163106  0.21385877  1
  O  O110  1  0.68264207  0.14163106  0.28614123  1
  O  O111  1  0.31735793  0.64163106  0.71385877  1
