# generated using pymatgen
data_TiO2
_symmetry_space_group_name_H-M   'P 1'
_cell_length_a   2.98182662
_cell_length_b   10.79551499
_cell_length_c   17.73849700
_cell_angle_alpha   90.00000000
_cell_angle_beta   90.00000000
_cell_angle_gamma   90.00000000
_symmetry_Int_Tables_number   1
_chemical_formula_structural   TiO2
_chemical_formula_sum   'Ti16 O32'
_cell_volume   571.00849739
_cell_formula_units_Z   16
loop_
 _symmetry_equiv_pos_site_id
 _symmetry_equiv_pos_as_xyz
  1  'x, y, z'
loop_
 _atom_site_type_symbol
 _atom_site_label
 _atom_site_symmetry_multiplicity
 _atom_site_fract_x
 _atom_site_fract_y
 _atom_site_fract_z
 _atom_site_occupancy
  Ti  Ti0  1  0.75000000  0.71765784  0.39928888  1
  Ti  Ti1  1  0.75000000  0.78234216  0.89928888  1
  Ti  Ti2  1  0.25000000  0.28234216  0.60071112  1
  Ti  Ti3  1  0.25000000  0.21765784  0.10071112  1
  Ti  Ti4  1  0.25000000  0.99746632  0.32768951  1
  Ti  Ti5  1  0.25000000  0.50253368  0.82768951  1
  Ti  Ti6  1  0.75000000  0.00253368  0.67231049  1
  Ti  Ti7  1  0.75000000  0.49746632  0.17231049  1
  Ti  Ti8  1  0.25000000  0.80482398  0.57669659  1
  Ti  Ti9  1  0.25000000  0.69517602  0.07669659  1
  Ti  Ti10  1  0.75000000  0.19517602  0.42330341  1
  Ti  Ti11  1  0.75000000  0.30482398  0.92330341  1
  Ti  Ti12  1  0.25000000  0.47650544  0.35454674  1
  Ti  Ti13  1  0.25000000  0.02349456  0.85454674  1
  Ti  Ti14  1  0.75000000  0.52349456  0.64545326  1
  Ti  Ti15  1  0.75000000  0.97650544  0.14545326  1
  O  O16  1  0.75000000  0.52666398  0.41638629  1
  O  O17  1  0.75000000  0.97333602  0.91638629  1
  O  O18  1  0.25000000  0.47333602  0.58361371  1
  O  O19  1  0.25000000  0.02666398  0.08361371  1
  O  O20  1  0.25000000  0.95843253  0.22321968  1
  O  O21  1  0.25000000  0.54156747  0.72321968  1
  O  O22  1  0.75000000  0.04156747  0.77678032  1
  O  O23  1  0.75000000  0.45843253  0.27678032  1
  O  O24  1  0.75000000  0.88215804  0.35903740  1
  O  O25  1  0.75000000  0.61784196  0.85903740  1
  O  O26  1  0.25000000  0.11784196  0.64096260  1
  O  O27  1  0.25000000  0.38215804  0.14096260  1
  O  O28  1  0.25000000  0.66890775  0.33830205  1
  O  O29  1  0.25000000  0.83109225  0.83830205  1
  O  O30  1  0.75000000  0.33109225  0.66169795  1
  O  O31  1  0.75000000  0.16890775  0.16169795  1
  O  O32  1  0.75000000  0.91467126  0.56511039  1
  O  O33  1  0.75000000  0.58532874  0.06511039  1
  O  O34  1  0.25000000  0.08532874  0.43488961  1
  O  O35  1  0.25000000  0.41467126  0.93488961  1
  O  O36  1  0.25000000  0.31197135  0.38952762  1
  O  O37  1  0.25000000  0.18802865  0.88952762  1
  O  O38  1  0.75000000  0.68802865  0.61047238  1
  O  O39  1  0.75000000  0.81197135  0.11047238  1
  O  O40  1  0.25000000  0.74846297  0.47489724  1
  O  O41  1  0.25000000  0.75153703  0.97489724  1
  O  O42  1  0.75000000  0.25153703  0.52510276  1
  O  O43  1  0.75000000  0.24846297  0.02510276  1
  O  O44  1  0.75000000  0.10960877  0.31894813  1
  O  O45  1  0.75000000  0.39039123  0.81894813  1
  O  O46  1  0.25000000  0.89039123  0.68105187  1
  O  O47  1  0.25000000  0.60960877  0.18105187  1
