# generated using pymatgen
data_CsB6(H5N)3
_symmetry_space_group_name_H-M   'P 1'
_cell_length_a   8.14979048
_cell_length_b   14.48859171
_cell_length_c   18.98249972
_cell_angle_alpha   90.00000000
_cell_angle_beta   90.00000000
_cell_angle_gamma   90.00000000
_symmetry_Int_Tables_number   1
_chemical_formula_structural   CsB6(H5N)3
_chemical_formula_sum   'Cs8 B48 H120 N24'
_cell_volume   2241.43433362
_cell_formula_units_Z   8
loop_
 _symmetry_equiv_pos_site_id
 _symmetry_equiv_pos_as_xyz
  1  'x, y, z'
loop_
 _atom_site_type_symbol
 _atom_site_label
 _atom_site_symmetry_multiplicity
 _atom_site_fract_x
 _atom_site_fract_y
 _atom_site_fract_z
 _atom_site_occupancy
  Cs  Cs0  1  0.49873335  0.32958321  0.40126991  1
  Cs  Cs1  1  0.99873335  0.17041679  0.59873009  1
  Cs  Cs2  1  0.50126665  0.82958321  0.09873009  1
  Cs  Cs3  1  0.00126665  0.67041679  0.90126991  1
  Cs  Cs4  1  0.50126665  0.67041679  0.59873009  1
  Cs  Cs5  1  0.00126665  0.82958321  0.40126991  1
  Cs  Cs6  1  0.49873335  0.17041679  0.90126991  1
  Cs  Cs7  1  0.99873335  0.32958321  0.09873009  1
  B  B8  1  0.54316894  0.06077159  0.42578128  1
  B  B9  1  0.04316894  0.43922841  0.57421872  1
  B  B10  1  0.45683106  0.56077159  0.07421872  1
  B  B11  1  0.95683106  0.93922841  0.92578128  1
  B  B12  1  0.45683106  0.93922841  0.57421872  1
  B  B13  1  0.95683106  0.56077159  0.42578128  1
  B  B14  1  0.54316894  0.43922841  0.92578128  1
  B  B15  1  0.04316894  0.06077159  0.07421872  1
  B  B16  1  0.38632693  0.09572593  0.48597814  1
  B  B17  1  0.88632693  0.40427407  0.51402186  1
  B  B18  1  0.61367307  0.59572593  0.01402186  1
  B  B19  1  0.11367307  0.90427407  0.98597814  1
  B  B20  1  0.61367307  0.90427407  0.51402186  1
  B  B21  1  0.11367307  0.59572593  0.48597814  1
  B  B22  1  0.38632693  0.40427407  0.98597814  1
  B  B23  1  0.88632693  0.09572593  0.01402186  1
  B  B24  1  0.35962029  0.99439511  0.43400305  1
  B  B25  1  0.85962029  0.50560489  0.56599695  1
  B  B26  1  0.64037971  0.49439511  0.06599695  1
  B  B27  1  0.14037971  0.00560489  0.93400305  1
  B  B28  1  0.64037971  0.00560489  0.56599695  1
  B  B29  1  0.14037971  0.49439511  0.43400305  1
  B  B30  1  0.35962029  0.50560489  0.93400305  1
  B  B31  1  0.85962029  0.99439511  0.06599695  1
  B  B32  1  0.55382244  0.93797488  0.42748436  1
  B  B33  1  0.05382244  0.56202512  0.57251564  1
  B  B34  1  0.44617756  0.43797488  0.07251564  1
  B  B35  1  0.94617756  0.06202512  0.92748436  1
  B  B36  1  0.44617756  0.06202512  0.57251564  1
  B  B37  1  0.94617756  0.43797488  0.42748436  1
  B  B38  1  0.55382244  0.56202512  0.92748436  1
  B  B39  1  0.05382244  0.93797488  0.07251564  1
  B  B40  1  0.69994468  0.00485319  0.47530932  1
  B  B41  1  0.19994468  0.49514681  0.52469068  1
  B  B42  1  0.30005532  0.50485319  0.02469068  1
  B  B43  1  0.80005532  0.99514681  0.97530932  1
  B  B44  1  0.30005532  0.99514681  0.52469068  1
  B  B45  1  0.80005532  0.50485319  0.47530932  1
  B  B46  1  0.69994468  0.49514681  0.97530932  1
  B  B47  1  0.19994468  0.00485319  0.02469068  1
  B  B48  1  0.59619990  0.10194378  0.51124898  1
  B  B49  1  0.09619990  0.39805622  0.48875102  1
  B  B50  1  0.40380010  0.60194378  0.98875102  1
  B  B51  1  0.90380010  0.89805622  0.01124898  1
  B  B52  1  0.40380010  0.89805622  0.48875102  1
  B  B53  1  0.90380010  0.60194378  0.51124898  1
  B  B54  1  0.59619990  0.39805622  0.01124898  1
  B  B55  1  0.09619990  0.10194378  0.98875102  1
  H  H56  1  0.37964403  0.35214815  0.60202077  1
  H  H57  1  0.87964403  0.14785185  0.39797923  1
  H  H58  1  0.62035597  0.85214815  0.89797923  1
  H  H59  1  0.12035597  0.64785185  0.10202077  1
  H  H60  1  0.62035597  0.64785185  0.39797923  1
  H  H61  1  0.12035597  0.85214815  0.60202077  1
  H  H62  1  0.37964403  0.14785185  0.10202077  1
  H  H63  1  0.87964403  0.35214815  0.89797923  1
  H  H64  1  0.58022642  0.35517149  0.60610232  1
  H  H65  1  0.08022642  0.14482851  0.39389768  1
  H  H66  1  0.41977358  0.85517149  0.89389768  1
  H  H67  1  0.91977358  0.64482851  0.10610232  1
  H  H68  1  0.41977358  0.64482851  0.39389768  1
  H  H69  1  0.91977358  0.85517149  0.60610232  1
  H  H70  1  0.58022642  0.14482851  0.10610232  1
  H  H71  1  0.08022642  0.35517149  0.89389768  1
  H  H72  1  0.48537822  0.25566671  0.60627389  1
  H  H73  1  0.98537822  0.24433329  0.39372611  1
  H  H74  1  0.51462178  0.75566671  0.89372611  1
  H  H75  1  0.01462178  0.74433329  0.10627389  1
  H  H76  1  0.51462178  0.74433329  0.39372611  1
  H  H77  1  0.01462178  0.75566671  0.60627389  1
  H  H78  1  0.48537822  0.24433329  0.10627389  1
  H  H79  1  0.98537822  0.25566671  0.89372611  1
  H  H80  1  0.55282072  0.53979131  0.29700948  1
  H  H81  1  0.05282072  0.96020869  0.70299052  1
  H  H82  1  0.44717928  0.03979131  0.20299052  1
  H  H83  1  0.94717928  0.46020869  0.79700948  1
  H  H84  1  0.44717928  0.46020869  0.70299052  1
  H  H85  1  0.94717928  0.03979131  0.29700948  1
  H  H86  1  0.55282072  0.96020869  0.79700948  1
  H  H87  1  0.05282072  0.53979131  0.20299052  1
  H  H88  1  0.59244441  0.48203636  0.22504546  1
  H  H89  1  0.09244441  0.01796364  0.77495454  1
  H  H90  1  0.40755559  0.98203636  0.27495454  1
  H  H91  1  0.90755559  0.51796364  0.72504546  1
  H  H92  1  0.40755559  0.51796364  0.77495454  1
  H  H93  1  0.90755559  0.98203636  0.22504546  1
  H  H94  1  0.59244441  0.01796364  0.72504546  1
  H  H95  1  0.09244441  0.48203636  0.27495454  1
  H  H96  1  0.73006820  0.49015103  0.28769630  1
  H  H97  1  0.23006820  0.00984897  0.71230370  1
  H  H98  1  0.26993180  0.99015103  0.21230370  1
  H  H99  1  0.76993180  0.50984897  0.78769630  1
  H  H100  1  0.26993180  0.50984897  0.71230370  1
  H  H101  1  0.76993180  0.99015103  0.28769630  1
  H  H102  1  0.73006820  0.00984897  0.78769630  1
  H  H103  1  0.23006820  0.49015103  0.21230370  1
  H  H104  1  0.34453389  0.23217184  0.23035895  1
  H  H105  1  0.84453389  0.26782816  0.76964105  1
  H  H106  1  0.65546611  0.73217184  0.26964105  1
  H  H107  1  0.15546611  0.76782816  0.73035895  1
  H  H108  1  0.65546611  0.76782816  0.76964105  1
  H  H109  1  0.15546611  0.73217184  0.23035895  1
  H  H110  1  0.34453389  0.26782816  0.73035895  1
  H  H111  1  0.84453389  0.23217184  0.26964105  1
  H  H112  1  0.23322989  0.32378402  0.24988066  1
  H  H113  1  0.73322989  0.17621598  0.75011934  1
  H  H114  1  0.76677011  0.82378402  0.25011934  1
  H  H115  1  0.26677011  0.67621598  0.74988066  1
  H  H116  1  0.76677011  0.67621598  0.75011934  1
  H  H117  1  0.26677011  0.82378402  0.24988066  1
  H  H118  1  0.23322989  0.17621598  0.74988066  1
  H  H119  1  0.73322989  0.32378402  0.25011934  1
  H  H120  1  0.18494408  0.22371898  0.28400611  1
  H  H121  1  0.68494408  0.27628102  0.71599389  1
  H  H122  1  0.81505592  0.72371898  0.21599389  1
  H  H123  1  0.31505592  0.77628102  0.78400611  1
  H  H124  1  0.81505592  0.77628102  0.71599389  1
  H  H125  1  0.31505592  0.72371898  0.28400611  1
  H  H126  1  0.18494408  0.27628102  0.78400611  1
  H  H127  1  0.68494408  0.22371898  0.21599389  1
  H  H128  1  0.57314737  0.10549600  0.37378529  1
  H  H129  1  0.07314737  0.39450400  0.62621471  1
  H  H130  1  0.42685263  0.60549600  0.12621471  1
  H  H131  1  0.92685263  0.89450400  0.87378529  1
  H  H132  1  0.42685263  0.89450400  0.62621471  1
  H  H133  1  0.92685263  0.60549600  0.37378529  1
  H  H134  1  0.57314737  0.39450400  0.87378529  1
  H  H135  1  0.07314737  0.10549600  0.12621471  1
  H  H136  1  0.30743768  0.16501508  0.47565557  1
  H  H137  1  0.80743768  0.33498492  0.52434443  1
  H  H138  1  0.69256232  0.66501508  0.02434443  1
  H  H139  1  0.19256232  0.83498492  0.97565557  1
  H  H140  1  0.69256232  0.83498492  0.52434443  1
  H  H141  1  0.19256232  0.66501508  0.47565557  1
  H  H142  1  0.30743768  0.33498492  0.97565557  1
  H  H143  1  0.80743768  0.16501508  0.02434443  1
  H  H144  1  0.25794115  0.99238819  0.38776778  1
  H  H145  1  0.75794115  0.50761181  0.61223222  1
  H  H146  1  0.74205885  0.49238819  0.11223222  1
  H  H147  1  0.24205885  0.00761181  0.88776778  1
  H  H148  1  0.74205885  0.00761181  0.61223222  1
  H  H149  1  0.24205885  0.49238819  0.38776778  1
  H  H150  1  0.25794115  0.50761181  0.88776778  1
  H  H151  1  0.75794115  0.99238819  0.11223222  1
  H  H152  1  0.58973537  0.89217202  0.37669369  1
  H  H153  1  0.08973537  0.60782798  0.62330631  1
  H  H154  1  0.41026463  0.39217202  0.12330631  1
  H  H155  1  0.91026463  0.10782798  0.87669369  1
  H  H156  1  0.41026463  0.10782798  0.62330631  1
  H  H157  1  0.91026463  0.39217202  0.37669369  1
  H  H158  1  0.58973537  0.60782798  0.87669369  1
  H  H159  1  0.08973537  0.89217202  0.12330631  1
  H  H160  1  0.84281821  0.00895277  0.45920653  1
  H  H161  1  0.34281821  0.49104723  0.54079347  1
  H  H162  1  0.15718179  0.50895277  0.04079347  1
  H  H163  1  0.65718179  0.99104723  0.95920653  1
  H  H164  1  0.15718179  0.99104723  0.54079347  1
  H  H165  1  0.65718179  0.50895277  0.45920653  1
  H  H166  1  0.84281821  0.49104723  0.95920653  1
  H  H167  1  0.34281821  0.00895277  0.04079347  1
  H  H168  1  0.65990339  0.17641828  0.51861098  1
  H  H169  1  0.15990339  0.32358172  0.48138902  1
  H  H170  1  0.34009661  0.67641828  0.98138902  1
  H  H171  1  0.84009661  0.82358172  0.01861098  1
  H  H172  1  0.34009661  0.82358172  0.48138902  1
  H  H173  1  0.84009661  0.67641828  0.51861098  1
  H  H174  1  0.65990339  0.32358172  0.01861098  1
  H  H175  1  0.15990339  0.17641828  0.98138902  1
  N  N176  1  0.47918603  0.32198267  0.62523622  1
  N  N177  1  0.97918603  0.17801733  0.37476378  1
  N  N178  1  0.52081397  0.82198267  0.87476378  1
  N  N179  1  0.02081397  0.67801733  0.12523622  1
  N  N180  1  0.52081397  0.67801733  0.37476378  1
  N  N181  1  0.02081397  0.82198267  0.62523622  1
  N  N182  1  0.47918603  0.17801733  0.12523622  1
  N  N183  1  0.97918603  0.32198267  0.87476378  1
  N  N184  1  0.60728743  0.48098565  0.27854842  1
  N  N185  1  0.10728743  0.01901435  0.72145158  1
  N  N186  1  0.39271257  0.98098565  0.22145158  1
  N  N187  1  0.89271257  0.51901435  0.77854842  1
  N  N188  1  0.39271257  0.51901435  0.72145158  1
  N  N189  1  0.89271257  0.98098565  0.27854842  1
  N  N190  1  0.60728743  0.01901435  0.77854842  1
  N  N191  1  0.10728743  0.48098565  0.22145158  1
  N  N192  1  0.28221415  0.26466524  0.27020848  1
  N  N193  1  0.78221415  0.23533476  0.72979152  1
  N  N194  1  0.71778585  0.76466524  0.22979152  1
  N  N195  1  0.21778585  0.73533476  0.77020848  1
  N  N196  1  0.71778585  0.73533476  0.72979152  1
  N  N197  1  0.21778585  0.76466524  0.27020848  1
  N  N198  1  0.28221415  0.23533476  0.77020848  1
  N  N199  1  0.78221415  0.26466524  0.22979152  1
