# generated using pymatgen
data_Ca10Si5(ClO10)2
_symmetry_space_group_name_H-M   'P 1'
_cell_length_a   7.72903737
_cell_length_b   10.15056992
_cell_length_c   15.63347144
_cell_angle_alpha   84.78671696
_cell_angle_beta   76.19238047
_cell_angle_gamma   67.62175298
_symmetry_Int_Tables_number   1
_chemical_formula_structural   Ca10Si5(ClO10)2
_chemical_formula_sum   'Ca20 Si10 Cl4 O40'
_cell_volume   1101.36892162
_cell_formula_units_Z   2
loop_
 _symmetry_equiv_pos_site_id
 _symmetry_equiv_pos_as_xyz
  1  'x, y, z'
loop_
 _atom_site_type_symbol
 _atom_site_label
 _atom_site_symmetry_multiplicity
 _atom_site_fract_x
 _atom_site_fract_y
 _atom_site_fract_z
 _atom_site_occupancy
  Ca  Ca0  1  0.84358156  0.29376132  0.25042615  1
  Ca  Ca1  1  0.36265712  0.29376132  0.24957385  1
  Ca  Ca2  1  0.15641844  0.70623868  0.74957385  1
  Ca  Ca3  1  0.63734288  0.70623868  0.75042615  1
  Ca  Ca4  1  0.98150558  0.39375439  0.88242433  1
  Ca  Ca5  1  0.12474003  0.39375439  0.61757567  1
  Ca  Ca6  1  0.01849442  0.60624561  0.11757567  1
  Ca  Ca7  1  0.87525997  0.60624561  0.38242433  1
  Ca  Ca8  1  0.53237163  0.58673021  0.09651592  1
  Ca  Ca9  1  0.38089816  0.58673021  0.40348408  1
  Ca  Ca10  1  0.46762837  0.41326979  0.90348408  1
  Ca  Ca11  1  0.61910184  0.41326979  0.59651592  1
  Ca  Ca12  1  0.59459806  0.95417803  0.09983881  1
  Ca  Ca13  1  0.95122391  0.95417803  0.40016119  1
  Ca  Ca14  1  0.40540194  0.04582197  0.90016119  1
  Ca  Ca15  1  0.04877609  0.04582197  0.59983881  1
  Ca  Ca16  1  0.09845812  0.97143950  0.10520739  1
  Ca  Ca17  1  0.43010238  0.97143950  0.39479261  1
  Ca  Ca18  1  0.90154188  0.02856050  0.89479261  1
  Ca  Ca19  1  0.56989762  0.02856050  0.60520739  1
  Si  Si20  1  0.25064845  0.73540767  0.93845686  1
  Si  Si21  1  0.51394388  0.73540767  0.56154314  1
  Si  Si22  1  0.74935155  0.26459233  0.06154314  1
  Si  Si23  1  0.48605612  0.26459233  0.43845686  1
  Si  Si24  1  0.82821920  0.73206039  0.93586897  1
  Si  Si25  1  0.93972041  0.73206039  0.56413103  1
  Si  Si26  1  0.17178080  0.26793961  0.06413103  1
  Si  Si27  1  0.06027959  0.26793961  0.43586897  1
  Si  Si28  1  0.77747993  0.94504015  0.25000000  1
  Si  Si29  1  0.22252007  0.05495985  0.75000000  1
  Cl  Cl30  1  0.30607731  0.40624240  0.75451516  1
  Cl  Cl31  1  0.78768030  0.40624240  0.74548484  1
  Cl  Cl32  1  0.69392269  0.59375760  0.24548484  1
  Cl  Cl33  1  0.21231970  0.59375760  0.25451516  1
  O  O34  1  0.96181818  0.24181123  0.08436143  1
  O  O35  1  0.29637059  0.24181123  0.41563857  1
  O  O36  1  0.03818182  0.75818877  0.91563857  1
  O  O37  1  0.70362941  0.75818877  0.58436143  1
  O  O38  1  0.84905409  0.64673938  0.84838819  1
  O  O39  1  0.00420654  0.64673938  0.65161181  1
  O  O40  1  0.15094591  0.35326062  0.15161181  1
  O  O41  1  0.99579346  0.35326062  0.34838819  1
  O  O42  1  0.67574706  0.89657326  0.94444943  1
  O  O43  1  0.92767968  0.89657326  0.55555057  1
  O  O44  1  0.32425294  0.10342674  0.05555057  1
  O  O45  1  0.07232032  0.10342674  0.44444943  1
  O  O46  1  0.77290830  0.84857262  0.34120974  1
  O  O47  1  0.87851907  0.84857262  0.15879026  1
  O  O48  1  0.22709170  0.15142738  0.65879026  1
  O  O49  1  0.12148093  0.15142738  0.84120974  1
  O  O50  1  0.80177586  0.64522277  0.02800695  1
  O  O51  1  0.05300137  0.64522277  0.47199305  1
  O  O52  1  0.19822414  0.35477723  0.97199305  1
  O  O53  1  0.94699863  0.35477723  0.52800695  1
  O  O54  1  0.28834161  0.62487887  0.02137854  1
  O  O55  1  0.58677952  0.62487887  0.47862146  1
  O  O56  1  0.71165839  0.37512113  0.97862146  1
  O  O57  1  0.41322048  0.37512113  0.52137854  1
  O  O58  1  0.55580306  0.34461344  0.34931053  1
  O  O59  1  0.59958349  0.34461344  0.15068947  1
  O  O60  1  0.44419694  0.65538656  0.65068947  1
  O  O61  1  0.40041651  0.65538656  0.84931053  1
  O  O62  1  0.90538940  0.04446009  0.25266912  1
  O  O63  1  0.55015051  0.04446009  0.24733088  1
  O  O64  1  0.09461060  0.95553991  0.74733088  1
  O  O65  1  0.44984949  0.95553991  0.75266912  1
  O  O66  1  0.62360213  0.10390353  0.45878720  1
  O  O67  1  0.77249434  0.10390353  0.04121280  1
  O  O68  1  0.37639787  0.89609647  0.54121280  1
  O  O69  1  0.22750566  0.89609647  0.95878720  1
  O  O70  1  0.38788782  0.82407451  0.13967051  1
  O  O71  1  0.28803767  0.82407451  0.36032949  1
  O  O72  1  0.61211218  0.17592549  0.86032949  1
  O  O73  1  0.71196233  0.17592549  0.63967051  1
