# generated using pymatgen
data_Si8C3Cl20
_symmetry_space_group_name_H-M   'P 1'
_cell_length_a   11.28420734
_cell_length_b   17.12882296
_cell_length_c   20.65296170
_cell_angle_alpha   66.03139786
_cell_angle_beta   74.14604867
_cell_angle_gamma   70.76810074
_symmetry_Int_Tables_number   1
_chemical_formula_structural   Si8C3Cl20
_chemical_formula_sum   'Si32 C12 Cl80'
_cell_volume   3398.88000967
_cell_formula_units_Z   4
loop_
 _symmetry_equiv_pos_site_id
 _symmetry_equiv_pos_as_xyz
  1  'x, y, z'
loop_
 _atom_site_type_symbol
 _atom_site_label
 _atom_site_symmetry_multiplicity
 _atom_site_fract_x
 _atom_site_fract_y
 _atom_site_fract_z
 _atom_site_occupancy
  Si  Si0  1  0.01309479  0.94755735  0.20077891  1
  Si  Si1  1  0.16143105  0.55244265  0.29922109  1
  Si  Si2  1  0.98690521  0.05244265  0.79922109  1
  Si  Si3  1  0.83856895  0.44755735  0.70077891  1
  Si  Si4  1  0.09723824  0.12611406  0.16266534  1
  Si  Si5  1  0.38601764  0.37388594  0.33733466  1
  Si  Si6  1  0.90276176  0.87388594  0.83733466  1
  Si  Si7  1  0.61398236  0.62611406  0.66266534  1
  Si  Si8  1  0.31512138  0.20448726  0.04002510  1
  Si  Si9  1  0.55963374  0.29551274  0.45997490  1
  Si  Si10  1  0.68487862  0.79551274  0.95997490  1
  Si  Si11  1  0.44036626  0.70448726  0.54002510  1
  Si  Si12  1  0.36806381  0.39717578  0.97629532  1
  Si  Si13  1  0.74153491  0.10282422  0.52370468  1
  Si  Si14  1  0.63193619  0.60282422  0.02370468  1
  Si  Si15  1  0.25846509  0.89717578  0.47629532  1
  Si  Si16  1  0.31359999  0.32312931  0.87442535  1
  Si  Si17  1  0.51115465  0.17687069  0.62557465  1
  Si  Si18  1  0.68640001  0.67687069  0.12557465  1
  Si  Si19  1  0.48884535  0.82312931  0.37442535  1
  Si  Si20  1  0.10367454  0.31933062  0.01478219  1
  Si  Si21  1  0.43778735  0.18066938  0.48521781  1
  Si  Si22  1  0.89632546  0.68066938  0.98521781  1
  Si  Si23  1  0.56221265  0.81933062  0.51478219  1
  Si  Si24  1  0.07652104  0.11510799  0.04568061  1
  Si  Si25  1  0.23730965  0.38489201  0.45431939  1
  Si  Si26  1  0.92347896  0.88489201  0.95431939  1
  Si  Si27  1  0.76269035  0.61510799  0.54568061  1
  Si  Si28  1  0.81726716  0.13017073  0.15596782  1
  Si  Si29  1  0.10340572  0.36982927  0.34403218  1
  Si  Si30  1  0.18273284  0.86982927  0.84403218  1
  Si  Si31  1  0.89659428  0.63017073  0.65596782  1
  C  C32  1  0.99294850  0.07047874  0.14441868  1
  C  C33  1  0.20784591  0.42952126  0.35558132  1
  C  C34  1  0.00705150  0.92952126  0.85558132  1
  C  C35  1  0.79215409  0.57047874  0.64441868  1
  C  C36  1  0.14401850  0.19314835  0.06383237  1
  C  C37  1  0.40099921  0.30685165  0.43616763  1
  C  C38  1  0.85598150  0.80685165  0.93616763  1
  C  C39  1  0.59900079  0.69314835  0.56383237  1
  C  C40  1  0.27951879  0.32189716  0.97100124  1
  C  C41  1  0.57241718  0.17810284  0.52899876  1
  C  C42  1  0.72048121  0.67810284  0.02899876  1
  C  C43  1  0.42758282  0.82189716  0.47100124  1
  Cl  Cl44  1  0.87089997  0.89953004  0.19861391  1
  Cl  Cl45  1  0.96904392  0.60046996  0.30138609  1
  Cl  Cl46  1  0.12910003  0.10046996  0.80138609  1
  Cl  Cl47  1  0.03095608  0.39953004  0.69861391  1
  Cl  Cl48  1  0.17718384  0.86369145  0.17205938  1
  Cl  Cl49  1  0.21293466  0.63630855  0.32794062  1
  Cl  Cl50  1  0.82281616  0.13630855  0.82794062  1
  Cl  Cl51  1  0.78706534  0.36369145  0.67205938  1
  Cl  Cl52  1  0.00760876  0.92845145  0.30624691  1
  Cl  Cl53  1  0.24230712  0.57154855  0.19375309  1
  Cl  Cl54  1  0.99239124  0.07154855  0.69375309  1
  Cl  Cl55  1  0.75769288  0.42845145  0.80624691  1
  Cl  Cl56  1  0.02056835  0.18697995  0.23696221  1
  Cl  Cl57  1  0.44451051  0.31302005  0.26303779  1
  Cl  Cl58  1  0.97943165  0.81302005  0.76303779  1
  Cl  Cl59  1  0.55548949  0.68697995  0.73696221  1
  Cl  Cl60  1  0.25539942  0.02974070  0.19740887  1
  Cl  Cl61  1  0.48254899  0.47025930  0.30259113  1
  Cl  Cl62  1  0.74460058  0.97025930  0.80259113  1
  Cl  Cl63  1  0.51745101  0.52974070  0.69740887  1
  Cl  Cl64  1  0.45964770  0.11223987  0.00787284  1
  Cl  Cl65  1  0.57976042  0.38776013  0.49212716  1
  Cl  Cl66  1  0.54035230  0.88776013  0.99212716  1
  Cl  Cl67  1  0.42023958  0.61223987  0.50787284  1
  Cl  Cl68  1  0.35924060  0.21214160  0.12740863  1
  Cl  Cl69  1  0.69879082  0.28785840  0.37259137  1
  Cl  Cl70  1  0.64075940  0.78785840  0.87259137  1
  Cl  Cl71  1  0.30120918  0.71214160  0.62740863  1
  Cl  Cl72  1  0.36451910  0.50991974  0.88806848  1
  Cl  Cl73  1  0.76250732  0.99008026  0.61193152  1
  Cl  Cl74  1  0.63548090  0.49008026  0.11193152  1
  Cl  Cl75  1  0.23749268  0.00991974  0.38806848  1
  Cl  Cl76  1  0.30405969  0.44034072  0.06168089  1
  Cl  Cl77  1  0.80608130  0.05965928  0.43831911  1
  Cl  Cl78  1  0.69594031  0.55965928  0.93831911  1
  Cl  Cl79  1  0.19391870  0.94034072  0.56168089  1
  Cl  Cl80  1  0.55573705  0.33234094  0.98124717  1
  Cl  Cl81  1  0.86932517  0.16765906  0.51875283  1
  Cl  Cl82  1  0.44426295  0.66765906  0.01875283  1
  Cl  Cl83  1  0.13067483  0.83234094  0.48124717  1
  Cl  Cl84  1  0.25397750  0.22452510  0.87004751  1
  Cl  Cl85  1  0.34855011  0.27547490  0.62995249  1
  Cl  Cl86  1  0.74602250  0.77547490  0.12995249  1
  Cl  Cl87  1  0.65144989  0.72452510  0.37004751  1
  Cl  Cl88  1  0.22602453  0.43757604  0.80305338  1
  Cl  Cl89  1  0.46665395  0.06242396  0.69694662  1
  Cl  Cl90  1  0.77397547  0.56242396  0.19694662  1
  Cl  Cl91  1  0.53334605  0.93757604  0.30305338  1
  Cl  Cl92  1  0.50354028  0.30144684  0.83400888  1
  Cl  Cl93  1  0.63899600  0.19855316  0.66599112  1
  Cl  Cl94  1  0.49645972  0.69855316  0.16599112  1
  Cl  Cl95  1  0.36100400  0.80144684  0.33400888  1
  Cl  Cl96  1  0.98363921  0.37096438  0.94151974  1
  Cl  Cl97  1  0.29612334  0.12903562  0.55848026  1
  Cl  Cl98  1  0.01636079  0.62903562  0.05848026  1
  Cl  Cl99  1  0.70387666  0.87096438  0.44151974  1
  Cl  Cl100  1  0.02588176  0.38845833  0.08353028  1
  Cl  Cl101  1  0.49787036  0.11154167  0.41646972  1
  Cl  Cl102  1  0.97411824  0.61154167  0.91646972  1
  Cl  Cl103  1  0.50212964  0.88845833  0.58353028  1
  Cl  Cl104  1  0.95455759  0.16848750  0.97310320  1
  Cl  Cl105  1  0.09614829  0.33151250  0.52689680  1
  Cl  Cl106  1  0.04544241  0.83151250  0.02689680  1
  Cl  Cl107  1  0.90385171  0.66848750  0.47310320  1
  Cl  Cl108  1  0.21460424  0.02093207  0.01204029  1
  Cl  Cl109  1  0.24757661  0.47906793  0.48795971  1
  Cl  Cl110  1  0.78539576  0.97906793  0.98795971  1
  Cl  Cl111  1  0.75242339  0.52093207  0.51204029  1
  Cl  Cl112  1  0.73629156  0.10145898  0.26177504  1
  Cl  Cl113  1  0.09952558  0.39854102  0.23822496  1
  Cl  Cl114  1  0.26370844  0.89854102  0.73822496  1
  Cl  Cl115  1  0.90047442  0.60145898  0.76177504  1
  Cl  Cl116  1  0.70663252  0.10398418  0.10771648  1
  Cl  Cl117  1  0.91833318  0.39601582  0.39228352  1
  Cl  Cl118  1  0.29336748  0.89601582  0.89228352  1
  Cl  Cl119  1  0.08166682  0.60398418  0.60771648  1
  Cl  Cl120  1  0.79634785  0.26404811  0.11392584  1
  Cl  Cl121  1  0.17432181  0.23595189  0.38607416  1
  Cl  Cl122  1  0.20365215  0.73595189  0.88607416  1
  Cl  Cl123  1  0.82567819  0.76404811  0.61392584  1
