# generated using pymatgen
data_K2Cr2AsO10
_symmetry_space_group_name_H-M   'P 1'
_cell_length_a   7.93017298
_cell_length_b   7.93017297
_cell_length_c   14.89709282
_cell_angle_alpha   90.00000000
_cell_angle_beta   90.00000000
_cell_angle_gamma   120.00000053
_symmetry_Int_Tables_number   1
_chemical_formula_structural   K2Cr2AsO10
_chemical_formula_sum   'K6 Cr6 As3 O30'
_cell_volume   811.32988571
_cell_formula_units_Z   3
loop_
 _symmetry_equiv_pos_site_id
 _symmetry_equiv_pos_as_xyz
  1  'x, y, z'
loop_
 _atom_site_type_symbol
 _atom_site_label
 _atom_site_symmetry_multiplicity
 _atom_site_fract_x
 _atom_site_fract_y
 _atom_site_fract_z
 _atom_site_occupancy
  K  K0  1  0.55068529  0.00622445  0.49570633  1
  K  K1  1  0.99377555  0.54446083  0.82904033  1
  K  K2  1  0.45553917  0.44931471  0.16237333  1
  K  K3  1  0.60870674  0.99804136  0.00280592  1
  K  K4  1  0.00195864  0.61066539  0.33613992  1
  K  K5  1  0.38933461  0.39129326  0.66947292  1
  Cr  Cr6  1  0.00634855  0.58266171  0.08856405  1
  Cr  Cr7  1  0.41733829  0.42368684  0.42189805  1
  Cr  Cr8  1  0.57631316  0.99365145  0.75523105  1
  Cr  Cr9  1  0.99329268  0.58148998  0.58042007  1
  Cr  Cr10  1  0.41851002  0.41180270  0.91375407  1
  Cr  Cr11  1  0.58819730  0.00670732  0.24708707  1
  As  As12  1  0.10605750  0.97992023  0.98482723  1
  As  As13  1  0.02007977  0.12613727  0.31816123  1
  As  As14  1  0.87386273  0.89394250  0.65149423  1
  O  O15  1  0.17026859  0.81580427  0.03133301  1
  O  O16  1  0.18419573  0.35446432  0.36466701  1
  O  O17  1  0.64553568  0.82973141  0.69800001  1
  O  O18  1  0.14511382  0.52733293  0.14708837  1
  O  O19  1  0.47266707  0.61778089  0.48042237  1
  O  O20  1  0.38221911  0.85488618  0.81375537  1
  O  O21  1  0.88362818  0.41848702  0.01272174  1
  O  O22  1  0.58151298  0.46514116  0.34605574  1
  O  O23  1  0.53485884  0.11637182  0.67938874  1
  O  O24  1  0.85941766  0.60880042  0.15527842  1
  O  O25  1  0.39119958  0.25061724  0.48861242  1
  O  O26  1  0.74938276  0.14058234  0.82194542  1
  O  O27  1  0.84316540  0.65897636  0.64513884  1
  O  O28  1  0.34102364  0.18418904  0.97847284  1
  O  O29  1  0.81581096  0.15683460  0.31180584  1
  O  O30  1  0.60330760  0.83808557  0.19265404  1
  O  O31  1  0.16191443  0.76522202  0.52598804  1
  O  O32  1  0.23477798  0.39669240  0.85932104  1
  O  O33  1  0.58573754  0.43886592  0.84259765  1
  O  O34  1  0.56113408  0.14687162  0.17593165  1
  O  O35  1  0.85312838  0.41426246  0.50926465  1
  O  O36  1  0.40897374  0.91082915  0.31848971  1
  O  O37  1  0.08917085  0.49814459  0.65182371  1
  O  O38  1  0.50185541  0.59102626  0.98515671  1
  O  O39  1  0.99130861  0.89314307  0.88504710  1
  O  O40  1  0.10685693  0.09816554  0.21838110  1
  O  O41  1  0.90183446  0.00869139  0.55171410  1
  O  O42  1  0.06644251  0.04872661  0.71582251  1
  O  O43  1  0.95127339  0.01771590  0.04915651  1
  O  O44  1  0.98228410  0.93355749  0.38248951  1
