# generated using pymatgen
data_LiFeO3
_symmetry_space_group_name_H-M   'P 1'
_cell_length_a   4.91426595
_cell_length_b   4.91426569
_cell_length_c   9.70886576
_cell_angle_alpha   86.19702691
_cell_angle_beta   93.80297656
_cell_angle_gamma   61.55252804
_symmetry_Int_Tables_number   1
_chemical_formula_structural   LiFeO3
_chemical_formula_sum   'Li4 Fe4 O12'
_cell_volume   204.41877412
_cell_formula_units_Z   4
loop_
 _symmetry_equiv_pos_site_id
 _symmetry_equiv_pos_as_xyz
  1  'x, y, z'
loop_
 _atom_site_type_symbol
 _atom_site_label
 _atom_site_symmetry_multiplicity
 _atom_site_fract_x
 _atom_site_fract_y
 _atom_site_fract_z
 _atom_site_occupancy
  Li  Li0  1  0.99819246  0.48865277  0.99843074  1
  Li  Li1  1  0.51134723  0.00180754  0.49843074  1
  Li  Li2  1  0.64481602  0.12733586  0.00273007  1
  Li  Li3  1  0.87266414  0.35518398  0.50273007  1
  Fe  Fe4  1  0.08614114  0.07499974  0.24959031  1
  Fe  Fe5  1  0.41632403  0.42545579  0.25050481  1
  Fe  Fe6  1  0.57454421  0.58367597  0.75050481  1
  Fe  Fe7  1  0.92500026  0.91385886  0.74959031  1
  O  O8  1  0.16441562  0.33253896  0.36329250  1
  O  O9  1  0.33903775  0.16665815  0.13709999  1
  O  O10  1  0.27323616  0.58705959  0.85762806  1
  O  O11  1  0.08854626  0.77391264  0.14226802  1
  O  O12  1  0.22608736  0.91145374  0.64226802  1
  O  O13  1  0.60791212  0.27052169  0.63919483  1
  O  O14  1  0.41294041  0.72676384  0.35762806  1
  O  O15  1  0.77324732  0.10839968  0.36090768  1
  O  O16  1  0.89160032  0.22675268  0.86090768  1
  O  O17  1  0.72947831  0.39208788  0.13919483  1
  O  O18  1  0.66746104  0.83558438  0.86329250  1
  O  O19  1  0.83334185  0.66096225  0.63709999  1
