# generated using pymatgen
data_Zn3P4H20C4(NO6)2
_symmetry_space_group_name_H-M   'P 1'
_cell_length_a   8.72650831
_cell_length_b   9.21110750
_cell_length_c   15.81273971
_cell_angle_alpha   76.08415532
_cell_angle_beta   73.98238706
_cell_angle_gamma   61.72559444
_symmetry_Int_Tables_number   1
_chemical_formula_structural   Zn3P4H20C4(NO6)2
_chemical_formula_sum   'Zn6 P8 H40 C8 N4 O24'
_cell_volume   1066.84571365
_cell_formula_units_Z   2
loop_
 _symmetry_equiv_pos_site_id
 _symmetry_equiv_pos_as_xyz
  1  'x, y, z'
loop_
 _atom_site_type_symbol
 _atom_site_label
 _atom_site_symmetry_multiplicity
 _atom_site_fract_x
 _atom_site_fract_y
 _atom_site_fract_z
 _atom_site_occupancy
  Zn  Zn0  1  0.12752770  0.25000000  0.75000000  1
  Zn  Zn1  1  0.87247230  0.75000000  0.25000000  1
  Zn  Zn2  1  0.00030391  0.75293298  0.97576554  1
  Zn  Zn3  1  0.72900243  0.74706702  0.52423446  1
  Zn  Zn4  1  0.99969609  0.24706702  0.02423446  1
  Zn  Zn5  1  0.27099757  0.25293298  0.47576554  1
  P  P6  1  0.85426068  0.13906698  0.90239473  1
  P  P7  1  0.89572240  0.36093302  0.59760527  1
  P  P8  1  0.14573932  0.86093302  0.09760527  1
  P  P9  1  0.10427760  0.63906698  0.40239473  1
  P  P10  1  0.20370004  0.44161214  0.86460461  1
  P  P11  1  0.50991679  0.05838786  0.63539539  1
  P  P12  1  0.79629996  0.55838786  0.13539539  1
  P  P13  1  0.49008321  0.94161214  0.36460461  1
  H  H14  1  0.71891711  0.24270390  0.85285537  1
  H  H15  1  0.81447639  0.25729610  0.64714463  1
  H  H16  1  0.28108289  0.75729610  0.14714463  1
  H  H17  1  0.18552361  0.74270390  0.35285537  1
  H  H18  1  0.39098885  0.37397341  0.84165731  1
  H  H19  1  0.60661956  0.12602659  0.65834269  1
  H  H20  1  0.60901115  0.62602659  0.15834269  1
  H  H21  1  0.39338044  0.87397341  0.34165731  1
  H  H22  1  0.05976654  0.69567686  0.58450605  1
  H  H23  1  0.33994946  0.80432314  0.91549395  1
  H  H24  1  0.94023346  0.30432314  0.41549395  1
  H  H25  1  0.66005054  0.19567686  0.08450605  1
  H  H26  1  0.09801170  0.59899223  0.68832203  1
  H  H27  1  0.38532596  0.90100777  0.81167797  1
  H  H28  1  0.90198830  0.40100777  0.31167797  1
  H  H29  1  0.61467404  0.09899223  0.18832203  1
  H  H30  1  0.07361432  0.93733724  0.61307745  1
  H  H31  1  0.62402901  0.56266276  0.88692255  1
  H  H32  1  0.92638568  0.06266276  0.38692255  1
  H  H33  1  0.37597099  0.43733724  0.11307745  1
  H  H34  1  0.90247086  0.89249197  0.68957089  1
  H  H35  1  0.48453372  0.60750803  0.81042911  1
  H  H36  1  0.09752914  0.10750803  0.31042911  1
  H  H37  1  0.51546628  0.39249197  0.18957089  1
  H  H38  1  0.10608316  0.83411582  0.72318170  1
  H  H39  1  0.66338067  0.66588418  0.77681830  1
  H  H40  1  0.89391684  0.16588418  0.27681830  1
  H  H41  1  0.33661933  0.33411582  0.22318170  1
  H  H42  1  0.38106629  0.59051321  0.65846432  1
  H  H43  1  0.63004383  0.90948679  0.84153568  1
  H  H44  1  0.61893371  0.40948679  0.34153568  1
  H  H45  1  0.36995617  0.09051321  0.15846432  1
  H  H46  1  0.36015608  0.49994013  0.57607701  1
  H  H47  1  0.43617322  0.00005987  0.92392299  1
  H  H48  1  0.63984392  0.50005987  0.42392299  1
  H  H49  1  0.56382678  0.99994013  0.07607701  1
  H  H50  1  0.34831947  0.70531080  0.55145009  1
  H  H51  1  0.60508037  0.79468920  0.94854991  1
  H  H52  1  0.65168053  0.29468920  0.44854991  1
  H  H53  1  0.39491963  0.20531080  0.05145009  1
  C  C54  1  0.04573776  0.84878432  0.66756770  1
  C  C55  1  0.56208977  0.65121568  0.83243230  1
  C  C56  1  0.95426224  0.15121568  0.33243230  1
  C  C57  1  0.43791023  0.34878432  0.16756770  1
  C  C58  1  0.31631371  0.61516895  0.60293629  1
  C  C59  1  0.53441895  0.88483105  0.89706371  1
  C  C60  1  0.68368629  0.38483105  0.39706371  1
  C  C61  1  0.46558105  0.11516895  0.10293629  1
  N  N62  1  0.12104084  0.68470467  0.63563987  1
  N  N63  1  0.44138538  0.81529533  0.86436013  1
  N  N64  1  0.87895916  0.31529533  0.36436013  1
  N  N65  1  0.55861462  0.18470467  0.13563987  1
  O  O66  1  0.81267065  0.23434960  0.98095634  1
  O  O67  1  0.02797660  0.26565040  0.51904366  1
  O  O68  1  0.18732935  0.76565040  0.01904366  1
  O  O69  1  0.97202340  0.73434960  0.48095634  1
  O  O70  1  0.83411520  0.97747678  0.93229672  1
  O  O71  1  0.74388870  0.52252322  0.56770328  1
  O  O72  1  0.16588480  0.02252322  0.06770328  1
  O  O73  1  0.25611130  0.47747678  0.43229672  1
  O  O74  1  0.03337336  0.11443429  0.84187261  1
  O  O75  1  0.98968025  0.38556571  0.65812739  1
  O  O76  1  0.96662664  0.88556571  0.15812739  1
  O  O77  1  0.01031975  0.61443429  0.34187261  1
  O  O78  1  0.14072808  0.62239738  0.87688340  1
  O  O79  1  0.64000886  0.87760262  0.62311660  1
  O  O80  1  0.85927192  0.37760262  0.12311660  1
  O  O81  1  0.35999114  0.12239738  0.37688340  1
  O  O82  1  0.16746542  0.32811804  0.94726926  1
  O  O83  1  0.44285271  0.17188196  0.55273074  1
  O  O84  1  0.83253458  0.67188196  0.05273074  1
  O  O85  1  0.55714729  0.82811804  0.44726926  1
  O  O86  1  0.14005153  0.43648997  0.78345653  1
  O  O87  1  0.35999803  0.06351003  0.71654347  1
  O  O88  1  0.85994847  0.56351003  0.21654347  1
  O  O89  1  0.64000197  0.93648997  0.28345653  1
