# generated using pymatgen
data_Tb2Al17
_symmetry_space_group_name_H-M   'P 1'
_cell_length_a   9.46059738
_cell_length_b   9.46059738
_cell_length_c   8.87670258
_cell_angle_alpha   90.00000000
_cell_angle_beta   90.00000000
_cell_angle_gamma   119.77804998
_symmetry_Int_Tables_number   1
_chemical_formula_structural   Tb2Al17
_chemical_formula_sum   'Tb4 Al34'
_cell_volume   689.58275127
_cell_formula_units_Z   2
loop_
 _symmetry_equiv_pos_site_id
 _symmetry_equiv_pos_as_xyz
  1  'x, y, z'
loop_
 _atom_site_type_symbol
 _atom_site_label
 _atom_site_symmetry_multiplicity
 _atom_site_fract_x
 _atom_site_fract_y
 _atom_site_fract_z
 _atom_site_occupancy
  Tb  Tb0  1  0.99969358  0.00030642  0.75000000  1
  Tb  Tb1  1  0.00030642  0.99969358  0.25000000  1
  Tb  Tb2  1  0.66643344  0.33356656  0.25000000  1
  Tb  Tb3  1  0.33356656  0.66643344  0.75000000  1
  Al  Al4  1  0.66726217  0.33273783  0.60135701  1
  Al  Al5  1  0.33273783  0.66726217  0.39864299  1
  Al  Al6  1  0.33273783  0.66726217  0.10135701  1
  Al  Al7  1  0.66726217  0.33273783  0.89864299  1
  Al  Al8  1  0.50000000  0.00000000  0.50000000  1
  Al  Al9  1  0.50000000  0.50000000  0.50000000  1
  Al  Al10  1  0.00000000  0.50000000  0.50000000  1
  Al  Al11  1  0.50000000  0.00000000  0.00000000  1
  Al  Al12  1  0.50000000  0.50000000  0.00000000  1
  Al  Al13  1  0.00000000  0.50000000  0.00000000  1
  Al  Al14  1  0.67333272  0.03766396  0.75000000  1
  Al  Al15  1  0.36352178  0.32514440  0.75000000  1
  Al  Al16  1  0.96356603  0.63656698  0.75000000  1
  Al  Al17  1  0.36343302  0.03643397  0.75000000  1
  Al  Al18  1  0.96233604  0.32666728  0.75000000  1
  Al  Al19  1  0.67485560  0.63647822  0.75000000  1
  Al  Al20  1  0.32666728  0.96233604  0.25000000  1
  Al  Al21  1  0.63647822  0.67485560  0.25000000  1
  Al  Al22  1  0.03643397  0.36343302  0.25000000  1
  Al  Al23  1  0.63656698  0.96356603  0.25000000  1
  Al  Al24  1  0.03766396  0.67333272  0.25000000  1
  Al  Al25  1  0.32514440  0.36352178  0.25000000  1
  Al  Al26  1  0.83728161  0.67423973  0.47340853  1
  Al  Al27  1  0.83753537  0.16246463  0.47437981  1
  Al  Al28  1  0.32576027  0.16271839  0.47340853  1
  Al  Al29  1  0.16271839  0.32576027  0.52659147  1
  Al  Al30  1  0.16246463  0.83753537  0.52562019  1
  Al  Al31  1  0.67423973  0.83728161  0.52659147  1
  Al  Al32  1  0.16271839  0.32576027  0.97340853  1
  Al  Al33  1  0.16246463  0.83753537  0.97437981  1
  Al  Al34  1  0.67423973  0.83728161  0.97340853  1
  Al  Al35  1  0.83728161  0.67423973  0.02659147  1
  Al  Al36  1  0.83753537  0.16246463  0.02562019  1
  Al  Al37  1  0.32576027  0.16271839  0.02659147  1
