# generated using pymatgen
data_BiH6C3(S2N)3
_symmetry_space_group_name_H-M   'P 1'
_cell_length_a   6.23691925
_cell_length_b   8.52385019
_cell_length_c   12.93364044
_cell_angle_alpha   102.91839024
_cell_angle_beta   95.21491094
_cell_angle_gamma   94.20183468
_symmetry_Int_Tables_number   1
_chemical_formula_structural   BiH6C3(S2N)3
_chemical_formula_sum   'Bi2 H12 C6 S12 N6'
_cell_volume   664.29872529
_cell_formula_units_Z   2
loop_
 _symmetry_equiv_pos_site_id
 _symmetry_equiv_pos_as_xyz
  1  'x, y, z'
loop_
 _atom_site_type_symbol
 _atom_site_label
 _atom_site_symmetry_multiplicity
 _atom_site_fract_x
 _atom_site_fract_y
 _atom_site_fract_z
 _atom_site_occupancy
  Bi  Bi0  1  0.96079083  0.35809656  0.81253831  1
  Bi  Bi1  1  0.03920917  0.64190344  0.18746169  1
  H  H2  1  0.46182542  0.75118600  0.66329890  1
  H  H3  1  0.53817458  0.24881400  0.33670110  1
  H  H4  1  0.63704526  0.70789932  0.76443200  1
  H  H5  1  0.36295474  0.29210068  0.23556800  1
  H  H6  1  0.66411589  0.03807193  0.08053662  1
  H  H7  1  0.33588411  0.96192807  0.91946338  1
  H  H8  1  0.90711983  0.13117510  0.15292010  1
  H  H9  1  0.09288017  0.86882490  0.84707990  1
  H  H10  1  0.68990374  0.86267630  0.50381308  1
  H  H11  1  0.31009626  0.13732370  0.49618692  1
  H  H12  1  0.92376912  0.80255694  0.56475560  1
  H  H13  1  0.07623088  0.19744306  0.43524440  1
  C  C14  1  0.33700492  0.58120133  0.73764125  1
  C  C15  1  0.66299508  0.41879867  0.26235875  1
  C  C16  1  0.84853808  0.17742492  0.00428658  1
  C  C17  1  0.15146192  0.82257508  0.99571342  1
  C  C18  1  0.86055813  0.03766003  0.62344053  1
  C  C19  1  0.13944187  0.96233997  0.37655947  1
  S  S20  1  0.39733963  0.47819357  0.83477561  1
  S  S21  1  0.60266037  0.52180643  0.16522439  1
  S  S22  1  0.67432320  0.13770050  0.89015998  1
  S  S23  1  0.32567680  0.86229950  0.10984002  1
  S  S24  1  0.09057970  0.29796678  0.01786412  1
  S  S25  1  0.90942030  0.70203322  0.98213588  1
  S  S26  1  0.68847771  0.18172459  0.61766327  1
  S  S27  1  0.31152229  0.81827541  0.38233673  1
  S  S28  1  0.09960460  0.08059679  0.70812201  1
  S  S29  1  0.90039540  0.91940321  0.29187799  1
  S  S30  1  0.08798564  0.55455164  0.66510486  1
  S  S31  1  0.91201436  0.44544836  0.33489514  1
  N  N32  1  0.49280114  0.68425200  0.71778091  1
  N  N33  1  0.50719886  0.31574800  0.28221909  1
  N  N34  1  0.80230074  0.11283756  0.08528442  1
  N  N35  1  0.19769926  0.88716244  0.91471558  1
  N  N36  1  0.81679687  0.88709231  0.56254097  1
  N  N37  1  0.18320313  0.11290769  0.43745903  1
