# generated using pymatgen
data_VP3(HO)6
_symmetry_space_group_name_H-M   'P 1'
_cell_length_a   11.79524401
_cell_length_b   11.95394361
_cell_length_c   12.03100413
_cell_angle_alpha   90.00000000
_cell_angle_beta   90.00000000
_cell_angle_gamma   98.78501283
_symmetry_Int_Tables_number   1
_chemical_formula_structural   VP3(HO)6
_chemical_formula_sum   'V8 P24 H48 O48'
_cell_volume   1676.46658633
_cell_formula_units_Z   8
loop_
 _symmetry_equiv_pos_site_id
 _symmetry_equiv_pos_as_xyz
  1  'x, y, z'
loop_
 _atom_site_type_symbol
 _atom_site_label
 _atom_site_symmetry_multiplicity
 _atom_site_fract_x
 _atom_site_fract_y
 _atom_site_fract_z
 _atom_site_occupancy
  V  V0  1  0.74540763  0.19787951  0.31319468  1
  V  V1  1  0.24540763  0.69787951  0.18680532  1
  V  V2  1  0.25459237  0.80212049  0.68680532  1
  V  V3  1  0.75459237  0.30212049  0.81319468  1
  V  V4  1  0.72816472  0.69074859  0.29580828  1
  V  V5  1  0.22816472  0.19074859  0.20419172  1
  V  V6  1  0.27183528  0.30925141  0.70419172  1
  V  V7  1  0.77183528  0.80925141  0.79580828  1
  P  P8  1  0.84912588  0.80686525  0.52663858  1
  P  P9  1  0.34912588  0.30686525  0.97336142  1
  P  P10  1  0.15087412  0.19313475  0.47336142  1
  P  P11  1  0.65087412  0.69313475  0.02663858  1
  P  P12  1  0.46144723  0.56975774  0.27520879  1
  P  P13  1  0.96144723  0.06975774  0.22479121  1
  P  P14  1  0.53855277  0.43024226  0.72479121  1
  P  P15  1  0.03855277  0.93024226  0.77520879  1
  P  P16  1  0.97466193  0.73737832  0.16023298  1
  P  P17  1  0.47466193  0.23737832  0.33976702  1
  P  P18  1  0.02533807  0.26262168  0.83976702  1
  P  P19  1  0.52533807  0.76262168  0.66023298  1
  P  P20  1  0.79490905  0.45490574  0.41462346  1
  P  P21  1  0.29490905  0.95490574  0.08537654  1
  P  P22  1  0.20509095  0.54509426  0.58537654  1
  P  P23  1  0.70509095  0.04509426  0.91462346  1
  P  P24  1  0.72929480  0.34108182  0.08522747  1
  P  P25  1  0.22929480  0.84108182  0.41477253  1
  P  P26  1  0.27070520  0.65891818  0.91477253  1
  P  P27  1  0.77070520  0.15891818  0.58522747  1
  P  P28  1  0.61483396  0.92833842  0.29341269  1
  P  P29  1  0.11483396  0.42833842  0.20658731  1
  P  P30  1  0.38516604  0.07166158  0.70658731  1
  P  P31  1  0.88516604  0.57166158  0.79341269  1
  H  H32  1  0.89856048  0.90076525  0.46156806  1
  H  H33  1  0.39856048  0.40076525  0.03843194  1
  H  H34  1  0.10143952  0.09923475  0.53843194  1
  H  H35  1  0.60143952  0.59923475  0.96156806  1
  H  H36  1  0.94174740  0.74758692  0.54971826  1
  H  H37  1  0.44174740  0.24758692  0.95028174  1
  H  H38  1  0.05825260  0.25241308  0.45028174  1
  H  H39  1  0.55825260  0.75241308  0.04971826  1
  H  H40  1  0.38742814  0.51686876  0.35875352  1
  H  H41  1  0.88742814  0.01686876  0.14124648  1
  H  H42  1  0.61257186  0.48313124  0.64124648  1
  H  H43  1  0.11257186  0.98313124  0.85875352  1
  H  H44  1  0.50333539  0.47983242  0.21992968  1
  H  H45  1  0.00333539  0.97983242  0.28007032  1
  H  H46  1  0.49666461  0.52016758  0.78007032  1
  H  H47  1  0.99666461  0.02016758  0.71992968  1
  H  H48  1  0.94233333  0.80708232  0.07461761  1
  H  H49  1  0.44233333  0.30708232  0.42538239  1
  H  H50  1  0.05766667  0.19291768  0.92538239  1
  H  H51  1  0.55766667  0.69291768  0.57461761  1
  H  H52  1  0.95727315  0.62712229  0.11340687  1
  H  H53  1  0.45727315  0.12712229  0.38659313  1
  H  H54  1  0.04272685  0.37287771  0.88659313  1
  H  H55  1  0.54272685  0.87287771  0.61340687  1
  H  H56  1  0.70149598  0.43108439  0.48889373  1
  H  H57  1  0.20149598  0.93108439  0.01110627  1
  H  H58  1  0.29850402  0.56891561  0.51110627  1
  H  H59  1  0.79850402  0.06891561  0.98889373  1
  H  H60  1  0.88536439  0.51282051  0.47978158  1
  H  H61  1  0.38536439  0.01282051  0.02021842  1
  H  H62  1  0.11463561  0.48717949  0.52021842  1
  H  H63  1  0.61463561  0.98717949  0.97978158  1
  H  H64  1  0.74626592  0.44560343  0.14193193  1
  H  H65  1  0.24626592  0.94560343  0.35806807  1
  H  H66  1  0.25373408  0.55439657  0.85806807  1
  H  H67  1  0.75373408  0.05439657  0.64193193  1
  H  H68  1  0.60888926  0.31049131  0.07530439  1
  H  H69  1  0.10888926  0.81049131  0.42469561  1
  H  H70  1  0.39111074  0.68950869  0.92469561  1
  H  H71  1  0.89111074  0.18950869  0.57530439  1
  H  H72  1  0.59625073  0.92222007  0.41000434  1
  H  H73  1  0.09625073  0.42222007  0.08999566  1
  H  H74  1  0.40374927  0.07777993  0.58999566  1
  H  H75  1  0.90374927  0.57777993  0.91000434  1
  H  H76  1  0.50692416  0.88809574  0.24522735  1
  H  H77  1  0.00692416  0.38809574  0.25477265  1
  H  H78  1  0.49307584  0.11190426  0.75477265  1
  H  H79  1  0.99307584  0.61190426  0.74522735  1
  O  O80  1  0.78274243  0.36189688  0.96993830  1
  O  O81  1  0.28274243  0.86189688  0.53006170  1
  O  O82  1  0.21725757  0.63810312  0.03006170  1
  O  O83  1  0.71725757  0.13810312  0.46993830  1
  O  O84  1  0.80817582  0.85663814  0.63342269  1
  O  O85  1  0.30817582  0.35663814  0.86657731  1
  O  O86  1  0.19182418  0.14336186  0.36657731  1
  O  O87  1  0.69182418  0.64336186  0.13342269  1
  O  O88  1  0.39425906  0.62721147  0.18977690  1
  O  O89  1  0.89425906  0.12721147  0.31022310  1
  O  O90  1  0.60574094  0.37278853  0.81022310  1
  O  O91  1  0.10574094  0.87278853  0.68977690  1
  O  O92  1  0.76624398  0.53323319  0.32190499  1
  O  O93  1  0.26624398  0.03323319  0.17809501  1
  O  O94  1  0.23375602  0.46676681  0.67809501  1
  O  O95  1  0.73375602  0.96676681  0.82190499  1
  O  O96  1  0.83424628  0.34509961  0.37651239  1
  O  O97  1  0.33424628  0.84509961  0.12348761  1
  O  O98  1  0.16575372  0.65490039  0.62348761  1
  O  O99  1  0.66575372  0.15490039  0.87651239  1
  O  O100  1  0.10198629  0.77522357  0.18377624  1
  O  O101  1  0.60198629  0.27522357  0.31622376  1
  O  O102  1  0.89801371  0.22477643  0.81622376  1
  O  O103  1  0.39801371  0.72477643  0.68377624  1
  O  O104  1  0.77539949  0.24994152  0.15447023  1
  O  O105  1  0.27539949  0.74994152  0.34552977  1
  O  O106  1  0.22460051  0.75005848  0.84552977  1
  O  O107  1  0.72460051  0.25005848  0.65447023  1
  O  O108  1  0.75830297  0.73046402  0.46047868  1
  O  O109  1  0.25830297  0.23046402  0.03952132  1
  O  O110  1  0.24169703  0.26953598  0.53952132  1
  O  O111  1  0.74169703  0.76953598  0.96047868  1
  O  O112  1  0.64762558  0.05160094  0.25891430  1
  O  O113  1  0.14762558  0.55160094  0.24108570  1
  O  O114  1  0.35237442  0.94839906  0.74108570  1
  O  O115  1  0.85237442  0.44839906  0.75891430  1
  O  O116  1  0.55994620  0.64275408  0.33693071  1
  O  O117  1  0.05994620  0.14275408  0.16306929  1
  O  O118  1  0.44005380  0.35724592  0.66306929  1
  O  O119  1  0.94005380  0.85724592  0.83693071  1
  O  O120  1  0.69984260  0.84957387  0.25928106  1
  O  O121  1  0.19984260  0.34957387  0.24071894  1
  O  O122  1  0.30015740  0.15042613  0.74071894  1
  O  O123  1  0.80015740  0.65042613  0.75928106  1
  O  O124  1  0.89729679  0.74221141  0.26152587  1
  O  O125  1  0.39729679  0.24221141  0.23847413  1
  O  O126  1  0.10270321  0.25778859  0.73847413  1
  O  O127  1  0.60270321  0.75778859  0.76152587  1
