# generated using pymatgen
data_ZrH9N3F7
_symmetry_space_group_name_H-M   'P 1'
_cell_length_a   5.67063851
_cell_length_b   10.92772495
_cell_length_c   11.02465443
_cell_angle_alpha   90.00000000
_cell_angle_beta   90.00000000
_cell_angle_gamma   95.08712464
_symmetry_Int_Tables_number   1
_chemical_formula_structural   ZrH9N3F7
_chemical_formula_sum   'Zr4 H36 N12 F28'
_cell_volume   680.47574009
_cell_formula_units_Z   4
loop_
 _symmetry_equiv_pos_site_id
 _symmetry_equiv_pos_as_xyz
  1  'x, y, z'
loop_
 _atom_site_type_symbol
 _atom_site_label
 _atom_site_symmetry_multiplicity
 _atom_site_fract_x
 _atom_site_fract_y
 _atom_site_fract_z
 _atom_site_occupancy
  Zr  Zr0  1  0.05466744  0.62663919  0.79297913  1
  Zr  Zr1  1  0.94533256  0.37336081  0.29297913  1
  Zr  Zr2  1  0.00471318  0.86170970  0.59315065  1
  Zr  Zr3  1  0.99528682  0.13829030  0.09315065  1
  H  H4  1  0.00386264  0.79811782  0.30931371  1
  H  H5  1  0.99613736  0.20188218  0.80931371  1
  H  H6  1  0.73882582  0.75102400  0.22171953  1
  H  H7  1  0.26117418  0.24897600  0.72171953  1
  H  H8  1  0.95351857  0.65218312  0.26564309  1
  H  H9  1  0.04648143  0.34781688  0.76564309  1
  H  H10  1  0.06768840  0.85784514  0.10539097  1
  H  H11  1  0.93231160  0.14215486  0.60539097  1
  H  H12  1  0.00048592  0.71202104  0.06012099  1
  H  H13  1  0.99951408  0.28797896  0.56012099  1
  H  H14  1  0.25710287  0.75119926  0.15216843  1
  H  H15  1  0.74289713  0.24880074  0.65216843  1
  H  H16  1  0.50197136  0.44052815  0.84635977  1
  H  H17  1  0.49802864  0.55947185  0.34635977  1
  H  H18  1  0.75288874  0.42207430  0.93222639  1
  H  H19  1  0.24711126  0.57792570  0.43222639  1
  H  H20  1  0.50280096  0.31645310  0.94209492  1
  H  H21  1  0.49719904  0.68354690  0.44209492  1
  H  H22  1  0.28260828  0.45785719  0.02565664  1
  H  H23  1  0.71739172  0.54214281  0.52565664  1
  H  H24  1  0.54167478  0.46264926  0.11076638  1
  H  H25  1  0.45832522  0.53735074  0.61076638  1
  H  H26  1  0.49096991  0.57161829  0.00155750  1
  H  H27  1  0.50903009  0.42838171  0.50155750  1
  H  H28  1  0.56640319  0.01028963  0.26596913  1
  H  H29  1  0.43359681  0.98971037  0.76596913  1
  H  H30  1  0.42058109  0.92337488  0.37905904  1
  H  H31  1  0.57941891  0.07662512  0.87905904  1
  H  H32  1  0.70005667  0.00155991  0.40647816  1
  H  H33  1  0.29994333  0.99844009  0.90647816  1
  H  H34  1  0.53542556  0.18730578  0.40441104  1
  H  H35  1  0.46457444  0.81269422  0.90441104  1
  H  H36  1  0.27647188  0.11564503  0.34599092  1
  H  H37  1  0.72352812  0.88435497  0.84599092  1
  H  H38  1  0.35929578  0.08168549  0.49134595  1
  H  H39  1  0.64070422  0.91831451  0.99134595  1
  N  N40  1  0.93247704  0.74195010  0.23928477  1
  N  N41  1  0.06752296  0.25804990  0.73928477  1
  N  N42  1  0.07312836  0.76621486  0.13158781  1
  N  N43  1  0.92687164  0.23378514  0.63158781  1
  N  N44  1  0.56492714  0.40869494  0.92933890  1
  N  N45  1  0.43507286  0.59130506  0.42933890  1
  N  N46  1  0.46565013  0.47867648  0.02476348  1
  N  N47  1  0.53434987  0.52132352  0.52476348  1
  N  N48  1  0.53588284  0.00220294  0.35928827  1
  N  N49  1  0.46411716  0.99779706  0.85928827  1
  N  N50  1  0.41894324  0.10555155  0.40327353  1
  N  N51  1  0.58105676  0.89444845  0.90327353  1
  F  F52  1  0.78003970  0.72867379  0.70567666  1
  F  F53  1  0.21996030  0.27132621  0.20567666  1
  F  F54  1  0.16272313  0.82242814  0.77290699  1
  F  F55  1  0.83727687  0.17757186  0.27290699  1
  F  F56  1  0.15251627  0.68218308  0.60511525  1
  F  F57  1  0.84748373  0.31781692  0.10511525  1
  F  F58  1  0.83115879  0.66792036  0.93451318  1
  F  F59  1  0.16884121  0.33207964  0.43451318  1
  F  F60  1  0.31252270  0.68189259  0.92800384  1
  F  F61  1  0.68747730  0.31810741  0.42800384  1
  F  F62  1  0.86079695  0.48877339  0.70216073  1
  F  F63  1  0.13920305  0.51122661  0.20216073  1
  F  F64  1  0.34612920  0.52579786  0.74372617  1
  F  F65  1  0.65387080  0.47420214  0.24372617  1
  F  F66  1  0.03373997  0.46627824  0.91164506  1
  F  F67  1  0.96626003  0.53372176  0.41164506  1
  F  F68  1  0.84181780  0.97481648  0.70880628  1
  F  F69  1  0.15818220  0.02518352  0.20880628  1
  F  F70  1  0.30861225  0.98782598  0.61479287  1
  F  F71  1  0.69138775  0.01217402  0.11479287  1
  F  F72  1  0.73483992  0.79256252  0.47920325  1
  F  F73  1  0.26516008  0.20743748  0.97920325  1
  F  F74  1  0.19552927  0.83760110  0.42786924  1
  F  F75  1  0.80447073  0.16239890  0.92786924  1
  F  F76  1  0.92897180  0.02051564  0.48747408  1
  F  F77  1  0.07102820  0.97948436  0.98747408  1
  F  F78  1  0.49886749  0.75133877  0.20218730  1
  F  F79  1  0.50113251  0.24866123  0.70218730  1
