# generated using pymatgen
data_NbAgO3
_symmetry_space_group_name_H-M   'P 1'
_cell_length_a   5.66224458
_cell_length_b   5.76734755
_cell_length_c   15.76576524
_cell_angle_alpha   90.00000000
_cell_angle_beta   90.00000000
_cell_angle_gamma   90.00000000
_symmetry_Int_Tables_number   1
_chemical_formula_structural   NbAgO3
_chemical_formula_sum   'Nb8 Ag8 O24'
_cell_volume   514.84891716
_cell_formula_units_Z   8
loop_
 _symmetry_equiv_pos_site_id
 _symmetry_equiv_pos_as_xyz
  1  'x, y, z'
loop_
 _atom_site_type_symbol
 _atom_site_label
 _atom_site_symmetry_multiplicity
 _atom_site_fract_x
 _atom_site_fract_y
 _atom_site_fract_z
 _atom_site_occupancy
  Nb  Nb0  1  0.24468776  0.23347648  0.62482254  1
  Nb  Nb1  1  0.24468776  0.23347648  0.37517746  1
  Nb  Nb2  1  0.75531224  0.73347648  0.37517746  1
  Nb  Nb3  1  0.75531224  0.73347648  0.62482254  1
  Nb  Nb4  1  0.75638242  0.79977193  0.12521663  1
  Nb  Nb5  1  0.75638242  0.79977193  0.87478337  1
  Nb  Nb6  1  0.24361758  0.29977193  0.87478337  1
  Nb  Nb7  1  0.24361758  0.29977193  0.12521663  1
  Ag  Ag8  1  0.25641944  0.76252105  0.74966397  1
  Ag  Ag9  1  0.25641944  0.76252105  0.25033603  1
  Ag  Ag10  1  0.74358056  0.26252105  0.25033603  1
  Ag  Ag11  1  0.74358056  0.26252105  0.74966397  1
  Ag  Ag12  1  0.25926380  0.74180906  0.50000000  1
  Ag  Ag13  1  0.74073620  0.24180906  0.50000000  1
  Ag  Ag14  1  0.25922810  0.78969727  -0.00000000  1
  Ag  Ag15  1  0.74077190  0.28969727  -0.00000000  1
  O  O16  1  0.31599834  0.26585003  0.74984870  1
  O  O17  1  0.31599834  0.26585003  0.25015130  1
  O  O18  1  0.68400166  0.76585003  0.25015130  1
  O  O19  1  0.68400166  0.76585003  0.74984870  1
  O  O20  1  0.18445032  0.28641333  0.50000000  1
  O  O21  1  0.81554968  0.78641333  0.50000000  1
  O  O22  1  0.47005400  0.99424532  0.60752011  1
  O  O23  1  0.47005400  0.99424532  0.39247989  1
  O  O24  1  0.52994600  0.49424532  0.39247989  1
  O  O25  1  0.52994600  0.49424532  0.60752011  1
  O  O26  1  0.97060167  0.04836169  0.64217704  1
  O  O27  1  0.97060167  0.04836169  0.35782296  1
  O  O28  1  0.02939833  0.54836169  0.35782296  1
  O  O29  1  0.02939833  0.54836169  0.64217704  1
  O  O30  1  0.80078675  0.74069547  -0.00000000  1
  O  O31  1  0.19921325  0.24069547  -0.00000000  1
  O  O32  1  0.95957340  0.47136661  0.14054039  1
  O  O33  1  0.95957340  0.47136661  0.85945961  1
  O  O34  1  0.04042660  0.97136661  0.85945961  1
  O  O35  1  0.04042660  0.97136661  0.14054039  1
  O  O36  1  0.54316340  0.04880932  0.10993752  1
  O  O37  1  0.54316340  0.04880932  0.89006248  1
  O  O38  1  0.45683660  0.54880932  0.89006248  1
  O  O39  1  0.45683660  0.54880932  0.10993752  1
