# generated using pymatgen
data_TeAsH3NF11
_symmetry_space_group_name_H-M   'P 1'
_cell_length_a   6.83978806
_cell_length_b   11.68247323
_cell_length_c   17.69843992
_cell_angle_alpha   90.00000000
_cell_angle_beta   90.00000000
_cell_angle_gamma   105.68323250
_symmetry_Int_Tables_number   1
_chemical_formula_structural   TeAsH3NF11
_chemical_formula_sum   'Te6 As6 H18 N6 F66'
_cell_volume   1361.55559369
_cell_formula_units_Z   6
loop_
 _symmetry_equiv_pos_site_id
 _symmetry_equiv_pos_as_xyz
  1  'x, y, z'
loop_
 _atom_site_type_symbol
 _atom_site_label
 _atom_site_symmetry_multiplicity
 _atom_site_fract_x
 _atom_site_fract_y
 _atom_site_fract_z
 _atom_site_occupancy
  Te  Te0  1  0.83510392  0.66428890  0.25000000  1
  Te  Te1  1  0.16489608  0.33571110  0.75000000  1
  Te  Te2  1  0.66714571  0.33227820  0.00223917  1
  Te  Te3  1  0.33285429  0.66772180  0.50223917  1
  Te  Te4  1  0.33285429  0.66772180  0.99776083  1
  Te  Te5  1  0.66714571  0.33227820  0.49776083  1
  As  As6  1  -0.00000000  0.00000000  -0.00000000  1
  As  As7  1  -0.00000000  0.00000000  0.50000000  1
  As  As8  1  0.84217575  0.69391546  0.75000000  1
  As  As9  1  0.15782425  0.30608454  0.25000000  1
  As  As10  1  0.49615701  0.98636210  0.25000000  1
  As  As11  1  0.50384299  0.01363790  0.75000000  1
  H  H12  1  0.82948351  0.89043524  0.25000000  1
  H  H13  1  0.17051649  0.10956476  0.75000000  1
  H  H14  1  0.03646272  0.87808310  0.29809521  1
  H  H15  1  0.96353728  0.12191690  0.79809521  1
  H  H16  1  0.96353728  0.12191690  0.70190479  1
  H  H17  1  0.03646272  0.87808310  0.20190479  1
  H  H18  1  0.47969459  0.17519897  0.10324689  1
  H  H19  1  0.52030541  0.82480103  0.60324689  1
  H  H20  1  0.52030541  0.82480103  0.89675311  1
  H  H21  1  0.47969459  0.17519897  0.39675311  1
  H  H22  1  0.72191572  0.24139635  0.13433067  1
  H  H23  1  0.27808428  0.75860365  0.63433067  1
  H  H24  1  0.27808428  0.75860365  0.86566933  1
  H  H25  1  0.72191572  0.24139635  0.36566933  1
  H  H26  1  0.68315710  0.13364646  0.06791953  1
  H  H27  1  0.31684290  0.86635354  0.56791953  1
  H  H28  1  0.31684290  0.86635354  0.93208047  1
  H  H29  1  0.68315710  0.13364646  0.43208047  1
  N  N30  1  0.94867735  0.85111363  0.25000000  1
  N  N31  1  0.05132265  0.14888637  0.75000000  1
  N  N32  1  0.63148121  0.20358999  0.08813140  1
  N  N33  1  0.36851879  0.79641001  0.58813140  1
  N  N34  1  0.36851879  0.79641001  0.91186860  1
  N  N35  1  0.63148121  0.20358999  0.41186860  1
  F  F36  1  0.73512890  0.50070536  0.25000000  1
  F  F37  1  0.26487110  0.49929464  0.75000000  1
  F  F38  1  0.65244182  0.68051799  0.17507953  1
  F  F39  1  0.34755818  0.31948201  0.67507953  1
  F  F40  1  0.34755818  0.31948201  0.82492047  1
  F  F41  1  0.65244182  0.68051799  0.32492047  1
  F  F42  1  0.02356957  0.65791215  0.17499937  1
  F  F43  1  0.97643043  0.34208785  0.67499937  1
  F  F44  1  0.97643043  0.34208785  0.82500063  1
  F  F45  1  0.02356957  0.65791215  0.32500063  1
  F  F46  1  0.63199809  0.20997511  0.93179551  1
  F  F47  1  0.36800191  0.79002489  0.43179551  1
  F  F48  1  0.36800191  0.79002489  0.06820449  1
  F  F49  1  0.63199809  0.20997511  0.56820449  1
  F  F50  1  0.70030717  0.44879713  0.07738999  1
  F  F51  1  0.29969283  0.55120287  0.57738999  1
  F  F52  1  0.29969283  0.55120287  0.92261001  1
  F  F53  1  0.70030717  0.44879713  0.42261001  1
  F  F54  1  0.94576947  0.34786419  0.00453417  1
  F  F55  1  0.05423053  0.65213581  0.50453417  1
  F  F56  1  0.05423053  0.65213581  0.99546583  1
  F  F57  1  0.94576947  0.34786419  0.49546583  1
  F  F58  1  0.38785745  0.31380707  0.00389901  1
  F  F59  1  0.61214255  0.68619293  0.50389901  1
  F  F60  1  0.61214255  0.68619293  0.99610099  1
  F  F61  1  0.38785745  0.31380707  0.49610099  1
  F  F62  1  0.70158426  0.44729248  0.92752661  1
  F  F63  1  0.29841574  0.55270752  0.42752661  1
  F  F64  1  0.29841574  0.55270752  0.07247339  1
  F  F65  1  0.70158426  0.44729248  0.57247339  1
  F  F66  1  0.00779781  0.11834234  0.06351556  1
  F  F67  1  0.99220219  0.88165766  0.56351556  1
  F  F68  1  0.99220219  0.88165766  0.93648444  1
  F  F69  1  0.00779781  0.11834234  0.43648444  1
  F  F70  1  0.73029672  0.97424877  0.99410022  1
  F  F71  1  0.26970328  0.02575123  0.49410022  1
  F  F72  1  0.26970328  0.02575123  0.00589978  1
  F  F73  1  0.73029672  0.97424877  0.50589978  1
  F  F74  1  0.96962762  0.89893472  0.07695856  1
  F  F75  1  0.03037238  0.10106528  0.57695856  1
  F  F76  1  0.03037238  0.10106528  0.92304144  1
  F  F77  1  0.96962762  0.89893472  0.42304144  1
  F  F78  1  0.93801964  0.84977175  0.75000000  1
  F  F79  1  0.06198036  0.15022825  0.25000000  1
  F  F80  1  0.02467200  0.68305569  0.82121919  1
  F  F81  1  0.97532800  0.31694431  0.32121919  1
  F  F82  1  0.97532800  0.31694431  0.17878081  1
  F  F83  1  0.02467200  0.68305569  0.67878081  1
  F  F84  1  0.66431683  0.70292065  0.82171862  1
  F  F85  1  0.33568317  0.29707935  0.32171862  1
  F  F86  1  0.33568317  0.29707935  0.17828138  1
  F  F87  1  0.66431683  0.70292065  0.67828138  1
  F  F88  1  0.75021096  0.53777692  0.75000000  1
  F  F89  1  0.24978904  0.46222308  0.25000000  1
  F  F90  1  0.38124753  0.83112921  0.25000000  1
  F  F91  1  0.61875247  0.16887079  0.75000000  1
  F  F92  1  0.67198919  0.96819724  0.17995276  1
  F  F93  1  0.32801081  0.03180276  0.67995276  1
  F  F94  1  0.32801081  0.03180276  0.82004724  1
  F  F95  1  0.67198919  0.96819724  0.32004724  1
  F  F96  1  0.32477612  0.00319089  0.17801848  1
  F  F97  1  0.67522388  0.99680911  0.67801848  1
  F  F98  1  0.67522388  0.99680911  0.82198152  1
  F  F99  1  0.32477612  0.00319089  0.32198152  1
  F  F100  1  0.60611280  0.14217313  0.25000000  1
  F  F101  1  0.39388720  0.85782687  0.75000000  1
