# generated using pymatgen
data_Hf(WO4)2
_symmetry_space_group_name_H-M   'P 1'
_cell_length_a   9.30001279
_cell_length_b   9.30001279
_cell_length_c   9.30001279
_cell_angle_alpha   90.00000000
_cell_angle_beta   90.00000000
_cell_angle_gamma   90.00000000
_symmetry_Int_Tables_number   1
_chemical_formula_structural   Hf(WO4)2
_chemical_formula_sum   'Hf4 W8 O32'
_cell_volume   804.36031863
_cell_formula_units_Z   4
loop_
 _symmetry_equiv_pos_site_id
 _symmetry_equiv_pos_as_xyz
  1  'x, y, z'
loop_
 _atom_site_type_symbol
 _atom_site_label
 _atom_site_symmetry_multiplicity
 _atom_site_fract_x
 _atom_site_fract_y
 _atom_site_fract_z
 _atom_site_occupancy
  Hf  Hf0  1  0.74854715  0.24854715  0.25145285  1
  Hf  Hf1  1  0.24854715  0.25145285  0.74854715  1
  Hf  Hf2  1  0.25145285  0.74854715  0.24854715  1
  Hf  Hf3  1  0.75145285  0.75145285  0.75145285  1
  W  W4  1  0.14826218  0.64826218  0.85173782  1
  W  W5  1  0.64826218  0.85173782  0.14826218  1
  W  W6  1  0.85173782  0.14826218  0.64826218  1
  W  W7  1  0.35173782  0.35173782  0.35173782  1
  W  W8  1  0.40728155  0.90728155  0.59271845  1
  W  W9  1  0.90728155  0.59271845  0.40728155  1
  W  W10  1  0.59271845  0.40728155  0.90728155  1
  W  W11  1  0.09271845  0.09271845  0.09271845  1
  O  O12  1  0.25871385  0.75871385  0.74128615  1
  O  O13  1  0.75871385  0.74128615  0.25871385  1
  O  O14  1  0.74128615  0.25871385  0.75871385  1
  O  O15  1  0.24128615  0.24128615  0.24128615  1
  O  O16  1  0.51603972  0.01603972  0.48396028  1
  O  O17  1  0.01603972  0.48396028  0.51603972  1
  O  O18  1  0.48396028  0.51603972  0.01603972  1
  O  O19  1  0.98396028  0.98396028  0.98396028  1
  O  O20  1  0.96025025  0.69419237  0.81881705  1
  O  O21  1  0.18118295  0.46025025  0.80580763  1
  O  O22  1  0.19419237  0.68118295  0.03974975  1
  O  O23  1  0.46025025  0.80580763  0.18118295  1
  O  O24  1  0.68118295  0.03974975  0.19419237  1
  O  O25  1  0.69419237  0.81881705  0.96025025  1
  O  O26  1  0.03974975  0.19419237  0.68118295  1
  O  O27  1  0.81881705  0.96025025  0.69419237  1
  O  O28  1  0.80580763  0.18118295  0.46025025  1
  O  O29  1  0.53974975  0.30580763  0.31881705  1
  O  O30  1  0.31881705  0.53974975  0.30580763  1
  O  O31  1  0.30580763  0.31881705  0.53974975  1
  O  O32  1  0.54736707  0.80306573  0.68856641  1
  O  O33  1  0.31143359  0.04736707  0.69693427  1
  O  O34  1  0.30306573  0.81143359  0.45263293  1
  O  O35  1  0.04736707  0.69693427  0.31143359  1
  O  O36  1  0.81143359  0.45263293  0.30306573  1
  O  O37  1  0.80306573  0.68856641  0.54736707  1
  O  O38  1  0.45263293  0.30306573  0.81143359  1
  O  O39  1  0.68856641  0.54736707  0.80306573  1
  O  O40  1  0.69693427  0.31143359  0.04736707  1
  O  O41  1  0.95263293  0.19693427  0.18856641  1
  O  O42  1  0.18856641  0.95263293  0.19693427  1
  O  O43  1  0.19693427  0.18856641  0.95263293  1
