# generated using pymatgen
data_Li5CoO3F
_symmetry_space_group_name_H-M   'P 1'
_cell_length_a   6.54263723
_cell_length_b   6.54263723
_cell_length_c   4.75479959
_cell_angle_alpha   80.23566996
_cell_angle_beta   80.23566996
_cell_angle_gamma   88.89997680
_symmetry_Int_Tables_number   1
_chemical_formula_structural   Li5CoO3F
_chemical_formula_sum   'Li10 Co2 O6 F2'
_cell_volume   197.67062867
_cell_formula_units_Z   2
loop_
 _symmetry_equiv_pos_site_id
 _symmetry_equiv_pos_as_xyz
  1  'x, y, z'
loop_
 _atom_site_type_symbol
 _atom_site_label
 _atom_site_symmetry_multiplicity
 _atom_site_fract_x
 _atom_site_fract_y
 _atom_site_fract_z
 _atom_site_occupancy
  Li  Li0  1  0.95476315  0.55643403  0.25127175  1
  Li  Li1  1  0.29523685  0.69356597  0.99872825  1
  Li  Li2  1  0.55643403  0.95476315  0.25127175  1
  Li  Li3  1  0.69356597  0.29523685  0.99872825  1
  Li  Li4  1  0.26508390  0.26508390  0.24340557  1
  Li  Li5  1  0.98491610  0.98491610  0.00659443  1
  Li  Li6  1  0.78361990  0.20901603  0.50883825  1
  Li  Li7  1  0.20901603  0.78361990  0.50883825  1
  Li  Li8  1  0.46638110  0.04098397  0.74116175  1
  Li  Li9  1  0.04098397  0.46638110  0.74116175  1
  Co  Co10  1  0.75318873  0.75318873  0.74864121  1
  Co  Co11  1  0.49681127  0.49681127  0.50135879  1
  O  O12  1  0.23151973  0.52375293  0.37851052  1
  O  O13  1  0.76156703  0.48843297  0.62500000  1
  O  O14  1  0.52375293  0.23151973  0.37851052  1
  O  O15  1  0.48843297  0.76156703  0.62500000  1
  O  O16  1  0.72624707  0.01848027  0.87148948  1
  O  O17  1  0.01848027  0.72624707  0.87148948  1
  F  F18  1  0.97704031  0.27295969  0.12500000  1
  F  F19  1  0.27295969  0.97704031  0.12500000  1
