# generated using pymatgen
data_SnH10C3NCl3
_symmetry_space_group_name_H-M   'P 1'
_cell_length_a   6.54201273
_cell_length_b   6.54201273
_cell_length_c   12.83881981
_cell_angle_alpha   90.00000000
_cell_angle_beta   90.00000000
_cell_angle_gamma   99.38599945
_symmetry_Int_Tables_number   1
_chemical_formula_structural   SnH10C3NCl3
_chemical_formula_sum   'Sn2 H20 C6 N2 Cl6'
_cell_volume   542.11857092
_cell_formula_units_Z   2
loop_
 _symmetry_equiv_pos_site_id
 _symmetry_equiv_pos_as_xyz
  1  'x, y, z'
loop_
 _atom_site_type_symbol
 _atom_site_label
 _atom_site_symmetry_multiplicity
 _atom_site_fract_x
 _atom_site_fract_y
 _atom_site_fract_z
 _atom_site_occupancy
  Sn  Sn0  1  0.95581905  0.95581905  0.75522815  1
  Sn  Sn1  1  0.04418095  0.04418095  0.25522815  1
  H  H2  1  0.34423522  0.34423522  0.42399224  1
  H  H3  1  0.65576478  0.65576478  0.92399224  1
  H  H4  1  0.64856898  0.39628103  0.59696552  1
  H  H5  1  0.39628103  0.64856898  0.59696552  1
  H  H6  1  0.35143102  0.60371897  0.09696552  1
  H  H7  1  0.60371897  0.35143102  0.09696552  1
  H  H8  1  0.42901098  0.19294235  0.58757487  1
  H  H9  1  0.19294235  0.42901098  0.58757487  1
  H  H10  1  0.57098902  0.80705765  0.08757487  1
  H  H11  1  0.80705765  0.57098902  0.08757487  1
  H  H12  1  0.63281661  0.20953174  0.49328369  1
  H  H13  1  0.20953174  0.63281661  0.49328369  1
  H  H14  1  0.36718339  0.79046826  0.99328369  1
  H  H15  1  0.79046826  0.36718339  0.99328369  1
  H  H16  1  0.68566259  0.68566259  0.47208893  1
  H  H17  1  0.31433741  0.31433741  0.97208893  1
  H  H18  1  0.68039644  0.50053642  0.36807081  1
  H  H19  1  0.50053642  0.68039644  0.36807081  1
  H  H20  1  0.31960356  0.49946358  0.86807081  1
  H  H21  1  0.49946358  0.31960356  0.86807081  1
  C  C22  1  0.54438573  0.29838440  0.54338652  1
  C  C23  1  0.29838440  0.54438573  0.54338652  1
  C  C24  1  0.45561427  0.70161560  0.04338652  1
  C  C25  1  0.70161560  0.45561427  0.04338652  1
  C  C26  1  0.58683388  0.58683388  0.41702809  1
  C  C27  1  0.41316612  0.41316612  0.91702809  1
  N  N28  1  0.43621868  0.43621868  0.47768001  1
  N  N29  1  0.56378132  0.56378132  0.97768001  1
  Cl  Cl30  1  0.97500975  0.97500975  0.95170357  1
  Cl  Cl31  1  0.02499025  0.02499025  0.45170357  1
  Cl  Cl32  1  0.92785979  0.56436777  0.75880810  1
  Cl  Cl33  1  0.56436777  0.92785979  0.75880810  1
  Cl  Cl34  1  0.07214021  0.43563223  0.25880810  1
  Cl  Cl35  1  0.43563223  0.07214021  0.25880810  1
