# generated using pymatgen
data_CeCdCu
_symmetry_space_group_name_H-M   'P 1'
_cell_length_a   3.26658490
_cell_length_b   4.80315758
_cell_length_c   4.80315758
_cell_angle_alpha   119.99999911
_cell_angle_beta   90.00000000
_cell_angle_gamma   90.00000000
_symmetry_Int_Tables_number   1
_chemical_formula_structural   CeCdCu
_chemical_formula_sum   'Ce1 Cd1 Cu1'
_cell_volume   65.26468632
_cell_formula_units_Z   1
loop_
 _symmetry_equiv_pos_site_id
 _symmetry_equiv_pos_as_xyz
  1  'x, y, z'
loop_
 _atom_site_type_symbol
 _atom_site_label
 _atom_site_symmetry_multiplicity
 _atom_site_fract_x
 _atom_site_fract_y
 _atom_site_fract_z
 _atom_site_occupancy
  Ce  Ce0  1  0.50000000  0.66666700  0.33333300  1
  Cd  Cd1  1  -0.00000000  0.00000000  -0.00000000  1
  Cu  Cu2  1  0.00000000  0.33333300  0.66666700  1
