# generated using pymatgen
data_Mo2P4H36C12Cl4O5
_symmetry_space_group_name_H-M   'P 1'
_cell_length_a   12.42304053
_cell_length_b   17.09762265
_cell_length_c   17.55641934
_cell_angle_alpha   113.44809968
_cell_angle_beta   90.00000000
_cell_angle_gamma   90.00000000
_symmetry_Int_Tables_number   1
_chemical_formula_structural   Mo2P4H36C12Cl4O5
_chemical_formula_sum   'Mo8 P16 H144 C48 Cl16 O20'
_cell_volume   3421.11918119
_cell_formula_units_Z   4
loop_
 _symmetry_equiv_pos_site_id
 _symmetry_equiv_pos_as_xyz
  1  'x, y, z'
loop_
 _atom_site_type_symbol
 _atom_site_label
 _atom_site_symmetry_multiplicity
 _atom_site_fract_x
 _atom_site_fract_y
 _atom_site_fract_z
 _atom_site_occupancy
  Mo  Mo0  1  0.60531725  0.99919869  0.32398994  1
  Mo  Mo1  1  0.10531725  0.50080131  0.67601006  1
  Mo  Mo2  1  0.39468275  0.00080131  0.67601006  1
  Mo  Mo3  1  0.89468275  0.49919869  0.32398994  1
  Mo  Mo4  1  0.36267433  0.96754120  0.17821560  1
  Mo  Mo5  1  0.86267433  0.53245880  0.82178440  1
  Mo  Mo6  1  0.63732567  0.03245880  0.82178440  1
  Mo  Mo7  1  0.13732567  0.46754120  0.17821560  1
  P  P8  1  0.54089762  0.14684517  0.43386789  1
  P  P9  1  0.04089762  0.35315483  0.56613211  1
  P  P10  1  0.45910238  0.85315483  0.56613211  1
  P  P11  1  0.95910238  0.64684517  0.43386789  1
  P  P12  1  0.37179043  0.80093503  0.12915263  1
  P  P13  1  0.87179043  0.69906497  0.87084737  1
  P  P14  1  0.62820957  0.19906497  0.87084737  1
  P  P15  1  0.12820957  0.30093503  0.12915263  1
  P  P16  1  0.70180961  0.07998398  0.17179408  1
  P  P17  1  0.20180961  0.42001602  0.82820592  1
  P  P18  1  0.29819039  0.92001602  0.82820592  1
  P  P19  1  0.79819039  0.57998398  0.17179408  1
  P  P20  1  0.13023543  0.96337305  0.30223479  1
  P  P21  1  0.63023543  0.53662695  0.69776521  1
  P  P22  1  0.86976457  0.03662695  0.69776521  1
  P  P23  1  0.36976457  0.46337305  0.30223479  1
  H  H24  1  0.63950800  0.95090552  0.06584406  1
  H  H25  1  0.13950800  0.54909448  0.93415594  1
  H  H26  1  0.36049200  0.04909448  0.93415594  1
  H  H27  1  0.86049200  0.45090552  0.06584406  1
  H  H28  1  0.75378753  0.99361667  0.03231018  1
  H  H29  1  0.25378753  0.50638333  0.96768982  1
  H  H30  1  0.24621247  0.00638333  0.96768982  1
  H  H31  1  0.74621247  0.49361667  0.03231018  1
  H  H32  1  0.77124877  0.93935921  0.10162165  1
  H  H33  1  0.27124877  0.56064079  0.89837835  1
  H  H34  1  0.22875123  0.06064079  0.89837835  1
  H  H35  1  0.72875123  0.43935921  0.10162165  1
  H  H36  1  0.88692473  0.08674180  0.21194898  1
  H  H37  1  0.38692473  0.41325820  0.78805102  1
  H  H38  1  0.11307527  0.91325820  0.78805102  1
  H  H39  1  0.61307527  0.58674180  0.21194898  1
  H  H40  1  0.86489037  0.13614963  0.13998261  1
  H  H41  1  0.36489037  0.36385037  0.86001739  1
  H  H42  1  0.13510963  0.86385037  0.86001739  1
  H  H43  1  0.63510963  0.63614963  0.13998261  1
  H  H44  1  0.82743832  0.19091194  0.24643644  1
  H  H45  1  0.32743832  0.30908806  0.75356356  1
  H  H46  1  0.17256168  0.80908806  0.75356356  1
  H  H47  1  0.67256168  0.69091194  0.24643644  1
  H  H48  1  0.62894690  0.21383847  0.18226892  1
  H  H49  1  0.12894690  0.28616153  0.81773108  1
  H  H50  1  0.37105310  0.78616153  0.81773108  1
  H  H51  1  0.87105310  0.71383847  0.18226892  1
  H  H52  1  0.65619604  0.14318217  0.07677388  1
  H  H53  1  0.15619604  0.35681783  0.92322612  1
  H  H54  1  0.34380396  0.85681783  0.92322612  1
  H  H55  1  0.84380396  0.64318217  0.07677388  1
  H  H56  1  0.53971894  0.12570421  0.12843163  1
  H  H57  1  0.03971894  0.37429579  0.87156837  1
  H  H58  1  0.46028106  0.87429579  0.87156837  1
  H  H59  1  0.96028106  0.62570421  0.12843163  1
  H  H60  1  0.37846626  0.21435395  0.50692401  1
  H  H61  1  0.87846626  0.28564605  0.49307599  1
  H  H62  1  0.62153374  0.78564605  0.49307599  1
  H  H63  1  0.12153374  0.71435395  0.50692401  1
  H  H64  1  0.35123179  0.13587182  0.40403739  1
  H  H65  1  0.85123179  0.36412818  0.59596261  1
  H  H66  1  0.64876821  0.86412818  0.59596261  1
  H  H67  1  0.14876821  0.63587182  0.40403739  1
  H  H68  1  0.38467428  0.10310509  0.48695041  1
  H  H69  1  0.88467428  0.39689491  0.51304959  1
  H  H70  1  0.61532572  0.89689491  0.51304959  1
  H  H71  1  0.11532572  0.60310509  0.48695041  1
  H  H72  1  0.59776892  0.12123357  0.55316114  1
  H  H73  1  0.09776892  0.37876643  0.44683886  1
  H  H74  1  0.40223108  0.87876643  0.44683886  1
  H  H75  1  0.90223108  0.62123357  0.55316114  1
  H  H76  1  0.69206720  0.18701144  0.52871543  1
  H  H77  1  0.19206720  0.31298856  0.47128457  1
  H  H78  1  0.30793280  0.81298856  0.47128457  1
  H  H79  1  0.80793280  0.68701144  0.52871543  1
  H  H80  1  0.56762713  0.23143145  0.58034804  1
  H  H81  1  0.06762713  0.26856855  0.41965196  1
  H  H82  1  0.43237287  0.76856855  0.41965196  1
  H  H83  1  0.93237287  0.73143145  0.58034804  1
  H  H84  1  0.54103277  0.29815669  0.46141046  1
  H  H85  1  0.04103277  0.20184331  0.53858954  1
  H  H86  1  0.45896723  0.70184331  0.53858954  1
  H  H87  1  0.95896723  0.79815669  0.46141046  1
  H  H88  1  0.64779041  0.24118131  0.39274545  1
  H  H89  1  0.14779041  0.25881869  0.60725455  1
  H  H90  1  0.35220959  0.75881869  0.60725455  1
  H  H91  1  0.85220959  0.74118131  0.39274545  1
  H  H92  1  0.51305198  0.23185391  0.35452865  1
  H  H93  1  0.01305198  0.26814609  0.64547135  1
  H  H94  1  0.48694802  0.76814609  0.64547135  1
  H  H95  1  0.98694802  0.73185391  0.35452865  1
  H  H96  1  0.06831319  0.07471798  0.26311423  1
  H  H97  1  0.56831319  0.42528202  0.73688577  1
  H  H98  1  0.93168681  0.92528202  0.73688577  1
  H  H99  1  0.43168681  0.57471798  0.26311423  1
  H  H100  1  0.00895563  0.08231473  0.35930074  1
  H  H101  1  0.50895563  0.41768527  0.64069926  1
  H  H102  1  0.99104437  0.91768527  0.64069926  1
  H  H103  1  0.49104437  0.58231473  0.35930074  1
  H  H104  1  0.14714470  0.11458612  0.35520616  1
  H  H105  1  0.64714470  0.38541388  0.64479384  1
  H  H106  1  0.85285530  0.88541388  0.64479384  1
  H  H107  1  0.35285530  0.61458612  0.35520616  1
  H  H108  1  0.04912984  0.82611723  0.23269343  1
  H  H109  1  0.54912984  0.67388277  0.76730657  1
  H  H110  1  0.95087016  0.17388277  0.76730657  1
  H  H111  1  0.45087016  0.32611723  0.23269343  1
  H  H112  1  0.94982972  0.90929251  0.26809686  1
  H  H113  1  0.44982972  0.59070749  0.73190314  1
  H  H114  1  0.05017028  0.09070749  0.73190314  1
  H  H115  1  0.55017028  0.40929251  0.26809686  1
  H  H116  1  0.02949596  0.89373106  0.17744498  1
  H  H117  1  0.52949596  0.60626894  0.82255502  1
  H  H118  1  0.97050404  0.10626894  0.82255502  1
  H  H119  1  0.47050404  0.39373106  0.17744498  1
  H  H120  1  0.17984893  0.99779858  0.44526050  1
  H  H121  1  0.67984893  0.50220142  0.55473950  1
  H  H122  1  0.82015107  0.00220142  0.55473950  1
  H  H123  1  0.32015107  0.49779858  0.44526050  1
  H  H124  1  0.04217263  0.96424229  0.42390564  1
  H  H125  1  0.54217263  0.53575771  0.57609436  1
  H  H126  1  0.95782737  0.03575771  0.57609436  1
  H  H127  1  0.45782737  0.46424229  0.42390564  1
  H  H128  1  0.14873661  0.88748544  0.39103002  1
  H  H129  1  0.64873661  0.61251456  0.60896998  1
  H  H130  1  0.85126339  0.11251456  0.60896998  1
  H  H131  1  0.35126339  0.38748544  0.39103002  1
  H  H132  1  0.18272342  0.76724285  0.12672261  1
  H  H133  1  0.68272342  0.73275715  0.87327739  1
  H  H134  1  0.81727658  0.23275715  0.87327739  1
  H  H135  1  0.31727658  0.26724285  0.12672261  1
  H  H136  1  0.23113686  0.74895427  0.02563668  1
  H  H137  1  0.73113686  0.75104573  0.97436332  1
  H  H138  1  0.76886314  0.25104573  0.97436332  1
  H  H139  1  0.26886314  0.24895427  0.02563668  1
  H  H140  1  0.26147114  0.67433397  0.07175791  1
  H  H141  1  0.76147114  0.82566603  0.92824209  1
  H  H142  1  0.73852886  0.32566603  0.92824209  1
  H  H143  1  0.23852886  0.17433397  0.07175791  1
  H  H144  1  0.48107711  0.79520480  0.23967651  1
  H  H145  1  0.98107711  0.70479520  0.76032349  1
  H  H146  1  0.51892289  0.20479520  0.76032349  1
  H  H147  1  0.01892289  0.29520480  0.23967651  1
  H  H148  1  0.34038846  0.79094874  0.25966550  1
  H  H149  1  0.84038846  0.70905126  0.74033450  1
  H  H150  1  0.65961154  0.20905126  0.74033450  1
  H  H151  1  0.15961154  0.29094874  0.25966550  1
  H  H152  1  0.40640221  0.69737838  0.18870613  1
  H  H153  1  0.90640221  0.80262162  0.81129387  1
  H  H154  1  0.59359779  0.30262162  0.81129387  1
  H  H155  1  0.09359779  0.19737838  0.18870613  1
  H  H156  1  0.47041066  0.68011060  0.03096721  1
  H  H157  1  0.97041066  0.81988940  0.96903279  1
  H  H158  1  0.52958934  0.31988940  0.96903279  1
  H  H159  1  0.02958934  0.18011060  0.03096721  1
  H  H160  1  0.45789003  0.76481442  0.99581491  1
  H  H161  1  0.95789003  0.73518558  0.00418509  1
  H  H162  1  0.54210997  0.23518558  0.00418509  1
  H  H163  1  0.04210997  0.26481442  0.99581491  1
  H  H164  1  0.55299472  0.77366170  0.07522868  1
  H  H165  1  0.05299472  0.72633830  0.92477132  1
  H  H166  1  0.44700528  0.22633830  0.92477132  1
  H  H167  1  0.94700528  0.27366170  0.07522868  1
  C  C168  1  0.71875883  0.98089120  0.08388139  1
  C  C169  1  0.21875883  0.51910880  0.91611861  1
  C  C170  1  0.28124117  0.01910880  0.91611861  1
  C  C171  1  0.78124117  0.48089120  0.08388139  1
  C  C172  1  0.83334395  0.12813084  0.19493204  1
  C  C173  1  0.33334395  0.37186916  0.80506796  1
  C  C174  1  0.16665605  0.87186916  0.80506796  1
  C  C175  1  0.66665605  0.62813084  0.19493204  1
  C  C176  1  0.62352275  0.14769751  0.13661664  1
  C  C177  1  0.12352275  0.35230249  0.86338336  1
  C  C178  1  0.37647725  0.85230249  0.86338336  1
  C  C179  1  0.87647725  0.64769751  0.13661664  1
  C  C180  1  0.39905507  0.15058851  0.46054475  1
  C  C181  1  0.89905507  0.34941149  0.53945525  1
  C  C182  1  0.60094493  0.84941149  0.53945525  1
  C  C183  1  0.10094493  0.65058851  0.46054475  1
  C  C184  1  0.60647010  0.17466627  0.53403228  1
  C  C185  1  0.10647010  0.32533373  0.46596772  1
  C  C186  1  0.39352990  0.82533373  0.46596772  1
  C  C187  1  0.89352990  0.67466627  0.53403228  1
  C  C188  1  0.56276410  0.23906120  0.40855701  1
  C  C189  1  0.06276410  0.26093880  0.59144299  1
  C  C190  1  0.43723590  0.76093880  0.59144299  1
  C  C191  1  0.93723590  0.73906120  0.40855701  1
  C  C192  1  0.08338846  0.06939929  0.32241554  1
  C  C193  1  0.58338846  0.43060071  0.67758446  1
  C  C194  1  0.91661154  0.93060071  0.67758446  1
  C  C195  1  0.41661154  0.56939929  0.32241554  1
  C  C196  1  0.02940265  0.89096725  0.23881433  1
  C  C197  1  0.52940265  0.60903275  0.76118567  1
  C  C198  1  0.97059735  0.10903275  0.76118567  1
  C  C199  1  0.47059735  0.39096725  0.23881433  1
  C  C200  1  0.12509200  0.95244910  0.40016630  1
  C  C201  1  0.62509200  0.54755090  0.59983370  1
  C  C202  1  0.87490800  0.04755090  0.59983370  1
  C  C203  1  0.37490800  0.45244910  0.40016630  1
  C  C204  1  0.24990520  0.74188733  0.08357349  1
  C  C205  1  0.74990520  0.75811267  0.91642651  1
  C  C206  1  0.75009480  0.25811267  0.91642651  1
  C  C207  1  0.25009480  0.24188733  0.08357349  1
  C  C208  1  0.40356900  0.76729727  0.21244497  1
  C  C209  1  0.90356900  0.73270273  0.78755503  1
  C  C210  1  0.59643100  0.23270273  0.78755503  1
  C  C211  1  0.09643100  0.26729727  0.21244497  1
  C  C212  1  0.47324125  0.74961863  0.04993977  1
  C  C213  1  0.97324125  0.75038137  0.95006023  1
  C  C214  1  0.52675875  0.25038137  0.95006023  1
  C  C215  1  0.02675875  0.24961863  0.04993977  1
  Cl  Cl216  1  0.68474738  0.87049938  0.21879425  1
  Cl  Cl217  1  0.18474738  0.62950062  0.78120575  1
  Cl  Cl218  1  0.31525262  0.12950062  0.78120575  1
  Cl  Cl219  1  0.81525262  0.37049938  0.21879425  1
  Cl  Cl220  1  0.78774342  0.04842418  0.38283248  1
  Cl  Cl221  1  0.28774342  0.45157582  0.61716752  1
  Cl  Cl222  1  0.21225658  0.95157582  0.61716752  1
  Cl  Cl223  1  0.71225658  0.54842418  0.38283248  1
  Cl  Cl224  1  0.19478537  0.94915283  0.09367226  1
  Cl  Cl225  1  0.69478537  0.55084717  0.90632774  1
  Cl  Cl226  1  0.80521463  0.05084717  0.90632774  1
  Cl  Cl227  1  0.30521463  0.44915283  0.09367226  1
  Cl  Cl228  1  0.32971470  0.12101574  0.24393059  1
  Cl  Cl229  1  0.82971470  0.37898426  0.75606941  1
  Cl  Cl230  1  0.67028530  0.87898426  0.75606941  1
  Cl  Cl231  1  0.17028530  0.62101574  0.24393059  1
  O  O232  1  0.46840337  0.97956459  0.26390245  1
  O  O233  1  0.96840337  0.52043541  0.73609755  1
  O  O234  1  0.53159663  0.02043541  0.73609755  1
  O  O235  1  0.03159663  0.47956459  0.26390245  1
  O  O236  1  0.65090319  0.07061964  0.24687409  1
  O  O237  1  0.15090319  0.42938036  0.75312591  1
  O  O238  1  0.34909681  0.92938036  0.75312591  1
  O  O239  1  0.84909681  0.57061964  0.24687409  1
  O  O240  1  0.57537471  0.96088242  0.39828397  1
  O  O241  1  0.07537471  0.53911758  0.60171603  1
  O  O242  1  0.42462529  0.03911758  0.60171603  1
  O  O243  1  0.92462529  0.46088242  0.39828397  1
  O  O244  1  0.24321567  0.94581228  0.26546593  1
  O  O245  1  0.74321567  0.55418772  0.73453407  1
  O  O246  1  0.75678433  0.05418772  0.73453407  1
  O  O247  1  0.25678433  0.44581228  0.26546593  1
  O  O248  1  0.44131681  0.95789563  0.09454736  1
  O  O249  1  0.94131681  0.54210437  0.90545264  1
  O  O250  1  0.55868319  0.04210437  0.90545264  1
  O  O251  1  0.05868319  0.45789563  0.09454736  1
