# generated using pymatgen
data_LiV6O13
_symmetry_space_group_name_H-M   'P 1'
_cell_length_a   3.76217957
_cell_length_b   11.37579675
_cell_length_c   12.01010324
_cell_angle_alpha   110.31415143
_cell_angle_beta   90.00000000
_cell_angle_gamma   99.51808490
_symmetry_Int_Tables_number   1
_chemical_formula_structural   LiV6O13
_chemical_formula_sum   'Li2 V12 O26'
_cell_volume   474.48375214
_cell_formula_units_Z   2
loop_
 _symmetry_equiv_pos_site_id
 _symmetry_equiv_pos_as_xyz
  1  'x, y, z'
loop_
 _atom_site_type_symbol
 _atom_site_label
 _atom_site_symmetry_multiplicity
 _atom_site_fract_x
 _atom_site_fract_y
 _atom_site_fract_z
 _atom_site_occupancy
  Li  Li0  1  0.81529643  0.63059286  0.24015827  1
  Li  Li1  1  0.18470357  0.36940714  0.75984173  1
  V  V2  1  0.77495996  0.54991993  0.92547276  1
  V  V3  1  0.22504004  0.45008007  0.07452724  1
  V  V4  1  0.24797407  0.49594814  0.39529395  1
  V  V5  1  0.75202593  0.50405186  0.60470605  1
  V  V6  1  0.94815666  0.89631333  0.03649849  1
  V  V7  1  0.05184334  0.10368667  0.96350151  1
  V  V8  1  0.42929059  0.85858117  0.51687041  1
  V  V9  1  0.57070941  0.14141883  0.48312959  1
  V  V10  1  0.92730024  0.85460048  0.71298655  1
  V  V11  1  0.07269976  0.14539952  0.28701345  1
  V  V12  1  0.43580016  0.87160032  0.22604586  1
  V  V13  1  0.56419984  0.12839968  0.77395414  1
  O  O14  1  0.75285581  0.50571162  0.07289710  1
  O  O15  1  0.24714419  0.49428838  0.92710290  1
  O  O16  1  0.24854247  0.49708494  0.56247773  1
  O  O17  1  0.75145753  0.50291506  0.43752227  1
  O  O18  1  0.93882574  0.87765147  0.55659440  1
  O  O19  1  0.06117426  0.12234853  0.44340560  1
  O  O20  1  0.44686981  0.89373962  0.06633807  1
  O  O21  1  0.55313019  0.10626038  0.93366193  1
  O  O22  1  0.95784118  0.91568236  0.21307394  1
  O  O23  1  0.04215882  0.08431764  0.78692606  1
  O  O24  1  0.44951006  0.89902011  0.69588933  1
  O  O25  1  0.55048994  0.10097989  0.30411067  1
  O  O26  1  0.74914935  0.49829869  0.75155355  1
  O  O27  1  0.25085065  0.50170131  0.24844645  1
  O  O28  1  0.85515665  0.71031330  0.97364884  1
  O  O29  1  0.14484335  0.28968670  0.02635116  1
  O  O30  1  0.34929474  0.69858947  0.45208383  1
  O  O31  1  0.65070526  0.30141053  0.54791617  1
  O  O32  1  0.84688043  0.69376085  0.67221489  1
  O  O33  1  0.15311957  0.30623915  0.32778511  1
  O  O34  1  0.35645928  0.71291856  0.19372842  1
  O  O35  1  0.64354072  0.28708144  0.80627158  1
  O  O36  1  0.95565731  0.91131462  0.88985172  1
  O  O37  1  0.04434269  0.08868538  0.11014828  1
  O  O38  1  0.45806965  0.91613930  0.39811684  1
  O  O39  1  0.54193035  0.08386070  0.60188316  1
