# generated using pymatgen
data_NaH10C6(NO)7
_symmetry_space_group_name_H-M   'P 1'
_cell_length_a   7.01901241
_cell_length_b   9.04372433
_cell_length_c   11.61248751
_cell_angle_alpha   68.99034569
_cell_angle_beta   86.62616334
_cell_angle_gamma   65.46955212
_symmetry_Int_Tables_number   1
_chemical_formula_structural   NaH10C6(NO)7
_chemical_formula_sum   'Na2 H20 C12 N14 O14'
_cell_volume   622.49712529
_cell_formula_units_Z   2
loop_
 _symmetry_equiv_pos_site_id
 _symmetry_equiv_pos_as_xyz
  1  'x, y, z'
loop_
 _atom_site_type_symbol
 _atom_site_label
 _atom_site_symmetry_multiplicity
 _atom_site_fract_x
 _atom_site_fract_y
 _atom_site_fract_z
 _atom_site_occupancy
  Na  Na0  1  0.22766862  0.31269990  0.05185647  1
  Na  Na1  1  0.77233138  0.68730010  0.94814353  1
  H  H2  1  0.58324080  0.20028524  0.33953100  1
  H  H3  1  0.41675920  0.79971476  0.66046900  1
  H  H4  1  0.17524436  0.00121739  0.09498412  1
  H  H5  1  0.82475564  0.99878261  0.90501588  1
  H  H6  1  0.32042457  0.00315454  0.99176596  1
  H  H7  1  0.67957543  0.99684546  0.00823404  1
  H  H8  1  0.12647258  0.63405982  0.11776512  1
  H  H9  1  0.87352742  0.36594018  0.88223488  1
  H  H10  1  0.20949227  0.65677953  0.98778803  1
  H  H11  1  0.79050773  0.34322047  0.01221197  1
  H  H12  1  0.55449286  0.55846090  0.15482868  1
  H  H13  1  0.44550714  0.44153910  0.84517132  1
  H  H14  1  0.52206174  0.16748741  0.74659155  1
  H  H15  1  0.47793826  0.83251259  0.25340845  1
  H  H16  1  0.76817842  0.50655110  0.22370112  1
  H  H17  1  0.23182158  0.49344890  0.77629888  1
  H  H18  1  0.58498559  0.12059913  0.62651800  1
  H  H19  1  0.41501441  0.87940087  0.37348200  1
  H  H20  1  0.33043833  0.41744425  0.55648441  1
  H  H21  1  0.66956167  0.58255575  0.44351559  1
  C  C22  1  0.08426199  0.66564045  0.50863567  1
  C  C23  1  0.91573801  0.33435955  0.49136433  1
  C  C24  1  0.10144119  0.19717471  0.35895847  1
  C  C25  1  0.89855881  0.80282529  0.64104153  1
  C  C26  1  0.19123485  0.04843602  0.57109845  1
  C  C27  1  0.80876515  0.95156398  0.42890155  1
  C  C28  1  0.26507822  0.53171031  0.36224269  1
  C  C29  1  0.73492178  0.46828969  0.63775731  1
  C  C30  1  0.72438678  0.09583221  0.20518391  1
  C  C31  1  0.27561322  0.90416779  0.79481609  1
  C  C32  1  0.00838250  0.18721930  0.71750827  1
  C  C33  1  0.99161750  0.81278070  0.28249173  1
  N  N34  1  0.03840559  0.19029623  0.59425251  1
  N  N35  1  0.96159441  0.80970377  0.40574749  1
  N  N36  1  0.22330070  0.04747595  0.45929300  1
  N  N37  1  0.77669930  0.95252405  0.54070700  1
  N  N38  1  0.69604721  0.09038547  0.32707819  1
  N  N39  1  0.30395279  0.90961453  0.67292181  1
  N  N40  1  0.13752401  0.67376144  0.26488903  1
  N  N41  1  0.86247599  0.32623856  0.73511097  1
  N  N42  1  0.23334837  0.53108636  0.48311393  1
  N  N43  1  0.76665163  0.46891364  0.51688607  1
  N  N44  1  0.05672843  0.65934385  0.62217100  1
  N  N45  1  0.94327157  0.34065615  0.37782900  1
  N  N46  1  0.12388232  0.04562464  0.81319370  1
  N  N47  1  0.87611768  0.95437536  0.18680630  1
  O  O48  1  0.48575636  0.21015761  0.65668300  1
  O  O49  1  0.51424364  0.78984239  0.34331700  1
  O  O50  1  0.30766206  0.01074392  0.07397817  1
  O  O51  1  0.69233794  0.98925608  0.92602183  1
  O  O52  1  0.40812520  0.40235277  0.34921340  1
  O  O53  1  0.59187480  0.59764723  0.65078660  1
  O  O54  1  0.12151502  0.60757642  0.04238301  1
  O  O55  1  0.87848498  0.39242358  0.95761699  1
  O  O56  1  0.60952742  0.23033126  0.11840237  1
  O  O57  1  0.39047258  0.76966874  0.88159763  1
  O  O58  1  0.13323432  0.20056039  0.25216880  1
  O  O59  1  0.86676568  0.79943961  0.74783120  1
  O  O60  1  0.67024191  0.59276620  0.14890435  1
  O  O61  1  0.32975809  0.40723380  0.85109565  1
