# generated using pymatgen
data_Cr7Te8
_symmetry_space_group_name_H-M   'P 1'
_cell_length_a   7.47226495
_cell_length_b   7.47226495
_cell_length_c   8.16642481
_cell_angle_alpha   105.51777612
_cell_angle_beta   106.17962728
_cell_angle_gamma   113.77044361
_symmetry_Int_Tables_number   1
_chemical_formula_structural   Cr7Te8
_chemical_formula_sum   'Cr7 Te8'
_cell_volume   361.40137134
_cell_formula_units_Z   1
loop_
 _symmetry_equiv_pos_site_id
 _symmetry_equiv_pos_as_xyz
  1  'x, y, z'
loop_
 _atom_site_type_symbol
 _atom_site_label
 _atom_site_symmetry_multiplicity
 _atom_site_fract_x
 _atom_site_fract_y
 _atom_site_fract_z
 _atom_site_occupancy
  Cr  Cr0  1  0.23301695  0.73301695  0.50000000  1
  Cr  Cr1  1  0.76698305  0.26698305  0.50000000  1
  Cr  Cr2  1  -0.00000000  0.00000000  0.50000000  1
  Cr  Cr3  1  0.50000000  0.50000000  0.50000000  1
  Cr  Cr4  1  0.74631290  0.26363357  0.00994647  1
  Cr  Cr5  1  0.25368710  0.73636643  0.99005353  1
  Cr  Cr6  1  -0.00000000  0.00000000  -0.00000000  1
  Te  Te7  1  0.29658678  0.03541261  0.33199939  1
  Te  Te8  1  0.70341322  0.96458739  0.66800061  1
  Te  Te9  1  0.70842991  0.96768128  0.16889942  1
  Te  Te10  1  0.29157009  0.03231872  0.83110058  1
  Te  Te11  1  0.79878186  0.53953049  0.83110058  1
  Te  Te12  1  0.20121814  0.46046951  0.16889942  1
  Te  Te13  1  0.78612149  0.54790442  0.33402591  1
  Te  Te14  1  0.21387851  0.45209558  0.66597409  1
