# generated using pymatgen
data_LiTiFeF6
_symmetry_space_group_name_H-M   'P 1'
_cell_length_a   4.59876247
_cell_length_b   8.98125360
_cell_length_c   8.98125360
_cell_angle_alpha   119.99999985
_cell_angle_beta   90.00000000
_cell_angle_gamma   90.00000000
_symmetry_Int_Tables_number   1
_chemical_formula_structural   LiTiFeF6
_chemical_formula_sum   'Li3 Ti3 Fe3 F18'
_cell_volume   321.25177057
_cell_formula_units_Z   3
loop_
 _symmetry_equiv_pos_site_id
 _symmetry_equiv_pos_as_xyz
  1  'x, y, z'
loop_
 _atom_site_type_symbol
 _atom_site_label
 _atom_site_symmetry_multiplicity
 _atom_site_fract_x
 _atom_site_fract_y
 _atom_site_fract_z
 _atom_site_occupancy
  Li  Li0  1  0.50000000  0.30591267  0.30591267  1
  Li  Li1  1  0.50000000  0.00000000  0.69408733  1
  Li  Li2  1  0.50000000  0.69408733  0.00000000  1
  Ti  Ti3  1  0.00000000  0.64794748  0.64794748  1
  Ti  Ti4  1  0.00000000  1.00000000  0.35205252  1
  Ti  Ti5  1  0.00000000  0.35205252  1.00000000  1
  Fe  Fe6  1  0.00000000  -0.00000000  -0.00000000  1
  Fe  Fe7  1  0.51047679  0.66666700  0.33333300  1
  Fe  Fe8  1  0.48952321  0.33333300  0.66666700  1
  F  F9  1  0.74293277  0.89554594  0.45922228  1
  F  F10  1  0.74293277  0.56367634  0.10445406  1
  F  F11  1  0.25706723  0.43632366  0.54077772  1
  F  F12  1  0.74293277  0.54077772  0.43632366  1
  F  F13  1  0.25706723  0.45922228  0.89554594  1
  F  F14  1  0.25706723  0.10445406  0.56367634  1
  F  F15  1  0.77169999  0.89451944  0.12739731  1
  F  F16  1  0.77169999  0.23287787  0.10548056  1
  F  F17  1  0.22830001  0.76712213  0.87260269  1
  F  F18  1  0.77169999  0.87260269  0.76712213  1
  F  F19  1  0.22830001  0.12739731  0.89451944  1
  F  F20  1  0.22830001  0.10548056  0.23287787  1
  F  F21  1  0.74275377  0.55889101  0.75968993  1
  F  F22  1  0.74275377  0.20079892  0.44110899  1
  F  F23  1  0.25724623  0.79920108  0.24031007  1
  F  F24  1  0.74275377  0.24031007  0.79920108  1
  F  F25  1  0.25724623  0.75968993  0.55889101  1
  F  F26  1  0.25724623  0.44110899  0.20079892  1
