# generated using pymatgen
data_LiCo2OF3
_symmetry_space_group_name_H-M   'P 1'
_cell_length_a   6.00398499
_cell_length_b   6.21682909
_cell_length_c   6.00398499
_cell_angle_alpha   61.12622518
_cell_angle_beta   60.00000000
_cell_angle_gamma   61.12622518
_symmetry_Int_Tables_number   1
_chemical_formula_structural   LiCo2OF3
_chemical_formula_sum   'Li2 Co4 O2 F6'
_cell_volume   161.10908239
_cell_formula_units_Z   2
loop_
 _symmetry_equiv_pos_site_id
 _symmetry_equiv_pos_as_xyz
  1  'x, y, z'
loop_
 _atom_site_type_symbol
 _atom_site_label
 _atom_site_symmetry_multiplicity
 _atom_site_fract_x
 _atom_site_fract_y
 _atom_site_fract_z
 _atom_site_occupancy
  Li  Li0  1  0.97841371  0.06475987  0.97841371  1
  Li  Li1  1  0.27158629  0.18524013  0.27158629  1
  Co  Co2  1  0.62500000  0.62500000  0.12500000  1
  Co  Co3  1  0.62500000  0.12500000  0.62500000  1
  Co  Co4  1  0.12500000  0.62500000  0.62500000  1
  Co  Co5  1  0.62500000  0.62500000  0.62500000  1
  O  O6  1  0.85119259  0.44642322  0.85119259  1
  O  O7  1  0.39880741  0.80357678  0.39880741  1
  F  F8  1  0.38610803  0.35399094  0.38610803  1
  F  F9  1  0.87379399  0.35399094  0.38610803  1
  F  F10  1  0.86389197  0.89600906  0.37620601  1
  F  F11  1  0.38610803  0.35399094  0.87379399  1
  F  F12  1  0.37620601  0.89600906  0.86389197  1
  F  F13  1  0.86389197  0.89600906  0.86389197  1
