# generated using pymatgen
data_PH17C4S2(N2O)4
_symmetry_space_group_name_H-M   'P 1'
_cell_length_a   7.67571023
_cell_length_b   8.09828569
_cell_length_c   13.62227109
_cell_angle_alpha   71.01202488
_cell_angle_beta   73.42238662
_cell_angle_gamma   86.07515908
_symmetry_Int_Tables_number   1
_chemical_formula_structural   PH17C4S2(N2O)4
_chemical_formula_sum   'P2 H34 C8 S4 N16 O8'
_cell_volume   767.12764179
_cell_formula_units_Z   2
loop_
 _symmetry_equiv_pos_site_id
 _symmetry_equiv_pos_as_xyz
  1  'x, y, z'
loop_
 _atom_site_type_symbol
 _atom_site_label
 _atom_site_symmetry_multiplicity
 _atom_site_fract_x
 _atom_site_fract_y
 _atom_site_fract_z
 _atom_site_occupancy
  P  P0  1  0.63913367  0.35446512  0.34794218  1
  P  P1  1  0.36086633  0.64553488  0.65205782  1
  H  H2  1  0.96331326  0.16232988  0.10990419  1
  H  H3  1  0.03668674  0.83767012  0.89009581  1
  H  H4  1  0.55104270  0.65614340  0.19914203  1
  H  H5  1  0.44895730  0.34385660  0.80085797  1
  H  H6  1  0.23476405  0.34816803  0.35057740  1
  H  H7  1  0.76523595  0.65183197  0.64942260  1
  H  H8  1  0.47468571  0.84016331  0.11087373  1
  H  H9  1  0.52531429  0.15983669  0.88912627  1
  H  H10  1  0.19340228  0.31074665  0.64581260  1
  H  H11  1  0.80659772  0.68925335  0.35418740  1
  H  H12  1  0.28734735  0.55139225  0.05661598  1
  H  H13  1  0.71265265  0.44860775  0.94338402  1
  H  H14  1  0.56883024  0.36222606  0.45464348  1
  H  H15  1  0.43116976  0.63777394  0.54535652  1
  H  H16  1  0.15863333  0.39058631  0.82744764  1
  H  H17  1  0.84136667  0.60941369  0.17255236  1
  H  H18  1  0.00314248  0.33789741  0.35204729  1
  H  H19  1  0.99685752  0.66210259  0.64795271  1
  H  H20  1  0.27578717  0.10400451  0.63461948  1
  H  H21  1  0.72421283  0.89599549  0.36538052  1
  H  H22  1  0.43487809  0.24488208  0.12368934  1
  H  H23  1  0.56512191  0.75511792  0.87631066  1
  H  H24  1  0.49696544  0.36373578  0.18353524  1
  H  H25  1  0.50303456  0.63626422  0.81646476  1
  H  H26  1  0.41836231  0.10041027  0.36132446  1
  H  H27  1  0.58163769  0.89958973  0.63867554  1
  H  H28  1  0.68658294  0.09223534  0.63822791  1
  H  H29  1  0.31341706  0.90776466  0.36177209  1
  H  H30  1  0.10041173  0.51375638  0.17322898  1
  H  H31  1  0.89958827  0.48624362  0.82677102  1
  H  H32  1  0.87926182  0.08987148  0.36231423  1
  H  H33  1  0.12073818  0.91012852  0.63768577  1
  H  H34  1  0.74283252  0.26029727  0.10436650  1
  H  H35  1  0.25716748  0.73970273  0.89563350  1
  C  C36  1  0.14840304  0.11075834  0.36056697  1
  C  C37  1  0.85159696  0.88924166  0.63943303  1
  C  C38  1  0.00699030  0.14805913  0.64105038  1
  C  C39  1  0.99300970  0.85194087  0.35894962  1
  C  C40  1  0.26028000  0.20843771  0.94514204  1
  C  C41  1  0.73972000  0.79156229  0.05485796  1
  C  C42  1  0.05261873  0.67541048  0.03436838  1
  C  C43  1  0.94738127  0.32458952  0.96563162  1
  S  S44  1  0.23443531  0.06268484  0.07085910  1
  S  S45  1  0.76556469  0.93731516  0.92914090  1
  S  S46  1  0.16479361  0.71192811  0.35064953  1
  S  S47  1  0.83520639  0.28807189  0.64935047  1
  N  N48  1  0.12397372  0.30972901  0.90986150  1
  N  N49  1  0.87602628  0.69027099  0.09013850  1
  N  N50  1  0.17467514  0.19263484  0.63742341  1
  N  N51  1  0.82532486  0.80736516  0.36257659  1
  N  N52  1  0.30754929  0.03592839  0.36182982  1
  N  N53  1  0.69245071  0.96407161  0.63817018  1
  N  N54  1  0.15518812  0.57154917  0.09249069  1
  N  N55  1  0.84481188  0.42845083  0.90750931  1
  N  N56  1  0.12341945  0.27609801  0.35842723  1
  N  N57  1  0.87658055  0.72390199  0.64157277  1
  N  N58  1  0.58025080  0.76622943  0.13091670  1
  N  N59  1  0.41974920  0.23377057  0.86908330  1
  N  N60  1  0.00241973  0.02016046  0.36257464  1
  N  N61  1  0.99758027  0.97983954  0.63742536  1
  N  N62  1  0.87990456  0.24611204  0.07054467  1
  N  N63  1  0.12009544  0.75388796  0.92945533  1
  O  O64  1  0.67815159  0.16182993  0.35718832  1
  O  O65  1  0.32184841  0.83817007  0.64281168  1
  O  O66  1  0.18787449  0.52552721  0.70252350  1
  O  O67  1  0.81212551  0.47447279  0.29747650  1
  O  O68  1  0.51729676  0.34059081  0.11270010  1
  O  O69  1  0.48270324  0.65940919  0.88729990  1
  O  O70  1  0.48930288  0.42436766  0.29046385  1
  O  O71  1  0.51069712  0.57563234  0.70953615  1
