# generated using pymatgen
data_HCSN
_symmetry_space_group_name_H-M   'P 1'
_cell_length_a   7.87024305
_cell_length_b   9.03143698
_cell_length_c   11.57985361
_cell_angle_alpha   78.46873365
_cell_angle_beta   76.67644769
_cell_angle_gamma   78.65339490
_symmetry_Int_Tables_number   1
_chemical_formula_structural   HCSN
_chemical_formula_sum   'H12 C12 S12 N12'
_cell_volume   774.90930292
_cell_formula_units_Z   12
loop_
 _symmetry_equiv_pos_site_id
 _symmetry_equiv_pos_as_xyz
  1  'x, y, z'
loop_
 _atom_site_type_symbol
 _atom_site_label
 _atom_site_symmetry_multiplicity
 _atom_site_fract_x
 _atom_site_fract_y
 _atom_site_fract_z
 _atom_site_occupancy
  H  H0  1  0.73298716  0.52049559  0.14963475  1
  H  H1  1  0.26701284  0.47950441  0.85036525  1
  H  H2  1  0.23116654  0.34397230  0.30155347  1
  H  H3  1  0.76883346  0.65602770  0.69844653  1
  H  H4  1  0.74752763  0.06305644  0.15251534  1
  H  H5  1  0.25247237  0.93694356  0.84748466  1
  H  H6  1  0.25028810  0.04000175  0.61364780  1
  H  H7  1  0.74971190  0.95999825  0.38635220  1
  H  H8  1  0.26967757  0.49270722  0.60411838  1
  H  H9  1  0.73032243  0.50729278  0.39588162  1
  H  H10  1  0.23425670  0.63769453  0.16378907  1
  H  H11  1  0.76574330  0.36230547  0.83621093  1
  C  C12  1  0.25560224  0.26198952  0.63096813  1
  C  C13  1  0.74439776  0.73801048  0.36903187  1
  C  C14  1  0.24613519  0.44269238  0.44329841  1
  C  C15  1  0.75386481  0.55730762  0.55670159  1
  C  C16  1  0.24245303  0.80751175  0.01522922  1
  C  C17  1  0.75754697  0.19248825  0.98477078  1
  C  C18  1  0.25034971  0.53462791  0.01741531  1
  C  C19  1  0.74965029  0.46537209  0.98258469  1
  C  C20  1  0.73986401  0.28658851  0.17257096  1
  C  C21  1  0.26013599  0.71341149  0.82742904  1
  C  C22  1  0.24112273  0.17128068  0.44772653  1
  C  C23  1  0.75887727  0.82871932  0.55227347  1
  S  S24  1  0.26558759  0.22711020  0.77541050  1
  S  S25  1  0.73441241  0.77288980  0.22458950  1
  S  S26  1  0.24380743  0.03112685  0.37620535  1
  S  S27  1  0.75619257  0.96887315  0.62379465  1
  S  S28  1  0.24885309  0.61952698  0.36897868  1
  S  S29  1  0.75114691  0.38047302  0.63102132  1
  S  S30  1  0.23268812  0.94828801  0.08763248  1
  S  S31  1  0.76731188  0.05171199  0.91236752  1
  S  S32  1  0.73332631  0.25314702  0.31973350  1
  S  S33  1  0.26667369  0.74685298  0.68026650  1
  S  S34  1  0.24857341  0.35743602  0.09115903  1
  S  S35  1  0.75142659  0.64256398  0.90884097  1
  N  N36  1  0.24665949  0.15040313  0.56855154  1
  N  N37  1  0.75334051  0.84959687  0.43144846  1
  N  N38  1  0.74773834  0.17322903  0.10773973  1
  N  N39  1  0.25226166  0.82677097  0.89226027  1
  N  N40  1  0.23424086  0.32210666  0.39211818  1
  N  N41  1  0.76575914  0.67789334  0.60788182  1
  N  N42  1  0.24154613  0.65765009  0.07178909  1
  N  N43  1  0.75845387  0.34234991  0.92821091  1
  N  N44  1  0.25736652  0.40571688  0.56299040  1
  N  N45  1  0.74263348  0.59428312  0.43700960  1
  N  N46  1  0.73932089  0.43082054  0.10546040  1
  N  N47  1  0.26067911  0.56917946  0.89453960  1
