# generated using pymatgen
data_CoAsO4
_symmetry_space_group_name_H-M   'P 1'
_cell_length_a   4.95108184
_cell_length_b   5.89093057
_cell_length_c   10.42176929
_cell_angle_alpha   90.00000000
_cell_angle_beta   90.00000000
_cell_angle_gamma   90.00000000
_symmetry_Int_Tables_number   1
_chemical_formula_structural   CoAsO4
_chemical_formula_sum   'Co4 As4 O16'
_cell_volume   303.96631895
_cell_formula_units_Z   4
loop_
 _symmetry_equiv_pos_site_id
 _symmetry_equiv_pos_as_xyz
  1  'x, y, z'
loop_
 _atom_site_type_symbol
 _atom_site_label
 _atom_site_symmetry_multiplicity
 _atom_site_fract_x
 _atom_site_fract_y
 _atom_site_fract_z
 _atom_site_occupancy
  Co  Co0  1  0.42864366  0.75000000  0.72020519  1
  Co  Co1  1  0.57135634  0.25000000  0.27979481  1
  Co  Co2  1  0.92864366  0.25000000  0.77979481  1
  Co  Co3  1  0.07135634  0.75000000  0.22020519  1
  As  As4  1  0.90986702  0.75000000  0.90766776  1
  As  As5  1  0.09013298  0.25000000  0.09233224  1
  As  As6  1  0.40986702  0.25000000  0.59233224  1
  As  As7  1  0.59013298  0.75000000  0.40766776  1
  O  O8  1  0.66021000  0.75000000  0.56705196  1
  O  O9  1  0.33979000  0.25000000  0.43294804  1
  O  O10  1  0.16021000  0.25000000  0.93294804  1
  O  O11  1  0.83979000  0.75000000  0.06705196  1
  O  O12  1  0.74321142  0.96988264  0.82517690  1
  O  O13  1  0.25678858  0.03011736  0.17482310  1
  O  O14  1  0.24321142  0.03011736  0.67482310  1
  O  O15  1  0.25678858  0.46988264  0.17482310  1
  O  O16  1  0.75678858  0.96988264  0.32517690  1
  O  O17  1  0.74321142  0.53011736  0.82517690  1
  O  O18  1  0.75678858  0.53011736  0.32517690  1
  O  O19  1  0.24321142  0.46988264  0.67482310  1
  O  O20  1  0.25098235  0.75000000  0.88418709  1
  O  O21  1  0.74901765  0.25000000  0.11581291  1
  O  O22  1  0.75098235  0.25000000  0.61581291  1
  O  O23  1  0.24901765  0.75000000  0.38418709  1
