# generated using pymatgen
data_La13Al12Si18(N2O)18
_symmetry_space_group_name_H-M   'P 1'
_cell_length_a   11.73583967
_cell_length_b   11.73583967
_cell_length_c   11.73583967
_cell_angle_alpha   109.47122063
_cell_angle_beta   109.47122063
_cell_angle_gamma   109.47122063
_symmetry_Int_Tables_number   1
_chemical_formula_structural   La13Al12Si18(N2O)18
_chemical_formula_sum   'La13 Al12 Si18 N36 O18'
_cell_volume   1244.28713806
_cell_formula_units_Z   1
loop_
 _symmetry_equiv_pos_site_id
 _symmetry_equiv_pos_as_xyz
  1  'x, y, z'
loop_
 _atom_site_type_symbol
 _atom_site_label
 _atom_site_symmetry_multiplicity
 _atom_site_fract_x
 _atom_site_fract_y
 _atom_site_fract_z
 _atom_site_occupancy
  La  La0  1  0.74922156  0.42440554  0.42440554  1
  La  La1  1  0.25077844  0.67518398  0.67518398  1
  La  La2  1  0.00000000  0.57559446  0.32481602  1
  La  La3  1  0.42440554  0.42440554  0.74922156  1
  La  La4  1  0.00000000  0.32481602  0.57559446  1
  La  La5  1  0.67518398  0.67518398  0.25077844  1
  La  La6  1  0.57559446  0.32481602  -0.00000000  1
  La  La7  1  0.32481602  0.57559446  0.00000000  1
  La  La8  1  0.42440554  0.74922156  0.42440554  1
  La  La9  1  0.32481602  0.00000000  0.57559446  1
  La  La10  1  0.57559446  0.00000000  0.32481602  1
  La  La11  1  0.67518398  0.25077844  0.67518398  1
  La  La12  1  0.00000000  0.00000000  0.00000000  1
  Al  Al13  1  0.59227139  0.75411784  0.75411784  1
  Al  Al14  1  0.40772861  0.16184644  0.16184644  1
  Al  Al15  1  0.00000000  0.24588216  0.83815356  1
  Al  Al16  1  0.75411784  0.75411784  0.59227139  1
  Al  Al17  1  -0.00000000  0.83815356  0.24588216  1
  Al  Al18  1  0.16184644  0.16184644  0.40772861  1
  Al  Al19  1  0.24588216  0.83815356  -0.00000000  1
  Al  Al20  1  0.83815356  0.24588216  0.00000000  1
  Al  Al21  1  0.75411784  0.59227139  0.75411784  1
  Al  Al22  1  0.83815356  0.00000000  0.24588216  1
  Al  Al23  1  0.24588216  -0.00000000  0.83815356  1
  Al  Al24  1  0.16184644  0.40772861  0.16184644  1
  Si  Si25  1  0.70123492  0.70123492  0.00000000  1
  Si  Si26  1  0.29876508  0.29876508  0.00000000  1
  Si  Si27  1  0.70123492  0.00000000  0.70123492  1
  Si  Si28  1  0.29876508  0.00000000  0.29876508  1
  Si  Si29  1  0.00000000  0.70123492  0.70123492  1
  Si  Si30  1  0.00000000  0.29876508  0.29876508  1
  Si  Si31  1  0.30061279  0.45974204  0.45974204  1
  Si  Si32  1  0.69938721  0.15912925  0.15912925  1
  Si  Si33  1  -0.00000000  0.54025796  0.84087075  1
  Si  Si34  1  0.45974204  0.45974204  0.30061279  1
  Si  Si35  1  -0.00000000  0.84087075  0.54025796  1
  Si  Si36  1  0.15912925  0.15912925  0.69938721  1
  Si  Si37  1  0.54025796  0.84087075  0.00000000  1
  Si  Si38  1  0.84087075  0.54025796  0.00000000  1
  Si  Si39  1  0.45974204  0.30061279  0.45974204  1
  Si  Si40  1  0.84087075  0.00000000  0.54025796  1
  Si  Si41  1  0.54025796  0.00000000  0.84087075  1
  Si  Si42  1  0.15912925  0.69938721  0.15912925  1
  N  N43  1  0.14604878  0.44833425  0.44833425  1
  N  N44  1  0.85395122  0.30228547  0.30228547  1
  N  N45  1  -0.00000000  0.55166575  0.69771453  1
  N  N46  1  0.44833425  0.44833425  0.14604878  1
  N  N47  1  0.00000000  0.69771453  0.55166575  1
  N  N48  1  0.30228547  0.30228547  0.85395122  1
  N  N49  1  0.55166575  0.69771453  0.00000000  1
  N  N50  1  0.69771453  0.55166575  -0.00000000  1
  N  N51  1  0.44833425  0.14604878  0.44833425  1
  N  N52  1  0.69771453  0.00000000  0.55166575  1
  N  N53  1  0.55166575  -0.00000000  0.69771453  1
  N  N54  1  0.30228547  0.85395122  0.30228547  1
  N  N55  1  0.47627401  0.32625979  0.32625979  1
  N  N56  1  0.52372599  0.84998577  0.84998577  1
  N  N57  1  0.00000000  0.67374021  0.15001423  1
  N  N58  1  0.32625979  0.32625979  0.47627401  1
  N  N59  1  0.00000000  0.15001423  0.67374021  1
  N  N60  1  0.84998577  0.84998577  0.52372599  1
  N  N61  1  0.67374021  0.15001423  0.00000000  1
  N  N62  1  0.15001423  0.67374021  0.00000000  1
  N  N63  1  0.32625979  0.47627401  0.32625979  1
  N  N64  1  0.15001423  0.00000000  0.67374021  1
  N  N65  1  0.67374021  0.00000000  0.15001423  1
  N  N66  1  0.84998577  0.52372599  0.84998577  1
  N  N67  1  0.84499190  0.68737414  0.68737414  1
  N  N68  1  0.15500810  0.84238224  0.84238224  1
  N  N69  1  0.00000000  0.31262586  0.15761776  1
  N  N70  1  0.68737414  0.68737414  0.84499190  1
  N  N71  1  0.00000000  0.15761776  0.31262586  1
  N  N72  1  0.84238224  0.84238224  0.15500810  1
  N  N73  1  0.31262586  0.15761776  0.00000000  1
  N  N74  1  0.15761776  0.31262586  -0.00000000  1
  N  N75  1  0.68737414  0.84499190  0.68737414  1
  N  N76  1  0.15761776  -0.00000000  0.31262586  1
  N  N77  1  0.31262586  0.00000000  0.15761776  1
  N  N78  1  0.84238224  0.15500810  0.84238224  1
  O  O79  1  0.42376622  0.60818410  0.60818410  1
  O  O80  1  0.57623378  0.18441787  0.18441787  1
  O  O81  1  0.00000000  0.39181590  0.81558213  1
  O  O82  1  0.60818410  0.60818410  0.42376622  1
  O  O83  1  -0.00000000  0.81558213  0.39181590  1
  O  O84  1  0.18441787  0.18441787  0.57623378  1
  O  O85  1  0.39181590  0.81558213  -0.00000000  1
  O  O86  1  0.81558213  0.39181590  -0.00000000  1
  O  O87  1  0.60818410  0.42376622  0.60818410  1
  O  O88  1  0.81558213  0.00000000  0.39181590  1
  O  O89  1  0.39181590  0.00000000  0.81558213  1
  O  O90  1  0.18441787  0.57623378  0.18441787  1
  O  O91  1  0.25000000  0.75000000  0.50000000  1
  O  O92  1  0.75000000  0.25000000  0.50000000  1
  O  O93  1  0.75000000  0.50000000  0.25000000  1
  O  O94  1  0.25000000  0.50000000  0.75000000  1
  O  O95  1  0.50000000  0.25000000  0.75000000  1
  O  O96  1  0.50000000  0.75000000  0.25000000  1
