# generated using pymatgen
data_CsYbZnTe3
_symmetry_space_group_name_H-M   'P 1'
_cell_length_a   4.32252806
_cell_length_b   9.15577971
_cell_length_c   11.83300597
_cell_angle_alpha   90.00000000
_cell_angle_beta   90.00000000
_cell_angle_gamma   103.65379670
_symmetry_Int_Tables_number   1
_chemical_formula_structural   CsYbZnTe3
_chemical_formula_sum   'Cs2 Yb2 Zn2 Te6'
_cell_volume   455.07002125
_cell_formula_units_Z   2
loop_
 _symmetry_equiv_pos_site_id
 _symmetry_equiv_pos_as_xyz
  1  'x, y, z'
loop_
 _atom_site_type_symbol
 _atom_site_label
 _atom_site_symmetry_multiplicity
 _atom_site_fract_x
 _atom_site_fract_y
 _atom_site_fract_z
 _atom_site_occupancy
  Cs  Cs0  1  0.74372498  0.48744997  0.25000000  1
  Cs  Cs1  1  0.25627502  0.51255003  0.75000000  1
  Yb  Yb2  1  -0.00000000  -0.00000000  -0.00000000  1
  Yb  Yb3  1  -0.00000000  -0.00000000  0.50000000  1
  Zn  Zn4  1  0.46225105  0.92450210  0.25000000  1
  Zn  Zn5  1  0.53774895  0.07549790  0.75000000  1
  Te  Te6  1  0.37869247  0.75738493  0.06294892  1
  Te  Te7  1  0.62130753  0.24261507  0.93705108  1
  Te  Te8  1  0.62130753  0.24261507  0.56294892  1
  Te  Te9  1  0.37869247  0.75738493  0.43705108  1
  Te  Te10  1  0.05734054  0.11468108  0.25000000  1
  Te  Te11  1  0.94265946  0.88531892  0.75000000  1
