# generated using pymatgen
data_CeLuO3
_symmetry_space_group_name_H-M   'P 1'
_cell_length_a   5.77030278
_cell_length_b   5.98980218
_cell_length_c   8.34453761
_cell_angle_alpha   90.00000000
_cell_angle_beta   90.00000000
_cell_angle_gamma   90.00000000
_symmetry_Int_Tables_number   1
_chemical_formula_structural   CeLuO3
_chemical_formula_sum   'Ce4 Lu4 O12'
_cell_volume   288.41202119
_cell_formula_units_Z   4
loop_
 _symmetry_equiv_pos_site_id
 _symmetry_equiv_pos_as_xyz
  1  'x, y, z'
loop_
 _atom_site_type_symbol
 _atom_site_label
 _atom_site_symmetry_multiplicity
 _atom_site_fract_x
 _atom_site_fract_y
 _atom_site_fract_z
 _atom_site_occupancy
  Ce  Ce0  1  0.01310484  0.44526378  0.25000000  1
  Ce  Ce1  1  0.98689516  0.55473622  0.75000000  1
  Ce  Ce2  1  0.51310484  0.05473622  0.75000000  1
  Ce  Ce3  1  0.48689516  0.94526378  0.25000000  1
  Lu  Lu4  1  0.00000000  0.00000000  0.00000000  1
  Lu  Lu5  1  0.50000000  0.50000000  0.00000000  1
  Lu  Lu6  1  -0.00000000  0.00000000  0.50000000  1
  Lu  Lu7  1  0.50000000  0.50000000  0.50000000  1
  O  O8  1  0.31286126  0.18906511  0.06467256  1
  O  O9  1  0.68713874  0.81093489  0.93532744  1
  O  O10  1  0.81286126  0.31093489  0.93532744  1
  O  O11  1  0.68713874  0.81093489  0.56467256  1
  O  O12  1  0.18713874  0.68906511  0.06467256  1
  O  O13  1  0.31286126  0.18906511  0.43532744  1
  O  O14  1  0.18713874  0.68906511  0.43532744  1
  O  O15  1  0.81286126  0.31093489  0.56467256  1
  O  O16  1  0.62453755  0.55202936  0.25000000  1
  O  O17  1  0.37546245  0.44797064  0.75000000  1
  O  O18  1  0.12453755  0.94797064  0.75000000  1
  O  O19  1  0.87546245  0.05202936  0.25000000  1
