# generated using pymatgen
data_CoCu2GeSe4
_symmetry_space_group_name_H-M   'P 1'
_cell_length_a   6.52053118
_cell_length_b   6.79781527
_cell_length_c   7.85357579
_cell_angle_alpha   90.00000000
_cell_angle_beta   90.00000000
_cell_angle_gamma   90.00000000
_symmetry_Int_Tables_number   1
_chemical_formula_structural   CoCu2GeSe4
_chemical_formula_sum   'Co2 Cu4 Ge2 Se8'
_cell_volume   348.11262463
_cell_formula_units_Z   2
loop_
 _symmetry_equiv_pos_site_id
 _symmetry_equiv_pos_as_xyz
  1  'x, y, z'
loop_
 _atom_site_type_symbol
 _atom_site_label
 _atom_site_symmetry_multiplicity
 _atom_site_fract_x
 _atom_site_fract_y
 _atom_site_fract_z
 _atom_site_occupancy
  Co  Co0  1  0.50582893  0.33905160  0.00000000  1
  Co  Co1  1  0.00582893  0.66094840  0.50000000  1
  Cu  Cu2  1  0.51291190  0.82572230  0.75072048  1
  Cu  Cu3  1  0.01291190  0.17427770  0.74927952  1
  Cu  Cu4  1  0.01291190  0.17427770  0.25072048  1
  Cu  Cu5  1  0.51291190  0.82572230  0.24927952  1
  Ge  Ge6  1  0.00286657  0.66865761  0.00000000  1
  Ge  Ge7  1  0.50286657  0.33134239  0.50000000  1
  Se  Se8  1  0.87196205  0.33215127  0.00000000  1
  Se  Se9  1  0.37196205  0.66784873  0.50000000  1
  Se  Se10  1  0.88249924  0.83916059  0.74104826  1
  Se  Se11  1  0.38249924  0.16083941  0.75895174  1
  Se  Se12  1  0.38249924  0.16083941  0.24104826  1
  Se  Se13  1  0.88249924  0.83916059  0.25895174  1
  Se  Se14  1  0.38102017  0.66455251  0.00000000  1
  Se  Se15  1  0.88102017  0.33544749  0.50000000  1
