# generated using pymatgen
data_Li4Nb3Ni3(SbO8)2
_symmetry_space_group_name_H-M   'P 1'
_cell_length_a   6.14887281
_cell_length_b   6.09854902
_cell_length_c   10.15668556
_cell_angle_alpha   90.00300585
_cell_angle_beta   90.03659663
_cell_angle_gamma   119.72459856
_symmetry_Int_Tables_number   1
_chemical_formula_structural   Li4Nb3Ni3(SbO8)2
_chemical_formula_sum   'Li4 Nb3 Ni3 Sb2 O16'
_cell_volume   330.75246204
_cell_formula_units_Z   1
loop_
 _symmetry_equiv_pos_site_id
 _symmetry_equiv_pos_as_xyz
  1  'x, y, z'
loop_
 _atom_site_type_symbol
 _atom_site_label
 _atom_site_symmetry_multiplicity
 _atom_site_fract_x
 _atom_site_fract_y
 _atom_site_fract_z
 _atom_site_occupancy
  Li  Li0  1  0.32210534  0.66108132  0.88788642  1
  Li  Li1  1  0.98840818  0.99420626  0.98076169  1
  Li  Li2  1  0.99246268  0.99623219  0.50248495  1
  Li  Li3  1  0.66075084  0.33037997  0.40839975  1
  Nb  Nb4  1  0.16696278  0.83314048  0.21849994  1
  Nb  Nb5  1  0.16693894  0.33384724  0.21850577  1
  Nb  Nb6  1  0.35347357  0.17673915  0.71888284  1
  Ni  Ni7  1  0.66092465  0.83048234  0.22189786  1
  Ni  Ni8  1  0.83197963  0.66093415  0.70469379  1
  Ni  Ni9  1  0.83201536  0.17105223  0.70468095  1
  Sb  Sb10  1  0.34721165  0.67360174  0.49942857  1
  Sb  Sb11  1  0.70218929  0.35112990  0.97571034  1
  O  O12  1  0.17273763  0.83926012  0.59195510  1
  O  O13  1  0.03436285  0.51722206  0.34278715  1
  O  O14  1  0.32403934  0.66200938  0.10957451  1
  O  O15  1  0.99775905  0.99894415  0.32250000  1
  O  O16  1  0.00922739  0.00460589  0.79529069  1
  O  O17  1  0.17273843  0.33347427  0.59193933  1
  O  O18  1  0.46648507  0.95846416  0.34662615  1
  O  O19  1  0.46651611  0.50805165  0.34660605  1
  O  O20  1  0.31907266  0.15951827  0.11646701  1
  O  O21  1  0.67301806  0.83648601  0.59194645  1
  O  O22  1  0.49762511  0.47456987  0.83384318  1
  O  O23  1  0.49768551  0.02313583  0.83386410  1
  O  O24  1  0.64493813  0.32244613  0.59958196  1
  O  O25  1  0.86572017  0.70299630  0.10466033  1
  O  O26  1  0.96692085  0.48346841  0.83372550  1
  O  O27  1  0.86572874  0.16282051  0.10463660  1
