# generated using pymatgen
data_ZrTiPt
_symmetry_space_group_name_H-M   'P 1'
_cell_length_a   5.34352345
_cell_length_b   5.46071020
_cell_length_c   8.75225225
_cell_angle_alpha   90.00000000
_cell_angle_beta   90.00000000
_cell_angle_gamma   120.64555636
_symmetry_Int_Tables_number   1
_chemical_formula_structural   ZrTiPt
_chemical_formula_sum   'Zr4 Ti4 Pt4'
_cell_volume   219.71782019
_cell_formula_units_Z   4
loop_
 _symmetry_equiv_pos_site_id
 _symmetry_equiv_pos_as_xyz
  1  'x, y, z'
loop_
 _atom_site_type_symbol
 _atom_site_label
 _atom_site_symmetry_multiplicity
 _atom_site_fract_x
 _atom_site_fract_y
 _atom_site_fract_z
 _atom_site_occupancy
  Zr  Zr0  1  0.64974455  0.32481856  0.56387561  1
  Zr  Zr1  1  0.31804190  0.65899940  0.44889425  1
  Zr  Zr2  1  0.31804190  0.65899940  0.05110575  1
  Zr  Zr3  1  0.64974455  0.32481856  0.93612439  1
  Ti  Ti4  1  0.69906838  0.84957727  0.75000000  1
  Ti  Ti5  1  0.81870878  0.65302832  0.25000000  1
  Ti  Ti6  1  0.81848659  0.16538671  0.25000000  1
  Ti  Ti7  1  0.33855096  0.16936323  0.25000000  1
  Pt  Pt8  1  0.98944633  0.99483743  0.49128917  1
  Pt  Pt9  1  0.98944633  0.99483743  0.00871083  1
  Pt  Pt10  1  0.20539811  0.35688270  0.75000000  1
  Pt  Pt11  1  0.20532160  0.84845097  0.75000000  1
