# generated using pymatgen
data_AgH4C2S2N3
_symmetry_space_group_name_H-M   'P 1'
_cell_length_a   4.51496041
_cell_length_b   8.88639968
_cell_length_c   17.08685402
_cell_angle_alpha   90.00000000
_cell_angle_beta   90.00000000
_cell_angle_gamma   93.84428060
_symmetry_Int_Tables_number   1
_chemical_formula_structural   AgH4C2S2N3
_chemical_formula_sum   'Ag4 H16 C8 S8 N12'
_cell_volume   684.01183013
_cell_formula_units_Z   4
loop_
 _symmetry_equiv_pos_site_id
 _symmetry_equiv_pos_as_xyz
  1  'x, y, z'
loop_
 _atom_site_type_symbol
 _atom_site_label
 _atom_site_symmetry_multiplicity
 _atom_site_fract_x
 _atom_site_fract_y
 _atom_site_fract_z
 _atom_site_occupancy
  Ag  Ag0  1  0.16693928  0.96928403  0.57695536  1
  Ag  Ag1  1  0.83306072  0.03071597  0.42304464  1
  Ag  Ag2  1  0.33306072  0.53071597  0.07695536  1
  Ag  Ag3  1  0.66693928  0.46928403  0.92304464  1
  H  H4  1  0.72856432  0.95746563  0.22452921  1
  H  H5  1  0.27143568  0.04253437  0.77547079  1
  H  H6  1  0.77143568  0.54253437  0.72452921  1
  H  H7  1  0.22856432  0.45746563  0.27547079  1
  H  H8  1  0.90505023  0.72482353  0.75353250  1
  H  H9  1  0.09494977  0.27517647  0.24646750  1
  H  H10  1  0.59494977  0.77517647  0.25353250  1
  H  H11  1  0.40505023  0.22482353  0.74646750  1
  H  H12  1  0.20713155  0.83776101  0.07857165  1
  H  H13  1  0.79286845  0.16223899  0.92142835  1
  H  H14  1  0.29286845  0.66223899  0.57857165  1
  H  H15  1  0.70713155  0.33776101  0.42142835  1
  H  H16  1  0.08002984  0.99341545  0.13008309  1
  H  H17  1  0.91997016  0.00658455  0.86991691  1
  H  H18  1  0.41997016  0.50658455  0.63008309  1
  H  H19  1  0.58002984  0.49341545  0.36991691  1
  C  C20  1  0.90185243  0.78579618  0.16426073  1
  C  C21  1  0.09814757  0.21420382  0.83573927  1
  C  C22  1  0.59814757  0.71420382  0.66426073  1
  C  C23  1  0.40185243  0.28579618  0.33573927  1
  C  C24  1  0.15726595  0.71546861  0.39394724  1
  C  C25  1  0.84273405  0.28453139  0.60605276  1
  C  C26  1  0.34273405  0.78453139  0.89394724  1
  C  C27  1  0.65726595  0.21546861  0.10605276  1
  S  S28  1  0.94487256  0.76170141  0.46750770  1
  S  S29  1  0.05512744  0.23829859  0.53249230  1
  S  S30  1  0.55512744  0.73829859  0.96750770  1
  S  S31  1  0.44487256  0.26170141  0.03249230  1
  S  S32  1  0.87733025  0.59262357  0.14847908  1
  S  S33  1  0.12266975  0.40737643  0.85152092  1
  S  S34  1  0.62266975  0.90737643  0.64847908  1
  S  S35  1  0.37733025  0.09262357  0.35152092  1
  N  N36  1  0.30390404  0.67749502  0.34084596  1
  N  N37  1  0.69609596  0.32250498  0.65915404  1
  N  N38  1  0.19609596  0.82250498  0.84084596  1
  N  N39  1  0.80390404  0.17749502  0.15915404  1
  N  N40  1  0.08604739  0.87929511  0.12296778  1
  N  N41  1  0.91395261  0.12070489  0.87703222  1
  N  N42  1  0.41395261  0.62070489  0.62296778  1
  N  N43  1  0.58604739  0.37929511  0.37703222  1
  N  N44  1  0.76817716  0.65688959  0.71888739  1
  N  N45  1  0.23182284  0.34311041  0.28111261  1
  N  N46  1  0.73182284  0.84311041  0.21888739  1
  N  N47  1  0.26817716  0.15688959  0.78111261  1
