# generated using pymatgen
data_BaCuH12(C2O7)2
_symmetry_space_group_name_H-M   'P 1'
_cell_length_a   9.80000145
_cell_length_b   9.80000145
_cell_length_c   16.15006980
_cell_angle_alpha   81.24622403
_cell_angle_beta   81.24622403
_cell_angle_gamma   66.21744798
_symmetry_Int_Tables_number   1
_chemical_formula_structural   BaCuH12(C2O7)2
_chemical_formula_sum   'Ba4 Cu4 H48 C16 O56'
_cell_volume   1395.71837074
_cell_formula_units_Z   4
loop_
 _symmetry_equiv_pos_site_id
 _symmetry_equiv_pos_as_xyz
  1  'x, y, z'
loop_
 _atom_site_type_symbol
 _atom_site_label
 _atom_site_symmetry_multiplicity
 _atom_site_fract_x
 _atom_site_fract_y
 _atom_site_fract_z
 _atom_site_occupancy
  Ba  Ba0  1  0.60930776  0.67368940  0.79093442  1
  Ba  Ba1  1  0.39069224  0.32631060  0.20906558  1
  Ba  Ba2  1  0.32631060  0.39069224  0.70906558  1
  Ba  Ba3  1  0.67368940  0.60930776  0.29093442  1
  Cu  Cu4  1  0.18241211  0.03127882  0.54340986  1
  Cu  Cu5  1  0.81758789  0.96872118  0.45659014  1
  Cu  Cu6  1  0.96872118  0.81758789  0.95659014  1
  Cu  Cu7  1  0.03127882  0.18241211  0.04340986  1
  H  H8  1  0.62177501  0.88869318  0.93060713  1
  H  H9  1  0.37822499  0.11130682  0.06939287  1
  H  H10  1  0.11130682  0.37822499  0.56939287  1
  H  H11  1  0.88869318  0.62177501  0.43060713  1
  H  H12  1  0.65754747  0.42585348  0.95672992  1
  H  H13  1  0.34245253  0.57414652  0.04327008  1
  H  H14  1  0.57414652  0.34245253  0.54327008  1
  H  H15  1  0.42585348  0.65754747  0.45672992  1
  H  H16  1  0.57925060  0.19876935  0.99101156  1
  H  H17  1  0.42074940  0.80123065  0.00898844  1
  H  H18  1  0.80123065  0.42074940  0.50898844  1
  H  H19  1  0.19876935  0.57925060  0.49101156  1
  H  H20  1  0.47241132  0.99416139  0.89181380  1
  H  H21  1  0.52758868  0.00583861  0.10818620  1
  H  H22  1  0.00583861  0.52758868  0.60818620  1
  H  H23  1  0.99416139  0.47241132  0.39181380  1
  H  H24  1  0.21427940  0.11365559  0.71302402  1
  H  H25  1  0.78572060  0.88634441  0.28697598  1
  H  H26  1  0.88634441  0.78572060  0.78697598  1
  H  H27  1  0.11365559  0.21427940  0.21302402  1
  H  H28  1  0.41991061  0.67344468  0.62832813  1
  H  H29  1  0.58008939  0.32655532  0.37167187  1
  H  H30  1  0.32655532  0.58008939  0.87167187  1
  H  H31  1  0.67344468  0.41991061  0.12832813  1
  H  H32  1  0.52032445  0.21306094  0.54510066  1
  H  H33  1  0.47967555  0.78693906  0.45489934  1
  H  H34  1  0.78693906  0.47967555  0.95489934  1
  H  H35  1  0.21306094  0.52032445  0.04510066  1
  H  H36  1  0.46084289  0.42354670  0.88734119  1
  H  H37  1  0.53915711  0.57645330  0.11265881  1
  H  H38  1  0.57645330  0.53915711  0.61265881  1
  H  H39  1  0.42354670  0.46084289  0.38734119  1
  H  H40  1  0.37542888  0.05329806  0.66385067  1
  H  H41  1  0.62457112  0.94670194  0.33614933  1
  H  H42  1  0.94670194  0.62457112  0.83614933  1
  H  H43  1  0.05329806  0.37542888  0.16385067  1
  H  H44  1  0.69835690  0.11232279  0.72074411  1
  H  H45  1  0.30164310  0.88767721  0.27925589  1
  H  H46  1  0.88767721  0.30164310  0.77925589  1
  H  H47  1  0.11232279  0.69835690  0.22074411  1
  H  H48  1  0.63436493  0.21106277  0.79555556  1
  H  H49  1  0.36563507  0.78893723  0.20444444  1
  H  H50  1  0.78893723  0.36563507  0.70444444  1
  H  H51  1  0.21106277  0.63436493  0.29555556  1
  H  H52  1  0.72787166  0.17683892  0.93161050  1
  H  H53  1  0.27212834  0.82316108  0.06838950  1
  H  H54  1  0.82316108  0.27212834  0.56838950  1
  H  H55  1  0.17683892  0.72787166  0.43161050  1
  C  C56  1  0.64789096  0.90702398  0.59598924  1
  C  C57  1  0.35210904  0.09297602  0.40401076  1
  C  C58  1  0.09297602  0.35210904  0.90401076  1
  C  C59  1  0.90702398  0.64789096  0.09598924  1
  C  C60  1  0.18834700  0.86923832  0.84851098  1
  C  C61  1  0.81165300  0.13076168  0.15148902  1
  C  C62  1  0.13076168  0.81165300  0.65148902  1
  C  C63  1  0.86923832  0.18834700  0.34851098  1
  C  C64  1  0.23599890  0.20804689  0.91512537  1
  C  C65  1  0.76400110  0.79195311  0.08487463  1
  C  C66  1  0.79195311  0.76400110  0.58487463  1
  C  C67  1  0.20804689  0.23599890  0.41512537  1
  C  C68  1  0.04794752  0.01950440  0.84613696  1
  C  C69  1  0.95205248  0.98049560  0.15386304  1
  C  C70  1  0.98049560  0.95205248  0.65386304  1
  C  C71  1  0.01950440  0.04794752  0.34613696  1
  O  O72  1  0.53384000  0.88777741  0.90943406  1
  O  O73  1  0.46616000  0.11222259  0.09056594  1
  O  O74  1  0.11222259  0.46616000  0.59056594  1
  O  O75  1  0.88777741  0.53384000  0.40943406  1
  O  O76  1  0.27661876  0.13897883  0.66410562  1
  O  O77  1  0.72338124  0.86102117  0.33589438  1
  O  O78  1  0.86102117  0.72338124  0.83589438  1
  O  O79  1  0.13897883  0.27661876  0.16410562  1
  O  O80  1  0.22907610  0.11860782  0.98171186  1
  O  O81  1  0.77092390  0.88139218  0.01828814  1
  O  O82  1  0.88139218  0.77092390  0.51828814  1
  O  O83  1  0.11860782  0.22907610  0.48171186  1
  O  O84  1  0.55348844  0.90941155  0.65780454  1
  O  O85  1  0.44651156  0.09058845  0.34219546  1
  O  O86  1  0.09058845  0.44651156  0.84219546  1
  O  O87  1  0.90941155  0.55348844  0.15780454  1
  O  O88  1  0.34755038  0.18503591  0.86194870  1
  O  O89  1  0.65244962  0.81496409  0.13805130  1
  O  O90  1  0.81496409  0.65244962  0.63805130  1
  O  O91  1  0.18503591  0.34755038  0.36194870  1
  O  O92  1  0.67843969  0.51772222  0.94948421  1
  O  O93  1  0.32156031  0.48227778  0.05051579  1
  O  O94  1  0.48227778  0.32156031  0.55051579  1
  O  O95  1  0.51772222  0.67843969  0.44948421  1
  O  O96  1  0.30678717  0.86117899  0.80520370  1
  O  O97  1  0.69321283  0.13882101  0.19479630  1
  O  O98  1  0.13882101  0.69321283  0.69479630  1
  O  O99  1  0.86117899  0.30678717  0.30520370  1
  O  O100  1  0.61373827  0.20215611  0.73988369  1
  O  O101  1  0.38626173  0.79784389  0.26011631  1
  O  O102  1  0.79784389  0.38626173  0.76011631  1
  O  O103  1  0.20215611  0.61373827  0.23988369  1
  O  O104  1  0.49528230  0.58367258  0.65632276  1
  O  O105  1  0.50471770  0.41632742  0.34367724  1
  O  O106  1  0.41632742  0.50471770  0.84367724  1
  O  O107  1  0.58367258  0.49528230  0.15632276  1
  O  O108  1  0.36322392  0.98436109  0.46207422  1
  O  O109  1  0.63677608  0.01563891  0.53792578  1
  O  O110  1  0.01563891  0.63677608  0.03792578  1
  O  O111  1  0.98436109  0.36322392  0.96207422  1
  O  O112  1  0.24051947  0.83094887  0.60212465  1
  O  O113  1  0.75948053  0.16905113  0.39787535  1
  O  O114  1  0.16905113  0.75948053  0.89787535  1
  O  O115  1  0.83094887  0.24051947  0.10212465  1
  O  O116  1  0.87019042  0.94653209  0.70230677  1
  O  O117  1  0.12980958  0.05346791  0.29769323  1
  O  O118  1  0.05346791  0.12980958  0.79769323  1
  O  O119  1  0.94653209  0.87019042  0.20230677  1
  O  O120  1  0.93320473  0.01824197  0.89666167  1
  O  O121  1  0.06679527  0.98175803  0.10333833  1
  O  O122  1  0.98175803  0.06679527  0.60333833  1
  O  O123  1  0.01824197  0.93320473  0.39666167  1
  O  O124  1  0.62534398  0.24970904  0.94482825  1
  O  O125  1  0.37465602  0.75029096  0.05517175  1
  O  O126  1  0.75029096  0.37465602  0.55517175  1
  O  O127  1  0.24970904  0.62534398  0.44482825  1
