# generated using pymatgen
data_Ba2CaSm2Ti3(CuO7)2
_symmetry_space_group_name_H-M   'P 1'
_cell_length_a   3.88624655
_cell_length_b   3.88624655
_cell_length_c   20.78108136
_cell_angle_alpha   90.00000000
_cell_angle_beta   90.00000000
_cell_angle_gamma   90.00000000
_symmetry_Int_Tables_number   1
_chemical_formula_structural   Ba2CaSm2Ti3(CuO7)2
_chemical_formula_sum   'Ba2 Ca1 Sm2 Ti3 Cu2 O14'
_cell_volume   313.85484819
_cell_formula_units_Z   1
loop_
 _symmetry_equiv_pos_site_id
 _symmetry_equiv_pos_as_xyz
  1  'x, y, z'
loop_
 _atom_site_type_symbol
 _atom_site_label
 _atom_site_symmetry_multiplicity
 _atom_site_fract_x
 _atom_site_fract_y
 _atom_site_fract_z
 _atom_site_occupancy
  Ba  Ba0  1  0.50000000  0.50000000  0.33042491  1
  Ba  Ba1  1  0.50000000  0.50000000  0.66957509  1
  Ca  Ca2  1  0.50000000  0.50000000  0.50000000  1
  Sm  Sm3  1  0.50000000  0.50000000  0.10360957  1
  Sm  Sm4  1  0.50000000  0.50000000  0.89639043  1
  Ti  Ti5  1  0.00000000  0.00000000  0.00000000  1
  Ti  Ti6  1  0.00000000  -0.00000000  0.19807272  1
  Ti  Ti7  1  -0.00000000  0.00000000  0.80192728  1
  Cu  Cu8  1  -0.00000000  0.00000000  0.42803915  1
  Cu  Cu9  1  0.00000000  -0.00000000  0.57196085  1
  O  O10  1  -0.00000000  0.50000000  0.17841799  1
  O  O11  1  0.00000000  0.50000000  0.82158201  1
  O  O12  1  0.50000000  0.00000000  0.17841799  1
  O  O13  1  0.50000000  -0.00000000  0.82158201  1
  O  O14  1  0.00000000  -0.00000000  0.28383608  1
  O  O15  1  -0.00000000  0.00000000  0.71616392  1
  O  O16  1  -0.00000000  0.00000000  0.09254151  1
  O  O17  1  0.00000000  -0.00000000  0.90745849  1
  O  O18  1  0.00000000  0.50000000  0.42375220  1
  O  O19  1  -0.00000000  0.50000000  0.57624780  1
  O  O20  1  0.50000000  -0.00000000  0.42375220  1
  O  O21  1  0.50000000  0.00000000  0.57624780  1
  O  O22  1  0.00000000  0.50000000  0.00000000  1
  O  O23  1  0.50000000  0.00000000  0.00000000  1
