# generated using pymatgen
data_ZrVNi
_symmetry_space_group_name_H-M   'P 1'
_cell_length_a   5.01235227
_cell_length_b   5.07886720
_cell_length_c   8.38835610
_cell_angle_alpha   90.00000000
_cell_angle_beta   90.00000000
_cell_angle_gamma   120.42849119
_symmetry_Int_Tables_number   1
_chemical_formula_structural   ZrVNi
_chemical_formula_sum   'Zr4 V4 Ni4'
_cell_volume   184.12998298
_cell_formula_units_Z   4
loop_
 _symmetry_equiv_pos_site_id
 _symmetry_equiv_pos_as_xyz
  1  'x, y, z'
loop_
 _atom_site_type_symbol
 _atom_site_label
 _atom_site_symmetry_multiplicity
 _atom_site_fract_x
 _atom_site_fract_y
 _atom_site_fract_z
 _atom_site_occupancy
  Zr  Zr0  1  0.65194014  0.32595082  0.56858999  1
  Zr  Zr1  1  0.32455121  0.66229810  0.44365489  1
  Zr  Zr2  1  0.32455121  0.66229810  0.05634511  1
  Zr  Zr3  1  0.65194014  0.32595082  0.93141001  1
  V  V4  1  0.68984413  0.84489933  0.75000000  1
  V  V5  1  0.82660651  0.65913688  0.25000000  1
  V  V6  1  0.82659914  0.16745464  0.25000000  1
  V  V7  1  0.34711541  0.17355115  0.25000000  1
  Ni  Ni8  1  0.99405061  0.99704315  0.50481682  1
  Ni  Ni9  1  0.99405061  0.99704315  0.99518318  1
  Ni  Ni10  1  0.18436217  0.34556770  0.75000000  1
  Ni  Ni11  1  0.18438875  0.83880616  0.75000000  1
