# generated using pymatgen
data_B2NCl3
_symmetry_space_group_name_H-M   'P 1'
_cell_length_a   10.06916591
_cell_length_b   10.06916591
_cell_length_c   16.78136576
_cell_angle_alpha   90.00000000
_cell_angle_beta   90.00000000
_cell_angle_gamma   90.00000000
_symmetry_Int_Tables_number   1
_chemical_formula_structural   B2NCl3
_chemical_formula_sum   'B24 N12 Cl36'
_cell_volume   1701.43082544
_cell_formula_units_Z   12
loop_
 _symmetry_equiv_pos_site_id
 _symmetry_equiv_pos_as_xyz
  1  'x, y, z'
loop_
 _atom_site_type_symbol
 _atom_site_label
 _atom_site_symmetry_multiplicity
 _atom_site_fract_x
 _atom_site_fract_y
 _atom_site_fract_z
 _atom_site_occupancy
  B  B0  1  0.20943303  0.20943303  0.00000000  1
  B  B1  1  0.79056697  0.79056697  0.50000000  1
  B  B2  1  0.29056697  0.70943303  0.25000000  1
  B  B3  1  0.70943303  0.29056697  0.75000000  1
  B  B4  1  0.90276220  0.90276220  -0.00000000  1
  B  B5  1  0.09723780  0.09723780  0.50000000  1
  B  B6  1  0.59723780  0.40276220  0.25000000  1
  B  B7  1  0.40276220  0.59723780  0.75000000  1
  B  B8  1  0.01576343  0.10046581  0.06444424  1
  B  B9  1  0.98423657  0.89953419  0.56444424  1
  B  B10  1  0.39953419  0.51576343  0.31444424  1
  B  B11  1  0.48423657  0.60046581  0.18555576  1
  B  B12  1  0.60046581  0.48423657  0.81444424  1
  B  B13  1  0.51576343  0.39953419  0.68555576  1
  B  B14  1  0.10046581  0.01576343  0.93555576  1
  B  B15  1  0.89953419  0.98423657  0.43555576  1
  B  B16  1  0.12566494  0.29491908  0.13332349  1
  B  B17  1  0.87433506  0.70508092  0.63332349  1
  B  B18  1  0.20508092  0.62566494  0.38332349  1
  B  B19  1  0.37433506  0.79491908  0.11667651  1
  B  B20  1  0.79491908  0.37433506  0.88332349  1
  B  B21  1  0.62566494  0.20508092  0.61667651  1
  B  B22  1  0.29491908  0.12566494  0.86667651  1
  B  B23  1  0.70508092  0.87433506  0.36667651  1
  N  N24  1  0.11727659  0.20159396  0.06560745  1
  N  N25  1  0.88272341  0.79840604  0.56560745  1
  N  N26  1  0.29840604  0.61727659  0.31560745  1
  N  N27  1  0.38272341  0.70159396  0.18439255  1
  N  N28  1  0.70159396  0.38272341  0.81560745  1
  N  N29  1  0.61727659  0.29840604  0.68439255  1
  N  N30  1  0.20159396  0.11727659  0.93439255  1
  N  N31  1  0.79840604  0.88272341  0.43439255  1
  N  N32  1  0.00668864  0.00668864  0.00000000  1
  N  N33  1  0.99331136  0.99331136  0.50000000  1
  N  N34  1  0.49331136  0.50668864  0.25000000  1
  N  N35  1  0.50668864  0.49331136  0.75000000  1
  Cl  Cl36  1  0.40731828  0.39793282  0.39274597  1
  Cl  Cl37  1  0.59268172  0.60206718  0.89274597  1
  Cl  Cl38  1  0.10206718  0.90731828  0.64274597  1
  Cl  Cl39  1  0.09268172  0.89793282  0.85725403  1
  Cl  Cl40  1  0.89793282  0.09268172  0.14274597  1
  Cl  Cl41  1  0.90731828  0.10206718  0.35725403  1
  Cl  Cl42  1  0.39793282  0.40731828  0.60725403  1
  Cl  Cl43  1  0.60206718  0.59268172  0.10725403  1
  Cl  Cl44  1  0.06453675  0.45707949  0.12687532  1
  Cl  Cl45  1  0.93546325  0.54292051  0.62687532  1
  Cl  Cl46  1  0.04292051  0.56453675  0.37687532  1
  Cl  Cl47  1  0.43546325  0.95707949  0.12312468  1
  Cl  Cl48  1  0.95707949  0.43546325  0.87687532  1
  Cl  Cl49  1  0.56453675  0.04292051  0.62312468  1
  Cl  Cl50  1  0.45707949  0.06453675  0.87312468  1
  Cl  Cl51  1  0.54292051  0.93546325  0.37312468  1
  Cl  Cl52  1  0.19770097  0.24706488  0.22367279  1
  Cl  Cl53  1  0.80229903  0.75293512  0.72367279  1
  Cl  Cl54  1  0.25293512  0.69770097  0.47367279  1
  Cl  Cl55  1  0.30229903  0.74706488  0.02632721  1
  Cl  Cl56  1  0.74706488  0.30229903  0.97367279  1
  Cl  Cl57  1  0.69770097  0.25293512  0.52632721  1
  Cl  Cl58  1  0.24706488  0.19770097  0.77632721  1
  Cl  Cl59  1  0.75293512  0.80229903  0.27632721  1
  Cl  Cl60  1  0.24843541  0.07414312  0.45083422  1
  Cl  Cl61  1  0.75156459  0.92585688  0.95083422  1
  Cl  Cl62  1  0.42585688  0.74843541  0.70083422  1
  Cl  Cl63  1  0.25156459  0.57414312  0.79916578  1
  Cl  Cl64  1  0.57414312  0.25156459  0.20083422  1
  Cl  Cl65  1  0.74843541  0.42585688  0.29916578  1
  Cl  Cl66  1  0.07414312  0.24843541  0.54916578  1
  Cl  Cl67  1  0.92585688  0.75156459  0.04916578  1
  Cl  Cl68  1  0.33407825  0.33407825  0.00000000  1
  Cl  Cl69  1  0.66592175  0.66592175  0.50000000  1
  Cl  Cl70  1  0.16592175  0.83407825  0.25000000  1
  Cl  Cl71  1  0.83407825  0.16592175  0.75000000  1
