# generated using pymatgen
data_ZrFeRe
_symmetry_space_group_name_H-M   'P 1'
_cell_length_a   5.08219200
_cell_length_b   5.07993603
_cell_length_c   8.44633355
_cell_angle_alpha   90.00000000
_cell_angle_beta   90.00000000
_cell_angle_gamma   61.28931537
_symmetry_Int_Tables_number   1
_chemical_formula_structural   ZrFeRe
_chemical_formula_sum   'Zr4 Fe4 Re4'
_cell_volume   191.25163577
_cell_formula_units_Z   4
loop_
 _symmetry_equiv_pos_site_id
 _symmetry_equiv_pos_as_xyz
  1  'x, y, z'
loop_
 _atom_site_type_symbol
 _atom_site_label
 _atom_site_symmetry_multiplicity
 _atom_site_fract_x
 _atom_site_fract_y
 _atom_site_fract_z
 _atom_site_occupancy
  Zr  Zr0  1  0.33257234  0.33257716  0.56945646  1
  Zr  Zr1  1  0.66459001  0.66452928  0.44387831  1
  Zr  Zr2  1  0.66459001  0.66452928  0.05612169  1
  Zr  Zr3  1  0.33257234  0.33257716  0.93054354  1
  Fe  Fe4  1  0.99594396  0.99600764  0.51184384  1
  Fe  Fe5  1  0.99594396  0.99600764  0.98815616  1
  Fe  Fe6  1  0.83525391  0.34415570  0.75000000  1
  Fe  Fe7  1  0.34415684  0.83526998  0.75000000  1
  Re  Re8  1  0.83493913  0.83492623  0.75000000  1
  Re  Re9  1  0.16660897  0.66523603  0.25000000  1
  Re  Re10  1  0.66519128  0.16660160  0.25000000  1
  Re  Re11  1  0.16763723  0.16758230  0.25000000  1
