# generated using pymatgen
data_YbCu5S4
_symmetry_space_group_name_H-M   'P 1'
_cell_length_a   3.82021373
_cell_length_b   7.41695795
_cell_length_c   6.55657325
_cell_angle_alpha   63.16512019
_cell_angle_beta   89.99999147
_cell_angle_gamma   104.92368663
_symmetry_Int_Tables_number   1
_chemical_formula_structural   YbCu5S4
_chemical_formula_sum   'Yb1 Cu5 S4'
_cell_volume   158.71609936
_cell_formula_units_Z   1
loop_
 _symmetry_equiv_pos_site_id
 _symmetry_equiv_pos_as_xyz
  1  'x, y, z'
loop_
 _atom_site_type_symbol
 _atom_site_label
 _atom_site_symmetry_multiplicity
 _atom_site_fract_x
 _atom_site_fract_y
 _atom_site_fract_z
 _atom_site_occupancy
  Yb  Yb0  1  0.50000000  0.00000000  0.50000000  1
  Cu  Cu1  1  -0.00000000  0.00000000  -0.00000000  1
  Cu  Cu2  1  0.18646743  0.37293486  0.48068430  1
  Cu  Cu3  1  0.68514052  0.37028104  0.98274630  1
  Cu  Cu4  1  0.81353257  0.62706514  0.51931570  1
  Cu  Cu5  1  0.31485948  0.62971896  0.01725370  1
  S  S6  1  0.87497527  0.74995054  0.79862653  1
  S  S7  1  0.37723074  0.75446149  0.28141219  1
  S  S8  1  0.12502473  0.25004946  0.20137347  1
  S  S9  1  0.62276926  0.24553851  0.71858781  1
