# generated using pymatgen
data_Li(CoO2)2
_symmetry_space_group_name_H-M   'P 1'
_cell_length_a   4.87794189
_cell_length_b   5.77386775
_cell_length_c   5.74458114
_cell_angle_alpha   59.44570813
_cell_angle_beta   90.58509059
_cell_angle_gamma   89.80034140
_symmetry_Int_Tables_number   1
_chemical_formula_structural   Li(CoO2)2
_chemical_formula_sum   'Li2 Co4 O8'
_cell_volume   139.31402927
_cell_formula_units_Z   2
loop_
 _symmetry_equiv_pos_site_id
 _symmetry_equiv_pos_as_xyz
  1  'x, y, z'
loop_
 _atom_site_type_symbol
 _atom_site_label
 _atom_site_symmetry_multiplicity
 _atom_site_fract_x
 _atom_site_fract_y
 _atom_site_fract_z
 _atom_site_occupancy
  Li  Li0  1  0.49849676  0.52992667  0.97122538  1
  Li  Li1  1  0.00181675  0.21996005  0.27888783  1
  Co  Co2  1  0.50110221  0.75976552  0.25570725  1
  Co  Co3  1  -0.00092534  0.99037079  0.99434928  1
  Co  Co4  1  -0.00228411  0.53211963  0.50140914  1
  Co  Co5  1  0.50154488  0.21855279  0.74783587  1
  O  O6  1  0.83872978  0.87501877  0.33895145  1
  O  O7  1  0.17685622  0.64725397  0.15203259  1
  O  O8  1  0.66050543  0.87620624  0.91060447  1
  O  O9  1  0.68390457  0.41624433  0.38967024  1
  O  O10  1  0.33735481  0.60087912  0.60037843  1
  O  O11  1  0.32247397  0.10251507  0.09931406  1
  O  O12  1  0.81695432  0.33427042  0.85867605  1
  O  O13  1  0.16349475  0.14716562  0.65070596  1
