# generated using pymatgen
data_YAlCo
_symmetry_space_group_name_H-M   'P 1'
_cell_length_a   5.38660555
_cell_length_b   5.38689107
_cell_length_c   8.49567452
_cell_angle_alpha   90.00000000
_cell_angle_beta   90.00000000
_cell_angle_gamma   60.87873153
_symmetry_Int_Tables_number   1
_chemical_formula_structural   YAlCo
_chemical_formula_sum   'Y4 Al4 Co4'
_cell_volume   215.35735050
_cell_formula_units_Z   4
loop_
 _symmetry_equiv_pos_site_id
 _symmetry_equiv_pos_as_xyz
  1  'x, y, z'
loop_
 _atom_site_type_symbol
 _atom_site_label
 _atom_site_symmetry_multiplicity
 _atom_site_fract_x
 _atom_site_fract_y
 _atom_site_fract_z
 _atom_site_occupancy
  Y  Y0  1  0.33359843  0.33372116  0.54795686  1
  Y  Y1  1  0.67039491  0.67032080  0.42504379  1
  Y  Y2  1  0.67039491  0.67032080  0.07495621  1
  Y  Y3  1  0.33359843  0.33372116  0.95204314  1
  Al  Al4  1  0.99603105  0.99586640  0.47864134  1
  Al  Al5  1  0.99603105  0.99586640  0.02135866  1
  Al  Al6  1  0.83440678  0.33846477  0.75000000  1
  Al  Al7  1  0.33841792  0.83442265  0.75000000  1
  Co  Co8  1  0.83352519  0.83340981  0.75000000  1
  Co  Co9  1  0.17295959  0.64873138  0.25000000  1
  Co  Co10  1  0.64836478  0.17301758  0.25000000  1
  Co  Co11  1  0.17227694  0.17213711  0.25000000  1
