# generated using pymatgen
data_YFe6Co5Re
_symmetry_space_group_name_H-M   'P 1'
_cell_length_a   4.66950972
_cell_length_b   6.39942995
_cell_length_c   6.39942995
_cell_angle_alpha   97.33781996
_cell_angle_beta   111.39760978
_cell_angle_gamma   68.60239022
_symmetry_Int_Tables_number   1
_chemical_formula_structural   YFe6Co5Re
_chemical_formula_sum   'Y1 Fe6 Co5 Re1'
_cell_volume   165.77197455
_cell_formula_units_Z   1
loop_
 _symmetry_equiv_pos_site_id
 _symmetry_equiv_pos_as_xyz
  1  'x, y, z'
loop_
 _atom_site_type_symbol
 _atom_site_label
 _atom_site_symmetry_multiplicity
 _atom_site_fract_x
 _atom_site_fract_y
 _atom_site_fract_z
 _atom_site_occupancy
  Y  Y0  1  -0.00000000  0.00374343  0.00374343  1
  Fe  Fe1  1  0.49807119  0.00232871  0.49993226  1
  Fe  Fe2  1  0.99953235  0.00232871  0.49993226  1
  Fe  Fe3  1  0.50192881  0.49993226  0.00232871  1
  Fe  Fe4  1  0.00046765  0.49993226  0.00232871  1
  Fe  Fe5  1  0.50000000  0.77471828  0.77471828  1
  Fe  Fe6  1  0.50000000  0.22690230  0.22690230  1
  Co  Co7  1  0.64032643  0.35820798  0.63886085  1
  Co  Co8  1  0.35967357  0.63886085  0.35820798  1
  Co  Co9  1  -0.00000000  0.35615923  0.35615923  1
  Co  Co10  1  0.72673330  0.77243834  0.22590493  1
  Co  Co11  1  0.27326670  0.22590493  0.77243834  1
  Re  Re12  1  -0.00000000  0.63854271  0.63854271  1
