# generated using pymatgen
data_Zn4In2O7
_symmetry_space_group_name_H-M   'P 1'
_cell_length_a   3.43682289
_cell_length_b   3.43652945
_cell_length_c   33.59703187
_cell_angle_alpha   90.00000000
_cell_angle_beta   90.00000000
_cell_angle_gamma   60.00283347
_symmetry_Int_Tables_number   1
_chemical_formula_structural   Zn4In2O7
_chemical_formula_sum   'Zn8 In4 O14'
_cell_volume   343.65381061
_cell_formula_units_Z   2
loop_
 _symmetry_equiv_pos_site_id
 _symmetry_equiv_pos_as_xyz
  1  'x, y, z'
loop_
 _atom_site_type_symbol
 _atom_site_label
 _atom_site_symmetry_multiplicity
 _atom_site_fract_x
 _atom_site_fract_y
 _atom_site_fract_z
 _atom_site_occupancy
  Zn  Zn0  1  0.33338229  0.33330885  0.59050113  1
  Zn  Zn1  1  0.66661771  0.66669115  0.40949887  1
  Zn  Zn2  1  0.66661771  0.66669115  0.09050113  1
  Zn  Zn3  1  0.33338229  0.33330885  0.90949887  1
  Zn  Zn4  1  0.99996948  0.00001526  0.66659197  1
  Zn  Zn5  1  0.00003052  0.99998474  0.33340803  1
  Zn  Zn6  1  0.00003052  0.99998474  0.16659197  1
  Zn  Zn7  1  0.99996948  0.00001526  0.83340803  1
  In  In8  1  0.00000000  -0.00000000  0.50000000  1
  In  In9  1  -0.00000000  -0.00000000  -0.00000000  1
  In  In10  1  0.33337943  0.33331029  0.75000000  1
  In  In11  1  0.66662057  0.66668971  0.25000000  1
  O  O12  1  0.99998055  0.00000972  0.60725965  1
  O  O13  1  0.00001945  0.99999028  0.39274035  1
  O  O14  1  0.00001945  0.99999028  0.10725965  1
  O  O15  1  0.99998055  0.00000972  0.89274035  1
  O  O16  1  0.33335456  0.33332272  0.53135876  1
  O  O17  1  0.66664544  0.66667728  0.46864124  1
  O  O18  1  0.66664544  0.66667728  0.03135876  1
  O  O19  1  0.33335456  0.33332272  0.96864124  1
  O  O20  1  0.33338168  0.33330916  0.68387400  1
  O  O21  1  0.66661832  0.66669084  0.31612600  1
  O  O22  1  0.66661832  0.66669084  0.18387400  1
  O  O23  1  0.33338168  0.33330916  0.81612600  1
  O  O24  1  0.00011195  -0.00005597  0.75000000  1
  O  O25  1  -0.00011195  0.00005597  0.25000000  1
