# generated using pymatgen
data_UAlFe
_symmetry_space_group_name_H-M   'P 1'
_cell_length_a   5.07001825
_cell_length_b   5.22798686
_cell_length_c   8.52864120
_cell_angle_alpha   90.00000000
_cell_angle_beta   90.00000000
_cell_angle_gamma   121.01954947
_symmetry_Int_Tables_number   1
_chemical_formula_structural   UAlFe
_chemical_formula_sum   'U4 Al4 Fe4'
_cell_volume   193.73156090
_cell_formula_units_Z   4
loop_
 _symmetry_equiv_pos_site_id
 _symmetry_equiv_pos_as_xyz
  1  'x, y, z'
loop_
 _atom_site_type_symbol
 _atom_site_label
 _atom_site_symmetry_multiplicity
 _atom_site_fract_x
 _atom_site_fract_y
 _atom_site_fract_z
 _atom_site_occupancy
  U  U0  1  0.68367978  0.34190849  0.57213619  1
  U  U1  1  0.29837149  0.64911871  0.47334316  1
  U  U2  1  0.29837149  0.64911871  0.02665684  1
  U  U3  1  0.68367978  0.34190849  0.92786381  1
  Al  Al4  1  0.70809616  0.85410938  0.75000000  1
  Al  Al5  1  0.81699412  0.66202660  0.25000000  1
  Al  Al6  1  0.81700811  0.15499244  0.25000000  1
  Al  Al7  1  0.31674236  0.15838319  0.25000000  1
  Fe  Fe8  1  0.99090155  0.99542249  0.49673301  1
  Fe  Fe9  1  0.99090155  0.99542249  0.00326699  1
  Fe  Fe10  1  0.19761312  0.34604265  0.75000000  1
  Fe  Fe11  1  0.19764049  0.85154638  0.75000000  1
