# generated using pymatgen
data_YSiPd
_symmetry_space_group_name_H-M   'P 1'
_cell_length_a   4.24470889
_cell_length_b   5.61169881
_cell_length_c   5.62071173
_cell_angle_alpha   93.53220985
_cell_angle_beta   112.18481603
_cell_angle_gamma   67.77765376
_symmetry_Int_Tables_number   1
_chemical_formula_structural   YSiPd
_chemical_formula_sum   'Y2 Si2 Pd2'
_cell_volume   114.24960748
_cell_formula_units_Z   2
loop_
 _symmetry_equiv_pos_site_id
 _symmetry_equiv_pos_as_xyz
  1  'x, y, z'
loop_
 _atom_site_type_symbol
 _atom_site_label
 _atom_site_symmetry_multiplicity
 _atom_site_fract_x
 _atom_site_fract_y
 _atom_site_fract_z
 _atom_site_occupancy
  Y  Y0  1  0.76018440  0.68914519  0.20951398  1
  Y  Y1  1  0.23981560  0.31085481  0.79048602  1
  Si  Si2  1  0.05237412  0.09884554  0.20359378  1
  Si  Si3  1  0.94762588  0.90115446  0.79640622  1
  Pd  Pd4  1  0.56340771  0.25331686  0.38013228  1
  Pd  Pd5  1  0.43659229  0.74668314  0.61986772  1
