# generated using pymatgen
data_YbTiCdSbO7
_symmetry_space_group_name_H-M   'P 1'
_cell_length_a   7.31310690
_cell_length_b   7.20294632
_cell_length_c   7.41783323
_cell_angle_alpha   90.00000000
_cell_angle_beta   59.52514481
_cell_angle_gamma   119.50294385
_symmetry_Int_Tables_number   1
_chemical_formula_structural   YbTiCdSbO7
_chemical_formula_sum   'Yb2 Ti2 Cd2 Sb2 O14'
_cell_volume   276.36853374
_cell_formula_units_Z   2
loop_
 _symmetry_equiv_pos_site_id
 _symmetry_equiv_pos_as_xyz
  1  'x, y, z'
loop_
 _atom_site_type_symbol
 _atom_site_label
 _atom_site_symmetry_multiplicity
 _atom_site_fract_x
 _atom_site_fract_y
 _atom_site_fract_z
 _atom_site_occupancy
  Yb  Yb0  1  -0.00000000  -0.00000000  0.50000000  1
  Yb  Yb1  1  -0.00000000  -0.00000000  -0.00000000  1
  Ti  Ti2  1  0.50000000  -0.00000000  0.50000000  1
  Ti  Ti3  1  0.50000000  0.50000000  0.50000000  1
  Cd  Cd4  1  0.50000000  0.50000000  -0.00000000  1
  Cd  Cd5  1  0.50000000  -0.00000000  -0.00000000  1
  Sb  Sb6  1  -0.00000000  0.50000000  -0.00000000  1
  Sb  Sb7  1  -0.00000000  0.50000000  0.50000000  1
  O  O8  1  0.25841240  0.12920620  0.12079380  1
  O  O9  1  0.74158760  0.87079380  0.87920620  1
  O  O10  1  0.64028993  0.82014496  0.42985504  1
  O  O11  1  0.84154024  0.42077012  0.82922988  1
  O  O12  1  0.24681791  0.82713852  0.82109258  1
  O  O13  1  0.24681791  0.41967939  0.43208950  1
  O  O14  1  0.24681791  0.41967939  0.82109258  1
  O  O15  1  0.24681791  0.82713852  0.43208950  1
  O  O16  1  0.35971007  0.17985504  0.57014496  1
  O  O17  1  0.15845976  0.57922988  0.17077012  1
  O  O18  1  0.75318209  0.17286148  0.17890742  1
  O  O19  1  0.75318209  0.58032061  0.56791050  1
  O  O20  1  0.75318209  0.58032061  0.17890742  1
  O  O21  1  0.75318209  0.17286148  0.56791050  1
