# generated using pymatgen
data_VFe3Si4
_symmetry_space_group_name_H-M   'P 1'
_cell_length_a   4.53076871
_cell_length_b   4.53076871
_cell_length_c   4.53076871
_cell_angle_alpha   90.51183623
_cell_angle_beta   89.48816377
_cell_angle_gamma   90.51183623
_symmetry_Int_Tables_number   1
_chemical_formula_structural   VFe3Si4
_chemical_formula_sum   'V1 Fe3 Si4'
_cell_volume   92.99594168
_cell_formula_units_Z   1
loop_
 _symmetry_equiv_pos_site_id
 _symmetry_equiv_pos_as_xyz
  1  'x, y, z'
loop_
 _atom_site_type_symbol
 _atom_site_label
 _atom_site_symmetry_multiplicity
 _atom_site_fract_x
 _atom_site_fract_y
 _atom_site_fract_z
 _atom_site_occupancy
  V  V0  1  0.86388636  0.63611364  0.36388636  1
  Fe  Fe1  1  0.64676341  0.37044544  0.86195938  1
  Fe  Fe2  1  0.36195938  0.85323659  0.62955456  1
  Fe  Fe3  1  0.12955456  0.13804062  0.14676341  1
  Si  Si4  1  0.16604488  0.33395512  0.66604488  1
  Si  Si5  1  0.34924566  0.66073938  0.14328514  1
  Si  Si6  1  0.64328514  0.15075434  0.33926062  1
  Si  Si7  1  0.83926062  0.85671486  0.84924566  1
