# generated using pymatgen
data_FeHC2O3
_symmetry_space_group_name_H-M   'P 1'
_cell_length_a   3.39311438
_cell_length_b   8.79410453
_cell_length_c   10.19612155
_cell_angle_alpha   90.00000000
_cell_angle_beta   90.00000000
_cell_angle_gamma   102.37119479
_symmetry_Int_Tables_number   1
_chemical_formula_structural   FeHC2O3
_chemical_formula_sum   'Fe4 H4 C8 O12'
_cell_volume   297.18161329
_cell_formula_units_Z   4
loop_
 _symmetry_equiv_pos_site_id
 _symmetry_equiv_pos_as_xyz
  1  'x, y, z'
loop_
 _atom_site_type_symbol
 _atom_site_label
 _atom_site_symmetry_multiplicity
 _atom_site_fract_x
 _atom_site_fract_y
 _atom_site_fract_z
 _atom_site_occupancy
  Fe  Fe0  1  0.69165725  0.41991856  0.11266564  1
  Fe  Fe1  1  0.69165725  0.91991856  0.38733436  1
  Fe  Fe2  1  0.30834275  0.58008144  0.88733436  1
  Fe  Fe3  1  0.30834275  0.08008144  0.61266564  1
  H  H4  1  0.33411460  0.66391277  0.14805230  1
  H  H5  1  0.33411460  0.16391277  0.35194770  1
  H  H6  1  0.66588540  0.33608723  0.85194770  1
  H  H7  1  0.66588540  0.83608723  0.64805230  1
  C  C8  1  0.92513946  0.89502675  0.94953472  1
  C  C9  1  0.92513946  0.39502675  0.55046528  1
  C  C10  1  0.85761644  0.44598462  0.41594042  1
  C  C11  1  0.14238356  0.55401538  0.58405958  1
  C  C12  1  0.14238356  0.05401538  0.91594042  1
  C  C13  1  0.07486054  0.60497325  0.44953472  1
  C  C14  1  0.07486054  0.10497325  0.05046528  1
  C  C15  1  0.85761644  0.94598462  0.08405958  1
  O  O16  1  0.15973370  0.73299568  0.38732953  1
  O  O17  1  0.15973370  0.23299568  0.11267047  1
  O  O18  1  0.31845011  0.62262369  0.68355846  1
  O  O19  1  0.68154989  0.37737631  0.31644154  1
  O  O20  1  0.84026630  0.76700432  0.88732953  1
  O  O21  1  0.84026630  0.26700432  0.61267047  1
  O  O22  1  0.26345199  0.06630357  0.40228363  1
  O  O23  1  0.73654801  0.93369643  0.59771637  1
  O  O24  1  0.26345199  0.56630357  0.09771637  1
  O  O25  1  0.73654801  0.43369643  0.90228363  1
  O  O26  1  0.31845011  0.12262369  0.81644154  1
  O  O27  1  0.68154989  0.87737631  0.18355846  1
