# generated using pymatgen
data_TiWC2
_symmetry_space_group_name_H-M   'P 1'
_cell_length_a   3.06884910
_cell_length_b   3.06884910
_cell_length_c   5.35699459
_cell_angle_alpha   73.35542460
_cell_angle_beta   90.00000000
_cell_angle_gamma   120.00000000
_symmetry_Int_Tables_number   1
_chemical_formula_structural   TiWC2
_chemical_formula_sum   'Ti1 W1 C2'
_cell_volume   41.23310982
_cell_formula_units_Z   1
loop_
 _symmetry_equiv_pos_site_id
 _symmetry_equiv_pos_as_xyz
  1  'x, y, z'
loop_
 _atom_site_type_symbol
 _atom_site_label
 _atom_site_symmetry_multiplicity
 _atom_site_fract_x
 _atom_site_fract_y
 _atom_site_fract_z
 _atom_site_occupancy
  Ti  Ti0  1  0.25000000  0.50000000  0.25000000  1
  W  W1  1  0.75000000  0.50000000  0.75000000  1
  C  C2  1  0.99937204  0.99874407  0.00188389  1
  C  C3  1  0.50062796  0.00125593  0.49811611  1
