# generated using pymatgen
data_Tm4CdS7
_symmetry_space_group_name_H-M   'P 1'
_cell_length_a   3.78765299
_cell_length_b   6.58248124
_cell_length_c   11.48495737
_cell_angle_alpha   104.26412851
_cell_angle_beta   90.00000000
_cell_angle_gamma   73.27926768
_symmetry_Int_Tables_number   1
_chemical_formula_structural   Tm4CdS7
_chemical_formula_sum   'Tm4 Cd1 S7'
_cell_volume   265.00667186
_cell_formula_units_Z   1
loop_
 _symmetry_equiv_pos_site_id
 _symmetry_equiv_pos_as_xyz
  1  'x, y, z'
loop_
 _atom_site_type_symbol
 _atom_site_label
 _atom_site_symmetry_multiplicity
 _atom_site_fract_x
 _atom_site_fract_y
 _atom_site_fract_z
 _atom_site_occupancy
  Tm  Tm0  1  0.69409554  0.61180893  0.19814323  1
  Tm  Tm1  1  0.30681649  0.38636701  0.80487154  1
  Tm  Tm2  1  0.00019172  0.99961656  0.00195620  1
  Tm  Tm3  1  0.11517708  0.76964585  0.57219522  1
  Cd  Cd4  1  0.88481567  0.23036866  0.42060613  1
  S  S5  1  0.74054291  0.51891419  0.64849155  1
  S  S6  1  0.25573819  0.48852362  0.35086695  1
  S  S7  1  0.34112861  0.31774278  0.04933603  1
  S  S8  1  0.65949138  0.68101724  0.94862542  1
  S  S9  1  0.04021720  0.91956560  0.21575816  1
  S  S10  1  0.96045526  0.07908949  0.78561497  1
  S  S11  1  0.50132997  0.99734006  0.50353460  1
