# generated using pymatgen
data_V(FeS2)2
_symmetry_space_group_name_H-M   'P 1'
_cell_length_a   3.20650415
_cell_length_b   5.72705093
_cell_length_c   6.12379178
_cell_angle_alpha   114.34264071
_cell_angle_beta   74.82268471
_cell_angle_gamma   90.00000000
_symmetry_Int_Tables_number   1
_chemical_formula_structural   V(FeS2)2
_chemical_formula_sum   'V1 Fe2 S4'
_cell_volume   98.13721368
_cell_formula_units_Z   1
loop_
 _symmetry_equiv_pos_site_id
 _symmetry_equiv_pos_as_xyz
  1  'x, y, z'
loop_
 _atom_site_type_symbol
 _atom_site_label
 _atom_site_symmetry_multiplicity
 _atom_site_fract_x
 _atom_site_fract_y
 _atom_site_fract_z
 _atom_site_occupancy
  V  V0  1  0.73953915  0.31514216  0.52092171  1
  Fe  Fe1  1  0.99705937  0.00156433  0.00588127  1
  Fe  Fe2  1  0.26496761  0.68133636  0.47006477  1
  S  S3  1  0.36031445  0.97461377  0.27937110  1
  S  S4  1  0.63862242  0.01131280  0.72275517  1
  S  S5  1  0.89319163  0.44719097  0.21361674  1
  S  S6  1  0.10630538  0.56883960  0.78738925  1
