# generated using pymatgen
data_Na(Fe2O3)4
_symmetry_space_group_name_H-M   'P 1'
_cell_length_a   6.08191416
_cell_length_b   6.08191416
_cell_length_c   14.80035421
_cell_angle_alpha   90.49457681
_cell_angle_beta   89.50542319
_cell_angle_gamma   120.17635432
_symmetry_Int_Tables_number   1
_chemical_formula_structural   Na(Fe2O3)4
_chemical_formula_sum   'Na2 Fe16 O24'
_cell_volume   473.24633912
_cell_formula_units_Z   2
loop_
 _symmetry_equiv_pos_site_id
 _symmetry_equiv_pos_as_xyz
  1  'x, y, z'
loop_
 _atom_site_type_symbol
 _atom_site_label
 _atom_site_symmetry_multiplicity
 _atom_site_fract_x
 _atom_site_fract_y
 _atom_site_fract_z
 _atom_site_occupancy
  Na  Na0  1  0.16666700  0.83333300  0.20833300  1
  Na  Na1  1  0.66666700  0.33333300  0.70833300  1
  Fe  Fe2  1  0.33720088  0.66279912  0.04375042  1
  Fe  Fe3  1  0.99657929  0.00342071  0.00118432  1
  Fe  Fe4  1  0.16666700  0.33333300  0.20833300  1
  Fe  Fe5  1  0.66666700  0.83333300  0.20833300  1
  Fe  Fe6  1  0.33675371  0.66324629  0.41548168  1
  Fe  Fe7  1  0.67529372  0.32470628  0.08807680  1
  Fe  Fe8  1  0.99613212  0.00386788  0.37291658  1
  Fe  Fe9  1  0.33425291  0.66574709  0.66038069  1
  Fe  Fe10  1  0.65803928  0.34196072  0.32859020  1
  Fe  Fe11  1  0.99908445  0.50281195  0.87752236  1
  Fe  Fe12  1  0.83614495  0.66575145  0.53914464  1
  Fe  Fe13  1  0.33424855  0.16385505  0.53914464  1
  Fe  Fe14  1  0.99908009  0.00091991  0.75628531  1
  Fe  Fe15  1  0.49907264  0.50092736  0.87620425  1
  Fe  Fe16  1  0.83426036  0.16573964  0.54046175  1
  Fe  Fe17  1  0.49718805  0.00091555  0.87752236  1
  O  O18  1  0.51704274  0.98126746  0.12166111  1
  O  O19  1  0.01873254  0.48295726  0.12166111  1
  O  O20  1  0.16020329  0.83979671  0.46193010  1
  O  O21  1  0.49948659  0.50051341  0.13200576  1
  O  O22  1  0.34274589  0.65725411  0.28848022  1
  O  O23  1  0.99058811  0.00941189  0.12818678  1
  O  O24  1  0.81629026  0.68539954  0.29500489  1
  O  O25  1  0.31460046  0.18370974  0.29500489  1
  O  O26  1  0.15676729  0.31208827  0.46263108  1
  O  O27  1  0.68791173  0.84323271  0.46263108  1
  O  O28  1  0.00067573  0.99932427  0.61882115  1
  O  O29  1  0.33265727  0.66734273  0.79784585  1
  O  O30  1  0.66825785  0.33174215  0.46584604  1
  O  O31  1  0.17312971  0.82687029  0.95473690  1
  O  O32  1  0.50301238  0.49698762  0.61181669  1
  O  O33  1  0.83384741  0.16615259  0.28466024  1
  O  O34  1  0.50200535  0.00289411  0.61223252  1
  O  O35  1  0.64542227  0.82343429  0.95403592  1
  O  O36  1  0.99710589  0.49799465  0.61223252  1
  O  O37  1  0.17656571  0.35457773  0.95403592  1
  O  O38  1  0.83132865  0.66377189  0.80443448  1
  O  O39  1  0.33622811  0.16867135  0.80443448  1
  O  O40  1  0.83032062  0.16967938  0.80484931  1
  O  O41  1  0.66507615  0.33492385  0.95082096  1
