# generated using pymatgen
data_U2CuSi3
_symmetry_space_group_name_H-M   'P 1'
_cell_length_a   3.89633249
_cell_length_b   4.01954895
_cell_length_c   6.93997745
_cell_angle_alpha   89.92445164
_cell_angle_beta   90.00000000
_cell_angle_gamma   90.00000000
_symmetry_Int_Tables_number   1
_chemical_formula_structural   U2CuSi3
_chemical_formula_sum   'U2 Cu1 Si3'
_cell_volume   108.69035655
_cell_formula_units_Z   1
loop_
 _symmetry_equiv_pos_site_id
 _symmetry_equiv_pos_as_xyz
  1  'x, y, z'
loop_
 _atom_site_type_symbol
 _atom_site_label
 _atom_site_symmetry_multiplicity
 _atom_site_fract_x
 _atom_site_fract_y
 _atom_site_fract_z
 _atom_site_occupancy
  U  U0  1  -0.00000000  0.00014420  0.99064472  1
  U  U1  1  -0.00000000  0.50003624  0.51058462  1
  Cu  Cu2  1  0.50000000  0.99976241  0.33013468  1
  Si  Si3  1  0.50000000  0.49959492  0.83635272  1
  Si  Si4  1  0.50000000  0.50026771  0.16907248  1
  Si  Si5  1  0.50000000  -0.00000548  0.66321077  1
