# generated using pymatgen
data_TiNb(BiO3)3
_symmetry_space_group_name_H-M   'P 1'
_cell_length_a   3.86619550
_cell_length_b   3.86623981
_cell_length_c   12.95136702
_cell_angle_alpha   81.41635009
_cell_angle_beta   81.41663570
_cell_angle_gamma   89.99825230
_symmetry_Int_Tables_number   1
_chemical_formula_structural   TiNb(BiO3)3
_chemical_formula_sum   'Ti1 Nb1 Bi3 O9'
_cell_volume   189.23094040
_cell_formula_units_Z   1
loop_
 _symmetry_equiv_pos_site_id
 _symmetry_equiv_pos_as_xyz
  1  'x, y, z'
loop_
 _atom_site_type_symbol
 _atom_site_label
 _atom_site_symmetry_multiplicity
 _atom_site_fract_x
 _atom_site_fract_y
 _atom_site_fract_z
 _atom_site_occupancy
  Ti  Ti0  1  0.59057311  0.59057115  0.81885269  1
  Nb  Nb1  1  0.41088059  0.41087993  0.17815987  1
  Bi  Bi2  1  0.79927545  0.79927728  0.40148733  1
  Bi  Bi3  1  0.19952127  0.19951838  0.60093677  1
  Bi  Bi4  1  0.01322610  0.01322626  0.97357091  1
  O  O5  1  0.66101001  0.66101085  0.67795446  1
  O  O6  1  0.33510938  0.33511015  0.32978955  1
  O  O7  1  0.42096694  0.92095716  0.15803640  1
  O  O8  1  0.07550464  0.57550283  0.84904049  1
  O  O9  1  0.57550087  0.07550777  0.84903966  1
  O  O10  1  0.92096260  0.42096839  0.15803510  1
  O  O11  1  0.49985772  0.49985903  0.00027938  1
  O  O12  1  0.24880566  0.74880367  0.50240797  1
  O  O13  1  0.74880565  0.24880715  0.50240941  1
