# generated using pymatgen
data_UAlAu
_symmetry_space_group_name_H-M   'P 1'
_cell_length_a   4.84573189
_cell_length_b   5.63629000
_cell_length_c   5.63485071
_cell_angle_alpha   82.11501549
_cell_angle_beta   115.46620742
_cell_angle_gamma   64.54076059
_symmetry_Int_Tables_number   1
_chemical_formula_structural   UAlAu
_chemical_formula_sum   'U2 Al2 Au2'
_cell_volume   115.24935093
_cell_formula_units_Z   2
loop_
 _symmetry_equiv_pos_site_id
 _symmetry_equiv_pos_as_xyz
  1  'x, y, z'
loop_
 _atom_site_type_symbol
 _atom_site_label
 _atom_site_symmetry_multiplicity
 _atom_site_fract_x
 _atom_site_fract_y
 _atom_site_fract_z
 _atom_site_occupancy
  U  U0  1  0.74408138  0.75466507  0.24282783  1
  U  U1  1  0.25591862  0.24533493  0.75717217  1
  Al  Al2  1  0.50120006  0.33507966  0.33747978  1
  Al  Al3  1  0.49879994  0.66492034  0.66252022  1
  Au  Au4  1  0.00072026  0.17237645  0.17381696  1
  Au  Au5  1  0.99927974  0.82762355  0.82618304  1
