# generated using pymatgen
data_WOF3
_symmetry_space_group_name_H-M   'P 1'
_cell_length_a   9.28923770
_cell_length_b   9.29272791
_cell_length_c   3.85962265
_cell_angle_alpha   89.97778778
_cell_angle_beta   90.02696986
_cell_angle_gamma   90.04888218
_symmetry_Int_Tables_number   1
_chemical_formula_structural   WOF3
_chemical_formula_sum   'W4 O4 F12'
_cell_volume   333.17154722
_cell_formula_units_Z   4
loop_
 _symmetry_equiv_pos_site_id
 _symmetry_equiv_pos_as_xyz
  1  'x, y, z'
loop_
 _atom_site_type_symbol
 _atom_site_label
 _atom_site_symmetry_multiplicity
 _atom_site_fract_x
 _atom_site_fract_y
 _atom_site_fract_z
 _atom_site_occupancy
  W  W0  1  0.13258947  0.36739913  0.25868760  1
  W  W1  1  0.36834525  0.86807756  0.74144148  1
  W  W2  1  0.63198160  0.13167853  0.74141991  1
  W  W3  1  0.86860115  0.63140192  0.25843622  1
  O  O4  1  0.12770092  0.37227675  0.75862123  1
  O  O5  1  0.37433375  0.87416705  0.24150570  1
  O  O6  1  0.62590911  0.12571356  0.24148052  1
  O  O7  1  0.87473236  0.62528679  0.75837657  1
  F  F8  1  0.09373106  0.59225387  0.25796330  1
  F  F9  1  0.10971680  0.16585450  0.25885355  1
  F  F10  1  0.16617327  0.88496082  0.74125371  1
  F  F11  1  0.33421643  0.39019951  0.25869876  1
  F  F12  1  0.38483882  0.66605127  0.74180965  1
  F  F13  1  0.40653194  0.09346507  0.74182620  1
  F  F14  1  0.59344745  0.90666077  0.74245173  1
  F  F15  1  0.61496168  0.33375639  0.74118530  1
  F  F16  1  0.66631385  0.61573820  0.25791941  1
  F  F17  1  0.83407641  0.11510900  0.74179990  1
  F  F18  1  0.88413476  0.83362681  0.25834055  1
  F  F19  1  0.90767694  0.40633151  0.25792772  1
