# generated using pymatgen
data_Yb(InS2)2
_symmetry_space_group_name_H-M   'P 1'
_cell_length_a   3.90541385
_cell_length_b   20.44532967
_cell_length_c   20.47210493
_cell_angle_alpha   59.95424736
_cell_angle_beta   89.99745930
_cell_angle_gamma   90.01124757
_symmetry_Int_Tables_number   1
_chemical_formula_structural   Yb(InS2)2
_chemical_formula_sum   'Yb9 In18 S36'
_cell_volume   1414.99168059
_cell_formula_units_Z   9
loop_
 _symmetry_equiv_pos_site_id
 _symmetry_equiv_pos_as_xyz
  1  'x, y, z'
loop_
 _atom_site_type_symbol
 _atom_site_label
 _atom_site_symmetry_multiplicity
 _atom_site_fract_x
 _atom_site_fract_y
 _atom_site_fract_z
 _atom_site_occupancy
  Yb  Yb0  1  0.98681069  0.33333349  0.33322626  1
  Yb  Yb1  1  0.48127404  0.00311287  0.66508870  1
  Yb  Yb2  1  0.48115007  0.33190627  0.00332923  1
  Yb  Yb3  1  0.48156007  0.66489399  0.33193528  1
  Yb  Yb4  1  0.96762050  0.99984183  0.00002425  1
  Yb  Yb5  1  0.97368523  0.66660365  0.66668718  1
  Yb  Yb6  1  0.49379940  0.67013502  0.98406604  1
  Yb  Yb7  1  0.49025865  0.34531046  0.67094870  1
  Yb  Yb8  1  0.48679160  0.98346388  0.34615226  1
  In  In9  1  0.98188326  0.55146735  0.88407538  1
  In  In10  1  0.98115896  0.56415988  0.55154292  1
  In  In11  1  0.98071638  0.88408535  0.56436300  1
  In  In12  1  0.49231625  0.12118190  0.44926053  1
  In  In13  1  0.49202632  0.42966020  0.12137600  1
  In  In14  1  0.49118743  0.44911009  0.42944831  1
  In  In15  1  0.94508339  0.90518348  0.88133062  1
  In  In16  1  0.94522426  0.21342208  0.90533384  1
  In  In17  1  0.94388569  0.88136902  0.21338771  1
  In  In18  1  0.46864864  0.79024266  0.76455115  1
  In  In19  1  0.46945652  0.44495297  0.79032666  1
  In  In20  1  0.47199499  0.76465516  0.44492740  1
  In  In21  1  0.47884948  0.10500421  0.78172995  1
  In  In22  1  0.48150738  0.11350070  0.10465027  1
  In  In23  1  0.48039521  0.78188392  0.11364433  1
  In  In24  1  0.97514006  0.22029201  0.55195448  1
  In  In25  1  0.97599669  0.22777750  0.22024032  1
  In  In26  1  0.97843216  0.55216607  0.22767631  1
  S  S27  1  0.97605878  0.02606880  0.75147864  1
  S  S28  1  0.97620190  0.22241292  0.02627582  1
  S  S29  1  0.97621943  0.75140543  0.22269468  1
  S  S30  1  0.97465382  0.89321230  0.68648367  1
  S  S31  1  0.97460994  0.42014214  0.89348061  1
  S  S32  1  0.97572445  0.68646569  0.42026155  1
  S  S33  1  0.98967349  0.12274068  0.36353137  1
  S  S34  1  0.98949218  0.51438339  0.12233232  1
  S  S35  1  0.98790230  0.36337341  0.51359390  1
  S  S36  1  0.48550722  0.24970080  0.44280122  1
  S  S37  1  0.48543974  0.30753127  0.24967409  1
  S  S38  1  0.48613901  0.44289248  0.30714153  1
  S  S39  1  0.98417279  0.09131471  0.55761545  1
  S  S40  1  0.98405864  0.35110738  0.09140633  1
  S  S41  1  0.98518584  0.55755956  0.35095463  1
  S  S42  1  0.97331170  0.18503245  0.79381734  1
  S  S43  1  0.97573089  0.02145133  0.18422465  1
  S  S44  1  0.97506106  0.79452163  0.02130608  1
  S  S45  1  0.47719508  0.21178340  0.64062550  1
  S  S46  1  0.47793060  0.14738286  0.21183259  1
  S  S47  1  0.48048583  0.64083205  0.14740971  1
  S  S48  1  0.45529639  0.82854740  0.86649821  1
  S  S49  1  0.45481635  0.30484578  0.82890859  1
  S  S50  1  0.45447132  0.86640139  0.30492768  1
  S  S51  1  0.47536594  0.77415292  0.64741260  1
  S  S52  1  0.47493355  0.57839669  0.77399219  1
  S  S53  1  0.47594276  0.64753643  0.57827491  1
  S  S54  1  0.97605878  0.69329893  0.85484221  1
  S  S55  1  0.97568258  0.45159557  0.69335590  1
  S  S56  1  0.97697516  0.85514710  0.45157507  1
  S  S57  1  0.48265959  0.53290144  0.97412328  1
  S  S58  1  0.48245395  0.49245971  0.53319569  1
  S  S59  1  0.48231689  0.97428437  0.49288023  1
  S  S60  1  0.46723987  0.98266908  0.91085540  1
  S  S61  1  0.46719364  0.10652331  0.98245478  1
  S  S62  1  0.46698520  0.91120920  0.10648449  1
