# generated using pymatgen
data_Ta3Mn8Si
_symmetry_space_group_name_H-M   'P 1'
_cell_length_a   4.75431212
_cell_length_b   4.75431212
_cell_length_c   7.81025136
_cell_angle_alpha   90.00416719
_cell_angle_beta   89.99583281
_cell_angle_gamma   120.00805508
_symmetry_Int_Tables_number   1
_chemical_formula_structural   Ta3Mn8Si
_chemical_formula_sum   'Ta3 Mn8 Si1'
_cell_volume   152.87475149
_cell_formula_units_Z   1
loop_
 _symmetry_equiv_pos_site_id
 _symmetry_equiv_pos_as_xyz
  1  'x, y, z'
loop_
 _atom_site_type_symbol
 _atom_site_label
 _atom_site_symmetry_multiplicity
 _atom_site_fract_x
 _atom_site_fract_y
 _atom_site_fract_z
 _atom_site_occupancy
  Ta  Ta0  1  0.33334869  0.66665131  0.44184906  1
  Ta  Ta1  1  0.33330851  0.66669149  0.06559207  1
  Ta  Ta2  1  0.66666186  0.33333814  0.92048410  1
  Mn  Mn3  1  0.00001678  0.99998322  0.50346771  1
  Mn  Mn4  1  0.99994495  0.00005505  0.00823257  1
  Mn  Mn5  1  0.17163161  0.34317111  0.74717380  1
  Mn  Mn6  1  0.17157688  0.82842312  0.74729354  1
  Mn  Mn7  1  0.65682889  0.82836839  0.74717380  1
  Mn  Mn8  1  0.82612980  0.65225655  0.25204320  1
  Mn  Mn9  1  0.82616850  0.17383150  0.25198997  1
  Mn  Mn10  1  0.34774345  0.17387020  0.25204320  1
  Si  Si11  1  0.66664008  0.33335992  0.56265699  1
