# generated using pymatgen
data_SrFe5Bi4O15
_symmetry_space_group_name_H-M   'P 1'
_cell_length_a   5.75981627
_cell_length_b   8.88540116
_cell_length_c   6.91648322
_cell_angle_alpha   104.84083858
_cell_angle_beta   91.10255860
_cell_angle_gamma   107.42091279
_symmetry_Int_Tables_number   1
_chemical_formula_structural   SrFe5Bi4O15
_chemical_formula_sum   'Sr1 Fe5 Bi4 O15'
_cell_volume   324.70016866
_cell_formula_units_Z   1
loop_
 _symmetry_equiv_pos_site_id
 _symmetry_equiv_pos_as_xyz
  1  'x, y, z'
loop_
 _atom_site_type_symbol
 _atom_site_label
 _atom_site_symmetry_multiplicity
 _atom_site_fract_x
 _atom_site_fract_y
 _atom_site_fract_z
 _atom_site_occupancy
  Sr  Sr0  1  0.43719908  0.80793312  0.09452845  1
  Fe  Fe1  1  0.05605086  0.01478032  0.99455636  1
  Fe  Fe2  1  0.65502215  0.21889440  0.39159801  1
  Fe  Fe3  1  0.24788003  0.42237178  0.79575031  1
  Fe  Fe4  1  0.87191103  0.62410604  0.18771577  1
  Fe  Fe5  1  0.44631075  0.81620297  0.58444131  1
  Bi  Bi6  1  0.97179232  0.98141622  0.50902291  1
  Bi  Bi7  1  0.56853179  0.19918273  0.90557175  1
  Bi  Bi8  1  0.16382856  0.39455232  0.29915229  1
  Bi  Bi9  1  0.77143913  0.58844541  0.70677637  1
  O  O10  1  0.49961502  0.33837076  0.59698276  1
  O  O11  1  0.89467410  0.14328094  0.18766298  1
  O  O12  1  0.30223173  0.94260796  0.79511345  1
  O  O13  1  0.08120319  0.53009710  0.99248730  1
  O  O14  1  0.69187900  0.73630297  0.39053118  1
  O  O15  1  0.59059346  0.52707454  0.97455045  1
  O  O16  1  0.99437892  0.33300815  0.56865676  1
  O  O17  1  0.39320942  0.12879745  0.16985429  1
  O  O18  1  0.17760981  0.72722079  0.38174344  1
  O  O19  1  0.78998926  0.92735713  0.77363276  1
  O  O20  1  0.40743791  0.62822262  0.69526216  1
  O  O21  1  0.79681670  0.42664181  0.28775654  1
  O  O22  1  0.19763030  0.22264599  0.88444356  1
  O  O23  1  0.96418172  0.82437656  0.08784934  1
  O  O24  1  0.60658376  0.02210994  0.48135953  1
