# generated using pymatgen
data_SrCa4(FeO2)5
_symmetry_space_group_name_H-M   'P 1'
_cell_length_a   4.02389990
_cell_length_b   4.02389990
_cell_length_c   16.41464895
_cell_angle_alpha   90.00000000
_cell_angle_beta   90.00000000
_cell_angle_gamma   90.00000000
_symmetry_Int_Tables_number   1
_chemical_formula_structural   SrCa4(FeO2)5
_chemical_formula_sum   'Sr1 Ca4 Fe5 O10'
_cell_volume   265.78222708
_cell_formula_units_Z   1
loop_
 _symmetry_equiv_pos_site_id
 _symmetry_equiv_pos_as_xyz
  1  'x, y, z'
loop_
 _atom_site_type_symbol
 _atom_site_label
 _atom_site_symmetry_multiplicity
 _atom_site_fract_x
 _atom_site_fract_y
 _atom_site_fract_z
 _atom_site_occupancy
  Sr  Sr0  1  0.50000000  0.50000000  0.10000000  1
  Ca  Ca1  1  0.50000000  0.50000000  0.30276366  1
  Ca  Ca2  1  0.50000000  0.50000000  0.50051277  1
  Ca  Ca3  1  0.50000000  0.50000000  0.69948723  1
  Ca  Ca4  1  0.50000000  0.50000000  0.89723634  1
  Fe  Fe5  1  -0.00000000  -0.00000000  0.99361472  1
  Fe  Fe6  1  0.00000000  0.00000000  0.20638528  1
  Fe  Fe7  1  0.00000000  0.00000000  0.40080198  1
  Fe  Fe8  1  -0.00000000  -0.00000000  0.60000000  1
  Fe  Fe9  1  -0.00000000  -0.00000000  0.79919802  1
  O  O10  1  0.00000000  0.50000000  0.20603653  1
  O  O11  1  0.00000000  0.50000000  0.40112832  1
  O  O12  1  -0.00000000  0.50000000  0.60000000  1
  O  O13  1  -0.00000000  0.50000000  0.79887168  1
  O  O14  1  -0.00000000  0.50000000  0.99396347  1
  O  O15  1  0.50000000  0.00000000  0.20603653  1
  O  O16  1  0.50000000  -0.00000000  0.40112832  1
  O  O17  1  0.50000000  -0.00000000  0.60000000  1
  O  O18  1  0.50000000  -0.00000000  0.79887168  1
  O  O19  1  0.50000000  -0.00000000  0.99396347  1
