# generated using pymatgen
data_Tm2Ti12(CuO4)9
_symmetry_space_group_name_H-M   'P 1'
_cell_length_a   6.44198754
_cell_length_b   10.49992878
_cell_length_c   10.49992878
_cell_angle_alpha   60.00000000
_cell_angle_beta   90.00000000
_cell_angle_gamma   90.00000000
_symmetry_Int_Tables_number   1
_chemical_formula_structural   Tm2Ti12(CuO4)9
_chemical_formula_sum   'Tm2 Ti12 Cu9 O36'
_cell_volume   615.06812234
_cell_formula_units_Z   1
loop_
 _symmetry_equiv_pos_site_id
 _symmetry_equiv_pos_as_xyz
  1  'x, y, z'
loop_
 _atom_site_type_symbol
 _atom_site_label
 _atom_site_symmetry_multiplicity
 _atom_site_fract_x
 _atom_site_fract_y
 _atom_site_fract_z
 _atom_site_occupancy
  Tm  Tm0  1  0.00493153  0.00000000  0.00000000  1
  Tm  Tm1  1  0.66173547  0.33333300  0.33333300  1
  Ti  Ti2  1  0.83333300  0.16666700  0.16666700  1
  Ti  Ti3  1  0.49683026  0.50572424  0.50796177  1
  Ti  Ti4  1  0.16983674  0.82760876  0.82537123  1
  Ti  Ti5  1  0.17368786  0.33333300  0.33333300  1
  Ti  Ti6  1  0.83333300  0.66666700  0.66666700  1
  Ti  Ti7  1  0.49297914  -0.00000000  -0.00000000  1
  Ti  Ti8  1  0.83333300  0.16666700  0.66666700  1
  Ti  Ti9  1  0.49683026  0.50796177  0.98631399  1
  Ti  Ti10  1  0.16983674  0.82537123  0.34701901  1
  Ti  Ti11  1  0.16983674  0.34701901  0.82760876  1
  Ti  Ti12  1  0.83333300  0.66666700  0.16666700  1
  Ti  Ti13  1  0.49683026  0.98631399  0.50572424  1
  Cu  Cu14  1  0.33333300  0.16666700  0.16666700  1
  Cu  Cu15  1  0.99564238  0.49870278  0.49896072  1
  Cu  Cu16  1  0.67102462  0.83463022  0.83437228  1
  Cu  Cu17  1  0.67102462  0.33099649  0.83463022  1
  Cu  Cu18  1  0.33333300  0.66666700  0.16666700  1
  Cu  Cu19  1  0.99564238  0.00233651  0.49870278  1
  Cu  Cu20  1  0.99564238  0.49896072  0.00233651  1
  Cu  Cu21  1  0.67102462  0.83437228  0.33099649  1
  Cu  Cu22  1  0.33333300  0.16666700  0.66666700  1
  O  O23  1  0.24539833  0.44207719  0.62265986  1
  O  O24  1  0.91882983  0.78524659  0.95947556  1
  O  O25  1  0.58410650  0.11863430  0.29198615  1
  O  O26  1  0.35208672  0.34973450  0.17671542  1
  O  O27  1  0.00440915  0.68374173  0.50244800  1
  O  O28  1  0.68701060  0.01660618  0.84333830  1
  O  O29  1  0.97965640  0.31672682  0.48999470  1
  O  O30  1  0.66225685  0.64959227  0.83088600  1
  O  O31  1  0.31458028  0.98359850  0.15661758  1
  O  O32  1  0.08256050  0.21469870  0.04134685  1
  O  O33  1  0.74783717  0.54808641  0.37385744  1
  O  O34  1  0.42126767  0.89125681  0.71067414  1
  O  O35  1  0.42126767  0.39807005  0.89125681  1
  O  O36  1  0.08256050  0.74395445  0.21469870  1
  O  O37  1  0.74783717  0.07805515  0.54808641  1
  O  O38  1  0.66225685  0.51952273  0.64959227  1
  O  O39  1  0.31458028  0.85978392  0.98359850  1
  O  O40  1  0.97965640  0.19327748  0.31672682  1
  O  O41  1  0.68701060  0.14005552  0.01660618  1
  O  O42  1  0.35208672  0.47354908  0.34973450  1
  O  O43  1  0.00440915  0.81381127  0.68374173  1
  O  O44  1  0.91882983  0.25527785  0.78524659  1
  O  O45  1  0.58410650  0.58937855  0.11863430  1
  O  O46  1  0.24539833  0.93526395  0.44207719  1
  O  O47  1  0.00440915  0.50244800  0.81381127  1
  O  O48  1  0.68701060  0.84333830  0.14005552  1
  O  O49  1  0.35208672  0.17671542  0.47354908  1
  O  O50  1  0.58410650  0.29198615  0.58937855  1
  O  O51  1  0.24539833  0.62265986  0.93526395  1
  O  O52  1  0.91882983  0.95947556  0.25527785  1
  O  O53  1  0.74783717  0.37385744  0.07805515  1
  O  O54  1  0.42126767  0.71067414  0.39807005  1
  O  O55  1  0.08256050  0.04134685  0.74395445  1
  O  O56  1  0.31458028  0.15661758  0.85978392  1
  O  O57  1  0.97965640  0.48999470  0.19327748  1
  O  O58  1  0.66225685  0.83088600  0.51952273  1
