# generated using pymatgen
data_SrCa2Lu10O18
_symmetry_space_group_name_H-M   'P 1'
_cell_length_a   3.30592958
_cell_length_b   17.44104920
_cell_length_c   17.42957241
_cell_angle_alpha   120.02730205
_cell_angle_beta   90.07730090
_cell_angle_gamma   89.98747337
_symmetry_Int_Tables_number   1
_chemical_formula_structural   SrCa2Lu10O18
_chemical_formula_sum   'Sr2 Ca4 Lu20 O36'
_cell_volume   870.08878043
_cell_formula_units_Z   2
loop_
 _symmetry_equiv_pos_site_id
 _symmetry_equiv_pos_as_xyz
  1  'x, y, z'
loop_
 _atom_site_type_symbol
 _atom_site_label
 _atom_site_symmetry_multiplicity
 _atom_site_fract_x
 _atom_site_fract_y
 _atom_site_fract_z
 _atom_site_occupancy
  Sr  Sr0  1  0.46372497  0.33324786  0.67354319  1
  Sr  Sr1  1  0.96558757  0.66142628  0.33011030  1
  Ca  Ca2  1  0.75103579  0.67259475  0.00360608  1
  Ca  Ca3  1  0.75093252  0.99794055  0.67114296  1
  Ca  Ca4  1  0.75154169  0.32963770  0.32722498  1
  Ca  Ca5  1  0.25138476  0.32681715  0.99867276  1
  Lu  Lu6  1  0.24096219  0.10320495  0.55086005  1
  Lu  Lu7  1  0.24205672  0.44917379  0.55354498  1
  Lu  Lu8  1  0.24242292  0.44689358  0.89843965  1
  Lu  Lu9  1  0.74416055  0.89666814  0.44981956  1
  Lu  Lu10  1  0.74193099  0.54981244  0.44733259  1
  Lu  Lu11  1  0.74373420  0.55234386  0.10168505  1
  Lu  Lu12  1  0.25066463  0.76969121  0.88754325  1
  Lu  Lu13  1  0.25153916  0.11547733  0.88413567  1
  Lu  Lu14  1  0.25115206  0.11849676  0.23059337  1
  Lu  Lu15  1  0.75164230  0.23212744  0.11498406  1
  Lu  Lu16  1  0.75073996  0.88504415  0.11697692  1
  Lu  Lu17  1  0.75101299  0.88383075  0.76786687  1
  Lu  Lu18  1  0.25118287  0.00301171  0.32820919  1
  Lu  Lu19  1  0.25081753  0.67249962  0.67493506  1
  Lu  Lu20  1  0.25866506  0.43604780  0.21572739  1
  Lu  Lu21  1  0.26006438  0.78260194  0.22081483  1
  Lu  Lu22  1  0.25914231  0.77899948  0.56148713  1
  Lu  Lu23  1  0.75848095  0.56386275  0.78452837  1
  Lu  Lu24  1  0.75829891  0.21551581  0.78037217  1
  Lu  Lu25  1  0.75645791  0.22048779  0.43684407  1
  O  O26  1  0.25321151  0.11384329  0.74949124  1
  O  O27  1  0.25319247  0.24527267  0.36086555  1
  O  O28  1  0.25437189  0.64051486  0.88569690  1
  O  O29  1  0.75183243  0.89411815  0.25529467  1
  O  O30  1  0.75116217  0.74397473  0.63795329  1
  O  O31  1  0.75364079  0.36471951  0.11503461  1
  O  O32  1  0.25157390  0.78288210  0.09452341  1
  O  O33  1  0.25128462  0.90444446  0.68666387  1
  O  O34  1  0.25218332  0.31300180  0.22163200  1
  O  O35  1  0.75193362  0.22058460  0.90739180  1
  O  O36  1  0.75198649  0.08665891  0.31559627  1
  O  O37  1  0.75231068  0.68523038  0.77196819  1
  O  O38  1  0.25086747  0.97540597  0.16824503  1
  O  O39  1  0.25127279  0.83084749  0.80621438  1
  O  O40  1  0.25097469  0.18277614  0.02641845  1
  O  O41  1  0.75116632  0.02493492  0.84367065  1
  O  O42  1  0.75073158  0.15330341  0.18044465  1
  O  O43  1  0.75119484  0.82228922  0.97401619  1
  O  O44  1  0.24442231  0.63856070  0.46045409  1
  O  O45  1  0.24937888  0.54382543  0.18121975  1
  O  O46  1  0.24550029  0.82130684  0.36122157  1
  O  O47  1  0.74499680  0.36212375  0.54198461  1
  O  O48  1  0.74749222  0.45870967  0.81870687  1
  O  O49  1  0.74556962  0.17953219  0.63600976  1
  O  O50  1  0.25669581  0.30544185  0.79777321  1
  O  O51  1  0.25685930  0.19056963  0.49674392  1
  O  O52  1  0.25779207  0.50318603  0.69455134  1
  O  O53  1  0.75893977  0.69601520  0.19733589  1
  O  O54  1  0.75764915  0.80219191  0.49762295  1
  O  O55  1  0.75814651  0.50597688  0.30684354  1
  O  O56  1  0.24733372  0.45035230  0.42693730  1
  O  O57  1  0.24858148  0.57822267  0.02573185  1
  O  O58  1  0.24818427  0.97495729  0.54878510  1
  O  O59  1  0.75027431  0.56171857  0.58496510  1
  O  O60  1  0.74784329  0.42311806  0.97311921  1
  O  O61  1  0.75011269  0.02193282  0.43787228  1
