# generated using pymatgen
data_Sr3FeCo(ClO2)2
_symmetry_space_group_name_H-M   'P 1'
_cell_length_a   4.08957678
_cell_length_b   4.08957678
_cell_length_c   11.62818688
_cell_angle_alpha   79.87201266
_cell_angle_beta   79.87201266
_cell_angle_gamma   90.00000000
_symmetry_Int_Tables_number   1
_chemical_formula_structural   Sr3FeCo(ClO2)2
_chemical_formula_sum   'Sr3 Fe1 Co1 Cl2 O4'
_cell_volume   188.36755005
_cell_formula_units_Z   1
loop_
 _symmetry_equiv_pos_site_id
 _symmetry_equiv_pos_as_xyz
  1  'x, y, z'
loop_
 _atom_site_type_symbol
 _atom_site_label
 _atom_site_symmetry_multiplicity
 _atom_site_fract_x
 _atom_site_fract_y
 _atom_site_fract_z
 _atom_site_occupancy
  Sr  Sr0  1  0.15015178  0.15015178  0.69969644  1
  Sr  Sr1  1  0.84921130  0.84921130  0.30157741  1
  Sr  Sr2  1  0.00280860  0.00280860  0.99438280  1
  Fe  Fe3  1  0.42652126  0.42652126  0.14695748  1
  Co  Co4  1  0.57959395  0.57959395  0.84081211  1
  Cl  Cl5  1  0.29439728  0.29439728  0.41120543  1
  Cl  Cl6  1  0.69780034  0.69780034  0.60439933  1
  O  O7  1  0.42277021  0.92277021  0.15445959  1
  O  O8  1  0.92277021  0.42277021  0.15445959  1
  O  O9  1  0.57698754  0.07698754  0.84602492  1
  O  O10  1  0.07698754  0.57698754  0.84602492  1
