# generated using pymatgen
data_Sr2LaTi2Nb3O15
_symmetry_space_group_name_H-M   'P 1'
_cell_length_a   3.96007083
_cell_length_b   12.53131487
_cell_length_c   12.44021247
_cell_angle_alpha   90.00000000
_cell_angle_beta   90.00000000
_cell_angle_gamma   90.00000000
_symmetry_Int_Tables_number   1
_chemical_formula_structural   Sr2LaTi2Nb3O15
_chemical_formula_sum   'Sr4 La2 Ti4 Nb6 O30'
_cell_volume   617.34423111
_cell_formula_units_Z   2
loop_
 _symmetry_equiv_pos_site_id
 _symmetry_equiv_pos_as_xyz
  1  'x, y, z'
loop_
 _atom_site_type_symbol
 _atom_site_label
 _atom_site_symmetry_multiplicity
 _atom_site_fract_x
 _atom_site_fract_y
 _atom_site_fract_z
 _atom_site_occupancy
  Sr  Sr0  1  0.00000000  0.83166418  0.66993850  1
  Sr  Sr1  1  0.00000000  0.16833582  0.33006150  1
  Sr  Sr2  1  0.00000000  0.66833582  0.16993850  1
  Sr  Sr3  1  0.00000000  0.33166418  0.83006150  1
  La  La4  1  0.00000000  0.50000000  0.50000000  1
  La  La5  1  -0.00000000  0.00000000  0.00000000  1
  Ti  Ti6  1  0.50000000  0.57851570  0.71138877  1
  Ti  Ti7  1  0.50000000  0.42148430  0.28861123  1
  Ti  Ti8  1  0.50000000  0.92148430  0.21138877  1
  Ti  Ti9  1  0.50000000  0.07851570  0.78861123  1
  Nb  Nb10  1  0.50000000  0.71114931  0.41971177  1
  Nb  Nb11  1  0.50000000  0.28885069  0.58028823  1
  Nb  Nb12  1  0.50000000  0.21114931  0.08028823  1
  Nb  Nb13  1  0.50000000  0.78885069  0.91971177  1
  Nb  Nb14  1  0.50000000  0.50000000  0.00000000  1
  Nb  Nb15  1  0.50000000  0.00000000  0.50000000  1
  O  O16  1  0.50000000  0.99298245  0.66015013  1
  O  O17  1  0.50000000  0.00701755  0.33984987  1
  O  O18  1  0.50000000  0.50701755  0.16015013  1
  O  O19  1  0.50000000  0.49298245  0.83984987  1
  O  O20  1  0.50000000  0.66042464  0.01303846  1
  O  O21  1  0.50000000  0.33957536  0.98696154  1
  O  O22  1  0.50000000  0.16042464  0.48696154  1
  O  O23  1  0.50000000  0.83957536  0.51303846  1
  O  O24  1  0.00000000  0.57788606  0.69695197  1
  O  O25  1  0.00000000  0.42211394  0.30304803  1
  O  O26  1  0.00000000  0.92211394  0.19695197  1
  O  O27  1  0.00000000  0.07788606  0.80304803  1
  O  O28  1  0.00000000  0.69959946  0.42020346  1
  O  O29  1  0.00000000  0.30040054  0.57979654  1
  O  O30  1  0.00000000  0.19959946  0.07979654  1
  O  O31  1  0.00000000  0.80040054  0.92020346  1
  O  O32  1  0.50000000  0.63133352  0.56169193  1
  O  O33  1  0.50000000  0.36866648  0.43830807  1
  O  O34  1  0.50000000  0.86866648  0.06169193  1
  O  O35  1  0.50000000  0.13133352  0.93830807  1
  O  O36  1  0.50000000  0.56274890  0.36561659  1
  O  O37  1  0.50000000  0.43725110  0.63438341  1
  O  O38  1  0.50000000  0.06274890  0.13438341  1
  O  O39  1  0.50000000  0.93725110  0.86561659  1
  O  O40  1  0.50000000  0.72718796  0.77150179  1
  O  O41  1  0.50000000  0.27281204  0.22849821  1
  O  O42  1  0.50000000  0.77281204  0.27150179  1
  O  O43  1  0.50000000  0.22718796  0.72849821  1
  O  O44  1  0.00000000  0.50000000  0.00000000  1
  O  O45  1  0.00000000  0.00000000  0.50000000  1
