# generated using pymatgen
data_Sr2GdCr(CuO4)2
_symmetry_space_group_name_H-M   'P 1'
_cell_length_a   3.85364178
_cell_length_b   3.85364178
_cell_length_c   11.52666953
_cell_angle_alpha   90.02780569
_cell_angle_beta   89.97219431
_cell_angle_gamma   89.83012318
_symmetry_Int_Tables_number   1
_chemical_formula_structural   Sr2GdCr(CuO4)2
_chemical_formula_sum   'Sr2 Gd1 Cr1 Cu2 O8'
_cell_volume   171.17664635
_cell_formula_units_Z   1
loop_
 _symmetry_equiv_pos_site_id
 _symmetry_equiv_pos_as_xyz
  1  'x, y, z'
loop_
 _atom_site_type_symbol
 _atom_site_label
 _atom_site_symmetry_multiplicity
 _atom_site_fract_x
 _atom_site_fract_y
 _atom_site_fract_z
 _atom_site_occupancy
  Sr  Sr0  1  0.49020425  0.49130318  0.66561892  1
  Sr  Sr1  1  0.49130318  0.49020425  0.33438108  1
  Gd  Gd2  1  0.49911260  0.49911260  -0.00000000  1
  Cr  Cr3  1  0.98931232  0.98931232  0.50000000  1
  Cu  Cu4  1  0.99767647  0.99829197  0.84358886  1
  Cu  Cu5  1  0.99829197  0.99767647  0.15641114  1
  O  O6  1  0.49780538  0.99944804  0.87312645  1
  O  O7  1  0.99908264  0.49819558  0.87313544  1
  O  O8  1  0.49819558  0.99908264  0.12686456  1
  O  O9  1  0.99944804  0.49780538  0.12687355  1
  O  O10  1  0.99314746  0.99388973  0.66645801  1
  O  O11  1  0.99388973  0.99314746  0.33354199  1
  O  O12  1  0.49058411  0.98674626  0.50000262  1
  O  O13  1  0.98674626  0.49058411  0.49999738  1
