# generated using pymatgen
data_SmGePt
_symmetry_space_group_name_H-M   'P 1'
_cell_length_a   4.40662727
_cell_length_b   5.79655474
_cell_length_c   5.72389214
_cell_angle_alpha   94.29158022
_cell_angle_beta   112.63957174
_cell_angle_gamma   67.65965626
_symmetry_Int_Tables_number   1
_chemical_formula_structural   SmGePt
_chemical_formula_sum   'Sm2 Ge2 Pt2'
_cell_volume   124.37411318
_cell_formula_units_Z   2
loop_
 _symmetry_equiv_pos_site_id
 _symmetry_equiv_pos_as_xyz
  1  'x, y, z'
loop_
 _atom_site_type_symbol
 _atom_site_label
 _atom_site_symmetry_multiplicity
 _atom_site_fract_x
 _atom_site_fract_y
 _atom_site_fract_z
 _atom_site_occupancy
  Sm  Sm0  1  0.76317554  0.68911818  0.21546927  1
  Sm  Sm1  1  0.23682446  0.31088182  0.78453073  1
  Ge  Ge2  1  0.06586072  0.09587602  0.22759746  1
  Ge  Ge3  1  0.93413928  0.90412398  0.77240254  1
  Pt  Pt4  1  0.54097947  0.27939951  0.36135846  1
  Pt  Pt5  1  0.45902053  0.72060049  0.63864154  1
