# generated using pymatgen
data_SrEu3(NiO4)2
_symmetry_space_group_name_H-M   'P 1'
_cell_length_a   5.38033398
_cell_length_b   6.76451082
_cell_length_c   5.40384303
_cell_angle_alpha   66.45769992
_cell_angle_beta   90.00000000
_cell_angle_gamma   90.00000000
_symmetry_Int_Tables_number   1
_chemical_formula_structural   SrEu3(NiO4)2
_chemical_formula_sum   'Sr1 Eu3 Ni2 O8'
_cell_volume   180.30450906
_cell_formula_units_Z   1
loop_
 _symmetry_equiv_pos_site_id
 _symmetry_equiv_pos_as_xyz
  1  'x, y, z'
loop_
 _atom_site_type_symbol
 _atom_site_label
 _atom_site_symmetry_multiplicity
 _atom_site_fract_x
 _atom_site_fract_y
 _atom_site_fract_z
 _atom_site_occupancy
  Sr  Sr0  1  0.00000000  0.71632394  0.64183803  1
  Eu  Eu1  1  0.50000000  0.72153906  0.13923047  1
  Eu  Eu2  1  0.50000000  0.28108287  0.85945857  1
  Eu  Eu3  1  0.00000000  0.27963970  0.36018015  1
  Ni  Ni4  1  0.50000000  0.99426698  0.50286651  1
  Ni  Ni5  1  0.00000000  0.99864632  0.00067684  1
  O  O6  1  0.50000000  0.34640773  0.32679613  1
  O  O7  1  0.00000000  0.32354140  0.83822930  1
  O  O8  1  0.00000000  0.65674916  0.17162542  1
  O  O9  1  0.50000000  0.65441521  0.67279240  1
  O  O10  1  0.25345158  0.00684691  0.24301615  1
  O  O11  1  0.74654842  0.00684691  0.75013694  1
  O  O12  1  0.74654842  0.00684691  0.24301615  1
  O  O13  1  0.25345158  0.00684691  0.75013694  1
