# generated using pymatgen
data_PH9C(NO)4
_symmetry_space_group_name_H-M   'P 1'
_cell_length_a   6.95697017
_cell_length_b   7.52992285
_cell_length_c   7.40908443
_cell_angle_alpha   87.04008029
_cell_angle_beta   81.38916484
_cell_angle_gamma   77.47340264
_symmetry_Int_Tables_number   1
_chemical_formula_structural   PH9C(NO)4
_chemical_formula_sum   'P2 H18 C2 N8 O8'
_cell_volume   374.54433473
_cell_formula_units_Z   2
loop_
 _symmetry_equiv_pos_site_id
 _symmetry_equiv_pos_as_xyz
  1  'x, y, z'
loop_
 _atom_site_type_symbol
 _atom_site_label
 _atom_site_symmetry_multiplicity
 _atom_site_fract_x
 _atom_site_fract_y
 _atom_site_fract_z
 _atom_site_occupancy
  P  P0  1  0.30241615  0.75259970  0.99623093  1
  P  P1  1  0.69048487  0.23844346  0.00833240  1
  H  H2  1  0.91946903  0.75954443  0.81769484  1
  H  H3  1  0.08116939  0.24319084  0.18203805  1
  H  H4  1  0.94199313  0.77572801  0.26223657  1
  H  H5  1  0.05841771  0.22687277  0.73644771  1
  H  H6  1  0.46167644  0.50016738  0.84188366  1
  H  H7  1  0.55304913  0.49956176  0.15737582  1
  H  H8  1  0.22973819  0.69090884  0.62459777  1
  H  H9  1  0.77082937  0.30795291  0.37491296  1
  H  H10  1  0.60591364  0.71072786  0.35060198  1
  H  H11  1  0.39401408  0.29031804  0.65073113  1
  H  H12  1  0.98487533  0.02634947  0.99638166  1
  H  H13  1  0.70112434  0.78425731  0.71566973  1
  H  H14  1  0.30015822  0.21391358  0.28379530  1
  H  H15  1  0.60660441  0.92860445  0.35240421  1
  H  H16  1  0.39583196  0.07144913  0.64305165  1
  H  H17  1  0.23415662  0.70566241  0.38458254  1
  H  H18  1  0.76757711  0.29517630  0.61531699  1
  H  H19  1  0.48521798  0.97446431  0.98729859  1
  C  C20  1  0.95762343  0.74910049  0.53851220  1
  C  C21  1  0.04324510  0.25140032  0.46090303  1
  N  N22  1  0.65412155  0.80590307  0.41572681  1
  N  N23  1  0.34657944  0.19584054  0.58395435  1
  N  N24  1  0.86306963  0.76536623  0.39023891  1
  N  N25  1  0.13798573  0.23500765  0.60882690  1
  N  N26  1  0.85251452  0.75514466  0.70525076  1
  N  N27  1  0.14894031  0.24465139  0.29425860  1
  N  N28  1  0.15547496  0.72592034  0.51431843  1
  N  N29  1  0.84559761  0.27488772  0.48528666  1
  O  O30  1  0.42465345  0.89752884  0.90616715  1
  O  O31  1  0.58638908  0.08664983  0.08403957  1
  O  O32  1  0.38303411  0.66566559  0.16829899  1
  O  O33  1  0.62589030  0.33544716  0.83431696  1
  O  O34  1  0.07896198  0.83544848  0.02379574  1
  O  O35  1  0.92617480  0.16553939  0.97425264  1
  O  O36  1  0.33667819  0.60547892  0.84201267  1
  O  O37  1  0.66784871  0.38642642  0.16125516  1
