# generated using pymatgen
data_SbPbBrO2
_symmetry_space_group_name_H-M   'P 1'
_cell_length_a   3.93193077
_cell_length_b   3.93193077
_cell_length_c   7.07096967
_cell_angle_alpha   73.85713607
_cell_angle_beta   73.85713607
_cell_angle_gamma   90.00000000
_symmetry_Int_Tables_number   1
_chemical_formula_structural   SbPbBrO2
_chemical_formula_sum   'Sb1 Pb1 Br1 O2'
_cell_volume   100.51260168
_cell_formula_units_Z   1
loop_
 _symmetry_equiv_pos_site_id
 _symmetry_equiv_pos_as_xyz
  1  'x, y, z'
loop_
 _atom_site_type_symbol
 _atom_site_label
 _atom_site_symmetry_multiplicity
 _atom_site_fract_x
 _atom_site_fract_y
 _atom_site_fract_z
 _atom_site_occupancy
  Sb  Sb0  1  0.67105369  0.67105369  0.65789263  1
  Pb  Pb1  1  0.36118642  0.36118642  0.27762717  1
  Br  Br2  1  0.00199306  0.00199306  0.99601388  1
  O  O3  1  0.74498342  0.24498342  0.51003316  1
  O  O4  1  0.24498342  0.74498342  0.51003316  1
