# generated using pymatgen
data_Pr5S2N3Cl2
_symmetry_space_group_name_H-M   'P 1'
_cell_length_a   4.08161704
_cell_length_b   8.23598687
_cell_length_c   17.09847162
_cell_angle_alpha   101.56319987
_cell_angle_beta   90.00000003
_cell_angle_gamma   75.65312645
_symmetry_Int_Tables_number   1
_chemical_formula_structural   Pr5S2N3Cl2
_chemical_formula_sum   'Pr10 S4 N6 Cl4'
_cell_volume   544.80966038
_cell_formula_units_Z   2
loop_
 _symmetry_equiv_pos_site_id
 _symmetry_equiv_pos_as_xyz
  1  'x, y, z'
loop_
 _atom_site_type_symbol
 _atom_site_label
 _atom_site_symmetry_multiplicity
 _atom_site_fract_x
 _atom_site_fract_y
 _atom_site_fract_z
 _atom_site_occupancy
  Pr  Pr0  1  0.76437445  0.47125110  0.79437727  1
  Pr  Pr1  1  0.23562555  0.52874890  0.20562273  1
  Pr  Pr2  1  0.51760617  0.96478765  0.83595423  1
  Pr  Pr3  1  0.48239383  0.03521235  0.16404577  1
  Pr  Pr4  1  0.57433232  0.85133537  0.40513447  1
  Pr  Pr5  1  0.42566768  0.14866463  0.59486553  1
  Pr  Pr6  1  0.85869987  0.28260025  0.42532722  1
  Pr  Pr7  1  0.14130013  0.71739975  0.57467278  1
  Pr  Pr8  1  0.88629192  0.22741616  0.03129768  1
  Pr  Pr9  1  0.11370808  0.77258384  0.96870232  1
  S  S10  1  0.95793256  0.08413489  0.70931990  1
  S  S11  1  0.04206744  0.91586511  0.29068010  1
  S  S12  1  0.78757820  0.42484359  0.59503502  1
  S  S13  1  0.21242180  0.57515641  0.40496498  1
  N  N14  1  0.99392237  0.01215526  0.91016607  1
  N  N15  1  0.00607763  0.98784474  0.08983393  1
  N  N16  1  0.64806061  0.70387879  0.88993762  1
  N  N17  1  0.35193939  0.29612121  0.11006238  1
  N  N18  1  0.57480330  0.85039340  0.54553637  1
  N  N19  1  0.42519670  0.14960660  0.45446363  1
  Cl  Cl20  1  0.83435470  0.33129061  0.26040592  1
  Cl  Cl21  1  0.16564530  0.66870939  0.73959408  1
  Cl  Cl22  1  0.68047961  0.63904078  0.10481857  1
  Cl  Cl23  1  0.31952039  0.36095922  0.89518143  1
