# generated using pymatgen
data_Rb12Sn2Bi6O
_symmetry_space_group_name_H-M   'P 1'
_cell_length_a   6.35137980
_cell_length_b   13.12620937
_cell_length_c   13.12973445
_cell_angle_alpha   60.00834810
_cell_angle_beta   89.99987866
_cell_angle_gamma   90.00055135
_symmetry_Int_Tables_number   1
_chemical_formula_structural   Rb12Sn2Bi6O
_chemical_formula_sum   'Rb12 Sn2 Bi6 O1'
_cell_volume   948.04840515
_cell_formula_units_Z   1
loop_
 _symmetry_equiv_pos_site_id
 _symmetry_equiv_pos_as_xyz
  1  'x, y, z'
loop_
 _atom_site_type_symbol
 _atom_site_label
 _atom_site_symmetry_multiplicity
 _atom_site_fract_x
 _atom_site_fract_y
 _atom_site_fract_z
 _atom_site_occupancy
  Rb  Rb0  1  0.75042751  0.54838870  0.54838907  1
  Rb  Rb1  1  0.75043024  0.54838456  0.90323370  1
  Rb  Rb2  1  0.75042631  0.90322105  0.54839157  1
  Rb  Rb3  1  0.24957249  0.45161130  0.45161093  1
  Rb  Rb4  1  0.24956976  0.45161544  0.09676630  1
  Rb  Rb5  1  0.24957369  0.09677895  0.45160843  1
  Rb  Rb6  1  0.72153251  0.89098881  0.89097773  1
  Rb  Rb7  1  0.72154655  0.89098175  0.21803811  1
  Rb  Rb8  1  0.72154303  0.21803199  0.89098593  1
  Rb  Rb9  1  0.27846749  0.10901119  0.10902227  1
  Rb  Rb10  1  0.27845345  0.10901825  0.78196189  1
  Rb  Rb11  1  0.27845697  0.78196801  0.10901407  1
  Sn  Sn12  1  0.24832454  0.66657464  0.66685129  1
  Sn  Sn13  1  0.75167546  0.33342536  0.33314871  1
  Bi  Bi14  1  0.75613346  0.20745595  0.20744798  1
  Bi  Bi15  1  0.75614301  0.20740340  0.58519224  1
  Bi  Bi16  1  0.75613105  0.58509947  0.20744649  1
  Bi  Bi17  1  0.24386654  0.79254405  0.79255202  1
  Bi  Bi18  1  0.24385699  0.79259660  0.41480776  1
  Bi  Bi19  1  0.24386895  0.41490053  0.79255351  1
  O  O20  1  0.50000000  -0.00000000  0.00000000  1
