# generated using pymatgen
data_Ni6S5
_symmetry_space_group_name_H-M   'P 1'
_cell_length_a   3.25840900
_cell_length_b   6.02395802
_cell_length_c   16.24262821
_cell_angle_alpha   90.00000000
_cell_angle_beta   90.00000000
_cell_angle_gamma   74.30870627
_symmetry_Int_Tables_number   1
_chemical_formula_structural   Ni6S5
_chemical_formula_sum   'Ni12 S10'
_cell_volume   306.93727263
_cell_formula_units_Z   2
loop_
 _symmetry_equiv_pos_site_id
 _symmetry_equiv_pos_as_xyz
  1  'x, y, z'
loop_
 _atom_site_type_symbol
 _atom_site_label
 _atom_site_symmetry_multiplicity
 _atom_site_fract_x
 _atom_site_fract_y
 _atom_site_fract_z
 _atom_site_occupancy
  Ni  Ni0  1  0.46094521  0.07810959  0.17417606  1
  Ni  Ni1  1  0.53692705  0.92614589  0.82597779  1
  Ni  Ni2  1  0.46307295  0.07385411  0.32597779  1
  Ni  Ni3  1  0.53905479  0.92189041  0.67417606  1
  Ni  Ni4  1  0.66010628  0.67978744  0.25201772  1
  Ni  Ni5  1  0.33989372  0.32021256  0.75201772  1
  Ni  Ni6  1  0.18754944  0.62490112  0.04127206  1
  Ni  Ni7  1  0.80321835  0.39356330  0.96308633  1
  Ni  Ni8  1  0.19678165  0.60643670  0.46308633  1
  Ni  Ni9  1  0.81245056  0.37509888  0.54127206  1
  Ni  Ni10  1  0.99774575  0.00450851  0.46950608  1
  Ni  Ni11  1  0.00225425  0.99549149  0.96950608  1
  S  S12  1  0.88958709  0.22082582  0.84616303  1
  S  S13  1  0.10466652  0.79066697  0.15764520  1
  S  S14  1  0.89533348  0.20933303  0.65764520  1
  S  S15  1  0.11041291  0.77917418  0.34616303  1
  S  S16  1  0.38007372  0.23985255  0.04573677  1
  S  S17  1  0.62367720  0.75264560  0.94929558  1
  S  S18  1  0.37632280  0.24735440  0.44929558  1
  S  S19  1  0.61992628  0.76014745  0.54573677  1
  S  S20  1  0.85884396  0.28231209  0.24812337  1
  S  S21  1  0.14115604  0.71768791  0.74812337  1
