# generated using pymatgen
data_Mn3Cr2Te3O16
_symmetry_space_group_name_H-M   'P 1'
_cell_length_a   6.30987433
_cell_length_b   6.03832512
_cell_length_c   9.15261679
_cell_angle_alpha   89.99946198
_cell_angle_beta   93.88829702
_cell_angle_gamma   118.59184554
_symmetry_Int_Tables_number   1
_chemical_formula_structural   Mn3Cr2Te3O16
_chemical_formula_sum   'Mn3 Cr2 Te3 O16'
_cell_volume   305.28355565
_cell_formula_units_Z   1
loop_
 _symmetry_equiv_pos_site_id
 _symmetry_equiv_pos_as_xyz
  1  'x, y, z'
loop_
 _atom_site_type_symbol
 _atom_site_label
 _atom_site_symmetry_multiplicity
 _atom_site_fract_x
 _atom_site_fract_y
 _atom_site_fract_z
 _atom_site_occupancy
  Mn  Mn0  1  0.66396318  0.83195547  0.21075443  1
  Mn  Mn1  1  0.82484587  0.66271755  0.70558694  1
  Mn  Mn2  1  0.82479056  0.16222022  0.70566241  1
  Cr  Cr3  1  0.34862307  0.67444216  0.50028770  1
  Cr  Cr4  1  0.69612346  0.34805549  0.97353504  1
  Te  Te5  1  0.16690813  0.83329990  0.21225061  1
  Te  Te6  1  0.16695793  0.33345859  0.21224523  1
  Te  Te7  1  0.33207901  0.16611067  0.71249808  1
  O  O8  1  0.18957836  0.84591645  0.60163103  1
  O  O9  1  0.05011144  0.52497831  0.33990368  1
  O  O10  1  0.29152064  0.64573723  0.09163014  1
  O  O11  1  0.03213430  0.01598198  0.32346596  1
  O  O12  1  0.02112419  0.01044092  0.80609879  1
  O  O13  1  0.18945036  0.34372423  0.60168647  1
  O  O14  1  0.45246793  0.95274766  0.34056981  1
  O  O15  1  0.45245026  0.49973297  0.34052803  1
  O  O16  1  0.31498223  0.15741339  0.10478461  1
  O  O17  1  0.67467486  0.83746868  0.59636676  1
  O  O18  1  0.50774380  0.46474561  0.84810277  1
  O  O19  1  0.50792483  0.04308473  0.84794607  1
  O  O20  1  0.63251562  0.31648746  0.60252055  1
  O  O21  1  0.86086840  0.67768046  0.10258758  1
  O  O22  1  0.93728664  0.46865917  0.83246504  1
  O  O23  1  0.86087692  0.18314069  0.10261326  1
