# generated using pymatgen
data_NdTiFe11C
_symmetry_space_group_name_H-M   'P 1'
_cell_length_a   4.95467269
_cell_length_b   6.52996822
_cell_length_c   6.52996822
_cell_angle_alpha   97.98396832
_cell_angle_beta   112.29525525
_cell_angle_gamma   67.70474475
_symmetry_Int_Tables_number   1
_chemical_formula_structural   NdTiFe11C
_chemical_formula_sum   'Nd1 Ti1 Fe11 C1'
_cell_volume   180.85872652
_cell_formula_units_Z   1
loop_
 _symmetry_equiv_pos_site_id
 _symmetry_equiv_pos_as_xyz
  1  'x, y, z'
loop_
 _atom_site_type_symbol
 _atom_site_label
 _atom_site_symmetry_multiplicity
 _atom_site_fract_x
 _atom_site_fract_y
 _atom_site_fract_z
 _atom_site_occupancy
  Nd  Nd0  1  0.00670617  0.99329383  0.00670617  1
  Ti  Ti1  1  0.63349795  0.36650205  0.63349795  1
  Fe  Fe2  1  0.72487333  0.77512667  0.22487333  1
  Fe  Fe3  1  0.27691375  0.22308625  0.77691375  1
  Fe  Fe4  1  0.49777242  0.78082076  0.77636561  1
  Fe  Fe5  1  0.49777242  0.22363439  0.21917924  1
  Fe  Fe6  1  0.50013575  0.99750663  0.49902852  1
  Fe  Fe7  1  0.00138613  0.99750663  0.49902852  1
  Fe  Fe8  1  0.50013575  0.50097148  0.00249337  1
  Fe  Fe9  1  0.00138613  0.50097148  0.00249337  1
  Fe  Fe10  1  0.35841685  0.64158315  0.35841685  1
  Fe  Fe11  1  0.99976089  0.36028775  0.35980953  1
  Fe  Fe12  1  0.99976089  0.64019047  0.63971225  1
  C  C13  1  0.50148155  0.99851845  0.00148155  1
