# generated using pymatgen
data_Pr2FeCo3
_symmetry_space_group_name_H-M   'P 1'
_cell_length_a   5.40512407
_cell_length_b   5.40512407
_cell_length_c   5.09258570
_cell_angle_alpha   90.00000000
_cell_angle_beta   57.94820846
_cell_angle_gamma   120.00000000
_symmetry_Int_Tables_number   1
_chemical_formula_structural   Pr2FeCo3
_chemical_formula_sum   'Pr2 Fe1 Co3'
_cell_volume   101.82290839
_cell_formula_units_Z   1
loop_
 _symmetry_equiv_pos_site_id
 _symmetry_equiv_pos_as_xyz
  1  'x, y, z'
loop_
 _atom_site_type_symbol
 _atom_site_label
 _atom_site_symmetry_multiplicity
 _atom_site_fract_x
 _atom_site_fract_y
 _atom_site_fract_z
 _atom_site_occupancy
  Pr  Pr0  1  0.49338966  0.74669483  0.75991552  1
  Pr  Pr1  1  0.00661034  0.00330517  0.99008448  1
  Fe  Fe2  1  0.75000000  0.37500000  0.87500000  1
  Co  Co3  1  0.25000000  0.37500000  0.37500000  1
  Co  Co4  1  0.25000000  0.87500000  0.37500000  1
  Co  Co5  1  0.75000000  0.37500000  0.37500000  1
