# generated using pymatgen
data_Nb12Al3Ge
_symmetry_space_group_name_H-M   'P 1'
_cell_length_a   5.20215277
_cell_length_b   5.19889453
_cell_length_c   10.39360786
_cell_angle_alpha   90.00000000
_cell_angle_beta   90.00000000
_cell_angle_gamma   90.00000000
_symmetry_Int_Tables_number   1
_chemical_formula_structural   Nb12Al3Ge
_chemical_formula_sum   'Nb12 Al3 Ge1'
_cell_volume   281.09973497
_cell_formula_units_Z   1
loop_
 _symmetry_equiv_pos_site_id
 _symmetry_equiv_pos_as_xyz
  1  'x, y, z'
loop_
 _atom_site_type_symbol
 _atom_site_label
 _atom_site_symmetry_multiplicity
 _atom_site_fract_x
 _atom_site_fract_y
 _atom_site_fract_z
 _atom_site_occupancy
  Nb  Nb0  1  -0.00000000  0.50000000  0.37510130  1
  Nb  Nb1  1  -0.00000000  0.50000000  0.87495863  1
  Nb  Nb2  1  0.50000000  0.24931551  -0.00000000  1
  Nb  Nb3  1  0.50000000  0.24993612  0.50000000  1
  Nb  Nb4  1  0.74969555  0.00000000  0.25022788  1
  Nb  Nb5  1  0.74969555  0.00000000  0.74977212  1
  Nb  Nb6  1  -0.00000000  0.50000000  0.12504137  1
  Nb  Nb7  1  -0.00000000  0.50000000  0.62489870  1
  Nb  Nb8  1  0.50000000  0.75068449  -0.00000000  1
  Nb  Nb9  1  0.50000000  0.75006388  0.50000000  1
  Nb  Nb10  1  0.25030445  -0.00000000  0.25022788  1
  Nb  Nb11  1  0.25030445  -0.00000000  0.74977212  1
  Al  Al12  1  0.50000000  0.50000000  0.25013715  1
  Al  Al13  1  0.50000000  0.50000000  0.74986285  1
  Al  Al14  1  -0.00000000  0.00000000  -0.00000000  1
  Ge  Ge15  1  -0.00000000  0.00000000  0.50000000  1
