# generated using pymatgen
data_Mn5Sb4
_symmetry_space_group_name_H-M   'P 1'
_cell_length_a   4.27569161
_cell_length_b   4.27733727
_cell_length_c   10.95754578
_cell_angle_alpha   90.00000000
_cell_angle_beta   90.00000000
_cell_angle_gamma   59.98726114
_symmetry_Int_Tables_number   1
_chemical_formula_structural   Mn5Sb4
_chemical_formula_sum   'Mn5 Sb4'
_cell_volume   173.52738893
_cell_formula_units_Z   1
loop_
 _symmetry_equiv_pos_site_id
 _symmetry_equiv_pos_as_xyz
  1  'x, y, z'
loop_
 _atom_site_type_symbol
 _atom_site_label
 _atom_site_symmetry_multiplicity
 _atom_site_fract_x
 _atom_site_fract_y
 _atom_site_fract_z
 _atom_site_occupancy
  Mn  Mn0  1  0.00000712  0.99999644  0.25008061  1
  Mn  Mn1  1  0.00002155  -0.00001077  0.74860281  1
  Mn  Mn2  1  0.00000712  0.99999644  -0.00008061  1
  Mn  Mn3  1  0.00002155  -0.00001077  0.50139719  1
  Mn  Mn4  1  0.33346373  0.33326814  0.12500000  1
  Sb  Sb5  1  0.33291505  0.33354247  0.37720948  1
  Sb  Sb6  1  0.33291505  0.33354247  0.87279052  1
  Sb  Sb7  1  0.66669225  0.66665387  0.12500000  1
  Sb  Sb8  1  0.66735659  0.66632171  0.62500000  1
