# generated using pymatgen
data_NaFeRuO4
_symmetry_space_group_name_H-M   'P 1'
_cell_length_a   2.98617647
_cell_length_b   9.45333718
_cell_length_c   10.97484015
_cell_angle_alpha   90.00000000
_cell_angle_beta   90.00000000
_cell_angle_gamma   90.00000000
_symmetry_Int_Tables_number   1
_chemical_formula_structural   NaFeRuO4
_chemical_formula_sum   'Na4 Fe4 Ru4 O16'
_cell_volume   309.81241776
_cell_formula_units_Z   4
loop_
 _symmetry_equiv_pos_site_id
 _symmetry_equiv_pos_as_xyz
  1  'x, y, z'
loop_
 _atom_site_type_symbol
 _atom_site_label
 _atom_site_symmetry_multiplicity
 _atom_site_fract_x
 _atom_site_fract_y
 _atom_site_fract_z
 _atom_site_occupancy
  Na  Na0  1  0.75000000  0.26092334  0.84936611  1
  Na  Na1  1  0.75000000  0.76092334  0.65063389  1
  Na  Na2  1  0.25000000  0.73907666  0.15063389  1
  Na  Na3  1  0.25000000  0.23907666  0.34936611  1
  Fe  Fe4  1  0.75000000  0.41942401  0.09764314  1
  Fe  Fe5  1  0.75000000  0.91942401  0.40235686  1
  Fe  Fe6  1  0.25000000  0.58057599  0.90235686  1
  Fe  Fe7  1  0.25000000  0.08057599  0.59764314  1
  Ru  Ru8  1  0.75000000  0.44085480  0.62119169  1
  Ru  Ru9  1  0.75000000  0.94085480  0.87880831  1
  Ru  Ru10  1  0.25000000  0.55914520  0.37880831  1
  Ru  Ru11  1  0.25000000  0.05914520  0.12119169  1
  O  O12  1  0.75000000  0.53251122  0.78361447  1
  O  O13  1  0.75000000  0.03251122  0.71638553  1
  O  O14  1  0.25000000  0.46748878  0.21638553  1
  O  O15  1  0.25000000  0.96748878  0.28361447  1
  O  O16  1  0.75000000  0.61734833  0.02101796  1
  O  O17  1  0.75000000  0.11734833  0.47898204  1
  O  O18  1  0.25000000  0.38265167  0.97898204  1
  O  O19  1  0.25000000  0.88265167  0.52101796  1
  O  O20  1  0.75000000  0.19623124  0.15432208  1
  O  O21  1  0.75000000  0.69623124  0.34567792  1
  O  O22  1  0.25000000  0.80376876  0.84567792  1
  O  O23  1  0.25000000  0.30376876  0.65432208  1
  O  O24  1  0.75000000  0.42259178  0.43865855  1
  O  O25  1  0.75000000  0.92259178  0.06134145  1
  O  O26  1  0.25000000  0.57740822  0.56134145  1
  O  O27  1  0.25000000  0.07740822  0.93865855  1
