# generated using pymatgen
data_MnSi2Pd3
_symmetry_space_group_name_H-M   'P 1'
_cell_length_a   3.50508368
_cell_length_b   6.53176290
_cell_length_c   11.30639788
_cell_angle_alpha   89.65396976
_cell_angle_beta   90.00000000
_cell_angle_gamma   90.00000000
_symmetry_Int_Tables_number   1
_chemical_formula_structural   MnSi2Pd3
_chemical_formula_sum   'Mn3 Si6 Pd9'
_cell_volume   258.84819849
_cell_formula_units_Z   3
loop_
 _symmetry_equiv_pos_site_id
 _symmetry_equiv_pos_as_xyz
  1  'x, y, z'
loop_
 _atom_site_type_symbol
 _atom_site_label
 _atom_site_symmetry_multiplicity
 _atom_site_fract_x
 _atom_site_fract_y
 _atom_site_fract_z
 _atom_site_occupancy
  Mn  Mn0  1  0.50000000  0.10123157  0.49193989  1
  Mn  Mn1  1  0.50000000  0.59664727  0.00535470  1
  Mn  Mn2  1  0.50000000  0.20555008  0.20071166  1
  Si  Si3  1  0.00000000  0.99848882  0.32805389  1
  Si  Si4  1  0.00000000  0.49390715  0.82855595  1
  Si  Si5  1  0.00000000  0.50298086  0.16966391  1
  Si  Si6  1  -0.00000000  0.99684619  0.67295883  1
  Si  Si7  1  0.50000000  0.00491968  0.99979242  1
  Si  Si8  1  0.50000000  0.51016815  0.49887448  1
  Pd  Pd9  1  0.50000000  0.69317320  0.69847190  1
  Pd  Pd10  1  0.50000000  0.69667159  0.30096446  1
  Pd  Pd11  1  0.50000000  0.19710970  0.80315986  1
  Pd  Pd12  1  0.00000000  0.27019417  0.00218163  1
  Pd  Pd13  1  0.00000000  0.77828395  0.50207823  1
  Pd  Pd14  1  0.00000000  0.36288499  0.37161690  1
  Pd  Pd15  1  0.00000000  0.85771085  0.87220213  1
  Pd  Pd16  1  0.00000000  0.87269200  0.12747753  1
  Pd  Pd17  1  0.00000000  0.36033977  0.62594164  1
