# generated using pymatgen
data_Na3NiO2
_symmetry_space_group_name_H-M   'P 1'
_cell_length_a   5.91864111
_cell_length_b   8.54185675
_cell_length_c   7.88482291
_cell_angle_alpha   90.00000000
_cell_angle_beta   69.05495223
_cell_angle_gamma   90.00000000
_symmetry_Int_Tables_number   1
_chemical_formula_structural   Na3NiO2
_chemical_formula_sum   'Na12 Ni4 O8'
_cell_volume   372.28679652
_cell_formula_units_Z   4
loop_
 _symmetry_equiv_pos_site_id
 _symmetry_equiv_pos_as_xyz
  1  'x, y, z'
loop_
 _atom_site_type_symbol
 _atom_site_label
 _atom_site_symmetry_multiplicity
 _atom_site_fract_x
 _atom_site_fract_y
 _atom_site_fract_z
 _atom_site_occupancy
  Na  Na0  1  0.07593419  0.71395457  0.18856584  1
  Na  Na1  1  0.13490284  0.96800076  0.62510000  1
  Na  Na2  1  0.24847670  0.53481586  0.49982242  1
  Na  Na3  1  0.42406581  0.21395457  0.31143416  1
  Na  Na4  1  0.63490284  0.53199924  0.12510000  1
  Na  Na5  1  0.74847670  0.96518414  0.99982242  1
  Na  Na6  1  0.25152330  0.03481586  0.00017758  1
  Na  Na7  1  0.36509716  0.46800076  0.87490000  1
  Na  Na8  1  0.57593419  0.78604543  0.68856584  1
  Na  Na9  1  0.75152330  0.46518414  0.50017758  1
  Na  Na10  1  0.86509716  0.03199924  0.37490000  1
  Na  Na11  1  0.92406581  0.28604543  0.81143416  1
  Ni  Ni12  1  0.03283500  0.32720935  0.17220995  1
  Ni  Ni13  1  0.46716500  0.82720935  0.32779005  1
  Ni  Ni14  1  0.53283500  0.17279065  0.67220995  1
  Ni  Ni15  1  0.96716500  0.67279065  0.82779005  1
  O  O16  1  0.23411803  0.46028318  0.22167406  1
  O  O17  1  0.26588197  0.96028318  0.27832594  1
  O  O18  1  0.15497457  0.81302352  0.88209048  1
  O  O19  1  0.34502543  0.31302352  0.61790952  1
  O  O20  1  0.65497457  0.68697648  0.38209048  1
  O  O21  1  0.84502543  0.18697648  0.11790952  1
  O  O22  1  0.73411803  0.03971682  0.72167406  1
  O  O23  1  0.76588197  0.53971682  0.77832594  1
