# generated using pymatgen
data_Mo6Pb(SeS)4
_symmetry_space_group_name_H-M   'P 1'
_cell_length_a   6.76860101
_cell_length_b   6.81658221
_cell_length_c   6.71133094
_cell_angle_alpha   91.32869977
_cell_angle_beta   88.97472679
_cell_angle_gamma   91.71981644
_symmetry_Int_Tables_number   1
_chemical_formula_structural   Mo6Pb(SeS)4
_chemical_formula_sum   'Mo6 Pb1 Se4 S4'
_cell_volume   309.38371962
_cell_formula_units_Z   1
loop_
 _symmetry_equiv_pos_site_id
 _symmetry_equiv_pos_as_xyz
  1  'x, y, z'
loop_
 _atom_site_type_symbol
 _atom_site_label
 _atom_site_symmetry_multiplicity
 _atom_site_fract_x
 _atom_site_fract_y
 _atom_site_fract_z
 _atom_site_occupancy
  Mo  Mo0  1  0.76105587  0.42666687  0.43381215  1
  Mo  Mo1  1  0.43824902  0.23793539  0.57697035  1
  Mo  Mo2  1  0.58236744  0.56439677  0.76818125  1
  Mo  Mo3  1  0.23882759  0.57557797  0.56308814  1
  Mo  Mo4  1  0.56657526  0.76538835  0.42097514  1
  Mo  Mo5  1  0.42425275  0.43679256  0.22946724  1
  Pb  Pb6  1  0.99295584  0.99160882  0.00060541  1
  Se  Se7  1  0.11794744  0.24566405  0.37391995  1
  Se  Se8  1  0.37969841  0.88086559  0.75504534  1
  Se  Se9  1  0.76075843  0.24819669  0.76202814  1
  Se  Se10  1  0.24456064  0.75368704  0.23727146  1
  S  S11  1  0.27063817  0.38195276  0.86932547  1
  S  S12  1  0.87232770  0.73464973  0.61657723  1
  S  S13  1  0.61552113  0.13251786  0.26449865  1
  S  S14  1  0.73426430  0.62409956  0.12823409  1
