# generated using pymatgen
data_Mo2C
_symmetry_space_group_name_H-M   'P 1'
_cell_length_a   3.07309200
_cell_length_b   3.07309200
_cell_length_c   4.65253744
_cell_angle_alpha   90.00331406
_cell_angle_beta   89.99668594
_cell_angle_gamma   119.99958922
_symmetry_Int_Tables_number   1
_chemical_formula_structural   Mo2C
_chemical_formula_sum   'Mo2 C1'
_cell_volume   38.05164437
_cell_formula_units_Z   1
loop_
 _symmetry_equiv_pos_site_id
 _symmetry_equiv_pos_as_xyz
  1  'x, y, z'
loop_
 _atom_site_type_symbol
 _atom_site_label
 _atom_site_symmetry_multiplicity
 _atom_site_fract_x
 _atom_site_fract_y
 _atom_site_fract_z
 _atom_site_occupancy
  Mo  Mo0  1  0.66670029  0.33329971  0.75006488  1
  Mo  Mo1  1  0.33329971  0.66670029  0.24993512  1
  C  C2  1  -0.00000000  0.00000000  0.50000000  1
