# generated using pymatgen
data_NbCuSe2
_symmetry_space_group_name_H-M   'P 1'
_cell_length_a   3.57668430
_cell_length_b   3.57668486
_cell_length_c   13.92232596
_cell_angle_alpha   90.00000000
_cell_angle_beta   90.00000000
_cell_angle_gamma   59.99998627
_symmetry_Int_Tables_number   1
_chemical_formula_structural   NbCuSe2
_chemical_formula_sum   'Nb2 Cu2 Se4'
_cell_volume   154.24235719
_cell_formula_units_Z   2
loop_
 _symmetry_equiv_pos_site_id
 _symmetry_equiv_pos_as_xyz
  1  'x, y, z'
loop_
 _atom_site_type_symbol
 _atom_site_label
 _atom_site_symmetry_multiplicity
 _atom_site_fract_x
 _atom_site_fract_y
 _atom_site_fract_z
 _atom_site_occupancy
  Nb  Nb0  1  0.33334214  0.33332893  0.25314684  1
  Nb  Nb1  1  0.66665786  0.66667107  0.75314684  1
  Cu  Cu2  1  0.33336516  0.33331742  0.03878585  1
  Cu  Cu3  1  0.66663484  0.66668258  0.53878585  1
  Se  Se4  1  0.33333562  0.33333219  0.63191547  1
  Se  Se5  1  0.66665564  0.66667218  0.37015184  1
  Se  Se6  1  0.66666438  0.66666781  0.13191547  1
  Se  Se7  1  0.33334436  0.33332782  0.87015184  1
