# generated using pymatgen
data_Mn3Fe9P4
_symmetry_space_group_name_H-M   'P 1'
_cell_length_a   4.41575060
_cell_length_b   6.73492787
_cell_length_c   6.75106971
_cell_angle_alpha   96.31309938
_cell_angle_beta   109.10651679
_cell_angle_gamma   70.83707165
_symmetry_Int_Tables_number   1
_chemical_formula_structural   Mn3Fe9P4
_chemical_formula_sum   'Mn3 Fe9 P4'
_cell_volume   179.20182947
_cell_formula_units_Z   1
loop_
 _symmetry_equiv_pos_site_id
 _symmetry_equiv_pos_as_xyz
  1  'x, y, z'
loop_
 _atom_site_type_symbol
 _atom_site_label
 _atom_site_symmetry_multiplicity
 _atom_site_fract_x
 _atom_site_fract_y
 _atom_site_fract_z
 _atom_site_occupancy
  Mn  Mn0  1  0.68435306  0.17995336  0.02584422  1
  Mn  Mn1  1  0.83894396  0.81966312  0.97489929  1
  Mn  Mn2  1  0.34627929  0.97321372  0.18476689  1
  Fe  Fe3  1  0.12976607  0.02563924  0.81331217  1
  Fe  Fe4  1  0.65174966  0.39070740  0.66995213  1
  Fe  Fe5  1  0.37240847  0.60863068  0.33043278  1
  Fe  Fe6  1  0.01894851  0.33012940  0.39099230  1
  Fe  Fe7  1  0.95654114  0.67024416  0.60838211  1
  Fe  Fe8  1  0.07376491  0.38951486  0.04849518  1
  Fe  Fe9  1  0.41541411  0.61009861  0.95131024  1
  Fe  Fe10  1  0.97458999  0.95205940  0.39115720  1
  Fe  Fe11  1  0.53505784  0.04955466  0.61013582  1
  P  P12  1  0.21528398  0.33786688  0.75282178  1
  P  P13  1  0.80252078  0.66160884  0.24766939  1
  P  P14  1  0.53694722  0.24896433  0.33609296  1
  P  P15  1  0.44743100  0.75215133  0.66373553  1
