# generated using pymatgen
data_LiVWO6
_symmetry_space_group_name_H-M   'P 1'
_cell_length_a   3.76074932
_cell_length_b   5.07673473
_cell_length_c   6.66232103
_cell_angle_alpha   110.31641706
_cell_angle_beta   90.00000000
_cell_angle_gamma   68.26029336
_symmetry_Int_Tables_number   1
_chemical_formula_structural   LiVWO6
_chemical_formula_sum   'Li1 V1 W1 O6'
_cell_volume   109.58785506
_cell_formula_units_Z   1
loop_
 _symmetry_equiv_pos_site_id
 _symmetry_equiv_pos_as_xyz
  1  'x, y, z'
loop_
 _atom_site_type_symbol
 _atom_site_label
 _atom_site_symmetry_multiplicity
 _atom_site_fract_x
 _atom_site_fract_y
 _atom_site_fract_z
 _atom_site_occupancy
  Li  Li0  1  0.00042072  0.99915855  0.00569327  1
  V  V1  1  0.18244534  0.63510931  0.35056603  1
  W  W2  1  0.82121283  0.35757435  0.63529849  1
  O  O3  1  0.01385127  0.97229746  0.30362090  1
  O  O4  1  0.98572837  0.02854326  0.71295809  1
  O  O5  1  0.32223788  0.35552424  0.11177395  1
  O  O6  1  0.66676958  0.66646084  0.88896945  1
  O  O7  1  0.69517641  0.60964717  0.43051651  1
  O  O8  1  0.31215760  0.37568481  0.56060331  1
