# generated using pymatgen
data_Li4Zr3O8
_symmetry_space_group_name_H-M   'P 1'
_cell_length_a   5.46520970
_cell_length_b   5.46520970
_cell_length_c   6.21605969
_cell_angle_alpha   90.00000000
_cell_angle_beta   90.00000000
_cell_angle_gamma   68.43584116
_symmetry_Int_Tables_number   1
_chemical_formula_structural   Li4Zr3O8
_chemical_formula_sum   'Li4 Zr3 O8'
_cell_volume   172.66919343
_cell_formula_units_Z   1
loop_
 _symmetry_equiv_pos_site_id
 _symmetry_equiv_pos_as_xyz
  1  'x, y, z'
loop_
 _atom_site_type_symbol
 _atom_site_label
 _atom_site_symmetry_multiplicity
 _atom_site_fract_x
 _atom_site_fract_y
 _atom_site_fract_z
 _atom_site_occupancy
  Li  Li0  1  0.25000000  0.50000000  0.88043366  1
  Li  Li1  1  0.75000000  -0.00000000  0.36956634  1
  Li  Li2  1  0.25000000  -0.00000000  0.62500000  1
  Li  Li3  1  0.75000000  0.50000000  0.12500000  1
  Zr  Zr4  1  0.25000000  -0.00000000  0.12500000  1
  Zr  Zr5  1  0.75000000  0.00000000  0.84770553  1
  Zr  Zr6  1  0.25000000  0.50000000  0.40229447  1
  O  O7  1  0.03089513  0.26368190  0.35725055  1
  O  O8  1  0.51368190  0.78089513  0.89274945  1
  O  O9  1  0.48268120  0.23268120  0.62500000  1
  O  O10  1  0.00899141  0.75899141  0.12500000  1
  O  O11  1  0.49100859  0.24100859  0.12500000  1
  O  O12  1  0.01731880  0.76731880  0.62500000  1
  O  O13  1  0.98631810  0.21910487  0.89274945  1
  O  O14  1  0.46910487  0.73631810  0.35725055  1
