# generated using pymatgen
data_HgAu4
_symmetry_space_group_name_H-M   'P 1'
_cell_length_a   3.06174621
_cell_length_b   3.06174621
_cell_length_c   11.94129680
_cell_angle_alpha   90.00000000
_cell_angle_beta   97.36558403
_cell_angle_gamma   120.00000000
_symmetry_Int_Tables_number   1
_chemical_formula_structural   HgAu4
_chemical_formula_sum   'Hg1 Au4'
_cell_volume   95.87582392
_cell_formula_units_Z   1
loop_
 _symmetry_equiv_pos_site_id
 _symmetry_equiv_pos_as_xyz
  1  'x, y, z'
loop_
 _atom_site_type_symbol
 _atom_site_label
 _atom_site_symmetry_multiplicity
 _atom_site_fract_x
 _atom_site_fract_y
 _atom_site_fract_z
 _atom_site_occupancy
  Hg  Hg0  1  0.00000000  0.00000000  -0.00000000  1
  Au  Au1  1  0.80590127  0.40295064  0.20885191  1
  Au  Au2  1  0.60220437  0.80110219  0.40330656  1
  Au  Au3  1  0.39779563  0.19889781  0.59669344  1
  Au  Au4  1  0.19409873  0.59704936  0.79114809  1
