# generated using pymatgen
data_KLaCO4
_symmetry_space_group_name_H-M   'P 1'
_cell_length_a   4.76061864
_cell_length_b   3.68609725
_cell_length_c   12.19638379
_cell_angle_alpha   90.00000000
_cell_angle_beta   90.00000000
_cell_angle_gamma   90.00000000
_symmetry_Int_Tables_number   1
_chemical_formula_structural   KLaCO4
_chemical_formula_sum   'K2 La2 C2 O8'
_cell_volume   214.02340236
_cell_formula_units_Z   2
loop_
 _symmetry_equiv_pos_site_id
 _symmetry_equiv_pos_as_xyz
  1  'x, y, z'
loop_
 _atom_site_type_symbol
 _atom_site_label
 _atom_site_symmetry_multiplicity
 _atom_site_fract_x
 _atom_site_fract_y
 _atom_site_fract_z
 _atom_site_occupancy
  K  K0  1  0.75000000  0.75000000  0.60579291  1
  K  K1  1  0.25000000  0.25000000  0.39420709  1
  La  La2  1  0.75000000  0.75000000  0.90216187  1
  La  La3  1  0.25000000  0.25000000  0.09783813  1
  C  C4  1  0.75000000  0.75000000  0.28497717  1
  C  C5  1  0.25000000  0.25000000  0.71502283  1
  O  O6  1  0.75000000  0.75000000  0.39203434  1
  O  O7  1  0.25000000  0.25000000  0.60796566  1
  O  O8  1  0.75000000  0.25000000  0.01423930  1
  O  O9  1  0.25000000  0.75000000  0.98576070  1
  O  O10  1  0.98709248  0.75000000  0.23252753  1
  O  O11  1  0.51290752  0.75000000  0.23252753  1
  O  O12  1  0.01290752  0.25000000  0.76747247  1
  O  O13  1  0.48709248  0.25000000  0.76747247  1
