# generated using pymatgen
data_HoAgSn
_symmetry_space_group_name_H-M   'P 1'
_cell_length_a   3.46945506
_cell_length_b   4.83428414
_cell_length_c   4.83346426
_cell_angle_alpha   59.99438866
_cell_angle_beta   90.00000000
_cell_angle_gamma   90.00000000
_symmetry_Int_Tables_number   1
_chemical_formula_structural   HoAgSn
_chemical_formula_sum   'Ho1 Ag1 Sn1'
_cell_volume   70.20338018
_cell_formula_units_Z   1
loop_
 _symmetry_equiv_pos_site_id
 _symmetry_equiv_pos_as_xyz
  1  'x, y, z'
loop_
 _atom_site_type_symbol
 _atom_site_label
 _atom_site_symmetry_multiplicity
 _atom_site_fract_x
 _atom_site_fract_y
 _atom_site_fract_z
 _atom_site_occupancy
  Ho  Ho0  1  0.50000000  0.00004585  0.99990831  1
  Ag  Ag1  1  0.00000000  0.66667804  0.66664391  1
  Sn  Sn2  1  -0.00000000  0.33327611  0.33344778  1
