# generated using pymatgen
data_La3Nd(CuO4)2
_symmetry_space_group_name_H-M   'P 1'
_cell_length_a   5.34611177
_cell_length_b   5.51083681
_cell_length_c   7.06956176
_cell_angle_alpha   89.84162183
_cell_angle_beta   67.78348036
_cell_angle_gamma   90.00000000
_symmetry_Int_Tables_number   1
_chemical_formula_structural   La3Nd(CuO4)2
_chemical_formula_sum   'La3 Nd1 Cu2 O8'
_cell_volume   192.81699377
_cell_formula_units_Z   1
loop_
 _symmetry_equiv_pos_site_id
 _symmetry_equiv_pos_as_xyz
  1  'x, y, z'
loop_
 _atom_site_type_symbol
 _atom_site_label
 _atom_site_symmetry_multiplicity
 _atom_site_fract_x
 _atom_site_fract_y
 _atom_site_fract_z
 _atom_site_occupancy
  La  La0  1  0.14059082  0.51219124  0.71881837  1
  La  La1  1  0.64035199  0.98676141  0.71929602  1
  La  La2  1  0.36094543  0.01255740  0.27810914  1
  Nd  Nd3  1  0.86301805  0.48289621  0.27396391  1
  Cu  Cu4  1  0.49877992  0.49956627  0.00244017  1
  Cu  Cu5  1  0.99972655  0.99817770  0.00054690  1
  O  O6  1  0.76118513  0.25003592  0.97904087  1
  O  O7  1  0.73825337  0.74704644  0.02693839  1
  O  O8  1  0.23480824  0.74704644  0.02693839  1
  O  O9  1  0.25977399  0.25003592  0.97904087  1
  O  O10  1  0.68836875  0.55798985  0.62326249  1
  O  O11  1  0.31464421  0.44678819  0.37071158  1
  O  O12  1  0.81374213  0.06179007  0.37251574  1
  O  O13  1  0.18581141  0.94711693  0.62837718  1
