# generated using pymatgen
data_Ho2ScNbO7
_symmetry_space_group_name_H-M   'P 1'
_cell_length_a   7.35502598
_cell_length_b   7.35502598
_cell_length_c   7.35502598
_cell_angle_alpha   90.11101162
_cell_angle_beta   59.23839683
_cell_angle_gamma   119.37150429
_symmetry_Int_Tables_number   1
_chemical_formula_structural   Ho2ScNbO7
_chemical_formula_sum   'Ho4 Sc2 Nb2 O14'
_cell_volume   281.00856768
_cell_formula_units_Z   2
loop_
 _symmetry_equiv_pos_site_id
 _symmetry_equiv_pos_as_xyz
  1  'x, y, z'
loop_
 _atom_site_type_symbol
 _atom_site_label
 _atom_site_symmetry_multiplicity
 _atom_site_fract_x
 _atom_site_fract_y
 _atom_site_fract_z
 _atom_site_occupancy
  Ho  Ho0  1  0.75000000  0.37500000  0.87500000  1
  Ho  Ho1  1  0.25000000  0.37500000  0.37500000  1
  Ho  Ho2  1  0.25000000  0.87500000  0.37500000  1
  Ho  Ho3  1  0.75000000  0.37500000  0.37500000  1
  Sc  Sc4  1  0.75000000  0.87500000  0.37500000  1
  Sc  Sc5  1  0.25000000  0.87500000  0.87500000  1
  Nb  Nb6  1  0.25000000  0.37500000  0.87500000  1
  Nb  Nb7  1  0.75000000  0.87500000  0.87500000  1
  O  O8  1  0.92486193  0.97085122  0.54489337  1
  O  O9  1  0.48425541  0.53024470  0.54489337  1
  O  O10  1  0.50000000  0.97667511  0.52332489  1
  O  O11  1  0.07513807  0.53024470  0.95401071  1
  O  O12  1  0.51574459  0.97085122  0.95401071  1
  O  O13  1  0.50000000  0.54868258  0.95131742  1
  O  O14  1  0.57513807  0.77914878  0.20510663  1
  O  O15  1  0.01574459  0.21975530  0.20510663  1
  O  O16  1  0.00000000  0.77332489  0.22667511  1
  O  O17  1  0.42486193  0.21975530  0.79598929  1
  O  O18  1  0.98425541  0.77914878  0.79598929  1
  O  O19  1  0.00000000  0.20131742  0.79868258  1
  O  O20  1  0.50000000  0.25368251  0.24631749  1
  O  O21  1  0.00000000  0.49631749  0.50368251  1
