# generated using pymatgen
data_In2Ag3SbSe6
_symmetry_space_group_name_H-M   'P 1'
_cell_length_a   4.04907673
_cell_length_b   4.04907673
_cell_length_c   19.85942702
_cell_angle_alpha   90.00000000
_cell_angle_beta   90.00000000
_cell_angle_gamma   60.00000240
_symmetry_Int_Tables_number   1
_chemical_formula_structural   In2Ag3SbSe6
_chemical_formula_sum   'In2 Ag3 Sb1 Se6'
_cell_volume   281.97419823
_cell_formula_units_Z   1
loop_
 _symmetry_equiv_pos_site_id
 _symmetry_equiv_pos_as_xyz
  1  'x, y, z'
loop_
 _atom_site_type_symbol
 _atom_site_label
 _atom_site_symmetry_multiplicity
 _atom_site_fract_x
 _atom_site_fract_y
 _atom_site_fract_z
 _atom_site_occupancy
  In  In0  1  0.00000000  0.00000000  0.49980309  1
  In  In1  1  0.33333300  0.33333300  0.83352991  1
  Ag  Ag2  1  0.00000000  -0.00000000  0.99762395  1
  Ag  Ag3  1  0.33333300  0.33333300  0.33570905  1
  Ag  Ag4  1  0.66666700  0.66666700  0.66666700  1
  Sb  Sb5  1  0.66666700  0.66666700  0.16666700  1
  Se  Se6  1  0.33333300  0.33333300  0.08098857  1
  Se  Se7  1  0.66666700  0.66666700  0.41816595  1
  Se  Se8  1  0.00000000  -0.00000000  0.75377332  1
  Se  Se9  1  0.00000000  0.00000000  0.25234443  1
  Se  Se10  1  0.33333300  0.33333300  0.57955968  1
  Se  Se11  1  0.66666700  0.66666700  0.91516805  1
