# generated using pymatgen
data_La2ThTa(ClO2)3
_symmetry_space_group_name_H-M   'P 1'
_cell_length_a   5.48367975
_cell_length_b   9.40433351
_cell_length_c   9.43555601
_cell_angle_alpha   60.55230851
_cell_angle_beta   90.00000000
_cell_angle_gamma   90.00000000
_symmetry_Int_Tables_number   1
_chemical_formula_structural   La2ThTa(ClO2)3
_chemical_formula_sum   'La4 Th2 Ta2 Cl6 O12'
_cell_volume   423.72926937
_cell_formula_units_Z   2
loop_
 _symmetry_equiv_pos_site_id
 _symmetry_equiv_pos_as_xyz
  1  'x, y, z'
loop_
 _atom_site_type_symbol
 _atom_site_label
 _atom_site_symmetry_multiplicity
 _atom_site_fract_x
 _atom_site_fract_y
 _atom_site_fract_z
 _atom_site_occupancy
  La  La0  1  0.25000000  0.67848435  0.91675901  1
  La  La1  1  0.75000000  0.59228810  0.31046352  1
  La  La2  1  0.75000000  0.09163235  0.59423724  1
  La  La3  1  0.75000000  0.31725955  0.08876353  1
  Th  Th4  1  0.25000000  0.41496245  0.67426435  1
  Th  Th5  1  0.25000000  0.91653326  0.41395040  1
  Ta  Ta6  1  0.75000000  0.66502127  0.66699372  1
  Ta  Ta7  1  0.25000000  0.33347309  0.33433945  1
  Cl  Cl8  1  0.25000000  0.05366047  0.76147392  1
  Cl  Cl9  1  0.25000000  0.18751615  0.04802821  1
  Cl  Cl10  1  0.25000000  0.76536472  0.19257185  1
  Cl  Cl11  1  0.75000000  0.94651354  0.24378490  1
  Cl  Cl12  1  0.75000000  0.81099321  0.94583569  1
  Cl  Cl13  1  0.75000000  0.24148071  0.80903226  1
  O  O14  1  0.01864644  0.36503869  0.48271789  1
  O  O15  1  0.01914865  0.15245417  0.36590325  1
  O  O16  1  0.01393884  0.47608315  0.16200665  1
  O  O17  1  0.50914736  0.63430893  0.52285304  1
  O  O18  1  0.51207083  0.84425261  0.62957395  1
  O  O19  1  0.51098151  0.52027083  0.83669619  1
  O  O20  1  0.99085264  0.63430893  0.52285304  1
  O  O21  1  0.98792917  0.84425261  0.62957395  1
  O  O22  1  0.98901849  0.52027083  0.83669619  1
  O  O23  1  0.48135356  0.36503869  0.48271789  1
  O  O24  1  0.48085135  0.15245417  0.36590325  1
  O  O25  1  0.48606116  0.47608315  0.16200665  1
