# generated using pymatgen
data_La2UTe5
_symmetry_space_group_name_H-M   'P 1'
_cell_length_a   6.25288491
_cell_length_b   10.01110087
_cell_length_c   8.97784852
_cell_angle_alpha   89.32170788
_cell_angle_beta   90.00000005
_cell_angle_gamma   71.80225747
_symmetry_Int_Tables_number   1
_chemical_formula_structural   La2UTe5
_chemical_formula_sum   'La4 U2 Te10'
_cell_volume   533.84757884
_cell_formula_units_Z   2
loop_
 _symmetry_equiv_pos_site_id
 _symmetry_equiv_pos_as_xyz
  1  'x, y, z'
loop_
 _atom_site_type_symbol
 _atom_site_label
 _atom_site_symmetry_multiplicity
 _atom_site_fract_x
 _atom_site_fract_y
 _atom_site_fract_z
 _atom_site_occupancy
  La  La0  1  0.74930205  0.00109230  0.26752711  1
  La  La1  1  0.40305224  0.67459281  0.26367192  1
  La  La2  1  0.25039435  0.99890770  0.73247289  1
  La  La3  1  0.57764404  0.32540719  0.73632808  1
  U  U4  1  0.09978272  0.33396912  0.26236566  1
  U  U5  1  0.93375283  0.66603088  0.73763434  1
  Te  Te6  1  0.75366511  0.99148718  0.63862367  1
  Te  Te7  1  0.07510499  0.33891024  0.62777883  1
  Te  Te8  1  0.42639965  0.66746139  0.64040780  1
  Te  Te9  1  0.24515229  0.00851282  0.36137633  1
  Te  Te10  1  0.59386005  0.33253861  0.35959220  1
  Te  Te11  1  0.91401622  0.66108976  0.37222117  1
  Te  Te12  1  0.42066205  0.13754476  0.00235161  1
  Te  Te13  1  0.75262655  0.50000000  0.00000000  1
  Te  Te14  1  0.05820581  0.86245524  0.99764839  1
  Te  Te15  1  0.24637906  0.50000000  1.00000000  1
