# generated using pymatgen
data_Fe7SiO10
_symmetry_space_group_name_H-M   'P 1'
_cell_length_a   3.04788531
_cell_length_b   6.08488435
_cell_length_c   10.98846901
_cell_angle_alpha   97.90796774
_cell_angle_beta   82.02820405
_cell_angle_gamma   90.00000000
_symmetry_Int_Tables_number   1
_chemical_formula_structural   Fe7SiO10
_chemical_formula_sum   'Fe7 Si1 O10'
_cell_volume   199.86602242
_cell_formula_units_Z   1
loop_
 _symmetry_equiv_pos_site_id
 _symmetry_equiv_pos_as_xyz
  1  'x, y, z'
loop_
 _atom_site_type_symbol
 _atom_site_label
 _atom_site_symmetry_multiplicity
 _atom_site_fract_x
 _atom_site_fract_y
 _atom_site_fract_z
 _atom_site_occupancy
  Fe  Fe0  1  0.90980627  0.29993350  0.18038746  1
  Fe  Fe1  1  0.09057853  0.70538653  0.81884294  1
  Fe  Fe2  1  0.69812591  0.90474764  0.60374819  1
  Fe  Fe3  1  0.30523319  0.08582488  0.38953361  1
  Fe  Fe4  1  0.69800393  0.39652562  0.60399214  1
  Fe  Fe5  1  0.30351117  0.60390943  0.39297767  1
  Fe  Fe6  1  0.55504957  0.22332850  0.88990085  1
  Si  Si7  1  0.44153190  0.78069749  0.11693619  1
  O  O8  1  0.98164830  0.76297320  0.03670340  1
  O  O9  1  0.00335641  0.24334098  0.99328718  1
  O  O10  1  0.79077800  0.84439791  0.41844401  1
  O  O11  1  0.20590744  0.13410482  0.58818511  1
  O  O12  1  0.80692236  0.35083073  0.38615528  1
  O  O13  1  0.19792293  0.66581718  0.60415415  1
  O  O14  1  0.60398191  0.93821784  0.79203618  1
  O  O15  1  0.40168570  0.02980593  0.19662859  1
  O  O16  1  0.60197089  0.46346655  0.79605823  1
  O  O17  1  0.40398559  0.56669126  0.19202882  1
