# generated using pymatgen
data_Ti2Nb(PO4)3
_symmetry_space_group_name_H-M   'P 1'
_cell_length_a   8.67940561
_cell_length_b   8.67940529
_cell_length_c   8.67940597
_cell_angle_alpha   60.31140133
_cell_angle_beta   60.31140436
_cell_angle_gamma   60.31140008
_symmetry_Int_Tables_number   1
_chemical_formula_structural   Ti2Nb(PO4)3
_chemical_formula_sum   'Ti4 Nb2 P6 O24'
_cell_volume   465.59079029
_cell_formula_units_Z   2
loop_
 _symmetry_equiv_pos_site_id
 _symmetry_equiv_pos_as_xyz
  1  'x, y, z'
loop_
 _atom_site_type_symbol
 _atom_site_label
 _atom_site_symmetry_multiplicity
 _atom_site_fract_x
 _atom_site_fract_y
 _atom_site_fract_z
 _atom_site_occupancy
  Ti  Ti0  1  0.14362912  0.14362912  0.14362912  1
  Ti  Ti1  1  0.35637088  0.35637088  0.35637088  1
  Ti  Ti2  1  0.64362912  0.64362912  0.64362912  1
  Ti  Ti3  1  0.85637088  0.85637088  0.85637088  1
  Nb  Nb4  1  0.00000000  0.00000000  0.00000000  1
  Nb  Nb5  1  0.50000000  0.50000000  0.50000000  1
  P  P6  1  0.25000000  0.54044717  0.95955283  1
  P  P7  1  0.54044717  0.95955283  0.25000000  1
  P  P8  1  0.95955283  0.25000000  0.54044717  1
  P  P9  1  0.04044717  0.75000000  0.45955283  1
  P  P10  1  0.45955283  0.04044717  0.75000000  1
  P  P11  1  0.75000000  0.45955283  0.04044717  1
  O  O12  1  0.11662423  0.31039242  0.50272822  1
  O  O13  1  0.31039242  0.50272822  0.11662423  1
  O  O14  1  0.05885466  0.91273763  0.26495398  1
  O  O15  1  0.50272822  0.11662423  0.31039242  1
  O  O16  1  0.00272822  0.81039242  0.61662423  1
  O  O17  1  0.23504602  0.58726237  0.44114534  1
  O  O18  1  0.26495398  0.05885466  0.91273763  1
  O  O19  1  0.44114534  0.23504602  0.58726237  1
  O  O20  1  0.18960758  0.38337577  0.99727178  1
  O  O21  1  0.58726237  0.44114534  0.23504602  1
  O  O22  1  0.08726237  0.73504602  0.94114534  1
  O  O23  1  0.38337577  0.99727178  0.18960758  1
  O  O24  1  0.61662423  0.00272822  0.81039242  1
  O  O25  1  0.91273763  0.26495398  0.05885466  1
  O  O26  1  0.41273763  0.55885466  0.76495398  1
  O  O27  1  0.81039242  0.61662423  0.00272822  1
  O  O28  1  0.55885466  0.76495398  0.41273763  1
  O  O29  1  0.73504602  0.94114534  0.08726237  1
  O  O30  1  0.76495398  0.41273763  0.55885466  1
  O  O31  1  0.99727178  0.18960758  0.38337577  1
  O  O32  1  0.49727178  0.88337577  0.68960758  1
  O  O33  1  0.94114534  0.08726237  0.73504602  1
  O  O34  1  0.68960758  0.49727178  0.88337577  1
  O  O35  1  0.88337577  0.68960758  0.49727178  1
