# generated using pymatgen
data_Ge4(Mo3W)3
_symmetry_space_group_name_H-M   'P 1'
_cell_length_a   4.97234854
_cell_length_b   4.98063221
_cell_length_c   9.97369577
_cell_angle_alpha   89.99488944
_cell_angle_beta   90.00000000
_cell_angle_gamma   90.00000000
_symmetry_Int_Tables_number   1
_chemical_formula_structural   Ge4(Mo3W)3
_chemical_formula_sum   'Ge4 Mo9 W3'
_cell_volume   247.00295643
_cell_formula_units_Z   1
loop_
 _symmetry_equiv_pos_site_id
 _symmetry_equiv_pos_as_xyz
  1  'x, y, z'
loop_
 _atom_site_type_symbol
 _atom_site_label
 _atom_site_symmetry_multiplicity
 _atom_site_fract_x
 _atom_site_fract_y
 _atom_site_fract_z
 _atom_site_occupancy
  Ge  Ge0  1  0.50000000  0.50014667  0.24986115  1
  Ge  Ge1  1  0.50000000  0.50015522  0.74979214  1
  Ge  Ge2  1  -0.00000000  0.99967580  0.00017948  1
  Ge  Ge3  1  0.00000000  0.99997387  0.50014775  1
  Mo  Mo4  1  0.50000000  0.25018833  0.49972615  1
  Mo  Mo5  1  0.75037716  0.00024421  0.25013047  1
  Mo  Mo6  1  0.75015245  0.00024633  0.75037851  1
  Mo  Mo7  1  0.00000000  0.49951850  0.12504634  1
  Mo  Mo8  1  -0.00000000  0.49996923  0.62496898  1
  Mo  Mo9  1  0.50000000  0.74976950  0.99975903  1
  Mo  Mo10  1  0.50000000  0.74974681  0.49973358  1
  Mo  Mo11  1  0.24962284  0.00024421  0.25013047  1
  Mo  Mo12  1  0.24984755  0.00024633  0.75037851  1
  W  W13  1  0.00000000  0.49999665  0.37504535  1
  W  W14  1  -0.00000000  0.49946784  0.87497209  1
  W  W15  1  0.50000000  0.25041050  0.99975000  1
