# generated using pymatgen
data_Hf2(SeS)3
_symmetry_space_group_name_H-M   'P 1'
_cell_length_a   3.69176285
_cell_length_b   5.38649315
_cell_length_c   9.56362602
_cell_angle_alpha   83.28958647
_cell_angle_beta   90.00000000
_cell_angle_gamma   90.00000000
_symmetry_Int_Tables_number   1
_chemical_formula_structural   Hf2(SeS)3
_chemical_formula_sum   'Hf2 Se3 S3'
_cell_volume   188.87613583
_cell_formula_units_Z   1
loop_
 _symmetry_equiv_pos_site_id
 _symmetry_equiv_pos_as_xyz
  1  'x, y, z'
loop_
 _atom_site_type_symbol
 _atom_site_label
 _atom_site_symmetry_multiplicity
 _atom_site_fract_x
 _atom_site_fract_y
 _atom_site_fract_z
 _atom_site_occupancy
  Hf  Hf0  1  0.75000000  0.27950295  0.34472602  1
  Hf  Hf1  1  0.25000000  0.71911830  0.65796612  1
  Se  Se2  1  0.25000000  0.52724123  0.16723902  1
  Se  Se3  1  0.75000000  0.75964220  0.44661336  1
  Se  Se4  1  0.25000000  0.23884459  0.55666900  1
  S  S5  1  0.75000000  0.87850741  0.81896101  1
  S  S6  1  0.25000000  0.10678811  0.19168069  1
  S  S7  1  0.75000000  0.49035521  0.81614478  1
