# generated using pymatgen
data_GdAlNi4
_symmetry_space_group_name_H-M   'P 1'
_cell_length_a   3.78101500
_cell_length_b   4.99495821
_cell_length_c   5.00783024
_cell_angle_alpha   120.11885989
_cell_angle_beta   90.00000000
_cell_angle_gamma   90.00000000
_symmetry_Int_Tables_number   1
_chemical_formula_structural   GdAlNi4
_chemical_formula_sum   'Gd1 Al1 Ni4'
_cell_volume   81.80862312
_cell_formula_units_Z   1
loop_
 _symmetry_equiv_pos_site_id
 _symmetry_equiv_pos_as_xyz
  1  'x, y, z'
loop_
 _atom_site_type_symbol
 _atom_site_label
 _atom_site_symmetry_multiplicity
 _atom_site_fract_x
 _atom_site_fract_y
 _atom_site_fract_z
 _atom_site_occupancy
  Gd  Gd0  1  0.00000000  0.00020321  0.00008275  1
  Al  Al1  1  0.00000000  0.33337504  0.66661673  1
  Ni  Ni2  1  -0.00000000  0.66671528  0.33330963  1
  Ni  Ni3  1  0.50000000  0.50188882  0.00409207  1
  Ni  Ni4  1  0.50000000  0.50189274  0.49791899  1
  Ni  Ni5  1  0.50000000  0.99582491  0.49797983  1
