# generated using pymatgen
data_Li2Cr3FeO8
_symmetry_space_group_name_H-M   'P 1'
_cell_length_a   5.98219632
_cell_length_b   5.90516804
_cell_length_c   5.84128382
_cell_angle_alpha   59.82395223
_cell_angle_beta   60.57323617
_cell_angle_gamma   90.02241758
_symmetry_Int_Tables_number   1
_chemical_formula_structural   Li2Cr3FeO8
_chemical_formula_sum   'Li2 Cr3 Fe1 O8'
_cell_volume   146.74767260
_cell_formula_units_Z   1
loop_
 _symmetry_equiv_pos_site_id
 _symmetry_equiv_pos_as_xyz
  1  'x, y, z'
loop_
 _atom_site_type_symbol
 _atom_site_label
 _atom_site_symmetry_multiplicity
 _atom_site_fract_x
 _atom_site_fract_y
 _atom_site_fract_z
 _atom_site_occupancy
  Li  Li0  1  0.49997261  0.99997210  0.00002649  1
  Li  Li1  1  0.49998968  0.50000903  0.49995930  1
  Cr  Cr2  1  -0.00006598  -0.00014731  0.50010188  1
  Cr  Cr3  1  -0.00002421  0.50003267  0.99982447  1
  Cr  Cr4  1  0.99990130  0.50001001  0.50017542  1
  Fe  Fe5  1  0.99990243  0.00001969  0.00002602  1
  O  O6  1  0.21237482  0.23108277  0.01559814  1
  O  O7  1  0.20291990  0.74206681  0.03774013  1
  O  O8  1  0.20661651  0.23335704  0.54353474  1
  O  O9  1  0.21057286  0.73039337  0.51529245  1
  O  O10  1  0.78942652  0.26959394  0.48467586  1
  O  O11  1  0.79337219  0.76663844  0.45645718  1
  O  O12  1  0.79726049  0.25805513  0.96223333  1
  O  O13  1  0.78778087  0.76891632  0.98435258  1
