# generated using pymatgen
data_CaLaGaCuO5
_symmetry_space_group_name_H-M   'P 1'
_cell_length_a   5.30711121
_cell_length_b   5.59994557
_cell_length_c   8.94948359
_cell_angle_alpha   71.71582596
_cell_angle_beta   72.69743373
_cell_angle_gamma   89.83264014
_symmetry_Int_Tables_number   1
_chemical_formula_structural   CaLaGaCuO5
_chemical_formula_sum   'Ca2 La2 Ga2 Cu2 O10'
_cell_volume   239.91615985
_cell_formula_units_Z   2
loop_
 _symmetry_equiv_pos_site_id
 _symmetry_equiv_pos_as_xyz
  1  'x, y, z'
loop_
 _atom_site_type_symbol
 _atom_site_label
 _atom_site_symmetry_multiplicity
 _atom_site_fract_x
 _atom_site_fract_y
 _atom_site_fract_z
 _atom_site_occupancy
  Ca  Ca0  1  0.11859860  0.08325944  0.78022008  1
  Ca  Ca1  1  0.39881868  0.36347952  0.21977992  1
  La  La2  1  0.90064286  0.92173688  0.20575341  1
  La  La3  1  0.60639627  0.62749029  0.79424659  1
  Ga  Ga4  1  0.79549114  0.31252449  0.50000000  1
  Ga  Ga5  1  0.28808317  0.68618419  0.50000000  1
  Cu  Cu6  1  0.49977170  0.00061058  0.99885895  1
  Cu  Cu7  1  0.99863065  0.49946953  0.00114105  1
  O  O8  1  0.61254582  0.07976202  0.69938453  1
  O  O9  1  0.31625842  0.92579484  0.30038668  1
  O  O10  1  0.11664510  0.72618151  0.69961332  1
  O  O11  1  0.81193035  0.27914656  0.30061547  1
  O  O12  1  0.73845179  0.74055168  0.02008202  1
  O  O13  1  0.76221525  0.25543442  0.98079309  1
  O  O14  1  0.24300834  0.73622751  0.01920691  1
  O  O15  1  0.25853381  0.26063371  0.97991798  1
  O  O16  1  0.65171952  0.63074373  0.50000000  1
  O  O17  1  0.15225855  0.37076911  0.50000000  1
