# generated using pymatgen
data_Ca2Be2P2O9F
_symmetry_space_group_name_H-M   'P 1'
_cell_length_a   4.86649505
_cell_length_b   7.77280402
_cell_length_c   9.78981709
_cell_angle_alpha   90.00000000
_cell_angle_beta   90.32971374
_cell_angle_gamma   90.00000000
_symmetry_Int_Tables_number   1
_chemical_formula_structural   Ca2Be2P2O9F
_chemical_formula_sum   'Ca4 Be4 P4 O18 F2'
_cell_volume   370.30654707
_cell_formula_units_Z   2
loop_
 _symmetry_equiv_pos_site_id
 _symmetry_equiv_pos_as_xyz
  1  'x, y, z'
loop_
 _atom_site_type_symbol
 _atom_site_label
 _atom_site_symmetry_multiplicity
 _atom_site_fract_x
 _atom_site_fract_y
 _atom_site_fract_z
 _atom_site_occupancy
  Ca  Ca0  1  0.00401319  0.61292718  0.16869699  1
  Ca  Ca1  1  0.99810670  0.11590427  0.32965563  1
  Ca  Ca2  1  0.99810670  0.38409573  0.82965563  1
  Ca  Ca3  1  0.00401319  0.88707282  0.66869699  1
  Be  Be4  1  0.45875659  0.91524280  0.16035418  1
  Be  Be5  1  0.54021473  0.41386863  0.33851458  1
  Be  Be6  1  0.54021473  0.08613137  0.83851458  1
  Be  Be7  1  0.45875659  0.58475720  0.66035418  1
  P  P8  1  0.52866200  0.76937649  0.41703110  1
  P  P9  1  0.46978217  0.27076380  0.08142771  1
  P  P10  1  0.46978217  0.22923620  0.58142771  1
  P  P11  1  0.52866200  0.73062351  0.91703110  1
  O  O12  1  0.35147114  0.78110216  0.04254534  1
  O  O13  1  0.64576882  0.28238314  0.45606127  1
  O  O14  1  0.64576882  0.21761686  0.95606127  1
  O  O15  1  0.35147114  0.71889784  0.54254534  1
  O  O16  1  0.66279888  0.60491734  0.35541004  1
  O  O17  1  0.33328041  0.10792630  0.14524409  1
  O  O18  1  0.33328041  0.39207370  0.64524409  1
  O  O19  1  0.66279888  0.89508266  0.85541004  1
  O  O20  1  0.32902625  0.84507818  0.30615392  1
  O  O21  1  0.67164100  0.34583597  0.19212538  1
  O  O22  1  0.67164100  0.15416403  0.69212538  1
  O  O23  1  0.32902625  0.65492182  0.80615392  1
  O  O24  1  0.75691866  0.89654930  0.45615711  1
  O  O25  1  0.24517857  0.39834218  0.03977761  1
  O  O26  1  0.24517857  0.10165782  0.53977761  1
  O  O27  1  0.75691866  0.60345070  0.95615711  1
  O  O28  1  0.78792724  0.90435750  0.18326579  1
  O  O29  1  0.78792724  0.59564250  0.68326579  1
  F  F30  1  0.21645364  0.41064119  0.32757926  1
  F  F31  1  0.21645364  0.08935881  0.82757926  1
