# generated using pymatgen
data_Cr8Fe3NiS16
_symmetry_space_group_name_H-M   'P 1'
_cell_length_a   7.01265938
_cell_length_b   7.01265938
_cell_length_c   12.11184463
_cell_angle_alpha   73.17221969
_cell_angle_beta   90.00000000
_cell_angle_gamma   120.00000000
_symmetry_Int_Tables_number   1
_chemical_formula_structural   Cr8Fe3NiS16
_chemical_formula_sum   'Cr8 Fe3 Ni1 S16'
_cell_volume   486.15585705
_cell_formula_units_Z   1
loop_
 _symmetry_equiv_pos_site_id
 _symmetry_equiv_pos_as_xyz
  1  'x, y, z'
loop_
 _atom_site_type_symbol
 _atom_site_label
 _atom_site_symmetry_multiplicity
 _atom_site_fract_x
 _atom_site_fract_y
 _atom_site_fract_z
 _atom_site_occupancy
  Cr  Cr0  1  0.25159900  0.00319800  0.24520300  1
  Cr  Cr1  1  0.74959875  0.99919749  0.75120376  1
  Cr  Cr2  1  0.49735531  0.49471063  0.00417990  1
  Cr  Cr3  1  -0.00003733  0.49992534  0.49686346  1
  Cr  Cr4  1  0.49735531  -0.00153521  0.00417990  1
  Cr  Cr5  1  -0.00003733  0.00317387  0.49686346  1
  Cr  Cr6  1  0.00110947  -0.00153521  0.00417990  1
  Cr  Cr7  1  0.50321120  0.00317387  0.49686346  1
  Fe  Fe8  1  0.43740422  0.37480845  0.68778733  1
  Fe  Fe9  1  0.56234428  0.62468856  0.31296716  1
  Fe  Fe10  1  0.06234366  0.62468733  0.81296901  1
  Ni  Ni11  1  0.93771593  0.37543187  0.18685220  1
  S  S12  1  0.87223740  0.24447479  0.38328781  1
  S  S13  1  0.37060801  0.24121602  0.88817597  1
  S  S14  1  0.13295272  0.76590545  0.12243859  1
  S  S15  1  0.63736429  0.77472857  0.62028364  1
  S  S16  1  0.13295272  0.24460868  0.12243859  1
  S  S17  1  0.63736429  0.24235207  0.62028364  1
  S  S18  1  0.61165596  0.24460868  0.12243859  1
  S  S19  1  0.10498779  0.24235207  0.62028364  1
  S  S20  1  0.62858592  0.75717185  0.11424223  1
  S  S21  1  0.12970803  0.75941605  0.61087592  1
  S  S22  1  0.36275864  0.22551727  0.37773172  1
  S  S23  1  0.86229531  0.22459061  0.88064789  1
  S  S24  1  0.36275864  0.75950964  0.37773172  1
  S  S25  1  0.86229531  0.75705681  0.88064789  1
  S  S26  1  0.89675100  0.75950964  0.37773172  1
  S  S27  1  0.39476150  0.75705681  0.88064789  1
