# generated using pymatgen
data_Co12Ge4C
_symmetry_space_group_name_H-M   'P 1'
_cell_length_a   3.65407152
_cell_length_b   3.65407152
_cell_length_c   14.13721305
_cell_angle_alpha   90.00000000
_cell_angle_beta   90.00000000
_cell_angle_gamma   90.00000000
_symmetry_Int_Tables_number   1
_chemical_formula_structural   Co12Ge4C
_chemical_formula_sum   'Co12 Ge4 C1'
_cell_volume   188.76344282
_cell_formula_units_Z   1
loop_
 _symmetry_equiv_pos_site_id
 _symmetry_equiv_pos_as_xyz
  1  'x, y, z'
loop_
 _atom_site_type_symbol
 _atom_site_label
 _atom_site_symmetry_multiplicity
 _atom_site_fract_x
 _atom_site_fract_y
 _atom_site_fract_z
 _atom_site_occupancy
  Co  Co0  1  0.50000000  0.50000000  0.99369184  1
  Co  Co1  1  0.50000000  0.50000000  0.25630816  1
  Co  Co2  1  0.50000000  0.50000000  0.50253598  1
  Co  Co3  1  0.50000000  0.50000000  0.74746402  1
  Co  Co4  1  0.50000000  0.00000000  0.12500000  1
  Co  Co5  1  0.50000000  0.00000000  0.38048176  1
  Co  Co6  1  0.50000000  0.00000000  0.62500000  1
  Co  Co7  1  0.50000000  -0.00000000  0.86951824  1
  Co  Co8  1  0.00000000  0.50000000  0.12500000  1
  Co  Co9  1  0.00000000  0.50000000  0.38048176  1
  Co  Co10  1  -0.00000000  0.50000000  0.62500000  1
  Co  Co11  1  -0.00000000  0.50000000  0.86951824  1
  Ge  Ge12  1  0.00000000  0.00000000  0.98815321  1
  Ge  Ge13  1  -0.00000000  -0.00000000  0.26184679  1
  Ge  Ge14  1  -0.00000000  -0.00000000  0.50386457  1
  Ge  Ge15  1  0.00000000  0.00000000  0.74613543  1
  C  C16  1  0.50000000  0.50000000  0.12500000  1
