# generated using pymatgen
data_Cs2Na6Al6Ge7O30
_symmetry_space_group_name_H-M   'P 1'
_cell_length_a   5.24565200
_cell_length_b   13.02414373
_cell_length_c   13.02403136
_cell_angle_alpha   119.99987017
_cell_angle_beta   89.99636625
_cell_angle_gamma   90.00208890
_symmetry_Int_Tables_number   1
_chemical_formula_structural   Cs2Na6Al6Ge7O30
_chemical_formula_sum   'Cs2 Na6 Al6 Ge7 O30'
_cell_volume   770.59340603
_cell_formula_units_Z   1
loop_
 _symmetry_equiv_pos_site_id
 _symmetry_equiv_pos_as_xyz
  1  'x, y, z'
loop_
 _atom_site_type_symbol
 _atom_site_label
 _atom_site_symmetry_multiplicity
 _atom_site_fract_x
 _atom_site_fract_y
 _atom_site_fract_z
 _atom_site_occupancy
  Cs  Cs0  1  0.23901281  0.33337121  0.66668948  1
  Cs  Cs1  1  0.73961000  0.66662138  0.33331576  1
  Na  Na2  1  0.23194170  0.13823302  0.27734139  1
  Na  Na3  1  0.23191638  0.72268393  0.86093643  1
  Na  Na4  1  0.23184796  0.13910089  0.86173509  1
  Na  Na5  1  0.74680828  0.86788009  0.73345709  1
  Na  Na6  1  0.74685278  0.26658776  0.13446379  1
  Na  Na7  1  0.74684459  0.86557713  0.13210149  1
  Al  Al8  1  0.74771041  0.33607062  0.41748116  1
  Al  Al9  1  0.74772365  0.58251407  0.91860503  1
  Al  Al10  1  0.74771232  0.08139379  0.66392342  1
  Al  Al11  1  0.24802829  0.66423939  0.58271356  1
  Al  Al12  1  0.24802199  0.41727992  0.08153419  1
  Al  Al13  1  0.24802302  0.91845868  0.33575786  1
  Ge  Ge14  1  0.74767348  0.08417690  0.41755099  1
  Ge  Ge15  1  0.74767550  0.58244761  0.66664044  1
  Ge  Ge16  1  0.74767932  0.33335607  0.91582332  1
  Ge  Ge17  1  0.24768259  0.91578045  0.58251406  1
  Ge  Ge18  1  0.24768555  0.41747836  0.33327627  1
  Ge  Ge19  1  0.24768049  0.66672027  0.08421742  1
  Ge  Ge20  1  0.32941143  0.00003157  0.00000135  1
  O  O21  1  0.42264364  0.05084353  0.37853442  1
  O  O22  1  0.42264997  0.62146792  0.67231747  1
  O  O23  1  0.42263778  0.32767295  0.94915184  1
  O  O24  1  0.92243975  0.94915242  0.62073934  1
  O  O25  1  0.92244335  0.37926679  0.32842405  1
  O  O26  1  0.92244022  0.67157083  0.05084881  1
  O  O27  1  0.85034686  0.19368184  0.38485900  1
  O  O28  1  0.85036218  0.61512530  0.80882040  1
  O  O29  1  0.85033532  0.19116956  0.80631369  1
  O  O30  1  0.35067091  0.80746516  0.61705763  1
  O  O31  1  0.35066906  0.38293318  0.19041074  1
  O  O32  1  0.35068160  0.80957418  0.19253174  1
  O  O33  1  0.42470852  0.32674657  0.37322926  1
  O  O34  1  0.42470398  0.62675176  0.95351678  1
  O  O35  1  0.42469744  0.04647190  0.67324871  1
  O  O36  1  0.92505479  0.67314414  0.62699558  1
  O  O37  1  0.92504541  0.37300400  0.04615575  1
  O  O38  1  0.92505964  0.95384694  0.32685726  1
  O  O39  1  0.10634809  0.91152926  0.03668927  1
  O  O40  1  0.10626128  0.96331001  0.87480570  1
  O  O41  1  0.10626378  0.12526189  0.08846230  1
  O  O42  1  0.57699255  0.08414445  0.96711232  1
  O  O43  1  0.57687842  0.03291007  0.11703126  1
  O  O44  1  0.57684164  0.88298988  0.91579859  1
  O  O45  1  0.79554362  0.43025917  0.57034904  1
  O  O46  1  0.79553319  0.42964085  0.85991498  1
  O  O47  1  0.79552210  0.14008775  0.56973968  1
  O  O48  1  0.29661293  0.56969682  0.42964007  1
  O  O49  1  0.29662634  0.57034876  0.14006372  1
  O  O50  1  0.29664306  0.85992901  0.43030099  1
