# generated using pymatgen
data_Cr8Fe2CuNiS16
_symmetry_space_group_name_H-M   'P 1'
_cell_length_a   6.87887801
_cell_length_b   6.87887801
_cell_length_c   11.92528554
_cell_angle_alpha   73.23687282
_cell_angle_beta   90.00000000
_cell_angle_gamma   120.00000000
_symmetry_Int_Tables_number   1
_chemical_formula_structural   Cr8Fe2CuNiS16
_chemical_formula_sum   'Cr8 Fe2 Cu1 Ni1 S16'
_cell_volume   460.79434706
_cell_formula_units_Z   1
loop_
 _symmetry_equiv_pos_site_id
 _symmetry_equiv_pos_as_xyz
  1  'x, y, z'
loop_
 _atom_site_type_symbol
 _atom_site_label
 _atom_site_symmetry_multiplicity
 _atom_site_fract_x
 _atom_site_fract_y
 _atom_site_fract_z
 _atom_site_occupancy
  Cr  Cr0  1  0.25018568  0.00037135  0.24944297  1
  Cr  Cr1  1  0.75109026  0.00218053  0.74672921  1
  Cr  Cr2  1  0.99794653  0.49589305  0.50160419  1
  Cr  Cr3  1  0.49893902  0.49787803  0.99952711  1
  Cr  Cr4  1  0.49893902  0.00153387  0.99952711  1
  Cr  Cr5  1  0.99794653  0.00044929  0.50160419  1
  Cr  Cr6  1  0.00259486  0.00153387  0.99952711  1
  Cr  Cr7  1  0.50250276  0.00044929  0.50160419  1
  Fe  Fe8  1  0.56257838  0.62515676  0.31226486  1
  Fe  Fe9  1  0.06248563  0.62497127  0.81254310  1
  Cu  Cu10  1  0.93740621  0.37481241  0.18778138  1
  Ni  Ni11  1  0.43754223  0.37508446  0.68737332  1
  S  S12  1  0.87086862  0.24173724  0.38739414  1
  S  S13  1  0.37270020  0.24540041  0.88189939  1
  S  S14  1  0.13696218  0.77392437  0.12066785  1
  S  S15  1  0.63215649  0.76431299  0.62296572  1
  S  S16  1  0.13696218  0.24236997  0.12066785  1
  S  S17  1  0.63215649  0.24487779  0.62296572  1
  S  S18  1  0.60540779  0.24236997  0.12066785  1
  S  S19  1  0.11272129  0.24487779  0.62296572  1
  S  S20  1  0.62660676  0.75321352  0.12017972  1
  S  S21  1  0.12657013  0.75314026  0.62028961  1
  S  S22  1  0.37006881  0.24013762  0.37723388  1
  S  S23  1  0.87039630  0.24079259  0.87603536  1
  S  S24  1  0.37006881  0.75269731  0.37723388  1
  S  S25  1  0.87039630  0.75356834  0.87603536  1
  S  S26  1  0.88262850  0.75269731  0.37723388  1
  S  S27  1  0.38317204  0.75356834  0.87603536  1
