# generated using pymatgen
data_Co3Ge2
_symmetry_space_group_name_H-M   'P 1'
_cell_length_a   3.93009000
_cell_length_b   3.93007527
_cell_length_c   4.87153964
_cell_angle_alpha   90.00000000
_cell_angle_beta   90.00000000
_cell_angle_gamma   60.00012404
_symmetry_Int_Tables_number   1
_chemical_formula_structural   Co3Ge2
_chemical_formula_sum   'Co3 Ge2'
_cell_volume   65.16295629
_cell_formula_units_Z   1
loop_
 _symmetry_equiv_pos_site_id
 _symmetry_equiv_pos_as_xyz
  1  'x, y, z'
loop_
 _atom_site_type_symbol
 _atom_site_label
 _atom_site_symmetry_multiplicity
 _atom_site_fract_x
 _atom_site_fract_y
 _atom_site_fract_z
 _atom_site_occupancy
  Co  Co0  1  0.00001431  0.99999284  0.50814788  1
  Co  Co1  1  0.00001431  0.99999284  0.99185212  1
  Co  Co2  1  0.33333981  0.33333009  0.25000000  1
  Ge  Ge3  1  0.33336690  0.33331655  0.75000000  1
  Ge  Ge4  1  0.66666466  0.66666767  0.25000000  1
