# generated using pymatgen
data_CdFe4NiO8
_symmetry_space_group_name_H-M   'P 1'
_cell_length_a   6.14066748
_cell_length_b   6.13991741
_cell_length_c   6.14066748
_cell_angle_alpha   90.00000000
_cell_angle_beta   59.99191897
_cell_angle_gamma   119.99595949
_symmetry_Int_Tables_number   1
_chemical_formula_structural   CdFe4NiO8
_chemical_formula_sum   'Cd1 Fe4 Ni1 O8'
_cell_volume   163.70131309
_cell_formula_units_Z   1
loop_
 _symmetry_equiv_pos_site_id
 _symmetry_equiv_pos_as_xyz
  1  'x, y, z'
loop_
 _atom_site_type_symbol
 _atom_site_label
 _atom_site_symmetry_multiplicity
 _atom_site_fract_x
 _atom_site_fract_y
 _atom_site_fract_z
 _atom_site_occupancy
  Cd  Cd0  1  0.50220349  0.75110174  0.75110174  1
  Fe  Fe1  1  0.99626715  0.99813357  0.99813357  1
  Fe  Fe2  1  0.75373149  0.37686574  0.86854633  1
  Fe  Fe3  1  0.24541207  0.37686574  0.37686574  1
  Fe  Fe4  1  0.24541207  0.86854633  0.37686574  1
  Ni  Ni5  1  0.75195341  0.37597671  0.37597671  1
  O  O6  1  0.25488639  0.12744320  0.60685463  1
  O  O7  1  0.73429782  0.12744320  0.12744320  1
  O  O8  1  0.73429782  0.60685463  0.12744320  1
  O  O9  1  0.26356397  0.13178198  0.13178198  1
  O  O10  1  0.22357974  0.61178987  0.17631640  1
  O  O11  1  0.78810628  0.61178987  0.61178987  1
  O  O12  1  0.78810628  0.17631640  0.61178987  1
  O  O13  1  0.21818202  0.60909101  0.60909101  1
