# generated using pymatgen
data_Cd2GaAgSe4
_symmetry_space_group_name_H-M   'P 1'
_cell_length_a   4.28445492
_cell_length_b   7.05434974
_cell_length_c   7.51958172
_cell_angle_alpha   90.34577669
_cell_angle_beta   90.00000000
_cell_angle_gamma   90.00000000
_symmetry_Int_Tables_number   1
_chemical_formula_structural   Cd2GaAgSe4
_chemical_formula_sum   'Cd2 Ga1 Ag1 Se4'
_cell_volume   227.26802593
_cell_formula_units_Z   1
loop_
 _symmetry_equiv_pos_site_id
 _symmetry_equiv_pos_as_xyz
  1  'x, y, z'
loop_
 _atom_site_type_symbol
 _atom_site_label
 _atom_site_symmetry_multiplicity
 _atom_site_fract_x
 _atom_site_fract_y
 _atom_site_fract_z
 _atom_site_occupancy
  Cd  Cd0  1  0.50000000  0.00242518  0.16817632  1
  Cd  Cd1  1  0.50000000  0.53337245  0.81825957  1
  Ga  Ga2  1  -0.00000000  0.52543252  0.34121995  1
  Ag  Ag3  1  -0.00000000  0.01010190  0.67232101  1
  Se  Se4  1  0.50000000  0.40005515  0.18064288  1
  Se  Se5  1  0.50000000  0.90214371  0.83691739  1
  Se  Se6  1  -0.00000000  0.86969994  0.34314783  1
  Se  Se7  1  -0.00000000  0.38796914  0.63931505  1
