# generated using pymatgen
data_BaPrCu2O5
_symmetry_space_group_name_H-M   'P 1'
_cell_length_a   3.92330204
_cell_length_b   7.90106697
_cell_length_c   11.69391335
_cell_angle_alpha   90.00000000
_cell_angle_beta   90.00000000
_cell_angle_gamma   90.00000000
_symmetry_Int_Tables_number   1
_chemical_formula_structural   BaPrCu2O5
_chemical_formula_sum   'Ba3 Pr3 Cu6 O15'
_cell_volume   362.49110866
_cell_formula_units_Z   3
loop_
 _symmetry_equiv_pos_site_id
 _symmetry_equiv_pos_as_xyz
  1  'x, y, z'
loop_
 _atom_site_type_symbol
 _atom_site_label
 _atom_site_symmetry_multiplicity
 _atom_site_fract_x
 _atom_site_fract_y
 _atom_site_fract_z
 _atom_site_occupancy
  Ba  Ba0  1  0.50000000  0.25000000  0.81949842  1
  Ba  Ba1  1  0.50000000  0.75000000  0.82805194  1
  Ba  Ba2  1  0.50000000  0.25000000  0.18237001  1
  Pr  Pr3  1  0.50000000  0.25000000  0.49937072  1
  Pr  Pr4  1  0.50000000  0.75000000  0.49631871  1
  Pr  Pr5  1  0.50000000  0.75000000  0.15452715  1
  Cu  Cu6  1  0.00000000  0.99911494  0.65463850  1
  Cu  Cu7  1  -0.00000000  0.50088506  0.65463850  1
  Cu  Cu8  1  -0.00000000  0.99717270  0.34528362  1
  Cu  Cu9  1  0.00000000  0.50282730  0.34528362  1
  Cu  Cu10  1  0.00000000  0.99572019  0.00022649  1
  Cu  Cu11  1  -0.00000000  0.50427981  0.00022649  1
  O  O12  1  -0.00000000  0.01054204  0.83882686  1
  O  O13  1  0.00000000  0.48945796  0.83882686  1
  O  O14  1  0.00000000  0.98453949  0.16495431  1
  O  O15  1  0.00000000  0.51546051  0.16495431  1
  O  O16  1  0.00000000  0.25000000  0.63095174  1
  O  O17  1  -0.00000000  0.75000000  0.62911528  1
  O  O18  1  0.50000000  0.00072127  0.62855286  1
  O  O19  1  0.50000000  0.49927873  0.62855286  1
  O  O20  1  0.00000000  0.25000000  0.36628601  1
  O  O21  1  0.00000000  0.75000000  0.36015482  1
  O  O22  1  0.50000000  0.99671041  0.36477365  1
  O  O23  1  0.50000000  0.50328959  0.36477365  1
  O  O24  1  0.50000000  0.00509935  0.01145196  1
  O  O25  1  0.50000000  0.49490065  0.01145196  1
  O  O26  1  0.00000000  0.75000000  0.01593870  1
