# generated using pymatgen
data_Ba4Mn2Ag2As4O17
_symmetry_space_group_name_H-M   'P 1'
_cell_length_a   5.99322925
_cell_length_b   8.88732302
_cell_length_c   9.62910461
_cell_angle_alpha   115.23399774
_cell_angle_beta   90.33429928
_cell_angle_gamma   89.74077496
_symmetry_Int_Tables_number   1
_chemical_formula_structural   Ba4Mn2Ag2As4O17
_chemical_formula_sum   'Ba4 Mn2 Ag2 As4 O17'
_cell_volume   463.93109964
_cell_formula_units_Z   1
loop_
 _symmetry_equiv_pos_site_id
 _symmetry_equiv_pos_as_xyz
  1  'x, y, z'
loop_
 _atom_site_type_symbol
 _atom_site_label
 _atom_site_symmetry_multiplicity
 _atom_site_fract_x
 _atom_site_fract_y
 _atom_site_fract_z
 _atom_site_occupancy
  Ba  Ba0  1  0.76044869  0.77951209  0.89386372  1
  Ba  Ba1  1  0.23248760  0.21667926  0.09634959  1
  Ba  Ba2  1  0.75193425  0.23609165  0.76633372  1
  Ba  Ba3  1  0.23577347  0.75538555  0.23100445  1
  Mn  Mn4  1  0.50497886  0.49864093  0.49929556  1
  Mn  Mn5  1  0.00120032  0.49688868  0.49854972  1
  Ag  Ag6  1  0.74655757  0.83407110  0.49857441  1
  Ag  Ag7  1  0.25112325  0.16591592  0.49652347  1
  As  As8  1  0.74718050  0.49225805  0.17932432  1
  As  As9  1  0.25336216  0.51048223  0.82253036  1
  As  As10  1  0.72058979  0.09496168  0.29476652  1
  As  As11  1  0.24060172  0.90302390  0.69312175  1
  O  O12  1  0.50761272  0.53722831  0.29194767  1
  O  O13  1  0.01040742  0.46683303  0.71247759  1
  O  O14  1  0.49267125  0.46454195  0.70951686  1
  O  O15  1  0.99164476  0.53644880  0.28885960  1
  O  O16  1  0.74666129  0.61593078  0.08297546  1
  O  O17  1  0.25150185  0.38710202  0.91929360  1
  O  O18  1  0.75347195  0.64354484  0.58144450  1
  O  O19  1  0.25528759  0.35660166  0.41460656  1
  O  O20  1  0.75008212  0.28353437  0.06013996  1
  O  O21  1  0.25585112  0.71898860  0.94367096  1
  O  O22  1  0.75767636  0.31964165  0.40525949  1
  O  O23  1  0.24755607  0.68460237  0.60315216  1
  O  O24  1  0.20026903  0.95096170  0.53798932  1
  O  O25  1  0.69787325  0.04762908  0.45757833  1
  O  O26  1  0.01849361  0.98251586  0.81542100  1
  O  O27  1  0.47771818  0.98441753  0.79816112  1
  O  O28  1  0.98288328  0.01856642  0.21066820  1
