# generated using pymatgen
data_Ba4Y2FeCu5O14
_symmetry_space_group_name_H-M   'P 1'
_cell_length_a   3.85465101
_cell_length_b   12.58075344
_cell_length_c   7.77297632
_cell_angle_alpha   72.00564073
_cell_angle_beta   90.00214357
_cell_angle_gamma   90.00066218
_symmetry_Int_Tables_number   1
_chemical_formula_structural   Ba4Y2FeCu5O14
_chemical_formula_sum   'Ba4 Y2 Fe1 Cu5 O14'
_cell_volume   358.50835007
_cell_formula_units_Z   1
loop_
 _symmetry_equiv_pos_site_id
 _symmetry_equiv_pos_as_xyz
  1  'x, y, z'
loop_
 _atom_site_type_symbol
 _atom_site_label
 _atom_site_symmetry_multiplicity
 _atom_site_fract_x
 _atom_site_fract_y
 _atom_site_fract_z
 _atom_site_occupancy
  Ba  Ba0  1  0.50049310  0.81359519  0.84497701  1
  Ba  Ba1  1  0.49950690  0.81359519  0.34142781  1
  Ba  Ba2  1  0.49950690  0.18640481  0.15502299  1
  Ba  Ba3  1  0.50049310  0.18640481  0.65857219  1
  Y  Y4  1  0.50000000  0.50000000  -0.00000000  1
  Y  Y5  1  0.50000000  0.50000000  0.50000000  1
  Fe  Fe6  1  -0.00000000  0.00000000  0.50000000  1
  Cu  Cu7  1  0.00000000  0.64200380  0.17899810  1
  Cu  Cu8  1  0.00000000  0.64165113  0.67917444  1
  Cu  Cu9  1  1.00000000  0.35834887  0.32082556  1
  Cu  Cu10  1  1.00000000  0.35799620  0.82100190  1
  Cu  Cu11  1  -0.00000000  0.00000000  -0.00000000  1
  O  O12  1  1.00000000  0.84246946  0.07876527  1
  O  O13  1  1.00000000  0.84371432  0.57814284  1
  O  O14  1  0.00000000  0.15628568  0.42185716  1
  O  O15  1  0.00000000  0.15753054  0.92123473  1
  O  O16  1  0.50000000  0.62049808  0.18975096  1
  O  O17  1  0.50000000  0.61968202  0.69015899  1
  O  O18  1  0.00091526  0.61982416  0.94031250  1
  O  O19  1  0.99908474  0.61982416  0.43986334  1
  O  O20  1  0.50000000  0.38031798  0.30984101  1
  O  O21  1  0.50000000  0.37950192  0.81024904  1
  O  O22  1  0.99908474  0.38017584  0.05968750  1
  O  O23  1  0.00091526  0.38017584  0.56013666  1
  O  O24  1  0.06120901  0.00000000  0.75099421  1
  O  O25  1  0.93879099  1.00000000  0.24900579  1
