# generated using pymatgen
data_Ba4TiAl3P4(O5F)4
_symmetry_space_group_name_H-M   'P 1'
_cell_length_a   5.26386156
_cell_length_b   7.06590781
_cell_length_c   12.89994346
_cell_angle_alpha   89.75010390
_cell_angle_beta   89.76684543
_cell_angle_gamma   101.99419903
_symmetry_Int_Tables_number   1
_chemical_formula_structural   Ba4TiAl3P4(O5F)4
_chemical_formula_sum   'Ba4 Ti1 Al3 P4 O20 F4'
_cell_volume   469.31476835
_cell_formula_units_Z   1
loop_
 _symmetry_equiv_pos_site_id
 _symmetry_equiv_pos_as_xyz
  1  'x, y, z'
loop_
 _atom_site_type_symbol
 _atom_site_label
 _atom_site_symmetry_multiplicity
 _atom_site_fract_x
 _atom_site_fract_y
 _atom_site_fract_z
 _atom_site_occupancy
  Ba  Ba0  1  0.04960474  0.18613670  0.80471823  1
  Ba  Ba1  1  0.54745441  0.68629957  0.69724986  1
  Ba  Ba2  1  0.95039526  0.81386330  0.19528177  1
  Ba  Ba3  1  0.45254559  0.31370043  0.30275014  1
  Ti  Ti4  1  0.00000000  0.00000000  0.50000000  1
  Al  Al5  1  0.50000000  0.00000000  -0.00000000  1
  Al  Al6  1  0.00000000  0.50000000  0.50000000  1
  Al  Al7  1  0.50000000  0.50000000  -0.00000000  1
  P  P8  1  0.57118237  0.20050534  0.61511261  1
  P  P9  1  0.06976615  0.69568961  0.88979216  1
  P  P10  1  0.42881763  0.79949466  0.38488739  1
  P  P11  1  0.93023385  0.30431039  0.11020784  1
  O  O12  1  0.26462724  0.55518766  0.88780548  1
  O  O13  1  0.76715195  0.05913390  0.61740582  1
  O  O14  1  0.73537276  0.44481234  0.11219452  1
  O  O15  1  0.23284805  0.94086610  0.38259418  1
  O  O16  1  0.42868249  0.24127585  0.95672270  1
  O  O17  1  0.93118630  0.73797309  0.54440698  1
  O  O18  1  0.57131751  0.75872415  0.04327730  1
  O  O19  1  0.06881370  0.26202691  0.45559302  1
  O  O20  1  0.30188486  0.06648194  0.59485677  1
  O  O21  1  0.79239543  0.57316879  0.91207670  1
  O  O22  1  0.69811514  0.93351806  0.40514323  1
  O  O23  1  0.20760457  0.42683121  0.08792330  1
  O  O24  1  0.15170067  0.85186407  0.97511628  1
  O  O25  1  0.64986902  0.35378510  0.52801878  1
  O  O26  1  0.84829933  0.14813593  0.02488372  1
  O  O27  1  0.35013098  0.64621490  0.47198122  1
  O  O28  1  0.56828165  0.29566056  0.72123291  1
  O  O29  1  0.06785888  0.79164080  0.78261882  1
  O  O30  1  0.43171835  0.70433944  0.27876709  1
  O  O31  1  0.93214112  0.20835920  0.21738118  1
  F  F32  1  0.10692337  0.45168705  0.63198252  1
  F  F33  1  0.60554463  0.95723605  0.86855905  1
  F  F34  1  0.89307663  0.54831295  0.36801748  1
  F  F35  1  0.39445537  0.04276395  0.13144095  1
