# generated using pymatgen
data_Ba2Ti5(Bi2O9)2
_symmetry_space_group_name_H-M   'P 1'
_cell_length_a   3.92666659
_cell_length_b   3.92666659
_cell_length_c   24.60516826
_cell_angle_alpha   85.42330307
_cell_angle_beta   85.42330307
_cell_angle_gamma   90.00000000
_symmetry_Int_Tables_number   1
_chemical_formula_structural   Ba2Ti5(Bi2O9)2
_chemical_formula_sum   'Ba2 Ti5 Bi4 O18'
_cell_volume   376.95671331
_cell_formula_units_Z   1
loop_
 _symmetry_equiv_pos_site_id
 _symmetry_equiv_pos_as_xyz
  1  'x, y, z'
loop_
 _atom_site_type_symbol
 _atom_site_label
 _atom_site_symmetry_multiplicity
 _atom_site_fract_x
 _atom_site_fract_y
 _atom_site_fract_z
 _atom_site_occupancy
  Ba  Ba0  1  0.04177998  0.04177998  0.91644005  1
  Ba  Ba1  1  0.95822002  0.95822002  0.08355995  1
  Ti  Ti2  1  0.33232060  0.33232060  0.33535880  1
  Ti  Ti3  1  0.66767940  0.66767940  0.66464120  1
  Ti  Ti4  1  0.41614985  0.41614985  0.16770030  1
  Ti  Ti5  1  0.58385015  0.58385015  0.83229970  1
  Ti  Ti6  1  0.50000000  0.50000000  0.00000000  1
  Bi  Bi7  1  0.22441532  0.22441532  0.55116936  1
  Bi  Bi8  1  0.77558468  0.77558468  0.44883064  1
  Bi  Bi9  1  0.12736193  0.12736193  0.74527613  1
  Bi  Bi10  1  0.87263807  0.87263807  0.25472387  1
  O  O11  1  0.37706276  0.37706276  0.24587448  1
  O  O12  1  0.62293724  0.62293724  0.75412552  1
  O  O13  1  0.29577828  0.29577828  0.40844343  1
  O  O14  1  0.70422172  0.70422172  0.59155657  1
  O  O15  1  0.58419312  0.08419312  0.83161377  1
  O  O16  1  0.08419312  0.58419312  0.83161377  1
  O  O17  1  0.41580688  0.91580688  0.16838623  1
  O  O18  1  0.91580688  0.41580688  0.16838623  1
  O  O19  1  0.45838426  0.45838426  0.08323149  1
  O  O20  1  0.54161574  0.54161574  0.91676851  1
  O  O21  1  0.65986738  0.15986738  0.68026525  1
  O  O22  1  0.15986738  0.65986738  0.68026525  1
  O  O23  1  0.34013262  0.84013262  0.31973475  1
  O  O24  1  0.84013262  0.34013262  0.31973475  1
  O  O25  1  0.75000000  0.25000000  0.50000000  1
  O  O26  1  0.25000000  0.75000000  0.50000000  1
  O  O27  1  0.50000000  -0.00000000  0.00000000  1
  O  O28  1  -0.00000000  0.50000000  0.00000000  1
