# generated using pymatgen
data_V3H6CNO7
_symmetry_space_group_name_H-M   'P 1'
_cell_length_a   6.73487631
_cell_length_b   10.45251045
_cell_length_c   12.08340994
_cell_angle_alpha   93.67370320
_cell_angle_beta   90.00000000
_cell_angle_gamma   90.00000000
_symmetry_Int_Tables_number   1
_chemical_formula_structural   V3H6CNO7
_chemical_formula_sum   'V12 H24 C4 N4 O28'
_cell_volume   848.88020698
_cell_formula_units_Z   4
loop_
 _symmetry_equiv_pos_site_id
 _symmetry_equiv_pos_as_xyz
  1  'x, y, z'
loop_
 _atom_site_type_symbol
 _atom_site_label
 _atom_site_symmetry_multiplicity
 _atom_site_fract_x
 _atom_site_fract_y
 _atom_site_fract_z
 _atom_site_occupancy
  V  V0  1  0.25752021  0.51279432  0.10048743  1
  V  V1  1  0.25482514  0.97434505  0.31337479  1
  V  V2  1  0.24517486  0.47434505  0.81337479  1
  V  V3  1  0.75482514  0.52565495  0.18662521  1
  V  V4  1  0.03289860  0.71856888  0.30387060  1
  V  V5  1  0.74517486  0.02565495  0.68662521  1
  V  V6  1  0.53289860  0.78143112  0.19612940  1
  V  V7  1  0.75752021  0.98720568  0.39951257  1
  V  V8  1  0.96710140  0.28143112  0.69612940  1
  V  V9  1  0.46710140  0.21856888  0.80387060  1
  V  V10  1  0.24247979  0.01279432  0.60048743  1
  V  V11  1  0.74247979  0.48720568  0.89951257  1
  H  H12  1  0.47791074  0.80577781  0.92067700  1
  H  H13  1  0.08099703  0.41086248  0.32906987  1
  H  H14  1  0.71839753  0.55902575  0.49935754  1
  H  H15  1  0.92772060  0.09007292  0.12297390  1
  H  H16  1  0.91900297  0.58913752  0.67093013  1
  H  H17  1  0.07227940  0.90992708  0.87702610  1
  H  H18  1  0.58099703  0.08913752  0.17093013  1
  H  H19  1  0.02208926  0.30577781  0.42067700  1
  H  H20  1  0.83687216  0.74053901  0.69011209  1
  H  H21  1  0.16312784  0.25946099  0.30988791  1
  H  H22  1  0.41900297  0.91086248  0.82906987  1
  H  H23  1  0.21839753  0.94097425  0.00064246  1
  H  H24  1  0.38248889  0.28393960  0.46672584  1
  H  H25  1  0.57227940  0.59007292  0.62297390  1
  H  H26  1  0.28160247  0.44097425  0.50064246  1
  H  H27  1  0.42772060  0.40992708  0.37702610  1
  H  H28  1  0.11751111  0.78393960  0.96672584  1
  H  H29  1  0.33687216  0.75946099  0.80988791  1
  H  H30  1  0.97791074  0.69422219  0.57932300  1
  H  H31  1  0.66312784  0.24053901  0.19011209  1
  H  H32  1  0.88248889  0.21606040  0.03327416  1
  H  H33  1  0.61751111  0.71606040  0.53327416  1
  H  H34  1  0.78160247  0.05902575  0.99935754  1
  H  H35  1  0.52208926  0.19422219  0.07932300  1
  C  C36  1  0.18022532  0.87010395  0.93331952  1
  C  C37  1  0.81977468  0.12989605  0.06668048  1
  C  C38  1  0.68022532  0.62989605  0.56668048  1
  C  C39  1  0.31977468  0.37010395  0.43331952  1
  N  N40  1  0.63549245  0.16581834  0.13074717  1
  N  N41  1  0.36450755  0.83418166  0.86925283  1
  N  N42  1  0.13549245  0.33418166  0.36925283  1
  N  N43  1  0.86450755  0.66581834  0.63074717  1
  O  O44  1  0.24419876  0.30342141  0.73624137  1
  O  O45  1  0.51796424  0.40742970  0.84813610  1
  O  O46  1  0.45132272  0.06655524  0.68966584  1
  O  O47  1  0.22864671  0.09289308  0.23018060  1
  O  O48  1  0.27135329  0.59289308  0.73018060  1
  O  O49  1  0.78042764  0.45040393  0.03648078  1
  O  O50  1  0.25580124  0.80342141  0.23624137  1
  O  O51  1  0.01796424  0.09257030  0.65186390  1
  O  O52  1  0.08443478  0.65004915  0.41994077  1
  O  O53  1  0.77135329  0.90710692  0.76981940  1
  O  O54  1  0.78801823  0.14182685  0.39155660  1
  O  O55  1  0.54867728  0.93344476  0.31033416  1
  O  O56  1  0.48203576  0.59257030  0.15186390  1
  O  O57  1  0.71198177  0.64182685  0.89155660  1
  O  O58  1  0.28801823  0.35817315  0.10844340  1
  O  O59  1  0.71957236  0.95040393  0.53648078  1
  O  O60  1  0.75580124  0.69657859  0.26375863  1
  O  O61  1  0.74419876  0.19657859  0.76375863  1
  O  O62  1  0.21198177  0.85817315  0.60844340  1
  O  O63  1  0.98203576  0.90742970  0.34813610  1
  O  O64  1  0.04867728  0.56655524  0.18966584  1
  O  O65  1  0.91556522  0.34995085  0.58005923  1
  O  O66  1  0.58443478  0.84995085  0.08005923  1
  O  O67  1  0.21957236  0.54959607  0.96351922  1
  O  O68  1  0.41556522  0.15004915  0.91994077  1
  O  O69  1  0.72864671  0.40710692  0.26981940  1
  O  O70  1  0.28042764  0.04959607  0.46351922  1
  O  O71  1  0.95132272  0.43344476  0.81033416  1
