# generated using pymatgen
data_Sr2ErReO6
_symmetry_space_group_name_H-M   'P 1'
_cell_length_a   5.88033324
_cell_length_b   5.88033279
_cell_length_c   5.88033294
_cell_angle_alpha   59.99999913
_cell_angle_beta   60.00000171
_cell_angle_gamma   59.99999563
_symmetry_Int_Tables_number   1
_chemical_formula_structural   Sr2ErReO6
_chemical_formula_sum   'Sr2 Er1 Re1 O6'
_cell_volume   143.77744120
_cell_formula_units_Z   1
loop_
 _symmetry_equiv_pos_site_id
 _symmetry_equiv_pos_as_xyz
  1  'x, y, z'
loop_
 _atom_site_type_symbol
 _atom_site_label
 _atom_site_symmetry_multiplicity
 _atom_site_fract_x
 _atom_site_fract_y
 _atom_site_fract_z
 _atom_site_occupancy
  Sr  Sr0  1  0.25000000  0.25000000  0.25000000  1
  Sr  Sr1  1  0.75000000  0.75000000  0.75000000  1
  Er  Er2  1  0.50000000  0.50000000  0.50000000  1
  Re  Re3  1  -0.00000000  0.00000000  -0.00000000  1
  O  O4  1  0.23726065  0.76273935  0.76273935  1
  O  O5  1  0.76273935  0.23726065  0.23726065  1
  O  O6  1  0.76273935  0.23726065  0.76273935  1
  O  O7  1  0.23726065  0.76273935  0.23726065  1
  O  O8  1  0.23726065  0.23726065  0.76273935  1
  O  O9  1  0.76273935  0.76273935  0.23726065  1
