# generated using pymatgen
data_SrDy2CuO5
_symmetry_space_group_name_H-M   'P 1'
_cell_length_a   5.64297282
_cell_length_b   7.18130281
_cell_length_c   12.08895788
_cell_angle_alpha   90.00000000
_cell_angle_beta   90.00000000
_cell_angle_gamma   90.00000000
_symmetry_Int_Tables_number   1
_chemical_formula_structural   SrDy2CuO5
_chemical_formula_sum   'Sr4 Dy8 Cu4 O20'
_cell_volume   489.89167876
_cell_formula_units_Z   4
loop_
 _symmetry_equiv_pos_site_id
 _symmetry_equiv_pos_as_xyz
  1  'x, y, z'
loop_
 _atom_site_type_symbol
 _atom_site_label
 _atom_site_symmetry_multiplicity
 _atom_site_fract_x
 _atom_site_fract_y
 _atom_site_fract_z
 _atom_site_occupancy
  O  O0  1  0.25000000  0.42553815  0.59419369  1
  O  O1  1  0.75000000  0.57446185  0.40580631  1
  O  O2  1  0.75000000  0.92553815  0.90580631  1
  O  O3  1  0.25000000  0.07446185  0.09419369  1
  O  O4  1  0.00613465  0.84849595  0.27644341  1
  O  O5  1  0.50613465  0.15150405  0.72355659  1
  O  O6  1  0.99386535  0.34849595  0.22355659  1
  O  O7  1  0.49386535  0.65150405  0.77644341  1
  O  O8  1  0.99386535  0.15150405  0.72355659  1
  O  O9  1  0.49386535  0.84849595  0.27644341  1
  O  O10  1  0.00613465  0.65150405  0.77644341  1
  O  O11  1  0.50613465  0.34849595  0.22355659  1
  O  O12  1  0.49233323  0.66408423  0.06703008  1
  O  O13  1  0.99233323  0.33591577  0.93296992  1
  O  O14  1  0.50766677  0.16408423  0.43296992  1
  O  O15  1  0.00766677  0.83591577  0.56703008  1
  O  O16  1  0.99233323  0.16408423  0.43296992  1
  O  O17  1  0.49233323  0.83591577  0.56703008  1
  O  O18  1  0.00766677  0.66408423  0.06703008  1
  O  O19  1  0.50766677  0.33591577  0.93296992  1
  Cu  Cu20  1  0.25000000  0.77886863  0.16325593  1
  Cu  Cu21  1  0.75000000  0.22113137  0.83674407  1
  Cu  Cu22  1  0.75000000  0.27886863  0.33674407  1
  Cu  Cu23  1  0.25000000  0.72113137  0.66325593  1
  Sr  Sr24  1  0.75000000  0.08207853  0.08656845  1
  Sr  Sr25  1  0.75000000  0.41792147  0.58656845  1
  Sr  Sr26  1  0.25000000  0.58207853  0.41343155  1
  Sr  Sr27  1  0.25000000  0.91792147  0.91343155  1
  Dy  Dy28  1  0.25000000  0.39441581  0.07323449  1
  Dy  Dy29  1  0.75000000  0.61300722  0.21360046  1
  Dy  Dy30  1  0.75000000  0.88699278  0.71360046  1
  Dy  Dy31  1  0.25000000  0.11300722  0.28639954  1
  Dy  Dy32  1  0.75000000  0.60558419  0.92676551  1
  Dy  Dy33  1  0.75000000  0.89441581  0.42676551  1
  Dy  Dy34  1  0.25000000  0.10558419  0.57323449  1
  Dy  Dy35  1  0.25000000  0.38699278  0.78639954  1
