# generated using pymatgen
data_SrHo2CuO5
_symmetry_space_group_name_H-M   'P 1'
_cell_length_a   5.62163324
_cell_length_b   7.14834322
_cell_length_c   12.03254553
_cell_angle_alpha   90.00000000
_cell_angle_beta   90.00000000
_cell_angle_gamma   90.00000000
_symmetry_Int_Tables_number   1
_chemical_formula_structural   SrHo2CuO5
_chemical_formula_sum   'Sr4 Ho8 Cu4 O20'
_cell_volume   483.53222024
_cell_formula_units_Z   4
loop_
 _symmetry_equiv_pos_site_id
 _symmetry_equiv_pos_as_xyz
  1  'x, y, z'
loop_
 _atom_site_type_symbol
 _atom_site_label
 _atom_site_symmetry_multiplicity
 _atom_site_fract_x
 _atom_site_fract_y
 _atom_site_fract_z
 _atom_site_occupancy
  Sr  Sr0  1  0.25000000  0.57678727  0.41136910  1
  Sr  Sr1  1  0.75000000  0.42321273  0.58863090  1
  Sr  Sr2  1  0.75000000  0.07678727  0.08863090  1
  Sr  Sr3  1  0.25000000  0.92321273  0.91136910  1
  Ho  Ho4  1  0.25000000  0.39622047  0.07413673  1
  Ho  Ho5  1  0.25000000  0.38532124  0.78742681  1
  Ho  Ho6  1  0.75000000  0.61467876  0.21257319  1
  Ho  Ho7  1  0.75000000  0.60377953  0.92586327  1
  Ho  Ho8  1  0.75000000  0.88532124  0.71257319  1
  Ho  Ho9  1  0.25000000  0.10377953  0.57413673  1
  Ho  Ho10  1  0.25000000  0.11467876  0.28742681  1
  Ho  Ho11  1  0.75000000  0.89622047  0.42586327  1
  Cu  Cu12  1  0.75000000  0.28231972  0.33804504  1
  Cu  Cu13  1  0.25000000  0.78231972  0.16195496  1
  Cu  Cu14  1  0.75000000  0.21768028  0.83804504  1
  Cu  Cu15  1  0.25000000  0.71768028  0.66195496  1
  O  O16  1  0.00403845  0.85324402  0.27503302  1
  O  O17  1  0.25000000  0.42273645  0.59551054  1
  O  O18  1  0.99300112  0.33483869  0.93374281  1
  O  O19  1  0.75000000  0.92273645  0.90448946  1
  O  O20  1  0.50403845  0.35324402  0.22496698  1
  O  O21  1  0.99596155  0.35324402  0.22496698  1
  O  O22  1  0.49300112  0.66516131  0.06625719  1
  O  O23  1  0.49596155  0.85324402  0.27503302  1
  O  O24  1  0.99300112  0.16516131  0.43374281  1
  O  O25  1  0.75000000  0.57726355  0.40448946  1
  O  O26  1  0.49300112  0.83483869  0.56625719  1
  O  O27  1  0.00699888  0.66516131  0.06625719  1
  O  O28  1  0.50699888  0.33483869  0.93374281  1
  O  O29  1  0.00403845  0.64675598  0.77503302  1
  O  O30  1  0.49596155  0.64675598  0.77503302  1
  O  O31  1  0.99596155  0.14675598  0.72496698  1
  O  O32  1  0.50699888  0.16516131  0.43374281  1
  O  O33  1  0.50403845  0.14675598  0.72496698  1
  O  O34  1  0.25000000  0.07726355  0.09551054  1
  O  O35  1  0.00699888  0.83483869  0.56625719  1
