# generated using pymatgen
data_As2SeS2
_symmetry_space_group_name_H-M   'P 1'
_cell_length_a   4.52604348
_cell_length_b   10.18216260
_cell_length_c   11.84599622
_cell_angle_alpha   90.00000000
_cell_angle_beta   97.44960683
_cell_angle_gamma   90.00000000
_symmetry_Int_Tables_number   1
_chemical_formula_structural   As2SeS2
_chemical_formula_sum   'As8 Se4 S8'
_cell_volume   541.31370449
_cell_formula_units_Z   4
loop_
 _symmetry_equiv_pos_site_id
 _symmetry_equiv_pos_as_xyz
  1  'x, y, z'
loop_
 _atom_site_type_symbol
 _atom_site_label
 _atom_site_symmetry_multiplicity
 _atom_site_fract_x
 _atom_site_fract_y
 _atom_site_fract_z
 _atom_site_occupancy
  As  As0  1  0.40238637  0.30651254  0.75488594  1
  As  As1  1  0.90238637  0.19348746  0.25488594  1
  As  As2  1  0.59761363  0.69348746  0.24511406  1
  As  As3  1  0.09761363  0.80651254  0.74511406  1
  As  As4  1  0.27234228  0.18299203  0.00362470  1
  As  As5  1  0.77234228  0.31700797  0.50362470  1
  As  As6  1  0.72765772  0.81700797  0.99637530  1
  As  As7  1  0.22765772  0.68299203  0.49637530  1
  Se  Se8  1  0.56297558  0.09876026  0.85348991  1
  Se  Se9  1  0.06297558  0.40123974  0.35348991  1
  Se  Se10  1  0.43702442  0.90123974  0.14651009  1
  Se  Se11  1  0.93702442  0.59876026  0.64651009  1
  S  S12  1  0.09282657  0.18679807  0.62259463  1
  S  S13  1  0.59282657  0.31320193  0.12259463  1
  S  S14  1  0.90717343  0.81320193  0.37740537  1
  S  S15  1  0.40717343  0.68679807  0.87740537  1
  S  S16  1  0.12546228  0.36535773  0.89712985  1
  S  S17  1  0.62546228  0.13464227  0.39712985  1
  S  S18  1  0.87453772  0.63464227  0.10287015  1
  S  S19  1  0.37453772  0.86535773  0.60287015  1
