# generated using pymatgen
data_Mn3V2(SiO4)3
_symmetry_space_group_name_H-M   'P 1'
_cell_length_a   10.38617689
_cell_length_b   10.38617689
_cell_length_c   10.38617689
_cell_angle_alpha   109.47122062
_cell_angle_beta   109.47122062
_cell_angle_gamma   109.47122065
_symmetry_Int_Tables_number   1
_chemical_formula_structural   Mn3V2(SiO4)3
_chemical_formula_sum   'Mn12 V8 Si12 O48'
_cell_volume   862.47249523
_cell_formula_units_Z   4
loop_
 _symmetry_equiv_pos_site_id
 _symmetry_equiv_pos_as_xyz
  1  'x, y, z'
loop_
 _atom_site_type_symbol
 _atom_site_label
 _atom_site_symmetry_multiplicity
 _atom_site_fract_x
 _atom_site_fract_y
 _atom_site_fract_z
 _atom_site_occupancy
  O  O0  1  0.70908870  0.69373140  0.08806262  1
  O  O1  1  0.69373162  0.10566842  0.98464284  1
  O  O2  1  0.62102598  0.70908891  0.51535790  1
  O  O3  1  0.51535742  0.62102663  0.70908864  1
  O  O4  1  0.08806284  0.87897431  0.39433199  1
  O  O5  1  0.39433060  0.08806227  0.87897378  1
  O  O6  1  0.10566917  0.98464273  0.69373126  1
  O  O7  1  0.62102586  0.41193725  0.10566815  1
  O  O8  1  0.51535749  0.39433110  0.80626863  1
  O  O9  1  0.87897356  0.98464273  0.79091131  1
  O  O10  1  0.41193685  0.10566842  0.62102619  1
  O  O11  1  0.80626860  0.51535703  0.39433102  1
  O  O12  1  0.98464242  0.79091085  0.87897345  1
  O  O13  1  0.08806293  0.70908891  0.69373180  1
  O  O14  1  0.69373070  0.08806227  0.70908875  1
  O  O15  1  0.10566921  0.62102663  0.41193783  1
  O  O16  1  0.80626848  0.79091085  0.41193736  1
  O  O17  1  0.39433100  0.80626835  0.51535765  1
  O  O18  1  0.41193736  0.80626835  0.79091053  1
  O  O19  1  0.79091147  0.87897431  0.98464312  1
  O  O20  1  0.29091107  0.48464202  0.37897345  1
  O  O21  1  0.87897366  0.39433110  0.08806243  1
  O  O22  1  0.98464275  0.69373140  0.10566907  1
  O  O23  1  0.70908848  0.51535703  0.62102597  1
  O  O24  1  0.29091144  0.30626883  0.91193740  1
  O  O25  1  0.30626852  0.89433181  0.01535814  1
  O  O26  1  0.37897417  0.29091133  0.48464308  1
  O  O27  1  0.48464272  0.37897360  0.29091137  1
  O  O28  1  0.91193730  0.12102592  0.60566899  1
  O  O29  1  0.60566792  0.91193677  0.12102627  1
  O  O30  1  0.89433097  0.01535750  0.30626875  1
  O  O31  1  0.37897428  0.58806298  0.89433187  1
  O  O32  1  0.48464265  0.60566913  0.19373138  1
  O  O33  1  0.12102658  0.01535750  0.20908871  1
  O  O34  1  0.58806329  0.89433181  0.37897383  1
  O  O35  1  0.19373095  0.48464202  0.60566841  1
  O  O36  1  0.01535772  0.20908938  0.12102656  1
  O  O37  1  0.91193721  0.29091133  0.30626821  1
  O  O38  1  0.30626885  0.91193677  0.29091067  1
  O  O39  1  0.89433093  0.37897360  0.58806219  1
  O  O40  1  0.19373166  0.20908938  0.58806266  1
  O  O41  1  0.60566914  0.19373188  0.48464236  1
  O  O42  1  0.58806278  0.19373188  0.20908948  1
  O  O43  1  0.20908867  0.12102592  0.01535690  1
  O  O44  1  0.20908870  0.58806298  0.19373095  1
  O  O45  1  0.12102648  0.60566913  0.91193758  1
  O  O46  1  0.01535739  0.30626883  0.89433094  1
  O  O47  1  0.79091144  0.41193725  0.80626906  1
  Si  Si48  1  0.25000010  0.12500018  0.87499985  1
  Si  Si49  1  0.75000004  0.87500005  0.12500017  1
  Si  Si50  1  0.37500019  0.25000035  0.62500005  1
  Si  Si51  1  0.62500029  0.37500053  0.25000030  1
  Si  Si52  1  0.12499993  0.74999988  0.87499974  1
  Si  Si53  1  0.87500013  0.12500018  0.74999997  1
  Si  Si54  1  0.75000029  0.37500053  0.62500019  1
  Si  Si55  1  0.37499985  0.62499970  0.74999972  1
  Si  Si56  1  0.12500001  0.87500005  0.25000005  1
  Si  Si57  1  0.87500021  0.25000035  0.12500027  1
  Si  Si58  1  0.62499995  0.74999988  0.37499997  1
  Si  Si59  1  0.24999985  0.62499970  0.37499982  1
  V  V60  1  0.49999977  0.49999952  0.49999971  1
  V  V61  1  0.49999977  0.49999952  0.99999987  1
  V  V62  1  0.50000002  0.00000000  0.49999990  1
  V  V63  1  0.99999975  0.49999952  0.49999965  1
  V  V64  1  0.50000002  0.00000000  0.00000006  1
  V  V65  1  0.00000000  0.00000000  0.49999984  1
  V  V66  1  0.99999975  0.49999952  0.99999981  1
  V  V67  1  0.00000000  0.00000000  0.00000000  1
  Mn  Mn68  1  0.25000002  0.87500005  0.62499994  1
  Mn  Mn69  1  0.87499988  0.62499970  0.24999994  1
  Mn  Mn70  1  0.62500004  0.87500005  0.74999995  1
  Mn  Mn71  1  0.87499996  0.74999988  0.62499992  1
  Mn  Mn72  1  0.62500020  0.25000035  0.87499999  1
  Mn  Mn73  1  0.74999987  0.62499970  0.87499972  1
  Mn  Mn74  1  0.75000012  0.12500018  0.37500007  1
  Mn  Mn75  1  0.12500026  0.37500053  0.75000007  1
  Mn  Mn76  1  0.37500010  0.12500018  0.25000007  1
  Mn  Mn77  1  0.12500018  0.25000035  0.37500010  1
  Mn  Mn78  1  0.37499994  0.74999988  0.12500002  1
  Mn  Mn79  1  0.25000027  0.37500053  0.12500029  1
