# generated using pymatgen
data_Cu10Sb3
_symmetry_space_group_name_H-M   'P 1'
_cell_length_a   10.07653204
_cell_length_b   10.07653204
_cell_length_c   4.30219628
_cell_angle_alpha   90.00000000
_cell_angle_beta   90.00000000
_cell_angle_gamma   119.99999998
_symmetry_Int_Tables_number   1
_chemical_formula_structural   Cu10Sb3
_chemical_formula_sum   'Cu20 Sb6'
_cell_volume   378.30582850
_cell_formula_units_Z   2
loop_
 _symmetry_equiv_pos_site_id
 _symmetry_equiv_pos_as_xyz
  1  'x, y, z'
loop_
 _atom_site_type_symbol
 _atom_site_label
 _atom_site_symmetry_multiplicity
 _atom_site_fract_x
 _atom_site_fract_y
 _atom_site_fract_z
 _atom_site_occupancy
  Cu  Cu0  1  0.33333333  0.66666667  0.75000000  1
  Cu  Cu1  1  0.66666667  0.33333333  0.25000000  1
  Cu  Cu2  1  0.11593525  0.16671181  0.25000000  1
  Cu  Cu3  1  0.83328819  0.94922344  0.25000000  1
  Cu  Cu4  1  0.05077656  0.88406475  0.25000000  1
  Cu  Cu5  1  0.88406475  0.83328819  0.75000000  1
  Cu  Cu6  1  0.16671181  0.05077656  0.75000000  1
  Cu  Cu7  1  0.94922344  0.11593525  0.75000000  1
  Cu  Cu8  1  0.44114132  0.41760930  0.25000000  1
  Cu  Cu9  1  0.58239070  0.02353202  0.25000000  1
  Cu  Cu10  1  0.97646798  0.55885868  0.25000000  1
  Cu  Cu11  1  0.55885868  0.58239070  0.75000000  1
  Cu  Cu12  1  0.41760930  0.97646798  0.75000000  1
  Cu  Cu13  1  0.02353202  0.44114132  0.75000000  1
  Cu  Cu14  1  0.20869370  0.50379186  0.25000000  1
  Cu  Cu15  1  0.49620814  0.70490184  0.25000000  1
  Cu  Cu16  1  0.29509816  0.79130630  0.25000000  1
  Cu  Cu17  1  0.79130630  0.49620814  0.75000000  1
  Cu  Cu18  1  0.50379186  0.29509816  0.75000000  1
  Cu  Cu19  1  0.70490184  0.20869370  0.75000000  1
  Sb  Sb20  1  0.36246284  0.10685041  0.25000000  1
  Sb  Sb21  1  0.89314959  0.25561244  0.25000000  1
  Sb  Sb22  1  0.74438756  0.63753716  0.25000000  1
  Sb  Sb23  1  0.63753716  0.89314959  0.75000000  1
  Sb  Sb24  1  0.10685041  0.74438756  0.75000000  1
  Sb  Sb25  1  0.25561244  0.36246284  0.75000000  1
