# generated using pymatgen
data_Na2FeO4
_symmetry_space_group_name_H-M   'P 1'
_cell_length_a   5.52357465
_cell_length_b   5.52357465
_cell_length_c   7.22498090
_cell_angle_alpha   90.00000000
_cell_angle_beta   90.00000000
_cell_angle_gamma   115.56100432
_symmetry_Int_Tables_number   1
_chemical_formula_structural   Na2FeO4
_chemical_formula_sum   'Na4 Fe2 O8'
_cell_volume   198.85867874
_cell_formula_units_Z   2
loop_
 _symmetry_equiv_pos_site_id
 _symmetry_equiv_pos_as_xyz
  1  'x, y, z'
loop_
 _atom_site_type_symbol
 _atom_site_label
 _atom_site_symmetry_multiplicity
 _atom_site_fract_x
 _atom_site_fract_y
 _atom_site_fract_z
 _atom_site_occupancy
  O  O0  1  0.75016604  0.24983396  0.93588734  1
  O  O1  1  0.24983396  0.75016604  0.43588734  1
  O  O2  1  0.24983396  0.75016604  0.06411266  1
  O  O3  1  0.75016604  0.24983396  0.56411266  1
  O  O4  1  0.18807602  0.27269518  0.75000000  1
  O  O5  1  0.81192398  0.72730482  0.25000000  1
  O  O6  1  0.72730482  0.81192398  0.75000000  1
  O  O7  1  0.27269518  0.18807602  0.25000000  1
  Na  Na8  1  0.50000000  0.50000000  0.00000000  1
  Na  Na9  1  0.50000000  0.50000000  0.50000000  1
  Na  Na10  1  0.81854353  0.18145647  0.25000000  1
  Na  Na11  1  0.18145647  0.81854353  0.75000000  1
  Fe  Fe12  1  0.85288059  0.14711941  0.75000000  1
  Fe  Fe13  1  0.14711941  0.85288059  0.25000000  1
