# generated using pymatgen
data_Ni3S2
_symmetry_space_group_name_H-M   'P 1'
_cell_length_a   3.21404436
_cell_length_b   6.84835491
_cell_length_c   5.77516771
_cell_angle_alpha   89.99576171
_cell_angle_beta   73.84336848
_cell_angle_gamma   90.00000000
_symmetry_Int_Tables_number   1
_chemical_formula_structural   Ni3S2
_chemical_formula_sum   'Ni6 S4'
_cell_volume   122.09620546
_cell_formula_units_Z   2
loop_
 _symmetry_equiv_pos_site_id
 _symmetry_equiv_pos_as_xyz
  1  'x, y, z'
loop_
 _atom_site_type_symbol
 _atom_site_label
 _atom_site_symmetry_multiplicity
 _atom_site_fract_x
 _atom_site_fract_y
 _atom_site_fract_z
 _atom_site_occupancy
  Ni  Ni0  1  0.46202344  0.24997760  0.07595311  1
  Ni  Ni1  1  0.53797701  0.75001769  0.92404598  1
  Ni  Ni2  1  0.66531355  0.43396858  0.66937290  1
  Ni  Ni3  1  0.33471150  0.56605481  0.33057699  1
  Ni  Ni4  1  0.66529766  0.06598455  0.66940469  1
  Ni  Ni5  1  0.33469547  0.93398552  0.33060906  1
  S  S6  1  0.99997168  0.99999459  0.00005664  1
  S  S7  1  0.26019906  0.25001593  0.47960187  1
  S  S8  1  0.73984073  0.74999932  0.52031853  1
  S  S9  1  0.99996989  0.50000142  0.00006023  1
