# generated using pymatgen
data_Cs2CuPb(NO2)6
_symmetry_space_group_name_H-M   'P 1'
_cell_length_a   7.83371073
_cell_length_b   7.83371073
_cell_length_c   7.83319007
_cell_angle_alpha   119.31799404
_cell_angle_beta   119.31799404
_cell_angle_gamma   91.18911479
_symmetry_Int_Tables_number   1
_chemical_formula_structural   Cs2CuPb(NO2)6
_chemical_formula_sum   'Cs2 Cu1 Pb1 N6 O12'
_cell_volume   343.31890290
_cell_formula_units_Z   1
loop_
 _symmetry_equiv_pos_site_id
 _symmetry_equiv_pos_as_xyz
  1  'x, y, z'
loop_
 _atom_site_type_symbol
 _atom_site_label
 _atom_site_symmetry_multiplicity
 _atom_site_fract_x
 _atom_site_fract_y
 _atom_site_fract_z
 _atom_site_occupancy
  Cs  Cs0  1  0.25000000  0.75000000  0.50000000  1
  Cs  Cs1  1  0.75000000  0.25000000  0.50000000  1
  Cu  Cu2  1  0.00000000  -0.00000000  0.00000000  1
  Pb  Pb3  1  0.50000000  0.50000000  -0.00000000  1
  N  N4  1  0.80552474  0.80552474  -0.00000000  1
  N  N5  1  0.19447526  0.19447526  0.00000000  1
  N  N6  1  0.20286013  0.20286013  0.40572025  1
  N  N7  1  0.79713987  0.79713987  0.59427975  1
  N  N8  1  0.20278666  0.79721334  0.00000000  1
  N  N9  1  0.79721334  0.20278666  -0.00000000  1
  O  O10  1  0.84268885  0.65043728  -0.00000000  1
  O  O11  1  0.15731115  0.34956272  0.00000000  1
  O  O12  1  0.34956272  0.15731115  0.00000000  1
  O  O13  1  0.65043728  0.84268885  0.00000000  1
  O  O14  1  0.16341505  0.16341505  0.52293558  1
  O  O15  1  0.35952053  0.35952053  0.52293558  1
  O  O16  1  0.83658495  0.83658495  0.47706442  1
  O  O17  1  0.64047947  0.64047947  0.47706442  1
  O  O18  1  0.35752157  0.83463571  0.19215728  1
  O  O19  1  0.83463571  0.35752157  0.19215728  1
  O  O20  1  0.16536429  0.64247843  0.80784272  1
  O  O21  1  0.64247843  0.16536429  0.80784272  1
