# generated using pymatgen
data_CuTeO3
_symmetry_space_group_name_H-M   'P 1'
_cell_length_a   5.82166481
_cell_length_b   6.06974077
_cell_length_c   7.20050394
_cell_angle_alpha   90.00000000
_cell_angle_beta   90.00000000
_cell_angle_gamma   90.00000000
_symmetry_Int_Tables_number   1
_chemical_formula_structural   CuTeO3
_chemical_formula_sum   'Cu4 Te4 O12'
_cell_volume   254.43698020
_cell_formula_units_Z   4
loop_
 _symmetry_equiv_pos_site_id
 _symmetry_equiv_pos_as_xyz
  1  'x, y, z'
loop_
 _atom_site_type_symbol
 _atom_site_label
 _atom_site_symmetry_multiplicity
 _atom_site_fract_x
 _atom_site_fract_y
 _atom_site_fract_z
 _atom_site_occupancy
  O  O0  1  0.41197294  0.69963227  0.44290191  1
  O  O1  1  0.91197294  0.80036773  0.55709809  1
  O  O2  1  0.08802706  0.19963227  0.05709809  1
  O  O3  1  0.58802706  0.30036773  0.94290191  1
  O  O4  1  0.58802706  0.30036773  0.55709809  1
  O  O5  1  0.08802706  0.19963227  0.44290191  1
  O  O6  1  0.91197294  0.80036773  0.94290191  1
  O  O7  1  0.41197294  0.69963227  0.05709809  1
  O  O8  1  0.66241806  0.05078762  0.25000000  1
  O  O9  1  0.16241806  0.44921238  0.75000000  1
  O  O10  1  0.83758194  0.55078762  0.25000000  1
  O  O11  1  0.33758194  0.94921238  0.75000000  1
  Cu  Cu12  1  0.00000000  0.50000000  0.00000000  1
  Cu  Cu13  1  0.50000000  0.00000000  0.00000000  1
  Cu  Cu14  1  0.50000000  0.00000000  0.50000000  1
  Cu  Cu15  1  0.00000000  0.50000000  0.50000000  1
  Te  Te16  1  0.99307381  0.99241101  0.25000000  1
  Te  Te17  1  0.49307381  0.50758899  0.75000000  1
  Te  Te18  1  0.50692619  0.49241101  0.25000000  1
  Te  Te19  1  0.00692619  0.00758899  0.75000000  1
