# generated using pymatgen
data_Co5SnO12
_symmetry_space_group_name_H-M   'P 1'
_cell_length_a   5.04350255
_cell_length_b   5.04685712
_cell_length_c   9.53172654
_cell_angle_alpha   89.97358627
_cell_angle_beta   89.94714332
_cell_angle_gamma   60.02198267
_symmetry_Int_Tables_number   1
_chemical_formula_structural   Co5SnO12
_chemical_formula_sum   'Co5 Sn1 O12'
_cell_volume   210.16066515
_cell_formula_units_Z   1
loop_
 _symmetry_equiv_pos_site_id
 _symmetry_equiv_pos_as_xyz
  1  'x, y, z'
loop_
 _atom_site_type_symbol
 _atom_site_label
 _atom_site_symmetry_multiplicity
 _atom_site_fract_x
 _atom_site_fract_y
 _atom_site_fract_z
 _atom_site_occupancy
  Co  Co0  1  0.16527684  0.66944532  0.50000000  1
  Co  Co1  1  0.66661989  0.66676022  1.00000000  1
  Co  Co2  1  0.33338011  0.33323978  0.00000000  1
  Co  Co3  1  0.83472316  0.33055468  0.50000000  1
  Co  Co4  1  0.50000000  0.00000000  0.50000000  1
  Sn  Sn5  1  0.00000000  0.00000000  0.00000000  1
  O  O6  1  -0.00002985  0.63979255  0.10434725  1
  O  O7  1  0.36023730  0.63979255  0.89565275  1
  O  O8  1  0.16756993  0.33184753  0.40866521  1
  O  O9  1  0.49941747  0.66815247  0.40866521  1
  O  O10  1  0.50058253  0.33184753  0.59133479  1
  O  O11  1  0.16578688  0.00000000  0.59521859  1
  O  O12  1  0.83243007  0.66815247  0.59133479  1
  O  O13  1  0.63976270  0.36020745  0.10434725  1
  O  O14  1  0.36001289  0.00000000  0.10440226  1
  O  O15  1  0.00002985  0.36020745  0.89565275  1
  O  O16  1  0.63998711  1.00000000  0.89559774  1
  O  O17  1  0.83421312  1.00000000  0.40478141  1
