# generated using pymatgen
data_Si3CCl8
_symmetry_space_group_name_H-M   'P 1'
_cell_length_a   9.04004014
_cell_length_b   9.49105431
_cell_length_c   9.63584286
_cell_angle_alpha   96.90005379
_cell_angle_beta   115.65585727
_cell_angle_gamma   102.12501265
_symmetry_Int_Tables_number   1
_chemical_formula_structural   Si3CCl8
_chemical_formula_sum   'Si6 C2 Cl16'
_cell_volume   707.40977482
_cell_formula_units_Z   2
loop_
 _symmetry_equiv_pos_site_id
 _symmetry_equiv_pos_as_xyz
  1  'x, y, z'
loop_
 _atom_site_type_symbol
 _atom_site_label
 _atom_site_symmetry_multiplicity
 _atom_site_fract_x
 _atom_site_fract_y
 _atom_site_fract_z
 _atom_site_occupancy
  C  C0  1  0.08721505  0.63561787  0.61880005  1
  C  C1  1  0.91278495  0.36438213  0.38119995  1
  Si  Si2  1  0.97973695  0.29195098  0.22784206  1
  Si  Si3  1  0.89779754  0.56581070  0.40507818  1
  Si  Si4  1  0.70538446  0.21943465  0.34135113  1
  Si  Si5  1  0.02026305  0.70804902  0.77215794  1
  Si  Si6  1  0.29461554  0.78056535  0.65864887  1
  Si  Si7  1  0.10220246  0.43418930  0.59492182  1
  Cl  Cl8  1  0.67070766  0.57788331  0.39630246  1
  Cl  Cl9  1  0.91624648  0.67402108  0.24026588  1
  Cl  Cl10  1  0.72225019  1.00802369  0.30313208  1
  Cl  Cl11  1  0.27774981  -0.00802369  0.69686792  1
  Cl  Cl12  1  0.08375352  0.32597892  0.75973412  1
  Cl  Cl13  1  0.50356920  0.76787906  0.85310134  1
  Cl  Cl14  1  0.64413621  0.23515688  0.52192958  1
  Cl  Cl15  1  0.35586379  0.76484312  0.47807042  1
  Cl  Cl16  1  0.08527358  0.12257284  0.28233555  1
  Cl  Cl17  1  0.91472642  0.87742716  0.71766445  1
  Cl  Cl18  1  0.77380458  0.21540701  1.00574532  1
  Cl  Cl19  1  0.22619542  0.78459299  -0.00574532  1
  Cl  Cl20  1  0.15591083  0.44605977  0.20344466  1
  Cl  Cl21  1  0.84408917  0.55394023  0.79655534  1
  Cl  Cl22  1  0.32929234  0.42211669  0.60369754  1
  Cl  Cl23  1  0.49643080  0.23212094  0.14689866  1
