# generated using pymatgen
data_La5Ti4O15
_symmetry_space_group_name_H-M   'P 1'
_cell_length_a   5.55829603
_cell_length_b   5.55829603
_cell_length_c   22.46108841
_cell_angle_alpha   90.00000000
_cell_angle_beta   90.00000000
_cell_angle_gamma   120.00000006
_symmetry_Int_Tables_number   1
_chemical_formula_structural   La5Ti4O15
_chemical_formula_sum   'La10 Ti8 O30'
_cell_volume   600.95890518
_cell_formula_units_Z   2
loop_
 _symmetry_equiv_pos_site_id
 _symmetry_equiv_pos_as_xyz
  1  'x, y, z'
loop_
 _atom_site_type_symbol
 _atom_site_label
 _atom_site_symmetry_multiplicity
 _atom_site_fract_x
 _atom_site_fract_y
 _atom_site_fract_z
 _atom_site_occupancy
  O  O0  1  0.11743284  0.77229340  0.80363207  1
  O  O1  1  0.22770660  0.34513944  0.80363207  1
  O  O2  1  0.65486056  0.88256716  0.80363207  1
  O  O3  1  0.34513944  0.22770660  0.69636793  1
  O  O4  1  0.88256716  0.65486056  0.69636793  1
  O  O5  1  0.77229340  0.11743284  0.69636793  1
  O  O6  1  0.88256716  0.22770660  0.19636793  1
  O  O7  1  0.77229340  0.65486056  0.19636793  1
  O  O8  1  0.34513944  0.11743284  0.19636793  1
  O  O9  1  0.65486056  0.77229340  0.30363207  1
  O  O10  1  0.11743284  0.34513944  0.30363207  1
  O  O11  1  0.22770660  0.88256716  0.30363207  1
  O  O12  1  0.20415209  0.87749916  0.59933625  1
  O  O13  1  0.12250084  0.32665293  0.59933625  1
  O  O14  1  0.67334707  0.79584791  0.59933625  1
  O  O15  1  0.32665293  0.12250084  0.90066375  1
  O  O16  1  0.79584791  0.67334707  0.90066375  1
  O  O17  1  0.87749916  0.20415209  0.90066375  1
  O  O18  1  0.50000000  0.00000000  0.00000000  1
  O  O19  1  0.00000000  0.50000000  0.00000000  1
  O  O20  1  0.50000000  0.50000000  0.00000000  1
  O  O21  1  0.50000000  0.00000000  0.50000000  1
  O  O22  1  0.50000000  0.50000000  0.50000000  1
  O  O23  1  0.00000000  0.50000000  0.50000000  1
  O  O24  1  0.12250084  0.79584791  0.09933625  1
  O  O25  1  0.20415209  0.32665293  0.09933625  1
  O  O26  1  0.67334707  0.87749916  0.09933625  1
  O  O27  1  0.32665293  0.20415209  0.40066375  1
  O  O28  1  0.87749916  0.67334707  0.40066375  1
  O  O29  1  0.79584791  0.12250084  0.40066375  1
  Ti  Ti30  1  0.00000000  0.00000000  0.65742743  1
  Ti  Ti31  1  0.00000000  0.00000000  0.84257257  1
  Ti  Ti32  1  0.00000000  0.00000000  0.34257257  1
  Ti  Ti33  1  0.00000000  0.00000000  0.15742743  1
  Ti  Ti34  1  0.33333333  0.66666667  0.55110373  1
  Ti  Ti35  1  0.66666667  0.33333333  0.94889627  1
  Ti  Ti36  1  0.66666667  0.33333333  0.44889627  1
  Ti  Ti37  1  0.33333333  0.66666667  0.05110373  1
  La  La38  1  0.33333333  0.66666667  0.71465515  1
  La  La39  1  0.66666667  0.33333333  0.78534485  1
  La  La40  1  0.66666667  0.33333333  0.28534485  1
  La  La41  1  0.33333333  0.66666667  0.21465515  1
  La  La42  1  0.33333333  0.66666667  0.89094716  1
  La  La43  1  0.66666667  0.33333333  0.60905284  1
  La  La44  1  0.66666667  0.33333333  0.10905284  1
  La  La45  1  0.33333333  0.66666667  0.39094716  1
  La  La46  1  0.00000000  0.00000000  0.50000000  1
  La  La47  1  0.00000000  0.00000000  0.00000000  1
