# generated using pymatgen
data_K(BH)5
_symmetry_space_group_name_H-M   'P 1'
_cell_length_a   6.81208797
_cell_length_b   11.26391196
_cell_length_c   13.15385809
_cell_angle_alpha   90.00000000
_cell_angle_beta   92.91882968
_cell_angle_gamma   90.00000000
_symmetry_Int_Tables_number   1
_chemical_formula_structural   K(BH)5
_chemical_formula_sum   'K8 B40 H40'
_cell_volume   1007.99612148
_cell_formula_units_Z   8
loop_
 _symmetry_equiv_pos_site_id
 _symmetry_equiv_pos_as_xyz
  1  'x, y, z'
loop_
 _atom_site_type_symbol
 _atom_site_label
 _atom_site_symmetry_multiplicity
 _atom_site_fract_x
 _atom_site_fract_y
 _atom_site_fract_z
 _atom_site_occupancy
  H  H0  1  0.98092699  0.88604051  0.83790337  1
  H  H1  1  0.51907301  0.38604051  0.66209663  1
  H  H2  1  0.01907301  0.11395949  0.16209663  1
  H  H3  1  0.48092699  0.61395949  0.33790337  1
  H  H4  1  0.52183129  0.70594827  0.06303159  1
  H  H5  1  0.97816871  0.20594827  0.43696841  1
  H  H6  1  0.47816871  0.29405173  0.93696841  1
  H  H7  1  0.02183129  0.79405173  0.56303159  1
  H  H8  1  0.29456747  0.72051904  0.86427123  1
  H  H9  1  0.20543253  0.22051904  0.63572877  1
  H  H10  1  0.70543253  0.27948096  0.13572877  1
  H  H11  1  0.79456747  0.77948096  0.36427123  1
  H  H12  1  0.52585826  0.57805812  0.71257766  1
  H  H13  1  0.97414174  0.07805812  0.78742234  1
  H  H14  1  0.47414174  0.42194188  0.28742234  1
  H  H15  1  0.02585826  0.92194188  0.21257766  1
  H  H16  1  0.62155484  0.84761094  0.70419202  1
  H  H17  1  0.87844516  0.34761094  0.79580798  1
  H  H18  1  0.37844516  0.15238906  0.29580798  1
  H  H19  1  0.12155484  0.65238906  0.20419202  1
  H  H20  1  0.99285272  0.64717530  0.99900250  1
  H  H21  1  0.50714728  0.14717530  0.50099750  1
  H  H22  1  0.00714728  0.35282470  0.00099750  1
  H  H23  1  0.49285272  0.85282470  0.49900250  1
  H  H24  1  0.84121430  0.89704484  0.05927221  1
  H  H25  1  0.65878570  0.39704484  0.44072779  1
  H  H26  1  0.15878570  0.10295516  0.94072779  1
  H  H27  1  0.34121430  0.60295516  0.55927221  1
  H  H28  1  0.63964803  0.50691218  0.93185862  1
  H  H29  1  0.86035197  0.00691218  0.56814138  1
  H  H30  1  0.36035197  0.49308782  0.06814138  1
  H  H31  1  0.13964803  0.99308782  0.43185862  1
  H  H32  1  0.50292290  0.94681409  0.90116216  1
  H  H33  1  0.99707710  0.44681409  0.59883784  1
  H  H34  1  0.49707710  0.05318591  0.09883784  1
  H  H35  1  0.00292290  0.55318591  0.40116216  1
  H  H36  1  0.96159780  0.63578192  0.77095108  1
  H  H37  1  0.53840220  0.13578192  0.72904892  1
  H  H38  1  0.03840220  0.36421808  0.22904892  1
  H  H39  1  0.46159780  0.86421808  0.27095108  1
  B  B40  1  0.85131228  0.82416439  0.86705210  1
  B  B41  1  0.64868772  0.32416439  0.63294790  1
  B  B42  1  0.14868772  0.17583561  0.13294790  1
  B  B43  1  0.35131228  0.67583561  0.36705210  1
  B  B44  1  0.47175498  0.72112768  0.86575252  1
  B  B45  1  0.02824502  0.22112768  0.63424748  1
  B  B46  1  0.52824502  0.27887232  0.13424748  1
  B  B47  1  0.97175498  0.77887232  0.36575252  1
  B  B48  1  0.59153713  0.64111140  0.77901407  1
  B  B49  1  0.90846287  0.14111140  0.72098593  1
  B  B50  1  0.40846287  0.35888860  0.22098593  1
  B  B51  1  0.09153713  0.85888860  0.27901407  1
  B  B52  1  0.60728780  0.72811817  0.98706821  1
  B  B53  1  0.89271220  0.22811817  0.51293179  1
  B  B54  1  0.39271220  0.27188183  0.01293179  1
  B  B55  1  0.10728780  0.77188183  0.48706821  1
  B  B56  1  0.59888165  0.85647007  0.90096684  1
  B  B57  1  0.90111835  0.35647007  0.59903316  1
  B  B58  1  0.40111835  0.14352993  0.09903316  1
  B  B59  1  0.09888165  0.64352993  0.40096684  1
  B  B60  1  0.65620267  0.60743662  0.90214750  1
  B  B61  1  0.84379733  0.10743662  0.59785250  1
  B  B62  1  0.34379733  0.39256338  0.09785250  1
  B  B63  1  0.15620267  0.89256338  0.40214750  1
  B  B64  1  0.64413620  0.78867675  0.78041201  1
  B  B65  1  0.85586380  0.28867675  0.71958799  1
  B  B66  1  0.35586380  0.21132325  0.21958799  1
  B  B67  1  0.14413620  0.71132325  0.28041201  1
  B  B68  1  0.85825033  0.69684766  0.95301769  1
  B  B69  1  0.64174967  0.19684766  0.54698231  1
  B  B70  1  0.14174967  0.30315234  0.04698231  1
  B  B71  1  0.35825033  0.80315234  0.45301769  1
  B  B72  1  0.82736237  0.67533719  0.81690276  1
  B  B73  1  0.67263763  0.17533719  0.68309724  1
  B  B74  1  0.17263763  0.32466281  0.18309724  1
  B  B75  1  0.32736237  0.82466281  0.31690276  1
  B  B76  1  0.78459196  0.83449673  0.99011195  1
  B  B77  1  0.71540804  0.33449673  0.50988805  1
  B  B78  1  0.21540804  0.16550327  0.00988805  1
  B  B79  1  0.28459196  0.66550327  0.49011195  1
  K  K80  1  0.73398024  0.63136851  0.55238472  1
  K  K81  1  0.76601976  0.13136851  0.94761528  1
  K  K82  1  0.26601976  0.36863149  0.44761528  1
  K  K83  1  0.23398024  0.86863149  0.05238472  1
  K  K84  1  0.76612458  0.53318693  0.15779795  1
  K  K85  1  0.73387542  0.03318693  0.34220205  1
  K  K86  1  0.23387542  0.46681307  0.84220205  1
  K  K87  1  0.26612458  0.96681307  0.65779795  1
