# generated using pymatgen
data_LiBi2(PO4)3
_symmetry_space_group_name_H-M   'P 1'
_cell_length_a   8.93976914
_cell_length_b   9.34117429
_cell_length_c   12.78211800
_cell_angle_alpha   90.00000000
_cell_angle_beta   89.46895311
_cell_angle_gamma   90.00000000
_symmetry_Int_Tables_number   1
_chemical_formula_structural   LiBi2(PO4)3
_chemical_formula_sum   'Li4 Bi8 P12 O48'
_cell_volume   1067.36251657
_cell_formula_units_Z   4
loop_
 _symmetry_equiv_pos_site_id
 _symmetry_equiv_pos_as_xyz
  1  'x, y, z'
loop_
 _atom_site_type_symbol
 _atom_site_label
 _atom_site_symmetry_multiplicity
 _atom_site_fract_x
 _atom_site_fract_y
 _atom_site_fract_z
 _atom_site_occupancy
  Li  Li0  1  0.57774953  0.99763453  0.14780292  1
  Li  Li1  1  0.92225047  0.49763453  0.35219708  1
  Li  Li2  1  0.92961459  0.91420926  0.68889424  1
  Li  Li3  1  0.57038541  0.41420926  0.81110576  1
  O  O4  1  0.26566404  0.96523376  0.26959946  1
  O  O5  1  0.91374854  0.62939405  0.58315667  1
  O  O6  1  0.85943163  0.78614952  0.80156356  1
  O  O7  1  0.84965331  0.60715037  0.94889389  1
  O  O8  1  0.87680750  0.99805574  0.23631109  1
  O  O9  1  0.93648551  0.09599818  0.90648304  1
  O  O10  1  0.95321844  0.42512147  0.21162456  1
  O  O11  1  0.96132562  0.14287500  0.44230365  1
  O  O12  1  0.04109872  0.85687197  0.55989655  1
  O  O13  1  0.04347954  0.89141422  0.09283519  1
  O  O14  1  0.04062911  0.58401149  0.79859747  1
  O  O15  1  0.05096302  0.66948335  0.40640811  1
  O  O16  1  0.08373954  0.37896869  0.42475998  1
  O  O17  1  0.10371783  0.00607442  0.75704017  1
  O  O18  1  0.12177751  0.21641182  0.18626008  1
  O  O19  1  0.12710488  0.41935086  0.05279226  1
  O  O20  1  0.12339057  0.26208626  0.82534206  1
  O  O21  1  0.19179408  0.19734261  0.55290152  1
  O  O22  1  0.21681776  0.05375638  0.93428477  1
  O  O23  1  0.23433596  0.46523376  0.23040054  1
  O  O24  1  0.28318224  0.55375638  0.56571523  1
  O  O25  1  0.95415336  0.31418969  0.60048197  1
  O  O26  1  0.30820592  0.69734261  0.94709848  1
  O  O27  1  0.37660943  0.76208626  0.67465794  1
  O  O28  1  0.37289512  0.91935086  0.44720774  1
  O  O29  1  0.37822249  0.71641182  0.31373992  1
  O  O30  1  0.39628217  0.50607442  0.74295983  1
  O  O31  1  0.41626046  0.87896869  0.07524002  1
  O  O32  1  0.45937089  0.08401149  0.70140253  1
  O  O33  1  0.45890128  0.35687197  0.94010345  1
  O  O34  1  0.44903698  0.16948335  0.09359189  1
  O  O35  1  0.45652046  0.39141422  0.40716481  1
  O  O36  1  0.53867438  0.64287500  0.05769635  1
  O  O37  1  0.56351449  0.59599818  0.59351696  1
  O  O38  1  0.54584664  0.81418969  0.89951803  1
  O  O39  1  0.54678156  0.92512147  0.28837544  1
  O  O40  1  0.58625146  0.12939405  0.91684333  1
  O  O41  1  0.62319250  0.49805574  0.26368891  1
  O  O42  1  0.64056837  0.28614952  0.69843644  1
  O  O43  1  0.65034669  0.10715037  0.55110611  1
  O  O44  1  0.64338212  0.23366019  0.31598862  1
  O  O45  1  0.68262682  0.29986878  0.05636129  1
  O  O46  1  0.85661788  0.73366019  0.18401138  1
  O  O47  1  0.73883808  0.43398544  0.43240249  1
  O  O48  1  0.76116192  0.93398544  0.06759751  1
  O  O49  1  0.76331019  0.52790316  0.77279864  1
  O  O50  1  0.81737318  0.79986878  0.44363871  1
  O  O51  1  0.73668981  0.02790316  0.72720136  1
  P  P52  1  0.39069740  0.88299400  0.33131322  1
  P  P53  1  0.45140517  0.75424238  0.99571858  1
  P  P54  1  0.40349120  0.60528324  0.64642187  1
  P  P55  1  0.54269218  0.24234965  0.00321818  1
  P  P56  1  0.61848182  0.12321888  0.66722274  1
  P  P57  1  0.61315180  0.38726538  0.35123311  1
  P  P58  1  0.88684820  0.88726538  0.14876689  1
  P  P59  1  0.88151818  0.62321888  0.83277726  1
  P  P60  1  0.04859483  0.25424238  0.50428142  1
  P  P61  1  0.10930260  0.38299400  0.16868678  1
  P  P62  1  0.09650880  0.10528324  0.85357813  1
  P  P63  1  0.95730782  0.74234965  0.49678182  1
  Bi  Bi64  1  0.75106912  0.53016081  0.11048734  1
  Bi  Bi65  1  0.74893088  0.03016081  0.38951266  1
  Bi  Bi66  1  0.75950740  0.45551383  0.60534851  1
  Bi  Bi67  1  0.74049260  0.95551383  0.89465149  1
  Bi  Bi68  1  0.26633953  0.53755996  0.39411214  1
  Bi  Bi69  1  0.27392760  0.97276608  0.61165913  1
  Bi  Bi70  1  0.23366047  0.03755996  0.10588786  1
  Bi  Bi71  1  0.22607240  0.47276608  0.88834087  1
