# generated using pymatgen
data_LiNiP2O7
_symmetry_space_group_name_H-M   'P 1'
_cell_length_a   6.81444838
_cell_length_b   8.08566729
_cell_length_c   9.41691270
_cell_angle_alpha   90.00000000
_cell_angle_beta   109.69122081
_cell_angle_gamma   90.00000000
_symmetry_Int_Tables_number   1
_chemical_formula_structural   LiNiP2O7
_chemical_formula_sum   'Li4 Ni4 P8 O28'
_cell_volume   488.52374200
_cell_formula_units_Z   4
loop_
 _symmetry_equiv_pos_site_id
 _symmetry_equiv_pos_as_xyz
  1  'x, y, z'
loop_
 _atom_site_type_symbol
 _atom_site_label
 _atom_site_symmetry_multiplicity
 _atom_site_fract_x
 _atom_site_fract_y
 _atom_site_fract_z
 _atom_site_occupancy
  Li  Li0  1  0.19414443  0.87320973  0.53477387  1
  Li  Li1  1  0.19414481  0.62679022  0.03477377  1
  Li  Li2  1  0.80585558  0.37320975  0.96522631  1
  Li  Li3  1  0.80585596  0.12679024  0.46522621  1
  O  O4  1  0.38854872  0.07825789  0.63101186  1
  O  O5  1  0.84378059  0.94168068  0.15026422  1
  O  O6  1  0.94856900  0.68586012  0.39785970  1
  O  O7  1  0.77416610  0.40818346  0.28531842  1
  O  O8  1  0.07490016  0.40839157  0.87047348  1
  O  O9  1  0.15621980  0.05831929  0.84973586  1
  O  O10  1  0.05143139  0.31413984  0.60214038  1
  O  O11  1  0.22583429  0.59181777  0.71468166  1
  O  O12  1  0.07490055  0.09160842  0.37047338  1
  O  O13  1  0.15622018  0.44168069  0.34973576  1
  O  O14  1  0.05143177  0.18586014  0.10214027  1
  O  O15  1  0.92510023  0.59160840  0.12952660  1
  O  O16  1  0.52759837  0.22630813  0.89236518  1
  O  O17  1  0.22583467  0.90818345  0.21468156  1
  O  O18  1  0.52187696  0.90885253  0.85932881  1
  O  O19  1  0.47812304  0.40885255  0.64067138  1
  O  O20  1  0.47240163  0.72630811  0.60763501  1
  O  O21  1  0.61145128  0.57825788  0.86898832  1
  O  O22  1  0.92509984  0.90839155  0.62952670  1
  O  O23  1  0.52759718  0.27369186  0.39236467  1
  O  O24  1  0.52187735  0.59114742  0.35932870  1
  O  O25  1  0.47812343  0.09114744  0.14067127  1
  O  O26  1  0.77416572  0.09181779  0.78531852  1
  O  O27  1  0.47240202  0.77369184  0.10763490  1
  O  O28  1  0.61145009  0.92174207  0.36898781  1
  O  O29  1  0.94856862  0.81413983  0.89785981  1
  O  O30  1  0.84378021  0.55831927  0.65026432  1
  O  O31  1  0.38854911  0.42174209  0.13101176  1
  P  P32  1  0.95612073  0.54259516  0.29494758  1
  P  P33  1  0.95612031  0.95740479  0.79494661  1
  P  P34  1  0.54078257  0.42094262  0.29399320  1
  P  P35  1  0.45921666  0.92094261  0.20600744  1
  P  P36  1  0.04387966  0.45740481  0.70505250  1
  P  P37  1  0.04388008  0.04259517  0.20505347  1
  P  P38  1  0.54078215  0.07905736  0.79399224  1
  P  P39  1  0.45921782  0.57905734  0.70600688  1
  Ni  Ni40  1  0.27315499  0.23215760  0.99640968  1
  Ni  Ni41  1  0.27315541  0.26784239  0.49641065  1
  Ni  Ni42  1  0.72684499  0.73215758  0.50358943  1
  Ni  Ni43  1  0.72684540  0.76784237  0.00359040  1
