# generated using pymatgen
data_Al2FeO4
_symmetry_space_group_name_H-M   'P 1'
_cell_length_a   5.82161838
_cell_length_b   5.82161789
_cell_length_c   5.87640233
_cell_angle_alpha   59.68821146
_cell_angle_beta   59.68821338
_cell_angle_gamma   58.77497953
_symmetry_Int_Tables_number   1
_chemical_formula_structural   Al2FeO4
_chemical_formula_sum   'Al4 Fe2 O8'
_cell_volume   138.82761854
_cell_formula_units_Z   2
loop_
 _symmetry_equiv_pos_site_id
 _symmetry_equiv_pos_as_xyz
  1  'x, y, z'
loop_
 _atom_site_type_symbol
 _atom_site_label
 _atom_site_symmetry_multiplicity
 _atom_site_fract_x
 _atom_site_fract_y
 _atom_site_fract_z
 _atom_site_occupancy
  Al  Al0  1  0.13529377  0.13529377  0.11470623  1
  Al  Al1  1  0.50000000  0.50000000  -0.00000000  1
  Al  Al2  1  0.50000000  0.50000000  0.50000000  1
  Al  Al3  1  0.86470623  0.86470623  0.88529377  1
  Fe  Fe4  1  0.00000000  0.50000000  0.50000000  1
  Fe  Fe5  1  0.50000000  -0.00000000  0.50000000  1
  O  O6  1  0.26832427  0.26832427  0.22383541  1
  O  O7  1  0.26832427  0.26832427  0.73951605  1
  O  O8  1  0.27189700  0.74308156  0.24251072  1
  O  O9  1  0.74308156  0.27189700  0.24251072  1
  O  O10  1  0.25691844  0.72810300  0.75748928  1
  O  O11  1  0.72810300  0.25691844  0.75748928  1
  O  O12  1  0.73167573  0.73167573  0.26048395  1
  O  O13  1  0.73167573  0.73167573  0.77616459  1
