# generated using pymatgen
data_Cu8O7
_symmetry_space_group_name_H-M   'P 1'
_cell_length_a   5.85003523
_cell_length_b   5.85003523
_cell_length_c   6.40151065
_cell_angle_alpha   115.72586336
_cell_angle_beta   115.72586336
_cell_angle_gamma   89.95749194
_symmetry_Int_Tables_number   1
_chemical_formula_structural   Cu8O7
_chemical_formula_sum   'Cu8 O7'
_cell_volume   172.98212449
_cell_formula_units_Z   1
loop_
 _symmetry_equiv_pos_site_id
 _symmetry_equiv_pos_as_xyz
  1  'x, y, z'
loop_
 _atom_site_type_symbol
 _atom_site_label
 _atom_site_symmetry_multiplicity
 _atom_site_fract_x
 _atom_site_fract_y
 _atom_site_fract_z
 _atom_site_occupancy
  Cu  Cu0  1  0.00780857  0.00287068  0.00876623  1
  Cu  Cu1  1  -0.00207883  0.49355532  0.98545880  1
  Cu  Cu2  1  0.51054336  0.50046765  0.52301591  1
  Cu  Cu3  1  0.50644468  1.00207883  0.51454120  1
  Cu  Cu4  1  0.49953235  0.48945664  0.97698409  1
  Cu  Cu5  1  0.49936283  0.00296465  0.00868176  1
  Cu  Cu6  1  0.99703535  0.50063717  0.49131824  1
  Cu  Cu7  1  0.99712932  0.99219143  0.49123377  1
  O  O8  1  0.13076144  0.36655031  0.74118276  1
  O  O9  1  0.12990230  0.87009770  0.75000000  1
  O  O10  1  0.63344969  0.86923856  0.75881724  1
  O  O11  1  0.37938620  0.62061380  0.25000000  1
  O  O12  1  0.38468945  0.14008358  0.28069852  1
  O  O13  1  0.86811687  0.13188313  0.25000000  1
  O  O14  1  0.85991642  0.61531055  0.21930148  1
