# generated using pymatgen
data_LiNbP2O7
_symmetry_space_group_name_H-M   'P 1'
_cell_length_a   4.98596604
_cell_length_b   8.70997329
_cell_length_c   7.15324801
_cell_angle_alpha   90.00000000
_cell_angle_beta   108.58548660
_cell_angle_gamma   90.00000000
_symmetry_Int_Tables_number   1
_chemical_formula_structural   LiNbP2O7
_chemical_formula_sum   'Li2 Nb2 P4 O14'
_cell_volume   294.44803339
_cell_formula_units_Z   2
loop_
 _symmetry_equiv_pos_site_id
 _symmetry_equiv_pos_as_xyz
  1  'x, y, z'
loop_
 _atom_site_type_symbol
 _atom_site_label
 _atom_site_symmetry_multiplicity
 _atom_site_fract_x
 _atom_site_fract_y
 _atom_site_fract_z
 _atom_site_occupancy
  Li  Li0  1  0.19433562  0.79883165  0.67608224  1
  Li  Li1  1  0.80566438  0.29883165  0.32391776  1
  Nb  Nb2  1  0.20821879  0.44372433  0.72316005  1
  Nb  Nb3  1  0.79178121  0.94372433  0.27683995  1
  P  P4  1  0.40031432  0.12378759  0.52993219  1
  P  P5  1  0.21755861  0.73190301  0.08284460  1
  P  P6  1  0.78244139  0.23190301  0.91715540  1
  P  P7  1  0.59968568  0.62378759  0.47006781  1
  O  O8  1  0.03770354  0.26693496  0.85124064  1
  O  O9  1  0.14172029  0.64918199  0.88554059  1
  O  O10  1  0.20910599  0.98056424  0.49858237  1
  O  O11  1  0.23141749  0.27342259  0.50079933  1
  O  O12  1  0.39755726  0.62289040  0.59420070  1
  O  O13  1  0.60550480  0.37610826  0.92105837  1
  O  O14  1  0.58962255  0.10930399  0.75868399  1
  O  O15  1  0.41037745  0.60930399  0.24131601  1
  O  O16  1  0.39449520  0.87610826  0.07894163  1
  O  O17  1  0.60244274  0.12289040  0.40579930  1
  O  O18  1  0.76858251  0.77342259  0.49920067  1
  O  O19  1  0.79089401  0.48056424  0.50141763  1
  O  O20  1  0.85827971  0.14918199  0.11445941  1
  O  O21  1  0.96229646  0.76693496  0.14875936  1
