# generated using pymatgen
data_Er(FeSn)6
_symmetry_space_group_name_H-M   'P 1'
_cell_length_a   5.41601869
_cell_length_b   8.95491369
_cell_length_c   19.20399933
_cell_angle_alpha   103.48273168
_cell_angle_beta   90.00000000
_cell_angle_gamma   90.00000000
_symmetry_Int_Tables_number   1
_chemical_formula_structural   Er(FeSn)6
_chemical_formula_sum   'Er4 Fe24 Sn24'
_cell_volume   905.72459247
_cell_formula_units_Z   4
loop_
 _symmetry_equiv_pos_site_id
 _symmetry_equiv_pos_as_xyz
  1  'x, y, z'
loop_
 _atom_site_type_symbol
 _atom_site_label
 _atom_site_symmetry_multiplicity
 _atom_site_fract_x
 _atom_site_fract_y
 _atom_site_fract_z
 _atom_site_occupancy
  Er  Er0  1  0.25000000  0.81001170  0.62002340  1
  Er  Er1  1  0.75000000  0.18998830  0.37997660  1
  Er  Er2  1  0.25000000  0.06319497  0.12638993  1
  Er  Er3  1  0.75000000  0.93680503  0.87361007  1
  Fe  Fe4  1  0.50000000  0.00000000  0.50000000  1
  Fe  Fe5  1  0.50000000  0.50000000  0.50000000  1
  Fe  Fe6  1  -0.00000000  0.00000000  0.50000000  1
  Fe  Fe7  1  0.00000000  0.50000000  0.50000000  1
  Fe  Fe8  1  0.50000000  0.75414976  0.00000000  1
  Fe  Fe9  1  0.00000000  0.75414976  0.00000000  1
  Fe  Fe10  1  0.50000000  0.24585024  1.00000000  1
  Fe  Fe11  1  -0.00000000  0.24585024  1.00000000  1
  Fe  Fe12  1  0.25000000  0.93976600  0.37517325  1
  Fe  Fe13  1  0.75000000  0.56459275  0.62482675  1
  Fe  Fe14  1  0.75000000  0.06023400  0.62482675  1
  Fe  Fe15  1  0.25000000  0.43540725  0.37517325  1
  Fe  Fe16  1  0.25000000  0.18267093  0.87470282  1
  Fe  Fe17  1  0.75000000  0.30796811  0.12529718  1
  Fe  Fe18  1  0.75000000  0.81732907  0.12529718  1
  Fe  Fe19  1  0.25000000  0.69203189  0.87470282  1
  Fe  Fe20  1  0.49879239  0.87884214  0.24922812  1
  Fe  Fe21  1  0.50120761  0.62961402  0.75077188  1
  Fe  Fe22  1  0.00120761  0.87884214  0.24922812  1
  Fe  Fe23  1  0.99879239  0.62961402  0.75077188  1
  Fe  Fe24  1  0.50120761  0.12115786  0.75077188  1
  Fe  Fe25  1  0.49879239  0.37038598  0.24922812  1
  Fe  Fe26  1  0.99879239  0.12115786  0.75077188  1
  Fe  Fe27  1  0.00120761  0.37038598  0.24922812  1
  Sn  Sn28  1  0.25000000  0.23101783  0.46203565  1
  Sn  Sn29  1  0.75000000  0.76898217  0.53796435  1
  Sn  Sn30  1  0.25000000  0.72690862  0.45381724  1
  Sn  Sn31  1  0.75000000  0.27309138  0.54618276  1
  Sn  Sn32  1  0.25000000  0.14714501  0.29429003  1
  Sn  Sn33  1  0.75000000  0.85285499  0.70570997  1
  Sn  Sn34  1  0.25000000  0.64461165  0.28922329  1
  Sn  Sn35  1  0.75000000  0.35538835  0.71077671  1
  Sn  Sn36  1  0.25000000  0.89467577  0.78935155  1
  Sn  Sn37  1  0.75000000  0.10532423  0.21064845  1
  Sn  Sn38  1  0.25000000  0.39613119  0.79226238  1
  Sn  Sn39  1  0.75000000  0.60386881  0.20773762  1
  Sn  Sn40  1  0.25000000  0.47931082  0.95862165  1
  Sn  Sn41  1  0.75000000  0.52068918  0.04137835  1
  Sn  Sn42  1  0.25000000  0.97898799  0.95797598  1
  Sn  Sn43  1  0.75000000  0.02101201  0.04202402  1
  Sn  Sn44  1  0.25000000  0.47642777  0.62650873  1
  Sn  Sn45  1  0.75000000  0.84991904  0.37349127  1
  Sn  Sn46  1  0.75000000  0.52357223  0.37349127  1
  Sn  Sn47  1  0.25000000  0.15008096  0.62650873  1
  Sn  Sn48  1  0.25000000  0.72526538  0.12400238  1
  Sn  Sn49  1  0.75000000  0.60126300  0.87599762  1
  Sn  Sn50  1  0.75000000  0.27473462  0.87599762  1
  Sn  Sn51  1  0.25000000  0.39873700  0.12400238  1
