# generated using pymatgen
data_TaHO3
_symmetry_space_group_name_H-M   'P 1'
_cell_length_a   7.50101586
_cell_length_b   7.50101494
_cell_length_c   7.75523470
_cell_angle_alpha   58.87240402
_cell_angle_beta   58.87240411
_cell_angle_gamma   62.25519378
_symmetry_Int_Tables_number   1
_chemical_formula_structural   TaHO3
_chemical_formula_sum   'Ta4 H4 O12'
_cell_volume   307.81219832
_cell_formula_units_Z   4
loop_
 _symmetry_equiv_pos_site_id
 _symmetry_equiv_pos_as_xyz
  1  'x, y, z'
loop_
 _atom_site_type_symbol
 _atom_site_label
 _atom_site_symmetry_multiplicity
 _atom_site_fract_x
 _atom_site_fract_y
 _atom_site_fract_z
 _atom_site_occupancy
  H  H0  1  0.17612212  0.17612212  0.57387788  1
  H  H1  1  0.57387788  0.57387788  0.17612212  1
  H  H2  1  0.42612212  0.42612212  0.82387788  1
  H  H3  1  0.82387788  0.82387788  0.42612212  1
  O  O4  1  0.08106443  0.08106443  0.66893557  1
  O  O5  1  0.05025985  0.69974015  0.05025985  1
  O  O6  1  0.05025985  0.69974015  0.69974015  1
  O  O7  1  0.69974015  0.05025985  0.05025985  1
  O  O8  1  0.33106443  0.33106443  0.91893557  1
  O  O9  1  0.30025985  0.94974015  0.30025985  1
  O  O10  1  0.69974015  0.05025985  0.69974015  1
  O  O11  1  0.66893557  0.66893557  0.08106443  1
  O  O12  1  0.30025985  0.94974015  0.94974015  1
  O  O13  1  0.94974015  0.30025985  0.30025985  1
  O  O14  1  0.94974015  0.30025985  0.94974015  1
  O  O15  1  0.91893557  0.91893557  0.33106443  1
  Ta  Ta16  1  0.00000000  0.00000000  0.00000000  1
  Ta  Ta17  1  0.50000000  0.00000000  0.00000000  1
  Ta  Ta18  1  0.00000000  0.00000000  0.50000000  1
  Ta  Ta19  1  0.00000000  0.50000000  0.00000000  1
