# generated using pymatgen
data_Li3Cr(PO4)2
_symmetry_space_group_name_H-M   'P 1'
_cell_length_a   8.45622809
_cell_length_b   10.25510250
_cell_length_c   8.14022067
_cell_angle_alpha   90.00000000
_cell_angle_beta   106.37567969
_cell_angle_gamma   90.00000000
_symmetry_Int_Tables_number   1
_chemical_formula_structural   Li3Cr(PO4)2
_chemical_formula_sum   'Li12 Cr4 P8 O32'
_cell_volume   677.27938407
_cell_formula_units_Z   4
loop_
 _symmetry_equiv_pos_site_id
 _symmetry_equiv_pos_as_xyz
  1  'x, y, z'
loop_
 _atom_site_type_symbol
 _atom_site_label
 _atom_site_symmetry_multiplicity
 _atom_site_fract_x
 _atom_site_fract_y
 _atom_site_fract_z
 _atom_site_occupancy
  Li  Li0  1  0.10479282  0.65271970  0.62637053  1
  Li  Li1  1  0.84874841  0.33400825  0.32065970  1
  Li  Li2  1  0.82160386  0.84018834  0.33224496  1
  Li  Li3  1  0.75924351  0.57367999  0.53296002  1
  Li  Li4  1  0.74075657  0.07368007  0.46703918  1
  Li  Li5  1  0.19666950  0.15229158  0.64411186  1
  Li  Li6  1  0.14462616  0.34524798  0.16719605  1
  Li  Li7  1  0.35537417  0.84524790  0.83280419  1
  Li  Li8  1  0.30333084  0.65229150  0.35588838  1
  Li  Li9  1  0.39520751  0.15271978  0.37362970  1
  Li  Li10  1  0.65125166  0.83400817  0.67934072  1
  Li  Li11  1  0.67839621  0.34018842  0.66775546  1
  O  O12  1  0.05187061  0.15270231  0.11751243  1
  O  O13  1  0.78962754  0.61063847  0.01848048  1
  O  O14  1  0.89158705  0.15226113  0.34797800  1
  O  O15  1  0.99124349  0.94106631  0.25276797  1
  O  O16  1  0.03008498  0.06664187  0.72199098  1
  O  O17  1  0.12281540  0.82599970  0.71224096  1
  O  O18  1  0.18950206  0.42812201  0.96245486  1
  O  O19  1  0.98546137  0.45246355  0.23355223  1
  O  O20  1  0.16164879  0.33290570  0.69036167  1
  O  O21  1  0.51453897  0.95246347  0.76644678  1
  O  O22  1  0.07469671  0.68227341  0.19723307  1
  O  O23  1  0.19929217  0.10769673  0.42118544  1
  O  O24  1  0.30070693  0.60769763  0.57881440  1
  O  O25  1  0.82884654  0.63958012  0.32265775  1
  O  O26  1  0.44812849  0.65270223  0.88248741  1
  O  O27  1  0.33835155  0.83290562  0.30963856  1
  O  O28  1  0.97184194  0.52684138  0.69760115  1
  O  O29  1  0.50875659  0.44106639  0.74723244  1
  O  O30  1  0.31049828  0.92812193  0.03754538  1
  O  O31  1  0.37718494  0.32599978  0.28775928  1
  O  O32  1  0.46991536  0.56664179  0.27800925  1
  O  O33  1  0.60841303  0.65226105  0.65202119  1
  O  O34  1  0.71037254  0.11063757  0.98151871  1
  O  O35  1  0.52815689  0.02684146  0.30239887  1
  O  O36  1  0.67115353  0.13958020  0.67734267  1
  O  O37  1  0.55843376  0.41081985  0.10034946  1
  O  O38  1  0.58723957  0.81468356  0.18055221  1
  O  O39  1  0.67466134  0.39182275  0.42596259  1
  O  O40  1  0.82533873  0.89182267  0.57403783  1
  O  O41  1  0.91276050  0.31468364  0.81944821  1
  O  O42  1  0.94156631  0.91081977  0.89965096  1
  O  O43  1  0.42530363  0.18227251  0.80276717  1
  P  P44  1  0.57478503  0.09158891  0.80895860  1
  P  P45  1  0.44987029  0.90392918  0.21198499  1
  P  P46  1  0.51492343  0.41789962  0.28002673  1
  P  P47  1  0.98507665  0.91789954  0.71997246  1
  P  P48  1  0.05013005  0.40392926  0.78801525  1
  P  P49  1  0.03141989  0.09147947  0.28978046  1
  P  P50  1  0.46858045  0.59148037  0.71021977  1
  P  P51  1  0.92521504  0.59158883  0.19104181  1
  Cr  Cr52  1  0.89937389  0.12665654  0.88495826  1
  Cr  Cr53  1  0.60062618  0.62665646  0.11504215  1
  Cr  Cr54  1  0.37519977  0.35762278  0.87811916  1
  Cr  Cr55  1  0.12480057  0.85762270  0.12188107  1
