# generated using pymatgen
data_LiMn2(PO4)3
_symmetry_space_group_name_H-M   'P 1'
_cell_length_a   4.73831444
_cell_length_b   4.73831443
_cell_length_c   19.99889017
_cell_angle_alpha   87.37625720
_cell_angle_beta   87.37625720
_cell_angle_gamma   67.10319501
_symmetry_Int_Tables_number   1
_chemical_formula_structural   LiMn2(PO4)3
_chemical_formula_sum   'Li2 Mn4 P6 O24'
_cell_volume   413.00448554
_cell_formula_units_Z   2
loop_
 _symmetry_equiv_pos_site_id
 _symmetry_equiv_pos_as_xyz
  1  'x, y, z'
loop_
 _atom_site_type_symbol
 _atom_site_label
 _atom_site_symmetry_multiplicity
 _atom_site_fract_x
 _atom_site_fract_y
 _atom_site_fract_z
 _atom_site_occupancy
  Li  Li0  1  0.00670089  0.00670221  0.50965326  1
  Li  Li1  1  0.99329916  0.99329876  0.82367991  1
  O  O2  1  0.22261853  0.71023817  0.08262474  1
  O  O3  1  0.76676956  0.76677049  0.65225955  1
  O  O4  1  0.75467763  0.75467643  0.31249360  1
  O  O5  1  0.76033263  0.76033200  0.18442212  1
  O  O6  1  0.24532231  0.24532310  0.02083977  1
  O  O7  1  0.22351272  0.22351023  0.34162295  1
  O  O8  1  0.23966731  0.23966753  0.14891125  1
  O  O9  1  0.23322836  0.23323048  0.68107363  1
  O  O10  1  0.24324299  0.24324285  0.47128367  1
  O  O11  1  0.25019517  0.25019463  0.81048922  1
  O  O12  1  0.77648820  0.77648840  0.99171073  1
  O  O13  1  0.21404548  0.69522715  0.39684610  1
  O  O14  1  0.21810069  0.70515023  0.73745713  1
  O  O15  1  0.28976351  0.77738046  0.25070862  1
  O  O16  1  0.29484980  0.78190045  0.59587603  1
  O  O17  1  0.30477390  0.78595405  0.93648757  1
  O  O18  1  0.75675583  0.75675582  0.86204953  1
  O  O19  1  0.69522703  0.21404459  0.39684610  1
  O  O20  1  0.70514813  0.21810052  0.73745715  1
  O  O21  1  0.77738141  0.28976135  0.25070863  1
  O  O22  1  0.78189936  0.29485073  0.59587603  1
  O  O23  1  0.78595455  0.30477380  0.93648757  1
  O  O24  1  0.74980578  0.74980403  0.52284395  1
  O  O25  1  0.71023856  0.22261905  0.08262473  1
  P  P26  1  0.66453618  0.66453504  0.92997792  1
  P  P27  1  0.65498953  0.65498715  0.59128821  1
  P  P28  1  0.65122335  0.65122451  0.25061225  1
  P  P29  1  0.34501140  0.34501149  0.74204547  1
  P  P30  1  0.34877570  0.34877732  0.08272110  1
  P  P31  1  0.33546477  0.33546362  0.40335526  1
  Mn  Mn32  1  0.00000010  0.99999908  0.16666689  1
  Mn  Mn33  1  0.99999866  0.00000096  0.66666654  1
  Mn  Mn34  1  0.00960792  0.00960777  0.00278136  1
  Mn  Mn35  1  0.99039213  0.99039320  0.33055181  1
