# generated using pymatgen
data_Ba5Co5ClO13
_symmetry_space_group_name_H-M   'P 1'
_cell_length_a   5.78479257
_cell_length_b   5.78479279
_cell_length_c   24.78391236
_cell_angle_alpha   90.00000000
_cell_angle_beta   90.00000000
_cell_angle_gamma   119.99999881
_symmetry_Int_Tables_number   1
_chemical_formula_structural   Ba5Co5ClO13
_chemical_formula_sum   'Ba10 Co10 Cl2 O26'
_cell_volume   718.25076856
_cell_formula_units_Z   2
loop_
 _symmetry_equiv_pos_site_id
 _symmetry_equiv_pos_as_xyz
  1  'x, y, z'
loop_
 _atom_site_type_symbol
 _atom_site_label
 _atom_site_symmetry_multiplicity
 _atom_site_fract_x
 _atom_site_fract_y
 _atom_site_fract_z
 _atom_site_occupancy
  O  O0  1  0.66666700  0.33333300  0.25000000  1
  O  O1  1  0.33333300  0.66666600  0.75000000  1
  O  O2  1  0.14849924  0.29699847  0.04770637  1
  O  O3  1  0.70300053  0.85149976  0.04770637  1
  O  O4  1  0.14849924  0.85149976  0.04770637  1
  O  O5  1  0.85150076  0.14850024  0.54770537  1
  O  O6  1  0.85150076  0.14850024  0.95229363  1
  O  O7  1  0.85150076  0.70300053  0.54770537  1
  O  O8  1  0.29699947  0.14850024  0.54770537  1
  O  O9  1  0.70300053  0.85149976  0.45229363  1
  O  O10  1  0.14849924  0.29699847  0.45229363  1
  O  O11  1  0.85150076  0.70300053  0.95229363  1
  O  O12  1  0.29699947  0.14850024  0.95229363  1
  O  O13  1  0.14849924  0.85149976  0.45229363  1
  O  O14  1  0.83756096  0.67512192  0.14778078  1
  O  O15  1  0.32487908  0.16243904  0.14778078  1
  O  O16  1  0.83755996  0.16243904  0.14778078  1
  O  O17  1  0.16244004  0.83756096  0.64777978  1
  O  O18  1  0.16244004  0.83756096  0.85221922  1
  O  O19  1  0.16243904  0.32487808  0.64777978  1
  O  O20  1  0.67512092  0.83756096  0.64777978  1
  O  O21  1  0.32487908  0.16243904  0.35222022  1
  O  O22  1  0.83755996  0.16243904  0.35222022  1
  O  O23  1  0.67512092  0.83756096  0.85221922  1
  O  O24  1  0.83756096  0.67512192  0.35222022  1
  O  O25  1  0.16243904  0.32487808  0.85221922  1
  Cl  Cl26  1  0.66666700  0.33333300  0.75000000  1
  Cl  Cl27  1  0.33333300  0.66666600  0.25000000  1
  Co  Co28  1  0.66666700  0.33333300  0.17667391  1
  Co  Co29  1  0.00000000  0.00000000  0.00000000  1
  Co  Co30  1  0.33333300  0.66666600  0.67667291  1
  Co  Co31  1  0.00000000  0.00000000  0.50000000  1
  Co  Co32  1  0.66666700  0.33333300  0.32332709  1
  Co  Co33  1  0.33333300  0.66666600  0.82332609  1
  Co  Co34  1  0.00000000  0.00000000  0.89667925  1
  Co  Co35  1  0.00000000  0.00000000  0.39667925  1
  Co  Co36  1  0.00000000  0.00000000  0.10332075  1
  Co  Co37  1  0.00000000  0.00000000  0.60332075  1
  Ba  Ba38  1  0.33333300  0.66666600  0.53996819  1
  Ba  Ba39  1  0.66666700  0.33333300  0.03996819  1
  Ba  Ba40  1  0.66666700  0.33333300  0.46003181  1
  Ba  Ba41  1  0.33333300  0.66666600  0.96003181  1
  Ba  Ba42  1  0.33333300  0.66666600  0.12679707  1
  Ba  Ba43  1  0.66666700  0.33333300  0.62679607  1
  Ba  Ba44  1  0.66666700  0.33333300  0.87320293  1
  Ba  Ba45  1  0.33333300  0.66666600  0.37320393  1
  Ba  Ba46  1  0.00000000  0.00000000  0.75000000  1
  Ba  Ba47  1  0.00000000  0.00000000  0.25000000  1
