# generated using pymatgen
data_Ga23N5O27
_symmetry_space_group_name_H-M   'P 1'
_cell_length_a   5.91806262
_cell_length_b   5.96940911
_cell_length_c   23.87752252
_cell_angle_alpha   59.64807043
_cell_angle_beta   59.36508619
_cell_angle_gamma   59.79354740
_symmetry_Int_Tables_number   1
_chemical_formula_structural   Ga23N5O27
_chemical_formula_sum   'Ga23 N5 O27'
_cell_volume   591.05558149
_cell_formula_units_Z   1
loop_
 _symmetry_equiv_pos_site_id
 _symmetry_equiv_pos_as_xyz
  1  'x, y, z'
loop_
 _atom_site_type_symbol
 _atom_site_label
 _atom_site_symmetry_multiplicity
 _atom_site_fract_x
 _atom_site_fract_y
 _atom_site_fract_z
 _atom_site_occupancy
  Ga  Ga0  1  0.13115858  0.12253125  0.03468723  1
  Ga  Ga1  1  0.46206449  0.52428947  0.00593099  1
  Ga  Ga2  1  0.15356752  0.12648544  0.27513855  1
  Ga  Ga3  1  0.49889077  0.50189788  0.12575818  1
  Ga  Ga4  1  0.00697330  0.50089450  0.37714344  1
  Ga  Ga5  1  0.54080301  0.49204983  0.24387234  1
  Ga  Ga6  1  0.50561796  0.00114062  0.12401615  1
  Ga  Ga7  1  0.13901604  0.12857717  0.52698314  1
  Ga  Ga8  1  0.49942543  0.49500333  0.37570576  1
  Ga  Ga9  1  0.98888579  0.49753185  0.62971129  1
  Ga  Ga10  1  0.86521698  0.87888855  0.21816959  1
  Ga  Ga11  1  0.50843141  0.50589524  0.49853159  1
  Ga  Ga12  1  0.12857493  0.12169365  0.78314284  1
  Ga  Ga13  1  0.50160395  0.00095020  0.37816968  1
  Ga  Ga14  1  0.50729928  0.49399743  0.62693610  1
  Ga  Ga15  1  0.98504115  0.49921633  0.88025639  1
  Ga  Ga16  1  0.86674608  0.87094935  0.46551970  1
  Ga  Ga17  1  0.50808283  0.99316661  0.62646430  1
  Ga  Ga18  1  0.51423692  0.49847808  0.74705357  1
  Ga  Ga19  1  0.49749158  0.49866679  0.87694258  1
  Ga  Ga20  1  0.85847133  0.88998866  0.71454650  1
  Ga  Ga21  1  0.50170893  0.99097100  0.87798357  1
  Ga  Ga22  1  0.84113257  0.86619434  0.97277179  1
  N  N23  1  0.26563234  0.26020414  0.42956716  1
  N  N24  1  0.73977161  0.73747456  0.43404785  1
  N  N25  1  0.73643674  0.27820192  0.68514533  1
  N  N26  1  0.73581098  0.74492275  0.68477902  1
  N  N27  1  0.72714177  0.73314443  0.93627820  1
  O  O28  1  0.28816556  0.24983141  0.05825367  1
  O  O29  1  0.26551129  0.74394691  0.06377536  1
  O  O30  1  0.27967718  0.24996403  0.18035832  1
  O  O31  1  0.73492765  0.25896720  0.06383532  1
  O  O32  1  0.26760932  0.74349808  0.18715200  1
  O  O33  1  0.26427386  0.25738312  0.31412171  1
  O  O34  1  0.26840268  0.72903352  0.31161590  1
  O  O35  1  0.72195118  0.75382846  0.06804282  1
  O  O36  1  0.72201627  0.26086756  0.18955465  1
  O  O37  1  0.72445303  0.75938309  0.18810039  1
  O  O38  1  0.74948848  0.25747077  0.31033885  1
  O  O39  1  0.26532711  0.73993480  0.43668502  1
  O  O40  1  0.26746244  0.25857144  0.56480485  1
  O  O41  1  0.26064471  0.72137993  0.56669456  1
  O  O42  1  0.74079910  0.73501778  0.31879545  1
  O  O43  1  0.74312119  0.26606054  0.43572043  1
  O  O44  1  0.25484237  0.25443394  0.68440960  1
  O  O45  1  0.73207863  0.25643047  0.56394729  1
  O  O46  1  0.26038051  0.74911445  0.68531093  1
  O  O47  1  0.25557058  0.25781963  0.81684983  1
  O  O48  1  0.25648969  0.25961148  0.93117472  1
  O  O49  1  0.74050624  0.75127192  0.56484484  1
  O  O50  1  0.25650490  0.72546305  0.81520794  1
  O  O51  1  0.72991638  0.25538839  0.81558516  1
  O  O52  1  0.25341751  0.74591862  0.93513098  1
  O  O53  1  0.74514091  0.26455087  0.93204354  1
  O  O54  1  0.73608698  0.74145317  0.81739304  1
