# generated using pymatgen
data_Li3Ni2(PO4)3
_symmetry_space_group_name_H-M   'P 1'
_cell_length_a   8.54396366
_cell_length_b   12.43769004
_cell_length_c   8.63866158
_cell_angle_alpha   89.95980411
_cell_angle_beta   89.93698754
_cell_angle_gamma   91.53694129
_symmetry_Int_Tables_number   1
_chemical_formula_structural   Li3Ni2(PO4)3
_chemical_formula_sum   'Li12 Ni8 P12 O48'
_cell_volume   917.67507124
_cell_formula_units_Z   4
loop_
 _symmetry_equiv_pos_site_id
 _symmetry_equiv_pos_as_xyz
  1  'x, y, z'
loop_
 _atom_site_type_symbol
 _atom_site_label
 _atom_site_symmetry_multiplicity
 _atom_site_fract_x
 _atom_site_fract_y
 _atom_site_fract_z
 _atom_site_occupancy
  Li  Li0  1  0.09487098  0.75971488  0.69916305  1
  Li  Li1  1  0.07899867  0.69767352  0.09154914  1
  Li  Li2  1  0.21121419  0.17538332  0.78435988  1
  Li  Li3  1  0.28845279  0.32445607  0.28453645  1
  Li  Li4  1  0.42126174  0.80294720  0.59170682  1
  Li  Li5  1  0.40282401  0.74049686  0.19962836  1
  Li  Li6  1  0.59717599  0.25950314  0.80037164  1
  Li  Li7  1  0.57873726  0.19705280  0.40829318  1
  Li  Li8  1  0.71154621  0.67554393  0.71546355  1
  Li  Li9  1  0.78878481  0.82461668  0.21564012  1
  Li  Li10  1  0.92100133  0.30232648  0.90845086  1
  Li  Li11  1  0.90513002  0.24028512  0.30083695  1
  O  O12  1  0.17492099  0.43682782  0.17270346  1
  O  O13  1  0.93734012  0.40384481  0.32775883  1
  O  O14  1  0.91864660  0.14047137  0.11412850  1
  O  O15  1  0.92990498  0.82871616  0.40148711  1
  O  O16  1  0.89633324  0.41886771  0.63551765  1
  O  O17  1  0.84567442  0.17813848  0.78307004  1
  O  O18  1  0.87897769  0.01842209  0.60180419  1
  O  O19  1  0.84801037  0.80703374  0.73698485  1
  O  O20  1  0.05191635  0.43550305  0.86327559  1
  O  O21  1  0.06265988  0.59615519  0.67224117  1
  O  O22  1  0.08135340  0.85952863  0.88587150  1
  O  O23  1  0.07009602  0.17128384  0.59851289  1
  O  O24  1  0.10366776  0.58113229  0.36448235  1
  O  O25  1  0.15432558  0.82186152  0.21692996  1
  O  O26  1  0.12102231  0.98157791  0.39819581  1
  O  O27  1  0.18392766  0.05369736  0.04219044  1
  O  O28  1  0.15198863  0.19296626  0.26301515  1
  O  O29  1  0.94808465  0.56449695  0.13672441  1
  O  O30  1  0.12967105  0.24396597  0.97802447  1
  O  O31  1  0.20428568  0.80027130  0.50562910  1
  O  O32  1  0.29567646  0.69765346  0.00610486  1
  O  O33  1  0.37093848  0.25628768  0.47817985  1
  O  O34  1  0.32478744  0.06332414  0.67355203  1
  O  O35  1  0.34755853  0.30732493  0.76289331  1
  O  O36  1  0.31319631  0.44546970  0.54011486  1
  O  O37  1  0.37904161  0.51700333  0.89578883  1
  O  O38  1  0.34792371  0.67748291  0.71690752  1
  O  O39  1  0.39715509  0.91754782  0.86441741  1
  O  O40  1  0.41961908  0.63838801  0.38491796  1
  O  O41  1  0.42974368  0.32929412  0.09835734  1
  O  O42  1  0.43862499  0.90406533  0.17112523  1
  O  O43  1  0.44857603  0.06327232  0.36462035  1
  O  O44  1  0.55142297  0.93672768  0.63537965  1
  O  O45  1  0.56137601  0.09593467  0.82887477  1
  O  O46  1  0.57025732  0.67070588  0.90164266  1
  O  O47  1  0.58037992  0.36161199  0.61508204  1
  O  O48  1  0.60284491  0.08245218  0.13558259  1
  O  O49  1  0.65207729  0.32251709  0.28309248  1
  O  O50  1  0.62095739  0.48299667  0.10421117  1
  O  O51  1  0.68680269  0.55453030  0.45988614  1
  O  O52  1  0.65244247  0.69267507  0.23710669  1
  O  O53  1  0.67521356  0.93667586  0.32644797  1
  O  O54  1  0.62906152  0.74371232  0.52182015  1
  O  O55  1  0.70432454  0.30234654  0.99389414  1
  O  O56  1  0.79571432  0.19972870  0.49436990  1
  O  O57  1  0.87032795  0.75603403  0.02197553  1
  O  O58  1  0.82507901  0.56317218  0.82729654  1
  O  O59  1  0.81607334  0.94630264  0.95780756  1
  P  P60  1  0.96107731  0.50553992  0.74880399  1
  P  P61  1  0.89379091  0.14152995  0.61697843  1
  P  P62  1  0.89831523  0.84777043  0.89979082  1
  P  P63  1  0.60590087  0.35980031  0.11653475  1
  P  P64  1  0.60201352  0.65192572  0.40025703  1
  P  P65  1  0.53959134  0.99454191  0.24827529  1
  P  P66  1  0.46040966  0.00545809  0.75172471  1
  P  P67  1  0.39798548  0.34807428  0.59974297  1
  P  P68  1  0.03892269  0.49446008  0.25119601  1
  P  P69  1  0.10621009  0.85847005  0.38302157  1
  P  P70  1  0.39410013  0.64019969  0.88346525  1
  P  P71  1  0.10168577  0.15222957  0.10020918  1
  Ni  Ni72  1  0.24978278  0.90138244  0.03500273  1
  Ni  Ni73  1  0.24271851  0.11309763  0.45718010  1
  Ni  Ni74  1  0.25074955  0.59894630  0.53535925  1
  Ni  Ni75  1  0.25729932  0.38682172  0.95750713  1
  Ni  Ni76  1  0.74269968  0.61317828  0.04249287  1
  Ni  Ni77  1  0.74924945  0.40105370  0.46464075  1
  Ni  Ni78  1  0.75728149  0.88690237  0.54281990  1
  Ni  Ni79  1  0.75021622  0.09861756  0.96499727  1
