# generated using pymatgen
data_Cr4(PO4)3
_symmetry_space_group_name_H-M   'P 1'
_cell_length_a   6.21497865
_cell_length_b   15.09141778
_cell_length_c   10.29561939
_cell_angle_alpha   90.00000000
_cell_angle_beta   90.00000000
_cell_angle_gamma   90.00000000
_symmetry_Int_Tables_number   1
_chemical_formula_structural   Cr4(PO4)3
_chemical_formula_sum   'Cr16 P12 O48'
_cell_volume   965.65537495
_cell_formula_units_Z   4
loop_
 _symmetry_equiv_pos_site_id
 _symmetry_equiv_pos_as_xyz
  1  'x, y, z'
loop_
 _atom_site_type_symbol
 _atom_site_label
 _atom_site_symmetry_multiplicity
 _atom_site_fract_x
 _atom_site_fract_y
 _atom_site_fract_z
 _atom_site_occupancy
  Cr  Cr0  1  0.91218319  0.12916842  0.14667382  1
  Cr  Cr1  1  0.41218319  0.12916842  0.35332618  1
  Cr  Cr2  1  0.13993171  0.88970972  0.43915622  1
  Cr  Cr3  1  0.91218319  0.37083158  0.14667382  1
  Cr  Cr4  1  0.63993171  0.88970972  0.06084378  1
  Cr  Cr5  1  0.58781681  0.87083158  0.64667382  1
  Cr  Cr6  1  0.41218319  0.37083158  0.35332618  1
  Cr  Cr7  1  0.08781681  0.62916842  0.85332618  1
  Cr  Cr8  1  0.58781681  0.62916842  0.64667382  1
  Cr  Cr9  1  0.36006829  0.11029028  0.93915622  1
  Cr  Cr10  1  0.36006829  0.38970972  0.93915622  1
  Cr  Cr11  1  0.86006829  0.11029028  0.56084378  1
  Cr  Cr12  1  0.08781681  0.87083158  0.85332618  1
  Cr  Cr13  1  0.13993171  0.61029028  0.43915622  1
  Cr  Cr14  1  0.86006829  0.38970972  0.56084378  1
  Cr  Cr15  1  0.63993171  0.61029028  0.06084378  1
  P  P16  1  0.49862640  0.25000000  0.09777795  1
  P  P17  1  0.13698321  0.57197121  0.13784994  1
  P  P18  1  0.99862640  0.25000000  0.40222205  1
  P  P19  1  0.36301679  0.42802879  0.63784994  1
  P  P20  1  0.63698321  0.92802879  0.36215006  1
  P  P21  1  0.86301679  0.42802879  0.86215006  1
  P  P22  1  0.63698321  0.57197121  0.36215006  1
  P  P23  1  0.86301679  0.07197121  0.86215006  1
  P  P24  1  0.36301679  0.07197121  0.63784994  1
  P  P25  1  0.50137360  0.75000000  0.90222205  1
  P  P26  1  0.00137360  0.75000000  0.59777795  1
  P  P27  1  0.13698321  0.92802879  0.13784994  1
  O  O28  1  0.03284794  0.11527709  0.95888710  1
  O  O29  1  0.24846439  0.25000000  0.38298876  1
  O  O30  1  0.09653704  0.66235400  0.65286423  1
  O  O31  1  0.18538184  0.86759213  0.25248531  1
  O  O32  1  0.18538184  0.63240787  0.25248531  1
  O  O33  1  0.09653704  0.83764600  0.65286423  1
  O  O34  1  0.59653704  0.66235400  0.84713577  1
  O  O35  1  0.25153561  0.75000000  0.88298876  1
  O  O36  1  0.53284794  0.11527709  0.54111290  1
  O  O37  1  0.05718115  0.01711269  0.19071116  1
  O  O38  1  0.46715206  0.88472291  0.45888710  1
  O  O39  1  0.59653704  0.83764600  0.84713577  1
  O  O40  1  0.68538184  0.86759213  0.24751469  1
  O  O41  1  0.90346296  0.33764600  0.34713577  1
  O  O42  1  0.83774991  0.56045158  0.45354883  1
  O  O43  1  0.46715206  0.61527709  0.45888710  1
  O  O44  1  0.66225009  0.43954842  0.95354883  1
  O  O45  1  0.94281885  0.51711269  0.80928884  1
  O  O46  1  0.33774991  0.93954842  0.04645117  1
  O  O47  1  0.66225009  0.06045158  0.95354883  1
  O  O48  1  0.75153561  0.75000000  0.61701124  1
  O  O49  1  0.96715206  0.61527709  0.04111290  1
  O  O50  1  0.56865157  0.75000000  0.04791518  1
  O  O51  1  0.55718115  0.01711269  0.30928884  1
  O  O52  1  0.90346296  0.16235400  0.34713577  1
  O  O53  1  0.53284794  0.38472291  0.54111290  1
  O  O54  1  0.40346296  0.33764600  0.15286423  1
  O  O55  1  0.81461816  0.13240787  0.74751469  1
  O  O56  1  0.06865157  0.75000000  0.45208482  1
  O  O57  1  0.55718115  0.48288731  0.30928884  1
  O  O58  1  0.44281885  0.51711269  0.69071116  1
  O  O59  1  0.43134843  0.25000000  0.95208482  1
  O  O60  1  0.31461816  0.13240787  0.75248531  1
  O  O61  1  0.44281885  0.98288731  0.69071116  1
  O  O62  1  0.40346296  0.16235400  0.15286423  1
  O  O63  1  0.81461816  0.36759213  0.74751469  1
  O  O64  1  0.94281885  0.98288731  0.80928884  1
  O  O65  1  0.83774991  0.93954842  0.45354883  1
  O  O66  1  0.05718115  0.48288731  0.19071116  1
  O  O67  1  0.33774991  0.56045158  0.04645117  1
  O  O68  1  0.03284794  0.38472291  0.95888710  1
  O  O69  1  0.96715206  0.88472291  0.04111290  1
  O  O70  1  0.68538184  0.63240787  0.24751469  1
  O  O71  1  0.74846439  0.25000000  0.11701124  1
  O  O72  1  0.16225009  0.43954842  0.54645117  1
  O  O73  1  0.31461816  0.36759213  0.75248531  1
  O  O74  1  0.16225009  0.06045158  0.54645117  1
  O  O75  1  0.93134843  0.25000000  0.54791518  1
