# generated using pymatgen
data_Ni(PO3)3
_symmetry_space_group_name_H-M   'P 1'
_cell_length_a   8.42885300
_cell_length_b   8.56714521
_cell_length_c   8.74765942
_cell_angle_alpha   90.00000000
_cell_angle_beta   90.00000000
_cell_angle_gamma   90.00000000
_symmetry_Int_Tables_number   1
_chemical_formula_structural   Ni(PO3)3
_chemical_formula_sum   'Ni4 P12 O36'
_cell_volume   631.67905043
_cell_formula_units_Z   4
loop_
 _symmetry_equiv_pos_site_id
 _symmetry_equiv_pos_as_xyz
  1  'x, y, z'
loop_
 _atom_site_type_symbol
 _atom_site_label
 _atom_site_symmetry_multiplicity
 _atom_site_fract_x
 _atom_site_fract_y
 _atom_site_fract_z
 _atom_site_occupancy
  O  O0  1  0.63168688  0.68794512  0.36899321  1
  O  O1  1  0.95682142  0.72541912  0.85299865  1
  O  O2  1  0.90677175  0.87214748  0.37224516  1
  O  O3  1  0.90357634  0.62495480  0.58550697  1
  O  O4  1  0.04317958  0.22542012  0.64700135  1
  O  O5  1  0.09322725  0.37214848  0.12775484  1
  O  O6  1  0.09642366  0.12495480  0.91449203  1
  O  O7  1  0.10048538  0.59228827  0.32818860  1
  O  O8  1  0.13168788  0.81205488  0.63100779  1
  O  O9  1  0.14438037  0.53707259  0.74669911  1
  O  O10  1  0.16714095  0.16043313  0.39316202  1
  O  O11  1  0.18611404  0.91267784  0.14566191  1
  O  O12  1  0.21330957  0.63388918  0.06174913  1
  O  O13  1  0.28669143  0.36611082  0.56174913  1
  O  O14  1  0.31388596  0.08732316  0.64566291  1
  O  O15  1  0.33285805  0.83956687  0.89316202  1
  O  O16  1  0.35561963  0.46292641  0.24669911  1
  O  O17  1  0.36831212  0.18794512  0.13100779  1
  O  O18  1  0.39951362  0.40771073  0.82818860  1
  O  O19  1  0.40357634  0.87504520  0.41449203  1
  O  O20  1  0.40677275  0.62785252  0.62775384  1
  O  O21  1  0.45682142  0.77458088  0.14700235  1
  O  O22  1  0.54317858  0.27458088  0.35299865  1
  O  O23  1  0.86831212  0.31205388  0.86899321  1
  O  O24  1  0.59642366  0.37504620  0.08550797  1
  O  O25  1  0.60048638  0.90771173  0.67181140  1
  O  O26  1  0.89951462  0.09228827  0.17181140  1
  O  O27  1  0.64438137  0.96292741  0.25329989  1
  O  O28  1  0.66714195  0.33956687  0.60683798  1
  O  O29  1  0.68611504  0.58732316  0.85433709  1
  O  O30  1  0.71330857  0.86611082  0.93825087  1
  O  O31  1  0.78669043  0.13388818  0.43825187  1
  O  O32  1  0.81388596  0.41267784  0.35433809  1
  O  O33  1  0.83285905  0.66043213  0.10683698  1
  O  O34  1  0.85561963  0.03707359  0.75329989  1
  O  O35  1  0.59322825  0.12785252  0.87224616  1
  P  P36  1  0.67797605  0.98997023  0.80398957  1
  P  P37  1  0.70741605  0.30537429  0.44439727  1
  P  P38  1  0.79258495  0.69462671  0.94439827  1
  P  P39  1  0.82202395  0.01002877  0.30398957  1
  P  P40  1  0.03212741  0.67897411  0.69165959  1
  P  P41  1  0.17797605  0.51002977  0.19601043  1
  P  P42  1  0.20741505  0.19462671  0.55560173  1
  P  P43  1  0.29258395  0.80537329  0.05560273  1
  P  P44  1  0.32202395  0.48997023  0.69601143  1
  P  P45  1  0.46787359  0.32102589  0.19166059  1
  P  P46  1  0.53212741  0.82102589  0.30834041  1
  P  P47  1  0.96787259  0.17897511  0.80834041  1
  Ni  Ni48  1  0.86401478  0.64009096  0.35172832  1
  Ni  Ni49  1  0.63598422  0.35991004  0.85172932  1
  Ni  Ni50  1  0.36401578  0.85990904  0.64827068  1
  Ni  Ni51  1  0.13598422  0.14008996  0.14827068  1
