# generated using pymatgen
data_Li3Ni2(PO4)3
_symmetry_space_group_name_H-M   'P 1'
_cell_length_a   8.46606731
_cell_length_b   8.75465625
_cell_length_c   12.16144184
_cell_angle_alpha   90.00000000
_cell_angle_beta   88.72173372
_cell_angle_gamma   90.00000000
_symmetry_Int_Tables_number   1
_chemical_formula_structural   Li3Ni2(PO4)3
_chemical_formula_sum   'Li12 Ni8 P12 O48'
_cell_volume   901.15146268
_cell_formula_units_Z   4
loop_
 _symmetry_equiv_pos_site_id
 _symmetry_equiv_pos_as_xyz
  1  'x, y, z'
loop_
 _atom_site_type_symbol
 _atom_site_label
 _atom_site_symmetry_multiplicity
 _atom_site_fract_x
 _atom_site_fract_y
 _atom_site_fract_z
 _atom_site_occupancy
  Li  Li0  1  0.06799511  0.50988562  0.65543432  1
  Li  Li1  1  0.07984295  0.08589367  0.30711062  1
  Li  Li2  1  0.17968288  0.78036527  0.82132653  1
  Li  Li3  1  0.32031612  0.28036527  0.67867347  1
  Li  Li4  1  0.42015605  0.58589367  0.19288938  1
  Li  Li5  1  0.43200489  0.00988462  0.84456568  1
  Li  Li6  1  0.56799411  0.99011438  0.15543432  1
  Li  Li7  1  0.57984295  0.41410633  0.80711062  1
  Li  Li8  1  0.67968388  0.71963473  0.32132653  1
  Li  Li9  1  0.82031612  0.21963573  0.17867347  1
  Li  Li10  1  0.92015605  0.91410733  0.69288938  1
  Li  Li11  1  0.93200589  0.49011438  0.34456568  1
  O  O12  1  0.18671507  0.18473189  0.56648121  1
  O  O13  1  0.93991749  0.11757165  0.89844130  1
  O  O14  1  0.94428609  0.33390482  0.60102777  1
  O  O15  1  0.93920556  0.42074227  0.19116617  1
  O  O16  1  0.90725804  0.63710917  0.58441802  1
  O  O17  1  0.88100387  0.79401176  0.83332100  1
  O  O18  1  0.87912671  0.00893046  0.24330363  1
  O  O19  1  0.83029638  0.73283640  0.18806961  1
  O  O20  1  0.04776216  0.87286614  0.55466459  1
  O  O21  1  0.06008351  0.88242935  0.10155770  1
  O  O22  1  0.05571391  0.66609518  0.39897223  1
  O  O23  1  0.06079544  0.57925773  0.80883383  1
  O  O24  1  0.09274096  0.36289083  0.41558198  1
  O  O25  1  0.11899613  0.20598724  0.16667900  1
  O  O26  1  0.12087329  0.99106854  0.75669637  1
  O  O27  1  0.13427553  0.42787170  0.03091557  1
  O  O28  1  0.16970262  0.26716360  0.81193039  1
  O  O29  1  0.95223684  0.12713286  0.44533541  1
  O  O30  1  0.23161660  0.47038084  0.22210354  1
  O  O31  1  0.23175255  0.05000341  0.93777557  1
  O  O32  1  0.26838340  0.97037984  0.27789646  1
  O  O33  1  0.26824745  0.55000241  0.56222443  1
  O  O34  1  0.31328493  0.68473189  0.93351779  1
  O  O35  1  0.33029738  0.76716360  0.68806961  1
  O  O36  1  0.36572447  0.92787170  0.46908443  1
  O  O37  1  0.38100387  0.70598724  0.33332000  1
  O  O38  1  0.37912671  0.49106854  0.74330363  1
  O  O39  1  0.40725904  0.86289183  0.08441802  1
  O  O40  1  0.44428609  0.16609518  0.10102777  1
  O  O41  1  0.43991749  0.38242935  0.39844230  1
  O  O42  1  0.43920456  0.07925773  0.69116617  1
  O  O43  1  0.45223784  0.37286614  0.94533541  1
  O  O44  1  0.54776216  0.62713386  0.05466459  1
  O  O45  1  0.56079544  0.92074327  0.30883383  1
  O  O46  1  0.56008351  0.61757165  0.60155770  1
  O  O47  1  0.55571391  0.83390482  0.89897223  1
  O  O48  1  0.59274096  0.13710917  0.91558298  1
  O  O49  1  0.62087329  0.50893146  0.25669637  1
  O  O50  1  0.61899613  0.29401276  0.66668000  1
  O  O51  1  0.63427653  0.07212830  0.53091557  1
  O  O52  1  0.66970262  0.23283740  0.31193039  1
  O  O53  1  0.68671507  0.31526911  0.06648121  1
  O  O54  1  0.73175355  0.44999759  0.43777557  1
  O  O55  1  0.73161760  0.02961916  0.72210354  1
  O  O56  1  0.76824745  0.94999759  0.06222443  1
  O  O57  1  0.76838340  0.52961916  0.77789646  1
  O  O58  1  0.81328393  0.81526911  0.43351779  1
  O  O59  1  0.86572447  0.57212730  0.96908543  1
  P  P60  1  0.95830688  0.74927657  0.49091913  1
  P  P61  1  0.88774330  0.61676349  0.84842606  1
  P  P62  1  0.88962873  0.89062984  0.14687966  1
  P  P63  1  0.61225770  0.11676349  0.65157494  1
  P  P64  1  0.61037127  0.39062884  0.35312034  1
  P  P65  1  0.54169312  0.24927557  0.00908187  1
  P  P66  1  0.45830588  0.75072443  0.99091913  1
  P  P67  1  0.38962873  0.60937016  0.64687966  1
  P  P68  1  0.04169312  0.25072443  0.50908187  1
  P  P69  1  0.11225770  0.38323651  0.15157394  1
  P  P70  1  0.38774230  0.88323651  0.34842606  1
  P  P71  1  0.11037127  0.10937016  0.85312034  1
  Ni  Ni72  1  0.24669493  0.02915234  0.10445176  1
  Ni  Ni73  1  0.25330507  0.52915234  0.39554724  1
  Ni  Ni74  1  0.24594931  0.46594243  0.88913253  1
  Ni  Ni75  1  0.25405069  0.96594243  0.61086647  1
  Ni  Ni76  1  0.74594831  0.03405857  0.38913253  1
  Ni  Ni77  1  0.75405069  0.53405757  0.11086647  1
  Ni  Ni78  1  0.74669493  0.47084766  0.60445276  1
  Ni  Ni79  1  0.75330507  0.97084666  0.89554824  1
