# generated using pymatgen
data_Nb3Co2Si
_symmetry_space_group_name_H-M   'P 1'
_cell_length_a   7.91305532
_cell_length_b   7.91305547
_cell_length_c   7.91305550
_cell_angle_alpha   59.99999988
_cell_angle_beta   59.99999926
_cell_angle_gamma   60.00000015
_symmetry_Int_Tables_number   1
_chemical_formula_structural   Nb3Co2Si
_chemical_formula_sum   'Nb12 Co8 Si4'
_cell_volume   350.36250582
_cell_formula_units_Z   4
loop_
 _symmetry_equiv_pos_site_id
 _symmetry_equiv_pos_as_xyz
  1  'x, y, z'
loop_
 _atom_site_type_symbol
 _atom_site_label
 _atom_site_symmetry_multiplicity
 _atom_site_fract_x
 _atom_site_fract_y
 _atom_site_fract_z
 _atom_site_occupancy
  Co  Co0  1  0.70760864  0.70760864  0.70760864  1
  Co  Co1  1  0.29239136  0.29239136  0.62282593  1
  Co  Co2  1  0.62282593  0.29239136  0.29239136  1
  Co  Co3  1  0.29239136  0.62282593  0.29239136  1
  Co  Co4  1  0.37717407  0.70760864  0.70760864  1
  Co  Co5  1  0.70760864  0.37717407  0.70760864  1
  Co  Co6  1  0.70760864  0.70760864  0.37717407  1
  Co  Co7  1  0.29239136  0.29239136  0.29239136  1
  Nb  Nb8  1  0.67358046  0.07641954  0.07641954  1
  Nb  Nb9  1  0.92358046  0.92358046  0.32641954  1
  Nb  Nb10  1  0.32641954  0.32641954  0.92358046  1
  Nb  Nb11  1  0.92358046  0.32641954  0.32641954  1
  Nb  Nb12  1  0.92358046  0.32641954  0.92358046  1
  Nb  Nb13  1  0.32641954  0.92358046  0.32641954  1
  Nb  Nb14  1  0.07641954  0.67358046  0.07641954  1
  Nb  Nb15  1  0.07641954  0.07641954  0.67358046  1
  Nb  Nb16  1  0.67358046  0.67358046  0.07641954  1
  Nb  Nb17  1  0.67358046  0.07641954  0.67358046  1
  Nb  Nb18  1  0.32641954  0.92358046  0.92358046  1
  Nb  Nb19  1  0.07641954  0.67358046  0.67358046  1
  Si  Si20  1  0.50000000  0.50000000  0.50000000  1
  Si  Si21  1  0.50000000  0.50000000  0.00000000  1
  Si  Si22  1  0.00000000  0.50000000  0.50000000  1
  Si  Si23  1  0.50000000  0.00000000  0.50000000  1
