# generated using pymatgen
data_LiCo(PO3)4
_symmetry_space_group_name_H-M   'P 1'
_cell_length_a   7.25573056
_cell_length_b   9.14078264
_cell_length_c   7.64326957
_cell_angle_alpha   90.00000000
_cell_angle_beta   109.43994334
_cell_angle_gamma   90.00000000
_symmetry_Int_Tables_number   1
_chemical_formula_structural   LiCo(PO3)4
_chemical_formula_sum   'Li2 Co2 P8 O24'
_cell_volume   478.02564029
_cell_formula_units_Z   2
loop_
 _symmetry_equiv_pos_site_id
 _symmetry_equiv_pos_as_xyz
  1  'x, y, z'
loop_
 _atom_site_type_symbol
 _atom_site_label
 _atom_site_symmetry_multiplicity
 _atom_site_fract_x
 _atom_site_fract_y
 _atom_site_fract_z
 _atom_site_occupancy
  Li  Li0  1  0.62683536  0.83415216  0.82732914  1
  Li  Li1  1  0.87316564  0.33415116  0.67267286  1
  O  O2  1  0.43573150  0.22667856  0.83251461  1
  O  O3  1  0.94773967  0.27912119  0.32310055  1
  O  O4  1  0.06426950  0.72667856  0.66748539  1
  O  O5  1  0.09443729  0.45071970  0.72909923  1
  O  O6  1  0.16390566  0.09383676  0.89056630  1
  O  O7  1  0.15496343  0.13315400  0.57259546  1
  O  O8  1  0.34503657  0.63315500  0.92740454  1
  O  O9  1  0.15348783  0.08584989  0.25036946  1
  O  O10  1  0.33609434  0.59383576  0.60943370  1
  O  O11  1  0.40556271  0.95071970  0.77090077  1
  O  O12  1  0.81024343  0.17842445  0.92129617  1
  O  O13  1  0.17867052  0.81795345  0.07713079  1
  O  O14  1  0.32132948  0.31795345  0.42286921  1
  O  O15  1  0.34651417  0.58584989  0.24963054  1
  O  O16  1  0.80610199  0.90308564  0.08620497  1
  O  O17  1  0.68975557  0.67842445  0.57870383  1
  O  O18  1  0.90282707  0.55851512  0.26605232  1
  O  O19  1  0.55226033  0.77912119  0.17689945  1
  O  O20  1  0.59717293  0.05851412  0.23394768  1
  O  O21  1  0.69389801  0.40308564  0.41379503  1
  O  O22  1  0.84375949  0.90416329  0.74932566  1
  O  O23  1  0.65224108  0.36948745  0.07868484  1
  O  O24  1  0.84775992  0.86948745  0.42131516  1
  O  O25  1  0.65624051  0.40416329  0.75067334  1
  P  P26  1  0.69357579  0.91875192  0.22500944  1
  P  P27  1  0.84847170  0.78996609  0.60680954  1
  P  P28  1  0.20242156  0.58743813  0.72568515  1
  P  P29  1  0.29757844  0.08743813  0.77431485  1
  P  P30  1  0.16018286  0.20866453  0.38341735  1
  P  P31  1  0.33981714  0.70866453  0.11658165  1
  P  P32  1  0.65152730  0.28996709  0.89319046  1
  P  P33  1  0.80642421  0.41875192  0.27499056  1
  Co  Co34  1  0.49359938  0.49871567  0.49113232  1
  Co  Co35  1  0.00640062  0.99871667  0.00886868  1
