# generated using pymatgen
data_Cr(MoS2)2
_symmetry_space_group_name_H-M   'P 1'
_cell_length_a   6.59446124
_cell_length_b   6.84879036
_cell_length_c   12.30595639
_cell_angle_alpha   85.24286403
_cell_angle_beta   74.45840860
_cell_angle_gamma   61.22098936
_symmetry_Int_Tables_number   1
_chemical_formula_structural   Cr(MoS2)2
_chemical_formula_sum   'Cr4 Mo8 S16'
_cell_volume   468.62776173
_cell_formula_units_Z   4
loop_
 _symmetry_equiv_pos_site_id
 _symmetry_equiv_pos_as_xyz
  1  'x, y, z'
loop_
 _atom_site_type_symbol
 _atom_site_label
 _atom_site_symmetry_multiplicity
 _atom_site_fract_x
 _atom_site_fract_y
 _atom_site_fract_z
 _atom_site_occupancy
  Cr  Cr0  1  0.02027581  0.26054140  0.45115644  1
  Cr  Cr1  1  0.76802635  0.76054140  0.95115644  1
  Cr  Cr2  1  0.25354167  0.79297485  0.94725154  1
  Cr  Cr3  1  0.50623195  0.29297485  0.44725154  1
  Mo  Mo4  1  0.42975243  0.22986737  0.70534851  1
  Mo  Mo5  1  0.13503169  0.72986737  0.20534851  1
  Mo  Mo6  1  0.83965333  0.82328741  0.69320473  1
  Mo  Mo7  1  0.14385453  0.32328741  0.19320473  1
  Mo  Mo8  1  0.38112934  0.83967499  0.69132146  1
  Mo  Mo9  1  0.58787421  0.33967499  0.19132146  1
  Mo  Mo10  1  0.88878555  0.21373247  0.70693509  1
  Mo  Mo11  1  0.69054689  0.71373247  0.20693509  1
  S  S12  1  0.62682139  0.95147814  0.55179209  1
  S  S13  1  0.36990838  0.45147814  0.05179209  1
  S  S14  1  0.64404251  0.10118359  0.84618986  1
  S  S15  1  0.90858404  0.60118359  0.34618986  1
  S  S16  1  0.16126767  0.62865773  0.80436938  1
  S  S17  1  0.90570523  0.12865773  0.30436938  1
  S  S18  1  0.10988039  0.42521512  0.59432452  1
  S  S19  1  0.37057998  0.92521512  0.09432452  1
  S  S20  1  0.65387377  0.61234078  0.81197627  1
  S  S21  1  0.42180918  0.11234078  0.31197627  1
  S  S22  1  0.61746429  0.44062516  0.58634628  1
  S  S23  1  0.85556427  0.94062516  0.08634628  1
  S  S24  1  0.12483781  0.92310452  0.56376017  1
  S  S25  1  0.88829750  0.42310452  0.06376017  1
  S  S26  1  0.14326597  0.13031649  0.83502367  1
  S  S27  1  0.39139387  0.63031649  0.33502367  1
