# generated using pymatgen
data_HoH16C2S2NO12
_symmetry_space_group_name_H-M   'P 1'
_cell_length_a   10.11361735
_cell_length_b   10.91699750
_cell_length_c   11.75842518
_cell_angle_alpha   90.00000000
_cell_angle_beta   90.00000000
_cell_angle_gamma   90.00000000
_symmetry_Int_Tables_number   1
_chemical_formula_structural   HoH16C2S2NO12
_chemical_formula_sum   'Ho4 H64 C8 S8 N4 O48'
_cell_volume   1298.25166703
_cell_formula_units_Z   4
loop_
 _symmetry_equiv_pos_site_id
 _symmetry_equiv_pos_as_xyz
  1  'x, y, z'
loop_
 _atom_site_type_symbol
 _atom_site_label
 _atom_site_symmetry_multiplicity
 _atom_site_fract_x
 _atom_site_fract_y
 _atom_site_fract_z
 _atom_site_occupancy
  Ho  Ho0  1  0.03338250  0.12369612  0.75000000  1
  Ho  Ho1  1  0.46661750  0.62369612  0.75000000  1
  Ho  Ho2  1  0.96661750  0.87630388  0.25000000  1
  Ho  Ho3  1  0.53338250  0.37630388  0.25000000  1
  H  H4  1  0.96809008  0.45227715  0.07305059  1
  H  H5  1  0.13100861  0.89866484  0.04115024  1
  H  H6  1  0.38648467  0.37308048  0.81758709  1
  H  H7  1  0.06783413  0.34776495  0.34858474  1
  H  H8  1  0.62161356  0.46277282  0.91240312  1
  H  H9  1  0.12161356  0.03722718  0.08759688  1
  H  H10  1  0.79264458  0.27897895  0.68232864  1
  H  H11  1  0.20735542  0.72102105  0.18232864  1
  H  H12  1  0.37838644  0.53722718  0.08759688  1
  H  H13  1  0.70735542  0.77897895  0.68232864  1
  H  H14  1  0.11351533  0.87308048  0.68241291  1
  H  H15  1  0.46809008  0.04772285  0.92694941  1
  H  H16  1  0.05113462  0.42798169  0.75000000  1
  H  H17  1  0.12205324  0.50319437  0.36655934  1
  H  H18  1  0.29264458  0.22102105  0.18232864  1
  H  H19  1  0.62771391  0.93824206  0.25000000  1
  H  H20  1  0.87794676  0.49680563  0.63344066  1
  H  H21  1  0.12771391  0.56175794  0.75000000  1
  H  H22  1  0.53190992  0.95227715  0.42694941  1
  H  H23  1  0.37794676  0.00319437  0.36655934  1
  H  H24  1  0.87794676  0.49680563  0.86655934  1
  H  H25  1  0.06783413  0.34776495  0.15141526  1
  H  H26  1  0.46809008  0.04772285  0.57305059  1
  H  H27  1  0.11351533  0.87308048  0.81758709  1
  H  H28  1  0.88648467  0.12691952  0.31758709  1
  H  H29  1  0.70735542  0.77897895  0.81767136  1
  H  H30  1  0.37838644  0.53722718  0.41240312  1
  H  H31  1  0.79264458  0.27897895  0.81767136  1
  H  H32  1  0.62161356  0.46277282  0.58759688  1
  H  H33  1  0.94886538  0.57201831  0.25000000  1
  H  H34  1  0.61351533  0.62691952  0.31758709  1
  H  H35  1  0.38648467  0.37308048  0.68241291  1
  H  H36  1  0.43216587  0.84776495  0.34858474  1
  H  H37  1  0.63100861  0.60133516  0.95884976  1
  H  H38  1  0.86899139  0.10133516  0.95884976  1
  H  H39  1  0.44886538  0.92798169  0.75000000  1
  H  H40  1  0.03190992  0.54772285  0.92694941  1
  H  H41  1  0.93216587  0.65223505  0.65141526  1
  H  H42  1  0.29264458  0.22102105  0.31767136  1
  H  H43  1  0.12161356  0.03722718  0.41240312  1
  H  H44  1  0.62205324  0.99680563  0.86655934  1
  H  H45  1  0.37794676  0.00319437  0.13344066  1
  H  H46  1  0.56783413  0.15223505  0.84858474  1
  H  H47  1  0.87838644  0.96277282  0.91240312  1
  H  H48  1  0.43216587  0.84776495  0.15141526  1
  H  H49  1  0.13100861  0.89866484  0.45884976  1
  H  H50  1  0.87838644  0.96277282  0.58759688  1
  H  H51  1  0.56783413  0.15223505  0.65141526  1
  H  H52  1  0.87228609  0.43824206  0.25000000  1
  H  H53  1  0.62205324  0.99680563  0.63344066  1
  H  H54  1  0.53190992  0.95227715  0.07305059  1
  H  H55  1  0.55113462  0.07201831  0.25000000  1
  H  H56  1  0.88648467  0.12691952  0.18241291  1
  H  H57  1  0.37228609  0.06175794  0.75000000  1
  H  H58  1  0.36899139  0.39866484  0.45884976  1
  H  H59  1  0.36899139  0.39866484  0.04115024  1
  H  H60  1  0.61351533  0.62691952  0.18241291  1
  H  H61  1  0.63100861  0.60133516  0.54115024  1
  H  H62  1  0.93216587  0.65223505  0.84858474  1
  H  H63  1  0.03190992  0.54772285  0.57305059  1
  H  H64  1  0.20735542  0.72102105  0.31767136  1
  H  H65  1  0.12205324  0.50319437  0.13344066  1
  H  H66  1  0.96809008  0.45227715  0.42694941  1
  H  H67  1  0.86899139  0.10133516  0.54115024  1
  C  C68  1  0.53632584  0.05673287  0.64431996  1
  C  C69  1  0.03632584  0.44326713  0.35568004  1
  C  C70  1  0.03632584  0.44326713  0.14431996  1
  C  C71  1  0.96367416  0.55673287  0.85568004  1
  C  C72  1  0.96367416  0.55673287  0.64431996  1
  C  C73  1  0.53632584  0.05673287  0.85568004  1
  C  C74  1  0.46367416  0.94326713  0.14431996  1
  C  C75  1  0.46367416  0.94326713  0.35568004  1
  S  S76  1  0.20411937  0.21888246  0.94133258  1
  S  S77  1  0.20411937  0.21888246  0.55866742  1
  S  S78  1  0.70411937  0.28111754  0.44133258  1
  S  S79  1  0.79588063  0.78111754  0.05866742  1
  S  S80  1  0.79588063  0.78111754  0.44133258  1
  S  S81  1  0.29588063  0.71888246  0.55866742  1
  S  S82  1  0.70411937  0.28111754  0.05866742  1
  S  S83  1  0.29588063  0.71888246  0.94133258  1
  N  N84  1  0.96513848  0.47862205  0.25000000  1
  N  N85  1  0.03486152  0.52137795  0.75000000  1
  N  N86  1  0.53486152  0.97862205  0.25000000  1
  N  N87  1  0.46513848  0.02137795  0.75000000  1
  O  O88  1  0.08337645  0.27694867  0.61132046  1
  O  O89  1  0.65029020  0.76770734  0.75000000  1
  O  O90  1  0.68140172  0.31450573  0.93762429  1
  O  O91  1  0.58337645  0.22305133  0.11132046  1
  O  O92  1  0.91662355  0.72305133  0.11132046  1
  O  O93  1  0.77535471  0.89506067  0.37141206  1
  O  O94  1  0.81954155  0.19785441  0.06622964  1
  O  O95  1  0.92704981  0.08677909  0.25000000  1
  O  O96  1  0.18045845  0.80214559  0.93377036  1
  O  O97  1  0.31859828  0.68549427  0.06237571  1
  O  O98  1  0.18045845  0.80214559  0.56622964  1
  O  O99  1  0.58337645  0.22305133  0.38867954  1
  O  O100  1  0.31859828  0.68549427  0.43762429  1
  O  O101  1  0.09762720  0.95073732  0.39547978  1
  O  O102  1  0.40237280  0.45073732  0.10452022  1
  O  O103  1  0.59762720  0.54926268  0.89547978  1
  O  O104  1  0.68140172  0.31450573  0.56237571  1
  O  O105  1  0.18140172  0.18549427  0.43762429  1
  O  O106  1  0.57295019  0.58677909  0.25000000  1
  O  O107  1  0.72464529  0.39506067  0.37141206  1
  O  O108  1  0.40237280  0.45073732  0.39547978  1
  O  O109  1  0.09762720  0.95073732  0.10452022  1
  O  O110  1  0.68045845  0.69785441  0.43377036  1
  O  O111  1  0.22464529  0.10493933  0.62858794  1
  O  O112  1  0.08337645  0.27694867  0.88867954  1
  O  O113  1  0.81954155  0.19785441  0.43377036  1
  O  O114  1  0.41662355  0.77694867  0.61132046  1
  O  O115  1  0.31954155  0.30214559  0.93377036  1
  O  O116  1  0.90237280  0.04926268  0.89547978  1
  O  O117  1  0.27535471  0.60493933  0.62858794  1
  O  O118  1  0.81859828  0.81450573  0.93762429  1
  O  O119  1  0.15029020  0.73229266  0.25000000  1
  O  O120  1  0.59762720  0.54926268  0.60452022  1
  O  O121  1  0.77535471  0.89506067  0.12858794  1
  O  O122  1  0.84970980  0.26770734  0.75000000  1
  O  O123  1  0.18140172  0.18549427  0.06237571  1
  O  O124  1  0.07295019  0.91322091  0.75000000  1
  O  O125  1  0.81859828  0.81450573  0.56237571  1
  O  O126  1  0.27535471  0.60493933  0.87141206  1
  O  O127  1  0.90237280  0.04926268  0.60452022  1
  O  O128  1  0.31954155  0.30214559  0.56622964  1
  O  O129  1  0.41662355  0.77694867  0.88867954  1
  O  O130  1  0.91662355  0.72305133  0.38867954  1
  O  O131  1  0.72464529  0.39506067  0.12858794  1
  O  O132  1  0.42704981  0.41322091  0.75000000  1
  O  O133  1  0.68045845  0.69785441  0.06622964  1
  O  O134  1  0.22464529  0.10493933  0.87141206  1
  O  O135  1  0.34970980  0.23229266  0.25000000  1
