# generated using pymatgen
data_MnPO4
_symmetry_space_group_name_H-M   'P 1'
_cell_length_a   9.73934380
_cell_length_b   7.75909575
_cell_length_c   4.88307387
_cell_angle_alpha   90.00000000
_cell_angle_beta   90.00000000
_cell_angle_gamma   90.00000000
_symmetry_Int_Tables_number   1
_chemical_formula_structural   MnPO4
_chemical_formula_sum   'Mn4 P4 O16'
_cell_volume   369.00657305
_cell_formula_units_Z   4
loop_
 _symmetry_equiv_pos_site_id
 _symmetry_equiv_pos_as_xyz
  1  'x, y, z'
loop_
 _atom_site_type_symbol
 _atom_site_label
 _atom_site_symmetry_multiplicity
 _atom_site_fract_x
 _atom_site_fract_y
 _atom_site_fract_z
 _atom_site_occupancy
  O  O0  1  0.56119805  0.51583637  0.70963529  1
  O  O1  1  0.93949460  0.40397133  0.20832736  1
  O  O2  1  0.86031865  0.30687618  0.74659540  1
  O  O3  1  0.82357075  0.62035135  0.89751681  1
  O  O4  1  0.06119805  0.51583637  0.79036471  1
  O  O5  1  0.06050540  0.90397133  0.79167164  1
  O  O6  1  0.13968135  0.80687518  0.25340360  1
  O  O7  1  0.17642925  0.12035235  0.10248219  1
  O  O8  1  0.32357175  0.62035135  0.60248319  1
  O  O9  1  0.67642925  0.12035235  0.39751781  1
  O  O10  1  0.43949560  0.40397133  0.29167164  1
  O  O11  1  0.43880095  0.01583637  0.29036371  1
  O  O12  1  0.93880195  0.01583637  0.20963629  1
  O  O13  1  0.56050440  0.90397133  0.70832836  1
  O  O14  1  0.63968135  0.80687518  0.24659540  1
  O  O15  1  0.36031865  0.30687618  0.75340460  1
  P  P16  1  0.08062827  0.96281509  0.09417849  1
  P  P17  1  0.41937173  0.46281409  0.59417749  1
  P  P18  1  0.58062827  0.96281509  0.40582251  1
  P  P19  1  0.91937073  0.46281409  0.90582251  1
  Mn  Mn20  1  0.85943733  0.21027567  0.38507219  1
  Mn  Mn21  1  0.64056267  0.71027467  0.88507219  1
  Mn  Mn22  1  0.35943733  0.21027567  0.11492681  1
  Mn  Mn23  1  0.14056167  0.71027467  0.61492681  1
