# generated using pymatgen
data_CoP2O7
_symmetry_space_group_name_H-M   'P 1'
_cell_length_a   5.15458513
_cell_length_b   6.75785288
_cell_length_c   8.27836521
_cell_angle_alpha   68.95281278
_cell_angle_beta   87.88916299
_cell_angle_gamma   88.45812847
_symmetry_Int_Tables_number   1
_chemical_formula_structural   CoP2O7
_chemical_formula_sum   'Co2 P4 O14'
_cell_volume   268.91794839
_cell_formula_units_Z   2
loop_
 _symmetry_equiv_pos_site_id
 _symmetry_equiv_pos_as_xyz
  1  'x, y, z'
loop_
 _atom_site_type_symbol
 _atom_site_label
 _atom_site_symmetry_multiplicity
 _atom_site_fract_x
 _atom_site_fract_y
 _atom_site_fract_z
 _atom_site_occupancy
  O  O0  1  0.55603650  0.03995540  0.71570238  1
  O  O1  1  0.96471138  0.04803891  0.23335316  1
  O  O2  1  0.03528259  0.95195386  0.76664790  1
  O  O3  1  0.08646112  0.63705566  0.24321154  1
  O  O4  1  0.19453706  0.28652279  0.48227555  1
  O  O5  1  0.28898840  0.34257654  0.16710440  1
  O  O6  1  0.28146151  0.12853487  0.97869449  1
  O  O7  1  0.44397116  0.96003831  0.28429869  1
  O  O8  1  0.80546987  0.71348872  0.51771973  1
  O  O9  1  0.55698194  0.53053792  0.31010098  1
  O  O10  1  0.91354727  0.36293861  0.75678521  1
  O  O11  1  0.71853668  0.87147339  0.02129728  1
  O  O12  1  0.71101170  0.65741759  0.83290029  1
  O  O13  1  0.44300936  0.46946194  0.68990088  1
  P  P14  1  0.28110984  0.45472041  0.30962367  1
  P  P15  1  0.71888390  0.54528305  0.69038130  1
  P  P16  1  0.24380148  0.10796047  0.16745419  1
  P  P17  1  0.75620064  0.89204269  0.83254543  1
  Co  Co18  1  0.75939232  0.78535775  0.27092708  1
  Co  Co19  1  0.24060527  0.21464212  0.72907283  1
