# generated using pymatgen
data_AsS3(NF3)2
_symmetry_space_group_name_H-M   'P 1'
_cell_length_a   5.79676423
_cell_length_b   8.04271328
_cell_length_c   9.63191605
_cell_angle_alpha   88.88497768
_cell_angle_beta   81.01010835
_cell_angle_gamma   74.66503223
_symmetry_Int_Tables_number   1
_chemical_formula_structural   AsS3(NF3)2
_chemical_formula_sum   'As2 S6 N4 F12'
_cell_volume   427.63575439
_cell_formula_units_Z   2
loop_
 _symmetry_equiv_pos_site_id
 _symmetry_equiv_pos_as_xyz
  1  'x, y, z'
loop_
 _atom_site_type_symbol
 _atom_site_label
 _atom_site_symmetry_multiplicity
 _atom_site_fract_x
 _atom_site_fract_y
 _atom_site_fract_z
 _atom_site_occupancy
  As  As0  1  0.92668339  0.23034328  0.77359074  1
  As  As1  1  0.07331661  0.76965672  0.22640926  1
  S  S2  1  0.47497391  0.20293474  0.14574160  1
  S  S3  1  0.54986874  0.74075572  0.56862875  1
  S  S4  1  0.45013126  0.25924428  0.43137125  1
  S  S5  1  0.26764062  0.65382741  0.80423746  1
  S  S6  1  0.52502609  0.79706526  0.85425840  1
  S  S7  1  0.73235938  0.34617259  0.19576254  1
  N  N8  1  0.65619036  0.34436039  0.36279516  1
  N  N9  1  0.34380964  0.65563961  0.63720484  1
  N  N10  1  0.64115325  0.81466863  0.69444337  1
  N  N11  1  0.35884675  0.18533137  0.30555663  1
  F  F12  1  0.27824653  0.63134542  0.09053517  1
  F  F13  1  0.12592346  0.95109678  0.13227074  1
  F  F14  1  0.83218911  0.76997341  0.13449993  1
  F  F15  1  0.72175347  0.36865458  0.90946483  1
  F  F16  1  0.87407654  0.04890322  0.86772926  1
  F  F17  1  0.97267566  0.41564558  0.68108030  1
  F  F18  1  0.86992302  0.90682569  0.36014013  1
  F  F19  1  0.31952844  0.76381995  0.31623518  1
  F  F20  1  0.16781089  0.23002659  0.86550007  1
  F  F21  1  0.13007698  0.09317431  0.63985987  1
  F  F22  1  0.02732434  0.58435442  0.31891970  1
  F  F23  1  0.68047156  0.23618005  0.68376482  1
