# generated using pymatgen
data_Er4I5
_symmetry_space_group_name_H-M   'P 1'
_cell_length_a   3.93273742
_cell_length_b   8.75291324
_cell_length_c   9.46430470
_cell_angle_alpha   103.36852558
_cell_angle_beta   101.99243982
_cell_angle_gamma   90.00609079
_symmetry_Int_Tables_number   1
_chemical_formula_structural   Er4I5
_chemical_formula_sum   'Er4 I5'
_cell_volume   309.64628152
_cell_formula_units_Z   1
loop_
 _symmetry_equiv_pos_site_id
 _symmetry_equiv_pos_as_xyz
  1  'x, y, z'
loop_
 _atom_site_type_symbol
 _atom_site_label
 _atom_site_symmetry_multiplicity
 _atom_site_fract_x
 _atom_site_fract_y
 _atom_site_fract_z
 _atom_site_occupancy
  Er  Er0  1  0.99961556  0.19606359  0.99922081  1
  Er  Er1  1  0.00038444  0.80393641  0.00077919  1
  Er  Er2  1  0.36655251  0.93252348  0.73306369  1
  Er  Er3  1  0.63344749  0.06747652  0.26693631  1
  I  I4  1  0.83217683  0.65349206  0.66421183  1
  I  I5  1  0.16782317  0.34650794  0.33578817  1
  I  I6  1  0.82551451  0.17524646  0.65083838  1
  I  I7  1  0.17448549  0.82475354  0.34916162  1
  I  I8  1  0.50000000  0.50000000  0.00000000  1
