# generated using pymatgen
data_CsHCO2
_symmetry_space_group_name_H-M   'P 1'
_cell_length_a   4.92041719
_cell_length_b   8.07341567
_cell_length_c   9.72992108
_cell_angle_alpha   90.00000000
_cell_angle_beta   90.00000000
_cell_angle_gamma   90.00000000
_symmetry_Int_Tables_number   1
_chemical_formula_structural   CsHCO2
_chemical_formula_sum   'Cs4 H4 C4 O8'
_cell_volume   386.51696261
_cell_formula_units_Z   4
loop_
 _symmetry_equiv_pos_site_id
 _symmetry_equiv_pos_as_xyz
  1  'x, y, z'
loop_
 _atom_site_type_symbol
 _atom_site_label
 _atom_site_symmetry_multiplicity
 _atom_site_fract_x
 _atom_site_fract_y
 _atom_site_fract_z
 _atom_site_occupancy
  Cs  Cs0  1  0.95040269  0.00000000  0.75000000  1
  Cs  Cs1  1  0.04959731  0.50000000  0.25000000  1
  Cs  Cs2  1  0.04959731  0.00000000  0.25000000  1
  Cs  Cs3  1  0.95040269  0.50000000  0.75000000  1
  C  C4  1  0.39348336  0.25000000  0.95225818  1
  C  C5  1  0.39348336  0.75000000  0.54774182  1
  C  C6  1  0.60651664  0.75000000  0.04774182  1
  C  C7  1  0.60651664  0.25000000  0.45225818  1
  H  H8  1  0.56379436  0.25000000  0.02912646  1
  H  H9  1  0.56379436  0.75000000  0.47087354  1
  H  H10  1  0.43620564  0.75000000  0.97087354  1
  H  H11  1  0.43620564  0.25000000  0.52912646  1
  O  O12  1  0.46199888  0.25000000  0.82636280  1
  O  O13  1  0.46199888  0.75000000  0.67363720  1
  O  O14  1  0.53800112  0.75000000  0.17363720  1
  O  O15  1  0.53800112  0.25000000  0.32636280  1
  O  O16  1  0.15372340  0.25000000  0.00050210  1
  O  O17  1  0.15372340  0.75000000  0.49949790  1
  O  O18  1  0.84627660  0.75000000  0.99949790  1
  O  O19  1  0.84627660  0.25000000  0.50050210  1
