# generated using pymatgen
data_BaF2
_symmetry_space_group_name_H-M   'P 1'
_cell_length_a   4.45734720
_cell_length_b   6.21666961
_cell_length_c   7.71583362
_cell_angle_alpha   90.00000000
_cell_angle_beta   90.00000000
_cell_angle_gamma   90.00000000
_symmetry_Int_Tables_number   1
_chemical_formula_structural   BaF2
_chemical_formula_sum   'Ba4 F8'
_cell_volume   213.80462988
_cell_formula_units_Z   4
loop_
 _symmetry_equiv_pos_site_id
 _symmetry_equiv_pos_as_xyz
  1  'x, y, z'
loop_
 _atom_site_type_symbol
 _atom_site_label
 _atom_site_symmetry_multiplicity
 _atom_site_fract_x
 _atom_site_fract_y
 _atom_site_fract_z
 _atom_site_occupancy
  F  F0  1  0.75000000  0.50000000  0.25000000  1
  F  F1  1  0.25000000  0.50000000  0.75000000  1
  F  F2  1  0.75000000  0.00000000  0.25000000  1
  F  F3  1  0.25000000  0.00000000  0.75000000  1
  F  F4  1  0.75000000  0.25000000  0.58330090  1
  F  F5  1  0.25000000  0.75000000  0.41669910  1
  F  F6  1  0.75000000  0.75000000  0.91669910  1
  F  F7  1  0.25000000  0.25000000  0.08330090  1
  Ba  Ba8  1  0.25000000  0.25000000  0.41667804  1
  Ba  Ba9  1  0.75000000  0.75000000  0.58332196  1
  Ba  Ba10  1  0.25000000  0.75000000  0.08332196  1
  Ba  Ba11  1  0.75000000  0.25000000  0.91667804  1
