# generated using pymatgen
data_NdAl6Si30(N15O)3
_symmetry_space_group_name_H-M   'P 1'
_cell_length_a   7.93428727
_cell_length_b   7.89069499
_cell_length_c   17.14120889
_cell_angle_alpha   90.31063606
_cell_angle_beta   89.80136088
_cell_angle_gamma   120.33635377
_symmetry_Int_Tables_number   1
_chemical_formula_structural   NdAl6Si30(N15O)3
_chemical_formula_sum   'Nd1 Al6 Si30 N45 O3'
_cell_volume   926.20421529
_cell_formula_units_Z   1
loop_
 _symmetry_equiv_pos_site_id
 _symmetry_equiv_pos_as_xyz
  1  'x, y, z'
loop_
 _atom_site_type_symbol
 _atom_site_label
 _atom_site_symmetry_multiplicity
 _atom_site_fract_x
 _atom_site_fract_y
 _atom_site_fract_z
 _atom_site_occupancy
  Al  Al0  1  0.09744134  0.58278145  0.71633443  1
  Al  Al1  1  0.92732301  0.49348568  0.89412289  1
  Al  Al2  1  0.91666574  0.48468258  0.54995429  1
  Al  Al3  1  0.91376698  0.16658259  0.32007737  1
  Al  Al4  1  0.92506938  0.17053976  0.64970834  1
  Al  Al5  1  0.91441582  0.16690549  0.98729846  1
  N  N6  1  0.30999051  0.99027470  0.06785064  1
  N  N7  1  0.31710546  0.99794486  0.39893781  1
  N  N8  1  0.32133972  0.99608837  0.73291969  1
  N  N9  1  0.00487842  0.32636319  0.07417806  1
  N  N10  1  0.00501176  0.32981321  0.40563308  1
  N  N11  1  0.98982158  0.32042721  0.74040533  1
  N  N12  1  0.33075159  0.66469073  0.04251398  1
  N  N13  1  0.33553076  0.66762864  0.37201095  1
  N  N14  1  0.34783145  0.66631727  0.69662656  1
  N  N15  1  0.00683401  0.99326775  0.31890750  1
  N  N16  1  0.00308533  0.98874450  0.65228266  1
  N  N17  1  0.99802986  0.00007854  0.81692542  1
  N  N18  1  0.00295043  0.99092378  0.98648048  1
  N  N19  1  0.60903975  0.95522716  0.14628811  1
  N  N20  1  0.60822891  0.95281153  0.47795597  1
  N  N21  1  0.60874646  0.95357840  0.81085461  1
  N  N22  1  0.34727721  0.38575625  0.14646373  1
  N  N23  1  0.34669648  0.38686955  0.47677021  1
  N  N24  1  0.34748050  0.38368599  0.80999494  1
  N  N25  1  0.39213507  0.34514431  0.31150727  1
  N  N26  1  0.39688284  0.33712332  0.64637594  1
  N  N27  1  0.39014761  0.34188295  0.98062257  1
  N  N28  1  0.31890193  0.00621069  0.23193686  1
  N  N29  1  0.30873293  0.98912510  0.56432366  1
  N  N30  1  0.31439421  0.00114492  0.89964906  1
  N  N31  1  0.67687090  0.68753037  0.06805231  1
  N  N32  1  0.68198249  0.68586671  0.39925120  1
  N  N33  1  0.68058983  0.67302278  0.73482989  1
  N  N34  1  0.69024131  0.68135608  0.23321573  1
  N  N35  1  0.68186087  0.68153063  0.56513571  1
  N  N36  1  0.68892283  0.67850766  0.90100398  1
  N  N37  1  0.99778191  0.00252601  0.15267900  1
  N  N38  1  0.66825872  0.33406895  0.20302346  1
  N  N39  1  0.65239620  0.32273315  0.53468626  1
  N  N40  1  0.65754154  0.32593165  0.86849647  1
  N  N41  1  0.64444331  0.05149105  0.64582036  1
  N  N42  1  0.64359981  0.04081256  0.31093692  1
  N  N43  1  0.64038703  0.03765764  0.97945516  1
  N  N44  1  0.95517425  0.60904998  0.31198896  1
  N  N45  1  0.93140393  0.59956253  0.64779232  1
  N  N46  1  0.95181184  0.61162022  0.98886040  1
  N  N47  1  0.00869276  0.33040672  0.23342830  1
  N  N48  1  0.01888038  0.32863024  0.56629780  1
  N  N49  1  0.01351956  0.32273608  0.90130379  1
  N  N50  1  0.99792562  0.00206514  0.48380794  1
  Nd  Nd51  1  0.67355579  0.32968307  0.73038383  1
  O  O52  1  0.04425014  0.66196590  0.14872877  1
  O  O53  1  0.04696605  0.67124487  0.47058755  1
  O  O54  1  0.04935284  0.67511302  0.81198518  1
  Si  Si55  1  0.16961801  0.92902219  0.15180010  1
  Si  Si56  1  0.16856674  0.92752737  0.48013842  1
  Si  Si57  1  0.16910516  0.92655404  0.81815276  1
  Si  Si58  1  0.08229115  0.56595958  0.05573388  1
  Si  Si59  1  0.08753766  0.56888280  0.38360535  1
  Si  Si60  1  0.08865494  0.26053450  0.15371381  1
  Si  Si61  1  0.08881183  0.26147650  0.48523907  1
  Si  Si62  1  0.08115355  0.25670902  0.81984874  1
  Si  Si63  1  0.48589283  0.91706501  0.05623808  1
  Si  Si64  1  0.48857751  0.92034048  0.38653636  1
  Si  Si65  1  0.48672394  0.90468405  0.71914845  1
  Si  Si66  1  0.42812577  0.51048987  0.05718153  1
  Si  Si67  1  0.43149467  0.51208304  0.38733263  1
  Si  Si68  1  0.42480619  0.51021208  0.72066708  1
  Si  Si69  1  0.25344531  0.08586887  0.31722654  1
  Si  Si70  1  0.24517205  0.07188343  0.64780337  1
  Si  Si71  1  0.24780082  0.07999879  0.98596125  1
  Si  Si72  1  0.51511505  0.43054175  0.22137621  1
  Si  Si73  1  0.51224795  0.42848281  0.55096778  1
  Si  Si74  1  0.50849948  0.42851556  0.89111148  1
  Si  Si75  1  0.74443276  0.83511221  0.15257687  1
  Si  Si76  1  0.74518185  0.83458615  0.48311005  1
  Si  Si77  1  0.74748889  0.83079448  0.81971811  1
  Si  Si78  1  0.83689299  0.74876184  0.31793803  1
  Si  Si79  1  0.83527104  0.74664616  0.98877721  1
  Si  Si80  1  0.83117485  0.74703214  0.64849256  1
  Si  Si81  1  0.56900159  0.08100753  0.22218014  1
  Si  Si82  1  0.56299387  0.07750168  0.55204203  1
  Si  Si83  1  0.56345434  0.07371829  0.89185836  1
  Si  Si84  1  0.91421724  0.48012733  0.22432855  1
