# generated using pymatgen
data_H14C3NF5
_symmetry_space_group_name_H-M   'P 1'
_cell_length_a   6.68472467
_cell_length_b   6.90851124
_cell_length_c   10.15535905
_cell_angle_alpha   83.21383632
_cell_angle_beta   72.13349662
_cell_angle_gamma   88.38720483
_symmetry_Int_Tables_number   1
_chemical_formula_structural   H14C3NF5
_chemical_formula_sum   'H28 C6 N2 F10'
_cell_volume   443.22857797
_cell_formula_units_Z   2
loop_
 _symmetry_equiv_pos_site_id
 _symmetry_equiv_pos_as_xyz
  1  'x, y, z'
loop_
 _atom_site_type_symbol
 _atom_site_label
 _atom_site_symmetry_multiplicity
 _atom_site_fract_x
 _atom_site_fract_y
 _atom_site_fract_z
 _atom_site_occupancy
  H  H0  1  0.48617789  0.92788753  0.79850890  1
  H  H1  1  0.90755001  0.28826256  0.20519321  1
  H  H2  1  0.20231345  0.30081797  0.60754961  1
  H  H3  1  0.35135920  0.96516337  0.66931147  1
  H  H4  1  0.90879320  0.21735738  0.53227445  1
  H  H5  1  0.09244999  0.71173744  0.79480679  1
  H  H6  1  0.60635145  0.58916907  0.85524086  1
  H  H7  1  0.64864080  0.03483663  0.33068853  1
  H  H8  1  0.37480016  0.09177411  0.38165928  1
  H  H9  1  0.08650176  0.82762624  0.22238081  1
  H  H10  1  0.59083814  0.36684319  0.36999556  1
  H  H11  1  0.09120680  0.78264262  0.46772555  1
  H  H12  1  0.81906170  0.52622629  0.15561236  1
  H  H13  1  0.54434946  0.39631960  0.76878392  1
  H  H14  1  0.18093830  0.47377371  0.84438764  1
  H  H15  1  0.21797811  0.67823552  0.92880075  1
  H  H16  1  0.26291370  0.42167126  0.32673379  1
  H  H17  1  0.51382211  0.07211247  0.20149110  1
  H  H18  1  0.79768655  0.69918203  0.39245039  1
  H  H19  1  0.39364855  0.41083093  0.14475914  1
  H  H20  1  0.62519984  0.90822589  0.61834072  1
  H  H21  1  0.91349824  0.17237376  0.77761919  1
  H  H22  1  0.76828326  0.93425410  0.95044179  1
  H  H23  1  0.23171674  0.06574590  0.04955821  1
  H  H24  1  0.40916186  0.63315681  0.63000444  1
  H  H25  1  0.78202189  0.32176448  0.07119925  1
  H  H26  1  0.73708630  0.57832874  0.67326621  1
  H  H27  1  0.45565054  0.60368040  0.23121608  1
  C  C28  1  0.21221850  0.63065368  0.83090866  1
  C  C29  1  0.52498153  0.11604481  0.29919101  1
  C  C30  1  0.41016297  0.45046501  0.24227763  1
  C  C31  1  0.78778150  0.36934632  0.16909134  1
  C  C32  1  0.47501847  0.88395519  0.70080899  1
  C  C33  1  0.58983703  0.54953499  0.75772237  1
  N  N34  1  0.57918419  0.32830044  0.27712001  1
  N  N35  1  0.42081581  0.67169956  0.72287999  1
  F  F36  1  0.35264333  0.34315539  0.57895836  1
  F  F37  1  0.99212099  0.23722599  0.64702232  1
  F  F38  1  0.85379680  0.13102134  0.88431243  1
  F  F39  1  0.85904278  0.20884692  0.45141725  1
  F  F40  1  0.70560768  0.80849477  0.99717453  1
  F  F41  1  0.29439232  0.19150523  0.00282547  1
  F  F42  1  0.14095722  0.79115308  0.54858275  1
  F  F43  1  0.14620320  0.86897866  0.11568757  1
  F  F44  1  0.64735667  0.65684461  0.42104164  1
  F  F45  1  0.00787901  0.76277401  0.35297768  1
