# generated using pymatgen
data_Na2CaSiO4
_symmetry_space_group_name_H-M   'P 1'
_cell_length_a   7.53889257
_cell_length_b   7.53889257
_cell_length_c   7.53889257
_cell_angle_alpha   90.00000000
_cell_angle_beta   90.00000000
_cell_angle_gamma   90.00000000
_symmetry_Int_Tables_number   1
_chemical_formula_structural   Na2CaSiO4
_chemical_formula_sum   'Na8 Ca4 Si4 O16'
_cell_volume   428.47221424
_cell_formula_units_Z   4
loop_
 _symmetry_equiv_pos_site_id
 _symmetry_equiv_pos_as_xyz
  1  'x, y, z'
loop_
 _atom_site_type_symbol
 _atom_site_label
 _atom_site_symmetry_multiplicity
 _atom_site_fract_x
 _atom_site_fract_y
 _atom_site_fract_z
 _atom_site_occupancy
  Na  Na0  1  0.99266395  0.00733605  0.50733605  1
  Na  Na1  1  0.22518010  0.77481990  0.27481990  1
  Na  Na2  1  0.72518010  0.72518010  0.72518010  1
  Na  Na3  1  0.00733605  0.50733605  0.99266395  1
  Na  Na4  1  0.49266395  0.49266395  0.49266395  1
  Na  Na5  1  0.77481990  0.27481990  0.22518010  1
  Na  Na6  1  0.50733605  0.99266395  0.00733605  1
  Na  Na7  1  0.27481990  0.22518010  0.77481990  1
  Ca  Ca8  1  0.03784400  0.46215600  0.53784400  1
  Ca  Ca9  1  0.96215600  0.96215600  0.96215600  1
  Ca  Ca10  1  0.46215600  0.53784400  0.03784400  1
  Ca  Ca11  1  0.53784400  0.03784400  0.46215600  1
  Si  Si12  1  0.25798242  0.25798242  0.25798242  1
  Si  Si13  1  0.74201758  0.75798242  0.24201758  1
  Si  Si14  1  0.24201758  0.74201758  0.75798242  1
  Si  Si15  1  0.75798242  0.24201758  0.74201758  1
  O  O16  1  0.86655043  0.63344957  0.36655043  1
  O  O17  1  0.47093387  0.23497402  0.20952044  1
  O  O18  1  0.76502598  0.70952044  0.02906613  1
  O  O19  1  0.23497402  0.20952044  0.47093387  1
  O  O20  1  0.13344957  0.13344957  0.13344957  1
  O  O21  1  0.97093387  0.26502598  0.79047956  1
  O  O22  1  0.02906613  0.76502598  0.70952044  1
  O  O23  1  0.52906613  0.73497402  0.29047956  1
  O  O24  1  0.63344957  0.36655043  0.86655043  1
  O  O25  1  0.79047956  0.97093387  0.26502598  1
  O  O26  1  0.29047956  0.52906613  0.73497402  1
  O  O27  1  0.70952044  0.02906613  0.76502598  1
  O  O28  1  0.36655043  0.86655043  0.63344957  1
  O  O29  1  0.26502598  0.79047956  0.97093387  1
  O  O30  1  0.20952044  0.47093387  0.23497402  1
  O  O31  1  0.73497402  0.29047956  0.52906613  1
