# generated using pymatgen
data_CsLi3F4
_symmetry_space_group_name_H-M   'P 1'
_cell_length_a   5.89636736
_cell_length_b   5.89636695
_cell_length_c   7.98233878
_cell_angle_alpha   70.89825049
_cell_angle_beta   70.89825147
_cell_angle_gamma   57.28380625
_symmetry_Int_Tables_number   1
_chemical_formula_structural   CsLi3F4
_chemical_formula_sum   'Cs2 Li6 F8'
_cell_volume   216.65699729
_cell_formula_units_Z   2
loop_
 _symmetry_equiv_pos_site_id
 _symmetry_equiv_pos_as_xyz
  1  'x, y, z'
loop_
 _atom_site_type_symbol
 _atom_site_label
 _atom_site_symmetry_multiplicity
 _atom_site_fract_x
 _atom_site_fract_y
 _atom_site_fract_z
 _atom_site_occupancy
  Cs  Cs0  1  0.33245410  0.33245410  0.26756226  1
  Cs  Cs1  1  0.66754590  0.66754590  0.73243774  1
  Li  Li2  1  0.00067291  0.00067291  0.69021517  1
  Li  Li3  1  0.60805091  0.60805091  0.32829800  1
  Li  Li4  1  0.99932709  0.99932709  0.30978483  1
  Li  Li5  1  0.39194909  0.39194909  0.67170200  1
  Li  Li6  1  0.79470056  0.79470056  0.03674209  1
  Li  Li7  1  0.20529944  0.20529944  0.96325791  1
  F  F8  1  0.25035683  0.74964317  0.50000000  1
  F  F9  1  0.62933936  0.12984821  0.86490931  1
  F  F10  1  0.74964317  0.25035683  0.50000000  1
  F  F11  1  0.81087471  0.81087471  0.27767978  1
  F  F12  1  0.87015179  0.37066064  0.13509069  1
  F  F13  1  0.18912529  0.18912529  0.72232022  1
  F  F14  1  0.12984821  0.62933936  0.86490931  1
  F  F15  1  0.37066064  0.87015179  0.13509069  1
