# generated using pymatgen
data_H8C3S2
_symmetry_space_group_name_H-M   'P 1'
_cell_length_a   7.24930831
_cell_length_b   8.16132868
_cell_length_c   11.08429655
_cell_angle_alpha   90.00000000
_cell_angle_beta   90.00000000
_cell_angle_gamma   109.08616957
_symmetry_Int_Tables_number   1
_chemical_formula_structural   H8C3S2
_chemical_formula_sum   'H32 C12 S8'
_cell_volume   619.74094778
_cell_formula_units_Z   4
loop_
 _symmetry_equiv_pos_site_id
 _symmetry_equiv_pos_as_xyz
  1  'x, y, z'
loop_
 _atom_site_type_symbol
 _atom_site_label
 _atom_site_symmetry_multiplicity
 _atom_site_fract_x
 _atom_site_fract_y
 _atom_site_fract_z
 _atom_site_occupancy
  H  H0  1  0.21765038  0.82645943  0.71055619  1
  H  H1  1  0.49405490  0.38591303  0.59620998  1
  H  H2  1  0.92492013  0.39756286  0.30828926  1
  H  H3  1  0.03612614  0.73126841  0.17638207  1
  H  H4  1  0.74124837  0.41403048  0.55517593  1
  H  H5  1  0.78234962  0.67354057  0.21055619  1
  H  H6  1  0.21765038  0.32645943  0.78944381  1
  H  H7  1  0.03612614  0.23126841  0.32361793  1
  H  H8  1  0.23372787  0.54368952  0.15901080  1
  H  H9  1  0.74686143  0.54158674  0.98650925  1
  H  H10  1  0.25875163  0.58596952  0.44482407  1
  H  H11  1  0.07507987  0.10243714  0.80828926  1
  H  H12  1  0.50594510  0.11408697  0.09620998  1
  H  H13  1  0.76627213  0.45631048  0.84098920  1
  H  H14  1  0.76627213  0.95631048  0.65901080  1
  H  H15  1  0.96387386  0.76873159  0.67638207  1
  H  H16  1  0.49405490  0.88591303  0.90379002  1
  H  H17  1  0.50594510  0.61408697  0.40379002  1
  H  H18  1  0.74686143  0.04158674  0.51349075  1
  H  H19  1  0.92492013  0.89756286  0.19171074  1
  H  H20  1  0.23372787  0.04368952  0.34098920  1
  H  H21  1  0.54250993  0.26358645  0.47369109  1
  H  H22  1  0.54250993  0.76358645  0.02630891  1
  H  H23  1  0.25313857  0.45841326  0.01349075  1
  H  H24  1  0.25875163  0.08596952  0.05517593  1
  H  H25  1  0.96387386  0.26873159  0.82361793  1
  H  H26  1  0.45749007  0.23641355  0.97369109  1
  H  H27  1  0.45749007  0.73641355  0.52630891  1
  H  H28  1  0.74124837  0.91403048  0.94482407  1
  H  H29  1  0.25313857  0.95841326  0.48650925  1
  H  H30  1  0.78234962  0.17354057  0.28944381  1
  H  H31  1  0.07507987  0.60243714  0.69171074  1
  C  C32  1  0.07381786  0.22867574  0.77463329  1
  C  C33  1  0.59344476  0.31980802  0.56256773  1
  C  C34  1  0.59344476  0.81980802  0.93743227  1
  C  C35  1  0.77826389  0.57592279  0.89094574  1
  C  C36  1  0.40655524  0.68019198  0.43743227  1
  C  C37  1  0.92618214  0.77132426  0.22536671  1
  C  C38  1  0.07381786  0.72867574  0.72536671  1
  C  C39  1  0.92618214  0.27132426  0.27463329  1
  C  C40  1  0.77826389  0.07592279  0.60905426  1
  C  C41  1  0.22173611  0.92407721  0.39094574  1
  C  C42  1  0.22173611  0.42407721  0.10905426  1
  C  C43  1  0.40655524  0.18019198  0.06256773  1
  S  S44  1  0.02729997  0.72274269  0.88572528  1
  S  S45  1  0.97270003  0.77725731  0.38572528  1
  S  S46  1  0.58984312  0.15356362  0.67100822  1
  S  S47  1  0.58984312  0.65356362  0.82899178  1
  S  S48  1  0.02729997  0.22274269  0.61427472  1
  S  S49  1  0.41015688  0.84643638  0.32899178  1
  S  S50  1  0.41015688  0.34643638  0.17100822  1
  S  S51  1  0.97270003  0.27725731  0.11427472  1
