# generated using pymatgen
data_Sb2SNF11
_symmetry_space_group_name_H-M   'P 1'
_cell_length_a   8.30907261
_cell_length_b   10.47766811
_cell_length_c   12.05195472
_cell_angle_alpha   90.00000000
_cell_angle_beta   90.00000000
_cell_angle_gamma   92.58813576
_symmetry_Int_Tables_number   1
_chemical_formula_structural   Sb2SNF11
_chemical_formula_sum   'Sb8 S4 N4 F44'
_cell_volume   1048.16933775
_cell_formula_units_Z   4
loop_
 _symmetry_equiv_pos_site_id
 _symmetry_equiv_pos_as_xyz
  1  'x, y, z'
loop_
 _atom_site_type_symbol
 _atom_site_label
 _atom_site_symmetry_multiplicity
 _atom_site_fract_x
 _atom_site_fract_y
 _atom_site_fract_z
 _atom_site_occupancy
  Sb  Sb0  1  0.17783450  0.95820373  0.22230787  1
  Sb  Sb1  1  0.17783450  0.45820373  0.27769213  1
  Sb  Sb2  1  0.82216550  0.04179627  0.77769213  1
  Sb  Sb3  1  0.31881411  0.27352893  0.55045918  1
  Sb  Sb4  1  0.68118589  0.72647107  0.44954082  1
  Sb  Sb5  1  0.31881411  0.77352893  0.94954082  1
  Sb  Sb6  1  0.68118589  0.22647107  0.05045918  1
  Sb  Sb7  1  0.82216550  0.54179627  0.72230787  1
  S  S8  1  0.79224292  0.23874575  0.45209657  1
  S  S9  1  0.20775708  0.26125425  0.95209657  1
  S  S10  1  0.79224292  0.73874575  0.04790343  1
  S  S11  1  0.20775708  0.76125425  0.54790343  1
  N  N12  1  0.75115434  0.12308289  0.39342577  1
  N  N13  1  0.24884566  0.37691711  0.89342577  1
  N  N14  1  0.24884566  0.87691711  0.60657423  1
  N  N15  1  0.75115434  0.62308289  0.10657423  1
  F  F16  1  0.07192214  0.56209125  0.17490407  1
  F  F17  1  0.28807769  0.83839116  0.11138818  1
  F  F18  1  0.86837768  0.93753416  0.90201934  1
  F  F19  1  0.23003580  0.83403509  0.33147346  1
  F  F20  1  0.13162232  0.06246584  0.09798066  1
  F  F21  1  0.38338580  0.04008928  0.23909542  1
  F  F22  1  0.36799390  0.61665216  0.01678133  1
  F  F23  1  0.27209105  0.94029690  0.90276685  1
  F  F24  1  0.01406003  0.64339424  0.68821813  1
  F  F25  1  0.76996420  0.16596491  0.66852654  1
  F  F26  1  0.71192231  0.16160884  0.88861182  1
  F  F27  1  0.76996420  0.66596491  0.83147346  1
  F  F28  1  0.90622401  0.77411250  0.45457578  1
  F  F29  1  0.53999707  0.83062908  0.97470382  1
  F  F30  1  0.63200610  0.88334784  0.51678133  1
  F  F31  1  0.01406003  0.14339424  0.81178187  1
  F  F32  1  0.46000293  0.66937092  0.47470382  1
  F  F33  1  0.35146932  0.21410769  0.69655435  1
  F  F34  1  0.13162232  0.56246584  0.40201934  1
  F  F35  1  0.98593997  0.35660576  0.31178187  1
  F  F36  1  0.09377599  0.22588750  0.54542422  1
  F  F37  1  0.64853068  0.78589231  0.30344565  1
  F  F38  1  0.64853068  0.28589231  0.19655435  1
  F  F39  1  0.53999707  0.33062908  0.52529618  1
  F  F40  1  0.92807786  0.93790875  0.67490407  1
  F  F41  1  0.71192231  0.66160884  0.61138818  1
  F  F42  1  0.90622401  0.27411250  0.04542422  1
  F  F43  1  0.27209105  0.44029690  0.59723315  1
  F  F44  1  0.07192214  0.06209125  0.32509593  1
  F  F45  1  0.23003580  0.33403509  0.16852654  1
  F  F46  1  0.46000293  0.16937092  0.02529618  1
  F  F47  1  0.28807769  0.33839116  0.38861182  1
  F  F48  1  0.72790895  0.55970310  0.40276685  1
  F  F49  1  0.72790895  0.05970310  0.09723315  1
  F  F50  1  0.98593997  0.85660576  0.18821813  1
  F  F51  1  0.63200610  0.38334784  0.98321867  1
  F  F52  1  0.35146932  0.71410769  0.80344565  1
  F  F53  1  0.61661420  0.45991072  0.73909542  1
  F  F54  1  0.38338580  0.54008928  0.26090458  1
  F  F55  1  0.92807786  0.43790875  0.82509593  1
  F  F56  1  0.36799390  0.11665216  0.48321867  1
  F  F57  1  0.86837768  0.43753416  0.59798066  1
  F  F58  1  0.61661420  0.95991072  0.76090458  1
  F  F59  1  0.09377599  0.72588750  0.95457578  1
