# generated using pymatgen
data_KSb4F13
_symmetry_space_group_name_H-M   'P 1'
_cell_length_a   5.95398483
_cell_length_b   7.82736039
_cell_length_c   7.82736017
_cell_angle_alpha   81.68286404
_cell_angle_beta   67.64577385
_cell_angle_gamma   67.64578016
_symmetry_Int_Tables_number   1
_chemical_formula_structural   KSb4F13
_chemical_formula_sum   'K1 Sb4 F13'
_cell_volume   312.01908569
_cell_formula_units_Z   1
loop_
 _symmetry_equiv_pos_site_id
 _symmetry_equiv_pos_as_xyz
  1  'x, y, z'
loop_
 _atom_site_type_symbol
 _atom_site_label
 _atom_site_symmetry_multiplicity
 _atom_site_fract_x
 _atom_site_fract_y
 _atom_site_fract_z
 _atom_site_occupancy
  K  K0  1  0.50000000  0.00000000  0.00000000  1
  Sb  Sb1  1  0.99759318  0.27143716  0.73337647  1
  Sb  Sb2  1  0.26903034  0.73337647  0.72856284  1
  Sb  Sb3  1  0.73096966  0.26662353  0.27143716  1
  Sb  Sb4  1  0.00240682  0.72856284  0.26662353  1
  F  F5  1  0.44180204  0.68843091  0.90854758  1
  F  F6  1  0.86976705  0.09145242  0.68843091  1
  F  F7  1  0.64965038  0.90854758  0.31156909  1
  F  F8  1  0.03878053  0.31156909  0.09145242  1
  F  F9  1  0.11346848  0.31088341  0.46217964  1
  F  F10  1  0.57564812  0.53782036  0.31088341  1
  F  F11  1  0.55819796  0.31156909  0.09145242  1
  F  F12  1  0.42435188  0.46217964  0.68911659  1
  F  F13  1  0.88653152  0.68911659  0.53782036  1
  F  F14  1  0.13023295  0.90854758  0.31156909  1
  F  F15  1  0.35034962  0.09145242  0.68843091  1
  F  F16  1  0.00000000  0.00000000  0.00000000  1
  F  F17  1  0.96121947  0.68843091  0.90854758  1
