# generated using pymatgen
data_InSi2P(H3C)8
_symmetry_space_group_name_H-M   'P 1'
_cell_length_a   9.47754558
_cell_length_b   9.87539750
_cell_length_c   9.98140232
_cell_angle_alpha   77.08513806
_cell_angle_beta   80.69988820
_cell_angle_gamma   64.48456150
_symmetry_Int_Tables_number   1
_chemical_formula_structural   InSi2P(H3C)8
_chemical_formula_sum   'In2 Si4 P2 H48 C16'
_cell_volume   819.49394252
_cell_formula_units_Z   2
loop_
 _symmetry_equiv_pos_site_id
 _symmetry_equiv_pos_as_xyz
  1  'x, y, z'
loop_
 _atom_site_type_symbol
 _atom_site_label
 _atom_site_symmetry_multiplicity
 _atom_site_fract_x
 _atom_site_fract_y
 _atom_site_fract_z
 _atom_site_occupancy
  In  In0  1  0.46152115  0.35263146  0.42758706  1
  In  In1  1  0.53847885  0.64736854  0.57241294  1
  Si  Si2  1  0.74963288  0.18998911  0.74072411  1
  Si  Si3  1  0.25036712  0.81001089  0.25927589  1
  Si  Si4  1  0.32291355  0.37182784  0.83585503  1
  Si  Si5  1  0.67708645  0.62817216  0.16414497  1
  P  P6  1  0.48222109  0.61966101  0.32781190  1
  P  P7  1  0.51777891  0.38033899  0.67218810  1
  H  H8  1  0.91670632  0.29874332  0.57423380  1
  H  H9  1  0.86705259  0.52486765  0.53078812  1
  H  H10  1  0.23440420  0.85043321  0.64983679  1
  H  H11  1  0.20835677  0.27368804  0.48417360  1
  H  H12  1  0.72916536  0.21722240  0.98999788  1
  H  H13  1  0.08329368  0.70125668  0.42576620  1
  H  H14  1  0.76559580  0.14956679  0.35016321  1
  H  H15  1  0.36651319  0.10082198  0.84256581  1
  H  H16  1  0.63348681  0.89917802  0.15743419  1
  H  H17  1  0.27083464  0.78277760  0.01000212  1
  H  H18  1  0.79164323  0.72631196  0.51582640  1
  H  H19  1  0.64937523  0.99268911  0.86180908  1
  H  H20  1  0.41513852  0.42912299  0.03112862  1
  H  H21  1  0.23024714  0.22691736  0.72060538  1
  H  H22  1  0.82773192  0.34569973  0.18268381  1
  H  H23  1  0.12243034  0.82897608  0.49867423  1
  H  H24  1  0.51736701  0.77073420  0.95976510  1
  H  H25  1  0.82931203  0.78755377  0.10042782  1
  H  H26  1  0.92664880  0.12907621  0.92326857  1
  H  H27  1  0.82092873  0.32957820  0.88065160  1
  H  H28  1  0.64220139  0.05045415  0.41069803  1
  H  H29  1  0.70401944  0.97773183  0.68490676  1
  H  H30  1  0.37141318  0.84073173  0.75861904  1
  H  H31  1  0.80538110  0.61030812  0.68165083  1
  H  H32  1  0.71522303  0.66163787  0.90909830  1
  H  H33  1  0.28477697  0.33836213  0.09090170  1
  H  H34  1  0.14942006  0.09178835  0.19615880  1
  H  H35  1  0.07335120  0.87092379  0.07673143  1
  H  H36  1  0.95002791  0.44456357  0.11824466  1
  H  H37  1  0.04997209  0.55543643  0.88175534  1
  H  H38  1  0.29598056  0.02226817  0.31509324  1
  H  H39  1  0.17068797  0.21244623  0.89957218  1
  H  H40  1  0.01808771  0.09932305  0.62633215  1
  H  H41  1  0.17226808  0.65430027  0.81731619  1
  H  H42  1  0.35779861  0.94954585  0.58930197  1
  H  H43  1  0.13294741  0.47513235  0.46921188  1
  H  H44  1  0.98191229  0.90067695  0.37366785  1
  H  H45  1  0.17907127  0.67042180  0.11934840  1
  H  H46  1  0.89446227  0.41661533  0.29740468  1
  H  H47  1  0.62858682  0.15926827  0.24138096  1
  H  H48  1  0.19461890  0.38969188  0.31834917  1
  H  H49  1  0.85057994  0.90821165  0.80384120  1
  H  H50  1  0.10553773  0.58338467  0.70259532  1
  H  H51  1  0.76975286  0.77308264  0.27939462  1
  H  H52  1  0.35062477  0.00731089  0.13819092  1
  H  H53  1  0.58486148  0.57087701  0.96887138  1
  H  H54  1  0.87756966  0.17102392  0.50132577  1
  H  H55  1  0.48263299  0.22926580  0.04023490  1
  C  C56  1  0.85313046  0.44078477  0.19445108  1
  C  C57  1  0.35190142  0.84508944  0.65198460  1
  C  C58  1  0.64809858  0.15491056  0.34801540  1
  C  C59  1  0.81059249  0.22016765  0.89885185  1
  C  C60  1  0.22012996  0.37689339  0.42510780  1
  C  C61  1  0.18940751  0.77983235  0.10114815  1
  C  C62  1  0.09592629  0.80960060  0.40345556  1
  C  C63  1  0.90407371  0.19039940  0.59654444  1
  C  C64  1  0.73179641  0.78692499  0.17707182  1
  C  C65  1  0.77987004  0.62310661  0.57489220  1
  C  C66  1  0.26820359  0.21307501  0.82292818  1
  C  C67  1  0.61688486  0.66046537  0.98446955  1
  C  C68  1  0.73602889  1.00003564  0.77621144  1
  C  C69  1  0.14686954  0.55921523  0.80554892  1
  C  C70  1  0.38311514  0.33953463  0.01553045  1
  C  C71  1  0.26397111  -0.00003564  0.22378856  1
