# generated using pymatgen
data_Nb3H12C4NCl9
_symmetry_space_group_name_H-M   'P 1'
_cell_length_a   11.14832340
_cell_length_b   11.14832374
_cell_length_c   8.91287283
_cell_angle_alpha   90.00000000
_cell_angle_beta   90.00000000
_cell_angle_gamma   119.99999898
_symmetry_Int_Tables_number   1
_chemical_formula_structural   Nb3H12C4NCl9
_chemical_formula_sum   'Nb6 H24 C8 N2 Cl18'
_cell_volume   959.32878697
_cell_formula_units_Z   2
loop_
 _symmetry_equiv_pos_site_id
 _symmetry_equiv_pos_as_xyz
  1  'x, y, z'
loop_
 _atom_site_type_symbol
 _atom_site_label
 _atom_site_symmetry_multiplicity
 _atom_site_fract_x
 _atom_site_fract_y
 _atom_site_fract_z
 _atom_site_occupancy
  Nb  Nb0  1  0.90850899  0.09149101  0.85961598  1
  Nb  Nb1  1  0.09149101  0.18298202  0.14038402  1
  Nb  Nb2  1  0.18298202  0.09149101  0.85961598  1
  Nb  Nb3  1  0.90850899  0.81701798  0.85961598  1
  Nb  Nb4  1  0.81701798  0.90850899  0.14038402  1
  Nb  Nb5  1  0.09149101  0.90850899  0.14038402  1
  H  H6  1  0.59396272  0.18792544  0.47137842  1
  H  H7  1  0.40603728  0.81207456  0.52862158  1
  H  H8  1  0.44054511  0.72027255  0.91681434  1
  H  H9  1  0.72027255  0.27972745  0.08318566  1
  H  H10  1  0.27972745  0.72027255  0.91681434  1
  H  H11  1  0.51360827  0.64741459  0.69299303  1
  H  H12  1  0.18792544  0.59396272  0.52862158  1
  H  H13  1  0.27972745  0.55945489  0.91681434  1
  H  H14  1  0.86619368  0.35258541  0.30700697  1
  H  H15  1  0.48639173  0.35258541  0.30700697  1
  H  H16  1  0.48639173  0.13380632  0.30700697  1
  H  H17  1  0.64741459  0.51360827  0.30700697  1
  H  H18  1  0.72027255  0.44054511  0.08318566  1
  H  H19  1  0.59396272  0.40603728  0.47137842  1
  H  H20  1  0.13380632  0.64741459  0.69299303  1
  H  H21  1  0.86619368  0.51360827  0.30700697  1
  H  H22  1  0.35258541  0.48639173  0.69299303  1
  H  H23  1  0.51360827  0.86619368  0.69299303  1
  H  H24  1  0.55945489  0.27972745  0.08318566  1
  H  H25  1  0.81207456  0.40603728  0.47137842  1
  H  H26  1  0.64741459  0.13380632  0.30700697  1
  H  H27  1  0.40603728  0.59396272  0.52862158  1
  H  H28  1  0.35258541  0.86619368  0.69299303  1
  H  H29  1  0.13380632  0.48639173  0.69299303  1
  C  C30  1  0.81362805  0.40681403  0.34849270  1
  C  C31  1  0.66666700  0.33333300  0.12332530  1
  C  C32  1  0.59318597  0.40681403  0.34849270  1
  C  C33  1  0.59318597  0.18637195  0.34849270  1
  C  C34  1  0.40681403  0.59318597  0.65150730  1
  C  C35  1  0.33333300  0.66666700  0.87667470  1
  C  C36  1  0.18637195  0.59318597  0.65150730  1
  C  C37  1  0.40681403  0.81362805  0.65150730  1
  N  N38  1  0.66666700  0.33333300  0.29193057  1
  N  N39  1  0.33333300  0.66666700  0.70806943  1
  Cl  Cl40  1  0.20535026  0.10267513  0.31642800  1
  Cl  Cl41  1  1.00000000  0.68949305  0.00000000  1
  Cl  Cl42  1  0.10267513  0.89732487  0.68357200  1
  Cl  Cl43  1  0.80211423  0.19788577  0.70007367  1
  Cl  Cl44  1  0.89732487  0.10267513  0.31642800  1
  Cl  Cl45  1  0.19788577  0.80211423  0.29992633  1
  Cl  Cl46  1  0.31050695  0.00000000  0.00000000  1
  Cl  Cl47  1  0.31050695  0.31050695  0.00000000  1
  Cl  Cl48  1  0.39577154  0.19788577  0.70007367  1
  Cl  Cl49  1  0.19788577  0.39577154  0.29992633  1
  Cl  Cl50  1  0.80211423  0.60422846  0.70007367  1
  Cl  Cl51  1  0.68949305  0.00000000  0.00000000  1
  Cl  Cl52  1  0.60422846  0.80211423  0.29992633  1
  Cl  Cl53  1  0.00000000  0.31050695  0.00000000  1
  Cl  Cl54  1  0.79464974  0.89732487  0.68357200  1
  Cl  Cl55  1  0.89732487  0.79464974  0.31642800  1
  Cl  Cl56  1  0.10267513  0.20535026  0.68357200  1
  Cl  Cl57  1  0.68949305  0.68949305  0.00000000  1
