# generated using pymatgen
data_AsSeS2N2ClF6
_symmetry_space_group_name_H-M   'P 1'
_cell_length_a   9.54553560
_cell_length_b   10.92929652
_cell_length_c   19.99068716
_cell_angle_alpha   90.00000000
_cell_angle_beta   90.00000000
_cell_angle_gamma   105.11814939
_symmetry_Int_Tables_number   1
_chemical_formula_structural   AsSeS2N2ClF6
_chemical_formula_sum   'As8 Se8 S16 N16 Cl8 F48'
_cell_volume   2013.36751860
_cell_formula_units_Z   8
loop_
 _symmetry_equiv_pos_site_id
 _symmetry_equiv_pos_as_xyz
  1  'x, y, z'
loop_
 _atom_site_type_symbol
 _atom_site_label
 _atom_site_symmetry_multiplicity
 _atom_site_fract_x
 _atom_site_fract_y
 _atom_site_fract_z
 _atom_site_occupancy
  As  As0  1  0.25237338  0.75208253  0.03496717  1
  As  As1  1  0.57017670  0.59972239  0.79228999  1
  As  As2  1  0.92982330  0.90027761  0.29228999  1
  As  As3  1  0.75237338  0.25208253  0.46503283  1
  As  As4  1  0.74762662  0.24791747  0.96503283  1
  As  As5  1  0.07017670  0.09972239  0.70771001  1
  As  As6  1  0.24762662  0.74791747  0.53496717  1
  As  As7  1  0.42982330  0.40027761  0.20771001  1
  Se  Se8  1  0.13793516  0.53085383  0.72169409  1
  Se  Se9  1  0.18246988  0.32386479  0.51523786  1
  Se  Se10  1  0.31753012  0.17613521  0.01523786  1
  Se  Se11  1  0.63793516  0.03085383  0.77830591  1
  Se  Se12  1  0.81753012  0.67613521  0.48476214  1
  Se  Se13  1  0.36206484  0.96914617  0.22169409  1
  Se  Se14  1  0.86206484  0.46914617  0.27830591  1
  Se  Se15  1  0.68246988  0.82386479  0.98476214  1
  S  S16  1  0.46128068  0.89907878  0.35044137  1
  S  S17  1  0.19647972  0.11273748  0.50732951  1
  S  S18  1  0.17814912  0.24592994  0.89686271  1
  S  S19  1  0.86802740  0.25669851  0.26423067  1
  S  S20  1  0.36802740  0.75669851  0.23576933  1
  S  S21  1  0.63197260  0.24330149  0.76423067  1
  S  S22  1  0.82185088  0.75407006  0.10313729  1
  S  S23  1  0.80352028  0.88726252  0.49267049  1
  S  S24  1  0.32185088  0.25407006  0.39686271  1
  S  S25  1  0.69647972  0.61273748  0.99267049  1
  S  S26  1  0.30352028  0.38726252  0.00732951  1
  S  S27  1  0.67814912  0.74592994  0.60313729  1
  S  S28  1  0.13197260  0.74330149  0.73576933  1
  S  S29  1  0.53871932  0.10092122  0.64955863  1
  S  S30  1  0.96128068  0.39907878  0.14955863  1
  S  S31  1  0.03871932  0.60092122  0.85044137  1
  N  N32  1  0.91666543  0.50414039  0.19426382  1
  N  N33  1  0.93103657  0.27249781  0.19011217  1
  N  N34  1  0.75959201  0.85736922  0.06540486  1
  N  N35  1  0.25959201  0.35736922  0.43459514  1
  N  N36  1  0.58333457  0.99585961  0.69426382  1
  N  N37  1  0.41666543  0.00414039  0.30573618  1
  N  N38  1  0.74040799  0.64263078  0.56540486  1
  N  N39  1  0.24040799  0.14263078  0.93459514  1
  N  N40  1  0.78211627  0.62789687  0.06190634  1
  N  N41  1  0.56896343  0.22750219  0.69011217  1
  N  N42  1  0.21788373  0.37210313  0.93809366  1
  N  N43  1  0.71788373  0.87210313  0.56190634  1
  N  N44  1  0.08333457  0.49585961  0.80573618  1
  N  N45  1  0.06896343  0.72750219  0.80988783  1
  N  N46  1  0.43103657  0.77249781  0.30988783  1
  N  N47  1  0.28211627  0.12789687  0.43809366  1
  Cl  Cl48  1  0.63511665  0.59763621  0.41342552  1
  Cl  Cl49  1  0.06351270  0.54125342  0.33969433  1
  Cl  Cl50  1  0.13511665  0.09763621  0.08657448  1
  Cl  Cl51  1  0.56351270  0.04125342  0.16030567  1
  Cl  Cl52  1  0.93648730  0.45874658  0.66030567  1
  Cl  Cl53  1  0.43648730  0.95874658  0.83969433  1
  Cl  Cl54  1  0.86488335  0.90236379  0.91342552  1
  Cl  Cl55  1  0.36488335  0.40236379  0.58657448  1
  F  F56  1  0.64630722  0.09208671  0.98592953  1
  F  F57  1  0.58021797  0.34189428  0.23238815  1
  F  F58  1  0.59345182  0.28394169  0.49771721  1
  F  F59  1  0.71500958  0.30803371  0.38420080  1
  F  F60  1  0.79351211  0.19556387  0.54367665  1
  F  F61  1  0.21929610  0.04255077  0.68207717  1
  F  F62  1  0.41978203  0.65810572  0.76761185  1
  F  F63  1  0.68929872  0.74655279  0.76828822  1
  F  F64  1  0.29351211  0.69556387  0.95632335  1
  F  F65  1  0.44821008  0.45571662  0.81716393  1
  F  F66  1  0.05178992  0.04428338  0.31716393  1
  F  F67  1  0.31070128  0.25344721  0.23171178  1
  F  F68  1  0.34848014  0.90266154  0.55765135  1
  F  F69  1  0.91301572  0.22131513  0.43132884  1
  F  F70  1  0.15151986  0.59733846  0.05765135  1
  F  F71  1  0.58001545  0.53901412  0.71073111  1
  F  F72  1  0.28070390  0.45744923  0.18207717  1
  F  F73  1  0.55178992  0.54428338  0.18283607  1
  F  F74  1  0.09345182  0.78394169  0.00228279  1
  F  F75  1  0.94821008  0.95571662  0.68283607  1
  F  F76  1  0.78499042  0.19196629  0.88420080  1
  F  F77  1  0.43944859  0.33768967  0.12524717  1
  F  F78  1  0.91998455  0.96098588  0.21073111  1
  F  F79  1  0.71929610  0.54255077  0.81792283  1
  F  F80  1  0.56055141  0.66231033  0.87475283  1
  F  F81  1  0.14630722  0.59208671  0.51407047  1
  F  F82  1  0.90654818  0.21605831  0.99771721  1
  F  F83  1  0.91978203  0.15810572  0.73238815  1
  F  F84  1  0.41301572  0.72131513  0.06867116  1
  F  F85  1  0.65151986  0.09733846  0.44234865  1
  F  F86  1  0.81070128  0.75344721  0.26828822  1
  F  F87  1  0.08698428  0.77868487  0.56867116  1
  F  F88  1  0.08021797  0.84189428  0.26761185  1
  F  F89  1  0.93944859  0.83768967  0.37475283  1
  F  F90  1  0.08001545  0.03901412  0.78926889  1
  F  F91  1  0.85369278  0.40791329  0.48592953  1
  F  F92  1  0.41998455  0.46098588  0.28926889  1
  F  F93  1  0.21500958  0.80803371  0.11579920  1
  F  F94  1  0.58698428  0.27868487  0.93132884  1
  F  F95  1  0.40654818  0.71605831  0.50228279  1
  F  F96  1  0.70648789  0.30443613  0.04367665  1
  F  F97  1  0.06055141  0.16231033  0.62524717  1
  F  F98  1  0.20648789  0.80443613  0.45632335  1
  F  F99  1  0.18929872  0.24655279  0.73171178  1
  F  F100  1  0.28499042  0.69196629  0.61579920  1
  F  F101  1  0.35369278  0.90791329  0.01407047  1
  F  F102  1  0.84848014  0.40266154  0.94234865  1
  F  F103  1  0.78070390  0.95744923  0.31792283  1
