# generated using pymatgen
data_NbCoO4
_symmetry_space_group_name_H-M   'P 1'
_cell_length_a   3.84059316
_cell_length_b   6.42264357
_cell_length_c   6.55160321
_cell_angle_alpha   107.03984855
_cell_angle_beta   89.99912468
_cell_angle_gamma   107.39647861
_symmetry_Int_Tables_number   1
_chemical_formula_structural   NbCoO4
_chemical_formula_sum   'Nb2 Co2 O8'
_cell_volume   146.76372370
_cell_formula_units_Z   2
loop_
 _symmetry_equiv_pos_site_id
 _symmetry_equiv_pos_as_xyz
  1  'x, y, z'
loop_
 _atom_site_type_symbol
 _atom_site_label
 _atom_site_symmetry_multiplicity
 _atom_site_fract_x
 _atom_site_fract_y
 _atom_site_fract_z
 _atom_site_occupancy
  Nb  Nb0  1  0.10475788  0.20953926  0.23801957  1
  Nb  Nb1  1  0.89524124  0.79045866  0.76197849  1
  Co  Co2  1  0.79590728  0.59181458  0.17190407  1
  Co  Co3  1  0.20409251  0.40818524  0.82809611  1
  O  O4  1  0.94289898  0.88592508  0.13621802  1
  O  O5  1  0.05710067  0.11407432  0.86378293  1
  O  O6  1  0.73720326  0.47439852  0.86273798  1
  O  O7  1  0.14158184  0.28324334  0.52761505  1
  O  O8  1  0.64403687  0.28812028  0.20162577  1
  O  O9  1  0.85841969  0.71676049  0.47238512  1
  O  O10  1  0.26279656  0.52560127  0.13726179  1
  O  O11  1  0.35596322  0.71187996  0.79837611  1
