# generated using pymatgen
data_Cr2(Hg2O3)3
_symmetry_space_group_name_H-M   'P 1'
_cell_length_a   7.65129540
_cell_length_b   8.23085277
_cell_length_c   20.82414072
_cell_angle_alpha   90.00000000
_cell_angle_beta   90.00000000
_cell_angle_gamma   90.00000000
_symmetry_Int_Tables_number   1
_chemical_formula_structural   Cr2(Hg2O3)3
_chemical_formula_sum   'Cr8 Hg24 O36'
_cell_volume   1311.43537004
_cell_formula_units_Z   4
loop_
 _symmetry_equiv_pos_site_id
 _symmetry_equiv_pos_as_xyz
  1  'x, y, z'
loop_
 _atom_site_type_symbol
 _atom_site_label
 _atom_site_symmetry_multiplicity
 _atom_site_fract_x
 _atom_site_fract_y
 _atom_site_fract_z
 _atom_site_occupancy
  Cr  Cr0  1  0.97504291  0.58688067  0.44102788  1
  Cr  Cr1  1  0.29894068  0.18980656  0.29836552  1
  Cr  Cr2  1  0.79894068  0.31019344  0.70163448  1
  Cr  Cr3  1  0.52495709  0.41311933  0.94102788  1
  Cr  Cr4  1  0.47504291  0.91311933  0.55897212  1
  Cr  Cr5  1  0.02495709  0.08688067  0.05897212  1
  Cr  Cr6  1  0.20105932  0.81019344  0.79836552  1
  Cr  Cr7  1  0.70105932  0.68980656  0.20163448  1
  Hg  Hg8  1  0.96445405  0.93597204  0.63990222  1
  Hg  Hg9  1  0.09666073  0.78504947  0.30547101  1
  Hg  Hg10  1  0.59104165  0.85321871  0.37964279  1
  Hg  Hg11  1  0.47417428  0.97739836  0.95436529  1
  Hg  Hg12  1  0.09104165  0.64678129  0.62035721  1
  Hg  Hg13  1  0.70910757  0.81335654  0.80572603  1
  Hg  Hg14  1  0.97417428  0.52260164  0.04563471  1
  Hg  Hg15  1  0.52582572  0.47739836  0.54563471  1
  Hg  Hg16  1  0.79089243  0.18664346  0.30572603  1
  Hg  Hg17  1  0.03554595  0.43597204  0.86009778  1
  Hg  Hg18  1  0.12172789  0.24576639  0.53605237  1
  Hg  Hg19  1  0.20910757  0.68664346  0.19427397  1
  Hg  Hg20  1  0.53554595  0.06402796  0.13990222  1
  Hg  Hg21  1  0.40895835  0.35321871  0.12035721  1
  Hg  Hg22  1  0.62172789  0.25423361  0.46394763  1
  Hg  Hg23  1  0.59666073  0.71495053  0.69452899  1
  Hg  Hg24  1  0.29089243  0.31335654  0.69427397  1
  Hg  Hg25  1  0.46445405  0.56402796  0.36009778  1
  Hg  Hg26  1  0.87827211  0.74576639  0.96394763  1
  Hg  Hg27  1  0.90333927  0.28504947  0.19452899  1
  Hg  Hg28  1  0.90895835  0.14678129  0.87964279  1
  Hg  Hg29  1  0.40333927  0.21495053  0.80547101  1
  Hg  Hg30  1  0.37827211  0.75423361  0.03605237  1
  Hg  Hg31  1  0.02582572  0.02260164  0.45436529  1
  O  O32  1  0.40655310  0.30555906  0.35404196  1
  O  O33  1  0.61501947  0.39997058  0.01251706  1
  O  O34  1  0.48006091  0.71706366  0.59543716  1
  O  O35  1  0.88498053  0.60002942  0.51251706  1
  O  O36  1  0.90655310  0.19444094  0.64595804  1
  O  O37  1  0.43976970  0.05947928  0.26733517  1
  O  O38  1  0.13415569  0.08564801  0.33331633  1
  O  O39  1  0.82480315  0.01704685  0.05161820  1
  O  O40  1  0.98006091  0.78293634  0.40456284  1
  O  O41  1  0.22960937  0.42255294  0.60248789  1
  O  O42  1  0.77039063  0.92255294  0.89751211  1
  O  O43  1  0.36584431  0.91435199  0.83331633  1
  O  O44  1  0.67519685  0.98295315  0.55161820  1
  O  O45  1  0.27952492  0.69388253  0.74056258  1
  O  O46  1  0.38498053  0.89997058  0.48748294  1
  O  O47  1  0.27039063  0.57744706  0.10248789  1
  O  O48  1  0.35739460  0.03706342  0.60383426  1
  O  O49  1  0.85739460  0.46293658  0.39616574  1
  O  O50  1  0.22047508  0.30611747  0.24056258  1
  O  O51  1  0.93976970  0.44052072  0.73266483  1
  O  O52  1  0.77952492  0.80611747  0.25943742  1
  O  O53  1  0.32480315  0.48295315  0.94838180  1
  O  O54  1  0.11501947  0.10002942  0.98748294  1
  O  O55  1  0.59344690  0.80555906  0.14595804  1
  O  O56  1  0.01993909  0.28293634  0.09543716  1
  O  O57  1  0.56023030  0.55947928  0.23266483  1
  O  O58  1  0.64260540  0.53706342  0.89616574  1
  O  O59  1  0.17519685  0.51704685  0.44838180  1
  O  O60  1  0.72047508  0.19388253  0.75943742  1
  O  O61  1  0.06023030  0.94052072  0.76733517  1
  O  O62  1  0.51993909  0.21706366  0.90456284  1
  O  O63  1  0.86584431  0.58564801  0.16668367  1
  O  O64  1  0.14260540  0.96293658  0.10383426  1
  O  O65  1  0.09344690  0.69444094  0.85404196  1
  O  O66  1  0.63415569  0.41435199  0.66668367  1
  O  O67  1  0.72960937  0.07744706  0.39751211  1
