# generated using pymatgen
data_NpN2
_symmetry_space_group_name_H-M   'P 1'
_cell_length_a   4.90730422
_cell_length_b   4.90733439
_cell_length_c   3.47987611
_cell_angle_alpha   90.00138219
_cell_angle_beta   89.99976225
_cell_angle_gamma   90.02058463
_symmetry_Int_Tables_number   1
_chemical_formula_structural   NpN2
_chemical_formula_sum   'Np2 N4'
_cell_volume   83.80161507
_cell_formula_units_Z   2
loop_
 _symmetry_equiv_pos_site_id
 _symmetry_equiv_pos_as_xyz
  1  'x, y, z'
loop_
 _atom_site_type_symbol
 _atom_site_label
 _atom_site_symmetry_multiplicity
 _atom_site_fract_x
 _atom_site_fract_y
 _atom_site_fract_z
 _atom_site_occupancy
  Np  Np0  1  0.00000201  0.00000141  -0.00000565  1
  Np  Np1  1  0.49999977  0.49999975  0.50000088  1
  N  N2  1  0.31801786  0.31802468  -0.00000059  1
  N  N3  1  0.68198278  0.68197680  0.00000294  1
  N  N4  1  0.81802873  0.18197888  0.49999401  1
  N  N5  1  0.18197286  0.81802249  0.50001441  1
