# generated using pymatgen
data_BaYMn2O6
_symmetry_space_group_name_H-M   'P 1'
_cell_length_a   5.58193405
_cell_length_b   5.58141359
_cell_length_c   7.85294561
_cell_angle_alpha   89.78221931
_cell_angle_beta   89.42607777
_cell_angle_gamma   88.31792332
_symmetry_Int_Tables_number   1
_chemical_formula_structural   BaYMn2O6
_chemical_formula_sum   'Ba2 Y2 Mn4 O12'
_cell_volume   244.53996897
_cell_formula_units_Z   2
loop_
 _symmetry_equiv_pos_site_id
 _symmetry_equiv_pos_as_xyz
  1  'x, y, z'
loop_
 _atom_site_type_symbol
 _atom_site_label
 _atom_site_symmetry_multiplicity
 _atom_site_fract_x
 _atom_site_fract_y
 _atom_site_fract_z
 _atom_site_occupancy
  Ba  Ba0  1  0.00590283  0.51368464  0.49644795  1
  Ba  Ba1  1  0.50081535  0.00610009  0.50767146  1
  Y  Y2  1  0.02179645  0.52568766  0.99472525  1
  Y  Y3  1  0.48394867  0.99330867  0.00870246  1
  Mn  Mn4  1  0.00076432  0.00979780  0.24342914  1
  Mn  Mn5  1  0.50423443  0.50702058  0.24335699  1
  Mn  Mn6  1  0.00245542  0.01250380  0.76043934  1
  Mn  Mn7  1  0.50559118  0.50994189  0.76040093  1
  O  O8  1  0.05721557  0.94809198  0.00187781  1
  O  O9  1  0.44916237  0.57146347  0.00197556  1
  O  O10  1  0.28496732  0.79103894  0.26122102  1
  O  O11  1  0.78079183  0.72923073  0.21948407  1
  O  O12  1  0.22368340  0.28408183  0.21104565  1
  O  O13  1  0.72265056  0.22870143  0.19292240  1
  O  O14  1  0.98594366  0.03304633  0.50203472  1
  O  O15  1  0.52021105  0.48645746  0.50184379  1
  O  O16  1  0.22339659  0.73024911  0.74232887  1
  O  O17  1  0.72668685  0.78871889  0.78453488  1
  O  O18  1  0.28096014  0.23600736  0.79282217  1
  O  O19  1  0.78282201  0.28986734  0.81073554  1
