# generated using pymatgen
data_Tb4Zn5Ge6
_symmetry_space_group_name_H-M   'P 1'
_cell_length_a   4.26697808
_cell_length_b   9.50275579
_cell_length_c   15.84671705
_cell_angle_alpha   90.00000000
_cell_angle_beta   90.00000000
_cell_angle_gamma   102.97422285
_symmetry_Int_Tables_number   1
_chemical_formula_structural   Tb4Zn5Ge6
_chemical_formula_sum   'Tb8 Zn10 Ge12'
_cell_volume   626.14984745
_cell_formula_units_Z   2
loop_
 _symmetry_equiv_pos_site_id
 _symmetry_equiv_pos_as_xyz
  1  'x, y, z'
loop_
 _atom_site_type_symbol
 _atom_site_label
 _atom_site_symmetry_multiplicity
 _atom_site_fract_x
 _atom_site_fract_y
 _atom_site_fract_z
 _atom_site_occupancy
  Tb  Tb0  1  0.67958017  0.35916033  0.50805234  1
  Tb  Tb1  1  0.46706559  0.93413118  0.82122862  1
  Tb  Tb2  1  0.32769723  0.65539446  0.36661097  1
  Tb  Tb3  1  0.32041983  0.64083967  0.00805234  1
  Tb  Tb4  1  0.53293441  0.06586882  0.32122862  1
  Tb  Tb5  1  0.53329673  0.06659347  0.05073811  1
  Tb  Tb6  1  0.46670327  0.93340653  0.55073811  1
  Tb  Tb7  1  0.67230277  0.34460554  0.86661097  1
  Zn  Zn8  1  0.92520037  0.85040073  0.10452717  1
  Zn  Zn9  1  0.20986423  0.41972846  0.67802923  1
  Zn  Zn10  1  0.64691263  0.29382525  0.18269889  1
  Zn  Zn11  1  0.35308737  0.70617475  0.68269889  1
  Zn  Zn12  1  0.93137368  0.86274736  0.26828567  1
  Zn  Zn13  1  0.79013577  0.58027154  0.17802923  1
  Zn  Zn14  1  0.06862632  0.13725264  0.76828567  1
  Zn  Zn15  1  0.15562219  0.31124438  0.32368610  1
  Zn  Zn16  1  0.84437781  0.68875562  0.82368610  1
  Zn  Zn17  1  0.07479963  0.14959927  0.60452717  1
  Ge  Ge18  1  0.93206345  0.86412690  0.94994667  1
  Ge  Ge19  1  0.27574417  0.55148834  0.82183783  1
  Ge  Ge20  1  0.93007979  0.86015958  0.42618065  1
  Ge  Ge21  1  0.38438788  0.76877576  0.18624945  1
  Ge  Ge22  1  0.94087573  0.88175146  0.68637783  1
  Ge  Ge23  1  0.05912427  0.11824854  0.18637783  1
  Ge  Ge24  1  0.61561212  0.23122424  0.68624945  1
  Ge  Ge25  1  0.28841204  0.57682407  0.54445046  1
  Ge  Ge26  1  0.71158796  0.42317593  0.04445046  1
  Ge  Ge27  1  0.06992021  0.13984042  0.92618065  1
  Ge  Ge28  1  0.72425583  0.44851166  0.32183783  1
  Ge  Ge29  1  0.06793655  0.13587310  0.44994667  1
