# generated using pymatgen
data_SnHg2(SBr)2
_symmetry_space_group_name_H-M   'P 1'
_cell_length_a   9.03509360
_cell_length_b   10.46548765
_cell_length_c   14.59545480
_cell_angle_alpha   111.61352568
_cell_angle_beta   90.00000000
_cell_angle_gamma   90.00000000
_symmetry_Int_Tables_number   1
_chemical_formula_structural   SnHg2(SBr)2
_chemical_formula_sum   'Sn4 Hg8 S8 Br8'
_cell_volume   1283.06220089
_cell_formula_units_Z   4
loop_
 _symmetry_equiv_pos_site_id
 _symmetry_equiv_pos_as_xyz
  1  'x, y, z'
loop_
 _atom_site_type_symbol
 _atom_site_label
 _atom_site_symmetry_multiplicity
 _atom_site_fract_x
 _atom_site_fract_y
 _atom_site_fract_z
 _atom_site_occupancy
  Sn  Sn0  1  0.62230930  0.68227041  0.53488964  1
  Sn  Sn1  1  0.12230930  0.81772959  0.96511036  1
  Sn  Sn2  1  0.87769070  0.18227041  0.03488964  1
  Sn  Sn3  1  0.37769070  0.31772959  0.46511036  1
  Hg  Hg4  1  0.17252426  0.93138200  0.38459269  1
  Hg  Hg5  1  0.32747574  0.43138200  0.88459269  1
  Hg  Hg6  1  0.42953002  0.86559998  0.18397483  1
  Hg  Hg7  1  0.92953002  0.63440002  0.31602517  1
  Hg  Hg8  1  0.82747574  0.06861800  0.61540731  1
  Hg  Hg9  1  0.67252426  0.56861800  0.11540731  1
  Hg  Hg10  1  0.57046998  0.13440002  0.81602517  1
  Hg  Hg11  1  0.07046998  0.36559998  0.68397483  1
  S  S12  1  0.96888354  0.19582902  0.54225804  1
  S  S13  1  0.53111646  0.69582902  0.04225804  1
  S  S14  1  0.81517521  0.44461740  0.19173180  1
  S  S15  1  0.68482479  0.94461740  0.69173180  1
  S  S16  1  0.03111646  0.80417098  0.45774196  1
  S  S17  1  0.31517521  0.05538260  0.30826820  1
  S  S18  1  0.18482479  0.55538260  0.80826820  1
  S  S19  1  0.46888354  0.30417098  0.95774196  1
  Br  Br20  1  0.94554272  0.26740459  0.88864857  1
  Br  Br21  1  0.65547336  0.36700941  0.42287670  1
  Br  Br22  1  0.55445728  0.76740459  0.38864857  1
  Br  Br23  1  0.15547336  0.13299059  0.07712330  1
  Br  Br24  1  0.84452664  0.86700941  0.92287670  1
  Br  Br25  1  0.34452664  0.63299059  0.57712330  1
  Br  Br26  1  0.05445728  0.73259541  0.11135143  1
  Br  Br27  1  0.44554272  0.23259541  0.61135143  1
