# generated using pymatgen
data_Cu2BiPO6
_symmetry_space_group_name_H-M   'P 1'
_cell_length_a   5.17404924
_cell_length_b   7.88532363
_cell_length_c   12.03175454
_cell_angle_alpha   90.04746652
_cell_angle_beta   90.00005303
_cell_angle_gamma   90.00004566
_symmetry_Int_Tables_number   1
_chemical_formula_structural   Cu2BiPO6
_chemical_formula_sum   'Cu8 Bi4 P4 O24'
_cell_volume   490.88401918
_cell_formula_units_Z   4
loop_
 _symmetry_equiv_pos_site_id
 _symmetry_equiv_pos_as_xyz
  1  'x, y, z'
loop_
 _atom_site_type_symbol
 _atom_site_label
 _atom_site_symmetry_multiplicity
 _atom_site_fract_x
 _atom_site_fract_y
 _atom_site_fract_z
 _atom_site_occupancy
  Cu  Cu0  1  0.24999575  0.68347377  0.93071509  1
  Cu  Cu1  1  0.74999771  0.81210328  0.58848738  1
  Cu  Cu2  1  0.75000317  0.18341882  0.56907471  1
  Cu  Cu3  1  0.74999851  0.68801571  0.08847921  1
  Cu  Cu4  1  0.24999970  0.31193723  0.91156616  1
  Cu  Cu5  1  0.24999947  0.18796691  0.41146222  1
  Cu  Cu6  1  0.25000365  0.81665102  0.43093227  1
  Cu  Cu7  1  0.74999995  0.31652338  0.06917717  1
  Bi  Bi8  1  0.75000008  0.52749643  0.38878084  1
  Bi  Bi9  1  0.24999973  0.47252790  0.61123063  1
  Bi  Bi10  1  0.75000065  0.97245346  0.88879436  1
  Bi  Bi11  1  0.24999928  0.02748179  0.11119388  1
  P  P12  1  0.24999945  0.03737154  0.69707758  1
  P  P13  1  0.75000081  0.96263518  0.30290653  1
  P  P14  1  0.24999951  0.46284515  0.19712091  1
  P  P15  1  0.75000071  0.53718598  0.80289649  1
  O  O16  1  0.74999934  0.41962053  0.70182224  1
  O  O17  1  -0.00001046  0.50677648  0.87467504  1
  O  O18  1  0.25000048  0.27469524  0.23291919  1
  O  O19  1  0.00003793  0.99319152  0.37468621  1
  O  O20  1  0.74999965  0.77456649  0.26700588  1
  O  O21  1  0.99766012  0.82299084  0.00631314  1
  O  O22  1  0.50001709  0.49320613  0.12532815  1
  O  O23  1  0.50001109  0.50677637  0.87467452  1
  O  O24  1  0.00219411  0.32298118  0.49369634  1
  O  O25  1  0.75000015  0.72532745  0.76707567  1
  O  O26  1  0.25000014  0.22541440  0.73298296  1
  O  O27  1  -0.00001720  0.49320604  0.12532878  1
  O  O28  1  0.75000024  0.08030640  0.20191689  1
  O  O29  1  0.49780547  0.32298114  0.49369607  1
  O  O30  1  0.50007789  0.00681907  0.62531677  1
  O  O31  1  0.49775885  0.17696746  0.99371014  1
  O  O32  1  0.50234019  0.82299158  0.00631353  1
  O  O33  1  0.50223997  0.67703718  0.50632329  1
  O  O34  1  0.25000031  0.91967559  0.79810074  1
  O  O35  1  0.00224120  0.17696777  0.99371072  1
  O  O36  1  0.25000012  0.58036474  0.29818184  1
  O  O37  1  -0.00007741  0.00681913  0.62531713  1
  O  O38  1  0.99775997  0.67703792  0.50632332  1
  O  O39  1  0.49996259  0.99319182  0.37468604  1
