# generated using pymatgen
data_Si2H25C10N
_symmetry_space_group_name_H-M   'P 1'
_cell_length_a   9.08485180
_cell_length_b   13.12877799
_cell_length_c   13.44101080
_cell_angle_alpha   90.00000000
_cell_angle_beta   109.75375393
_cell_angle_gamma   90.00000000
_symmetry_Int_Tables_number   1
_chemical_formula_structural   Si2H25C10N
_chemical_formula_sum   'Si8 H100 C40 N4'
_cell_volume   1508.81056221
_cell_formula_units_Z   4
loop_
 _symmetry_equiv_pos_site_id
 _symmetry_equiv_pos_as_xyz
  1  'x, y, z'
loop_
 _atom_site_type_symbol
 _atom_site_label
 _atom_site_symmetry_multiplicity
 _atom_site_fract_x
 _atom_site_fract_y
 _atom_site_fract_z
 _atom_site_occupancy
  Si  Si0  1  0.05392500  0.91830683  0.21819571  1
  Si  Si1  1  0.41194478  0.42914294  0.50752898  1
  Si  Si2  1  0.91194478  0.07085706  0.00752898  1
  Si  Si3  1  0.58805522  0.57085706  0.49247102  1
  Si  Si4  1  0.08805522  0.92914294  0.99247102  1
  Si  Si5  1  0.55392500  0.58169317  0.71819571  1
  Si  Si6  1  0.94607500  0.08169317  0.78180429  1
  Si  Si7  1  0.44607500  0.41830683  0.28180429  1
  H  H8  1  0.24985228  0.15629183  0.93456001  1
  H  H9  1  0.80045995  0.60967290  0.94029532  1
  H  H10  1  0.19954005  0.39032710  0.05970468  1
  H  H11  1  0.14740290  0.50997778  0.44093923  1
  H  H12  1  0.85259710  0.49002222  0.55906077  1
  H  H13  1  0.57895221  0.75910322  0.51064983  1
  H  H14  1  0.71273480  0.91830382  0.77166623  1
  H  H15  1  0.98834432  0.81148030  0.40401044  1
  H  H16  1  0.75014772  0.84370817  0.06543999  1
  H  H17  1  0.89821304  0.78729213  0.92191747  1
  H  H18  1  0.82010525  0.73847733  0.33745309  1
  H  H19  1  0.31650058  0.24466383  0.85870234  1
  H  H20  1  0.56367906  0.72599581  0.38013293  1
  H  H21  1  0.35259710  0.00997778  0.05906077  1
  H  H22  1  0.21293854  0.51730083  0.69006337  1
  H  H23  1  0.74985228  0.34370817  0.43456001  1
  H  H24  1  0.70909682  0.99020566  0.50005470  1
  H  H25  1  0.32010525  0.76152267  0.83745309  1
  H  H26  1  0.34641892  0.91288751  0.96532505  1
  H  H27  1  0.71293854  0.98269917  0.19006337  1
  H  H28  1  0.43632094  0.27400419  0.61986707  1
  H  H29  1  0.68843927  0.47244003  0.17104703  1
  H  H30  1  0.28726520  0.08169618  0.22833377  1
  H  H31  1  0.15184246  0.15542511  0.40132190  1
  H  H32  1  0.15358108  0.41288751  0.53467495  1
  H  H33  1  0.67989475  0.23847733  0.16254691  1
  H  H34  1  0.12403408  0.92999969  0.45905078  1
  H  H35  1  0.89073580  0.40536036  0.86583890  1
  H  H36  1  0.13622681  0.26653986  0.88011954  1
  H  H37  1  0.81650058  0.25533617  0.35870234  1
  H  H38  1  0.29090318  0.00979434  0.49994530  1
  H  H39  1  0.66462905  0.66950299  0.72801196  1
  H  H40  1  0.54810257  0.34977030  0.76348996  1
  H  H41  1  0.69954005  0.10967290  0.55970468  1
  H  H42  1  0.37596592  0.42999969  0.04094922  1
  H  H43  1  0.36119154  0.87938512  0.09573212  1
  H  H44  1  0.18349942  0.74466383  0.64129766  1
  H  H45  1  0.60709382  0.02382540  0.69777400  1
  H  H46  1  0.93632094  0.22599581  0.11986707  1
  H  H47  1  0.60926420  0.90536036  0.63416110  1
  H  H48  1  0.95189743  0.84977030  0.73651004  1
  H  H49  1  0.81156073  0.97244003  0.32895297  1
  H  H50  1  0.16462905  0.83049701  0.22801196  1
  H  H51  1  0.63622681  0.23346014  0.38011954  1
  H  H52  1  0.84815754  0.84457489  0.59867810  1
  H  H53  1  0.79090318  0.49020566  0.99994530  1
  H  H54  1  0.33537095  0.33049701  0.27198804  1
  H  H55  1  0.25014772  0.65629183  0.56543999  1
  H  H56  1  0.07895221  0.74089678  0.01064983  1
  H  H57  1  0.65582021  0.88811438  0.26410588  1
  H  H58  1  0.47276794  0.41278536  0.85355424  1
  H  H59  1  0.30045995  0.89032710  0.44029532  1
  H  H60  1  0.84641892  0.58711249  0.46532505  1
  H  H61  1  0.78726520  0.41830382  0.72833377  1
  H  H62  1  0.34417979  0.11188562  0.73589412  1
  H  H63  1  0.34815754  0.65542511  0.09867810  1
  H  H64  1  0.45189743  0.65022970  0.23651004  1
  H  H65  1  0.99795054  0.71450684  0.31409137  1
  H  H66  1  0.62403408  0.57000031  0.95905078  1
  H  H67  1  0.65358108  0.08711249  0.03467495  1
  H  H68  1  0.21273480  0.58169618  0.27166623  1
  H  H69  1  0.49795054  0.78549316  0.81409137  1
  H  H70  1  0.60178696  0.28729213  0.57808253  1
  H  H71  1  0.06367906  0.77400419  0.88013293  1
  H  H72  1  0.00204946  0.28549316  0.68590863  1
  H  H73  1  0.31156073  0.52755997  0.82895297  1
  H  H74  1  0.97276794  0.08721464  0.35355424  1
  H  H75  1  0.28706146  0.01730083  0.80993663  1
  H  H76  1  0.83537095  0.16950299  0.77198804  1
  H  H77  1  0.51165568  0.31148030  0.09598956  1
  H  H78  1  0.92104779  0.25910322  0.98935017  1
  H  H79  1  0.42104779  0.24089678  0.48935017  1
  H  H80  1  0.86377319  0.73346014  0.11988046  1
  H  H81  1  0.39290618  0.97617460  0.30222600  1
  H  H82  1  0.64740290  0.99002222  0.94093923  1
  H  H83  1  0.84417979  0.38811438  0.23589412  1
  H  H84  1  0.02723206  0.91278536  0.64644576  1
  H  H85  1  0.04810257  0.15022970  0.26348996  1
  H  H86  1  0.48834432  0.68851970  0.90401044  1
  H  H87  1  0.39073580  0.09463964  0.36583890  1
  H  H88  1  0.13880846  0.37938512  0.40426788  1
  H  H89  1  0.89290618  0.52382540  0.80222600  1
  H  H90  1  0.01165568  0.18851970  0.59598956  1
  H  H91  1  0.20909682  0.50979434  0.00005470  1
  H  H92  1  0.68349942  0.75533617  0.14129766  1
  H  H93  1  0.39821304  0.71270787  0.42191747  1
  H  H94  1  0.10926420  0.59463964  0.13416110  1
  H  H95  1  0.10178696  0.21270787  0.07808253  1
  H  H96  1  0.15582021  0.61188562  0.76410588  1
  H  H97  1  0.10709382  0.47617460  0.19777400  1
  H  H98  1  0.52723206  0.58721464  0.14644576  1
  H  H99  1  0.78706146  0.48269917  0.30993663  1
  H  H100  1  0.86119154  0.62061488  0.59573212  1
  H  H101  1  0.65184246  0.34457489  0.90132190  1
  H  H102  1  0.18843927  0.02755997  0.67104703  1
  H  H103  1  0.50204946  0.21450684  0.18590863  1
  H  H104  1  0.17989475  0.26152267  0.66254691  1
  H  H105  1  0.87596592  0.07000031  0.54094922  1
  H  H106  1  0.63880846  0.12061488  0.90426788  1
  H  H107  1  0.36377319  0.76653986  0.61988046  1
  C  C108  1  0.41983118  0.60581120  0.16295500  1
  C  C109  1  0.77563167  0.04381075  0.56217683  1
  C  C110  1  0.31903777  0.04195346  0.30475580  1
  C  C111  1  0.92383977  0.77526059  0.32811715  1
  C  C112  1  0.18096223  0.54195346  0.19524420  1
  C  C113  1  0.42383977  0.72473941  0.82811715  1
  C  C114  1  0.80690367  0.56604993  0.53149686  1
  C  C115  1  0.30690367  0.93395007  0.03149686  1
  C  C116  1  0.67221583  0.49017316  0.82967360  1
  C  C117  1  0.97444583  0.20415638  0.05331899  1
  C  C118  1  0.27563167  0.45618925  0.06217683  1
  C  C119  1  0.37284495  0.64751829  0.73625550  1
  C  C120  1  0.91983118  0.89418880  0.66295500  1
  C  C121  1  0.62715505  0.35248171  0.26374450  1
  C  C122  1  0.87284495  0.85248171  0.23625550  1
  C  C123  1  0.68096223  0.95804654  0.69524420  1
  C  C124  1  0.81903777  0.45804654  0.80475580  1
  C  C125  1  0.08016882  0.10581120  0.33704500  1
  C  C126  1  0.32778417  0.50982684  0.17032640  1
  C  C127  1  0.75747694  0.92855961  0.25595834  1
  C  C128  1  0.25747694  0.57144039  0.75595834  1
  C  C129  1  0.22436833  0.95618925  0.43782317  1
  C  C130  1  0.74252306  0.42855961  0.24404166  1
  C  C131  1  0.21183848  0.20715270  0.86542758  1
  C  C132  1  0.07616023  0.22473941  0.67188285  1
  C  C133  1  0.19309633  0.43395007  0.46850314  1
  C  C134  1  0.82778417  0.99017316  0.67032640  1
  C  C135  1  0.12715505  0.14751829  0.76374450  1
  C  C136  1  0.47444583  0.29584362  0.55331899  1
  C  C137  1  0.02555417  0.79584362  0.94668101  1
  C  C138  1  0.52555417  0.70415638  0.44668101  1
  C  C139  1  0.72436833  0.54381075  0.93782317  1
  C  C140  1  0.28816152  0.70715270  0.63457242  1
  C  C141  1  0.58016882  0.39418880  0.83704500  1
  C  C142  1  0.69309633  0.06604993  0.96850314  1
  C  C143  1  0.24252306  0.07144039  0.74404166  1
  C  C144  1  0.57616023  0.27526059  0.17188285  1
  C  C145  1  0.17221583  0.00982684  0.32967360  1
  C  C146  1  0.78816152  0.79284730  0.13457242  1
  C  C147  1  0.71183848  0.29284730  0.36542758  1
  N  N148  1  0.98469550  0.02799947  0.90776516  1
  N  N149  1  0.51530450  0.52799947  0.59223484  1
  N  N150  1  0.48469550  0.47200053  0.40776516  1
  N  N151  1  0.01530450  0.97200053  0.09223484  1
