# generated using pymatgen
data_CdH8C2Br3N
_symmetry_space_group_name_H-M   'P 1'
_cell_length_a   7.07392140
_cell_length_b   9.13633620
_cell_length_c   14.02375408
_cell_angle_alpha   90.00000000
_cell_angle_beta   90.00000000
_cell_angle_gamma   97.25118508
_symmetry_Int_Tables_number   1
_chemical_formula_structural   CdH8C2Br3N
_chemical_formula_sum   'Cd4 H32 C8 Br12 N4'
_cell_volume   899.10266664
_cell_formula_units_Z   4
loop_
 _symmetry_equiv_pos_site_id
 _symmetry_equiv_pos_as_xyz
  1  'x, y, z'
loop_
 _atom_site_type_symbol
 _atom_site_label
 _atom_site_symmetry_multiplicity
 _atom_site_fract_x
 _atom_site_fract_y
 _atom_site_fract_z
 _atom_site_occupancy
  Cd  Cd0  1  0.97764917  0.78279249  0.25387829  1
  Cd  Cd1  1  0.02235083  0.21720751  0.74612171  1
  Cd  Cd2  1  0.52235083  0.21720751  0.75387829  1
  Cd  Cd3  1  0.47764917  0.78279249  0.24612171  1
  H  H4  1  0.97489214  0.36703922  0.08065871  1
  H  H5  1  0.28054038  0.55169972  0.58331299  1
  H  H6  1  0.33755423  0.77779652  0.48826336  1
  H  H7  1  0.71945962  0.44830028  0.41668701  1
  H  H8  1  0.53650576  0.68778963  0.90916029  1
  H  H9  1  0.40979616  0.87296306  0.58547329  1
  H  H10  1  0.03650576  0.68778963  0.59083971  1
  H  H11  1  0.94412003  0.14270371  0.47558782  1
  H  H12  1  0.87669880  0.65794399  0.81704903  1
  H  H13  1  0.37669880  0.65794399  0.68295097  1
  H  H14  1  0.47489214  0.36703922  0.41934129  1
  H  H15  1  0.90979616  0.87296306  0.91452671  1
  H  H16  1  0.52510786  0.63296078  0.58065871  1
  H  H17  1  0.09020384  0.12703694  0.08547329  1
  H  H18  1  0.44412003  0.14270371  0.02441218  1
  H  H19  1  0.16244577  0.22220348  0.98826336  1
  H  H20  1  0.12330120  0.34205601  0.18295097  1
  H  H21  1  0.89311903  0.14111690  0.34994786  1
  H  H22  1  0.83755423  0.77779652  0.01173664  1
  H  H23  1  0.62330120  0.34205601  0.31704903  1
  H  H24  1  0.39311903  0.14111690  0.15005214  1
  H  H25  1  0.78054038  0.55169972  0.91668701  1
  H  H26  1  0.96349424  0.31221037  0.40916029  1
  H  H27  1  0.55587997  0.85729629  0.97558782  1
  H  H28  1  0.05587997  0.85729629  0.52441218  1
  H  H29  1  0.10688097  0.85888310  0.65005214  1
  H  H30  1  0.21945962  0.44830028  0.08331299  1
  H  H31  1  0.59020384  0.12703694  0.41452671  1
  H  H32  1  0.60688097  0.85888310  0.84994786  1
  H  H33  1  0.02510786  0.63296078  0.91934129  1
  H  H34  1  0.66244577  0.22220348  0.51173664  1
  H  H35  1  0.46349424  0.31221037  0.09083971  1
  C  C36  1  0.11890025  0.35358740  0.10526973  1
  C  C37  1  0.88495234  0.20166866  0.41684337  1
  C  C38  1  0.11504766  0.79833134  0.58315663  1
  C  C39  1  0.61890025  0.35358740  0.39473027  1
  C  C40  1  0.88109975  0.64641260  0.89473027  1
  C  C41  1  0.38109975  0.64641260  0.60526973  1
  C  C42  1  0.61504766  0.79833134  0.91684337  1
  C  C43  1  0.38495234  0.20166866  0.08315663  1
  Br  Br44  1  0.78052190  0.00014095  0.16784893  1
  Br  Br45  1  0.69270348  0.58321344  0.16090622  1
  Br  Br46  1  0.19270348  0.58321344  0.33909378  1
  Br  Br47  1  0.71947810  0.99985905  0.66784893  1
  Br  Br48  1  0.21947810  0.99985905  0.83215107  1
  Br  Br49  1  0.72014532  0.78952446  0.40468256  1
  Br  Br50  1  0.30729652  0.41678656  0.83909378  1
  Br  Br51  1  0.27985468  0.21047554  0.59531744  1
  Br  Br52  1  0.22014532  0.78952446  0.09531744  1
  Br  Br53  1  0.80729652  0.41678656  0.66090622  1
  Br  Br54  1  0.28052190  0.00014095  0.33215107  1
  Br  Br55  1  0.77985468  0.21047554  0.90468256  1
  N  N56  1  0.68043450  0.21798259  0.43847700  1
  N  N57  1  0.81956550  0.78201741  0.93847700  1
  N  N58  1  0.18043450  0.21798259  0.06152300  1
  N  N59  1  0.31956550  0.78201741  0.56152300  1
