# generated using pymatgen
data_TiInAu2
_symmetry_space_group_name_H-M   'P 1'
_cell_length_a   4.71815848
_cell_length_b   4.71807701
_cell_length_c   4.71698833
_cell_angle_alpha   60.03385796
_cell_angle_beta   60.04694877
_cell_angle_gamma   60.04280010
_symmetry_Int_Tables_number   1
_chemical_formula_structural   TiInAu2
_chemical_formula_sum   'Ti1 In1 Au2'
_cell_volume   74.31778328
_cell_formula_units_Z   1
loop_
 _symmetry_equiv_pos_site_id
 _symmetry_equiv_pos_as_xyz
  1  'x, y, z'
loop_
 _atom_site_type_symbol
 _atom_site_label
 _atom_site_symmetry_multiplicity
 _atom_site_fract_x
 _atom_site_fract_y
 _atom_site_fract_z
 _atom_site_occupancy
  Ti  Ti0  1  0.49999740  0.50000166  0.49998737  1
  In  In1  1  0.00000856  0.99997426  0.99998901  1
  Au  Au2  1  0.24994784  0.24998852  0.24998862  1
  Au  Au3  1  0.75004620  0.75003557  0.75003499  1
