# generated using pymatgen
data_Ca2SnS4
_symmetry_space_group_name_H-M   'P 1'
_cell_length_a   7.91522405
_cell_length_b   8.32653889
_cell_length_c   10.94653387
_cell_angle_alpha   90.00000000
_cell_angle_beta   110.27037632
_cell_angle_gamma   90.00000000
_symmetry_Int_Tables_number   1
_chemical_formula_structural   Ca2SnS4
_chemical_formula_sum   'Ca8 Sn4 S16'
_cell_volume   676.76635487
_cell_formula_units_Z   4
loop_
 _symmetry_equiv_pos_site_id
 _symmetry_equiv_pos_as_xyz
  1  'x, y, z'
loop_
 _atom_site_type_symbol
 _atom_site_label
 _atom_site_symmetry_multiplicity
 _atom_site_fract_x
 _atom_site_fract_y
 _atom_site_fract_z
 _atom_site_occupancy
  Ca  Ca0  1  0.18094824  0.68756481  0.14729290  1
  Ca  Ca1  1  0.31905176  0.18756481  0.35270710  1
  Ca  Ca2  1  0.81905176  0.31243519  0.85270710  1
  Ca  Ca3  1  0.68094824  0.81243519  0.64729290  1
  Ca  Ca4  1  0.76579713  0.62639563  0.32766261  1
  Ca  Ca5  1  0.73420287  0.12639563  0.17233739  1
  Ca  Ca6  1  0.23420287  0.37360437  0.67233739  1
  Ca  Ca7  1  0.26579713  0.87360437  0.82766261  1
  Sn  Sn8  1  0.68184632  0.68138114  0.98453398  1
  Sn  Sn9  1  0.81815368  0.18138114  0.51546602  1
  Sn  Sn10  1  0.31815368  0.31861886  0.01546602  1
  Sn  Sn11  1  0.18184632  0.81861886  0.48453398  1
  S  S12  1  0.12912095  0.52798785  0.88867510  1
  S  S13  1  0.37087905  0.02798785  0.61132490  1
  S  S14  1  0.87087905  0.47201215  0.11132490  1
  S  S15  1  0.62912095  0.97201215  0.38867510  1
  S  S16  1  0.49765635  0.60717122  0.76598890  1
  S  S17  1  0.00234365  0.10717122  0.73401110  1
  S  S18  1  0.50234365  0.39282878  0.23401110  1
  S  S19  1  0.99765635  0.89282878  0.26598890  1
  S  S20  1  0.36072029  0.62646366  0.42592462  1
  S  S21  1  0.13927971  0.12646366  0.07407538  1
  S  S22  1  0.63927971  0.37353634  0.57407538  1
  S  S23  1  0.86072029  0.87353634  0.92592462  1
  S  S24  1  0.00163493  0.68728794  0.59517082  1
  S  S25  1  0.49836507  0.18728794  0.90482918  1
  S  S26  1  0.99836507  0.31271206  0.40482918  1
  S  S27  1  0.50163493  0.81271206  0.09517082  1
