# generated using pymatgen
data_ReH3O5
_symmetry_space_group_name_H-M   'P 1'
_cell_length_a   7.34678426
_cell_length_b   7.27513887
_cell_length_c   7.69279235
_cell_angle_alpha   128.67440795
_cell_angle_beta   132.33763874
_cell_angle_gamma   74.02372193
_symmetry_Int_Tables_number   1
_chemical_formula_structural   ReH3O5
_chemical_formula_sum   'Re2 H6 O10'
_cell_volume   229.60440947
_cell_formula_units_Z   2
loop_
 _symmetry_equiv_pos_site_id
 _symmetry_equiv_pos_as_xyz
  1  'x, y, z'
loop_
 _atom_site_type_symbol
 _atom_site_label
 _atom_site_symmetry_multiplicity
 _atom_site_fract_x
 _atom_site_fract_y
 _atom_site_fract_z
 _atom_site_occupancy
  Re  Re0  1  0.38218713  0.11595351  0.24744801  1
  Re  Re1  1  0.64703272  0.88537455  0.75770662  1
  H  H2  1  0.77833481  0.67945426  0.13990833  1
  H  H3  1  0.04546702  0.31697307  0.73937814  1
  H  H4  1  0.22488495  0.53256460  0.88893539  1
  H  H5  1  0.75573820  0.39185492  0.05555767  1
  H  H6  1  0.81065996  0.70819250  0.48728182  1
  H  H7  1  0.04325733  0.62442044  0.32965397  1
  O  O8  1  0.86125328  0.59940195  0.23522221  1
  O  O9  1  0.15234457  0.35675846  0.72875985  1
  O  O10  1  0.64755024  0.36361012  0.58749749  1
  O  O11  1  0.31229459  0.05944277  0.94943196  1
  O  O12  1  0.62580252  0.17780081  0.85136347  1
  O  O13  1  0.83408131  0.73511205  0.64569538  1
  O  O14  1  0.33522645  0.71159913  0.45513755  1
  O  O15  1  0.76071308  0.88229315  0.03740026  1
  O  O16  1  0.45067810  0.85487964  0.23089726  1
  O  O17  1  0.11792372  0.18623307  0.21958860  1
