# generated using pymatgen
data_Co(PO3)4
_symmetry_space_group_name_H-M   'P 1'
_cell_length_a   7.43188588
_cell_length_b   7.43129488
_cell_length_c   9.91849553
_cell_angle_alpha   85.45862343
_cell_angle_beta   66.20624301
_cell_angle_gamma   110.84620454
_symmetry_Int_Tables_number   1
_chemical_formula_structural   Co(PO3)4
_chemical_formula_sum   'Co2 P8 O24'
_cell_volume   452.24202900
_cell_formula_units_Z   2
loop_
 _symmetry_equiv_pos_site_id
 _symmetry_equiv_pos_as_xyz
  1  'x, y, z'
loop_
 _atom_site_type_symbol
 _atom_site_label
 _atom_site_symmetry_multiplicity
 _atom_site_fract_x
 _atom_site_fract_y
 _atom_site_fract_z
 _atom_site_occupancy
  Co  Co0  1  0.00000000  0.50000000  0.00000000  1
  Co  Co1  1  0.00000000  0.00000000  0.50000000  1
  P  P2  1  0.26253286  0.73141825  0.46414267  1
  P  P3  1  0.52118450  0.69907683  0.81433066  1
  P  P4  1  0.30444954  0.27328661  0.96412154  1
  P  P5  1  0.98660465  0.66444011  0.31433666  1
  P  P6  1  0.73746714  0.26858175  0.53585733  1
  P  P7  1  0.47881550  0.30092317  0.18566934  1
  P  P8  1  0.69555046  0.72671339  0.03587846  1
  P  P9  1  0.01339535  0.33555989  0.68566334  1
  O  O10  1  0.40749494  0.20722483  0.06369575  1
  O  O11  1  0.49116353  0.52221874  0.15470119  1
  O  O12  1  0.03775103  0.15030057  0.64562672  1
  O  O13  1  0.17686857  0.64580749  0.34533205  1
  O  O14  1  0.70409194  0.31663851  0.14562937  1
  O  O15  1  0.82313143  0.35419251  0.65466795  1
  O  O16  1  0.29590806  0.68336149  0.85437063  1
  O  O17  1  0.50111578  0.86832371  0.37733357  1
  O  O18  1  0.59250506  0.79277517  0.93630425  1
  O  O19  1  0.50883647  0.47778126  0.84529881  1
  O  O20  1  0.69241802  0.81207429  0.65603596  1
  O  O21  1  0.22905311  0.52884663  0.56374157  1
  O  O22  1  0.96805689  0.34845623  0.84399036  1
  O  O23  1  0.77094689  0.47115337  0.43625843  1
  O  O24  1  0.25433456  0.12147483  0.87733141  1
  O  O25  1  0.12154270  0.32270051  0.06470657  1
  O  O26  1  0.74566544  0.87852517  0.12266859  1
  O  O27  1  0.49888422  0.13167629  0.62266643  1
  O  O28  1  0.03194311  0.65154377  0.15600964  1
  O  O29  1  0.87845730  0.67729949  0.93529343  1
  O  O30  1  0.96224897  0.84969943  0.35437328  1
  O  O31  1  0.88747921  0.18627807  0.43528130  1
  O  O32  1  0.11252079  0.81372193  0.56471870  1
  O  O33  1  0.30758198  0.18792571  0.34396404  1
