# generated using pymatgen
data_Sb
_symmetry_space_group_name_H-M   'P 1'
_cell_length_a   9.23688407
_cell_length_b   5.35118356
_cell_length_c   4.34376419
_cell_angle_alpha   89.95427837
_cell_angle_beta   159.96418201
_cell_angle_gamma   101.25602886
_symmetry_Int_Tables_number   1
_chemical_formula_structural   Sb
_chemical_formula_sum   Sb2
_cell_volume   60.56478472
_cell_formula_units_Z   2
loop_
 _symmetry_equiv_pos_site_id
 _symmetry_equiv_pos_as_xyz
  1  'x, y, z'
loop_
 _atom_site_type_symbol
 _atom_site_label
 _atom_site_symmetry_multiplicity
 _atom_site_fract_x
 _atom_site_fract_y
 _atom_site_fract_z
 _atom_site_occupancy
  Sb  Sb0  1  0.18185994  0.75703741  0.62470057  1
  Sb  Sb1  1  0.79563506  0.28410759  0.35797743  1
