# generated using pymatgen
data_Ti3PO7
_symmetry_space_group_name_H-M   'P 1'
_cell_length_a   5.25929042
_cell_length_b   5.25929041
_cell_length_c   5.25929032
_cell_angle_alpha   101.11131526
_cell_angle_beta   101.11131535
_cell_angle_gamma   101.11131718
_symmetry_Int_Tables_number   1
_chemical_formula_structural   Ti3PO7
_chemical_formula_sum   'Ti3 P1 O7'
_cell_volume   136.02024335
_cell_formula_units_Z   1
loop_
 _symmetry_equiv_pos_site_id
 _symmetry_equiv_pos_as_xyz
  1  'x, y, z'
loop_
 _atom_site_type_symbol
 _atom_site_label
 _atom_site_symmetry_multiplicity
 _atom_site_fract_x
 _atom_site_fract_y
 _atom_site_fract_z
 _atom_site_occupancy
  Ti  Ti0  1  0.16767994  0.53488807  0.53487792  1
  Ti  Ti1  1  0.53488807  0.53487792  0.16767994  1
  Ti  Ti2  1  0.53487792  0.16767994  0.53488807  1
  P  P3  1  0.99513122  0.99513122  0.99513122  1
  O  O4  1  0.14411865  0.83027710  0.83025309  1
  O  O5  1  0.39674757  0.78367492  0.39673521  1
  O  O6  1  0.22116631  0.22116631  0.22116631  1
  O  O7  1  0.83027710  0.83025309  0.14411865  1
  O  O8  1  0.39673521  0.39674757  0.78367492  1
  O  O9  1  0.78367492  0.39673521  0.39674757  1
  O  O10  1  0.83025309  0.14411865  0.83027710  1
