# generated using pymatgen
data_La2Cu2O5
_symmetry_space_group_name_H-M   'P 1'
_cell_length_a   3.77186612
_cell_length_b   7.22140206
_cell_length_c   26.95882586
_cell_angle_alpha   87.23989716
_cell_angle_beta   85.98853592
_cell_angle_gamma   74.86116568
_symmetry_Int_Tables_number   1
_chemical_formula_structural   La2Cu2O5
_chemical_formula_sum   'La12 Cu12 O30'
_cell_volume   706.74811178
_cell_formula_units_Z   6
loop_
 _symmetry_equiv_pos_site_id
 _symmetry_equiv_pos_as_xyz
  1  'x, y, z'
loop_
 _atom_site_type_symbol
 _atom_site_label
 _atom_site_symmetry_multiplicity
 _atom_site_fract_x
 _atom_site_fract_y
 _atom_site_fract_z
 _atom_site_occupancy
  La  La0  1  0.88164496  0.65346679  0.59723757  1
  La  La1  1  0.86681708  0.32724212  0.86538843  1
  La  La2  1  0.11835504  0.34653321  0.40276243  1
  La  La3  1  0.59326846  0.00831608  0.76861460  1
  La  La4  1  0.40673154  0.99168392  0.23138540  1
  La  La5  1  0.12980086  0.50831608  0.26861460  1
  La  La6  1  0.44055236  0.82724212  0.36538843  1
  La  La7  1  0.55944764  0.17275788  0.63461157  1
  La  La8  1  0.63234931  0.84653321  0.90276243  1
  La  La9  1  0.36765069  0.15346679  0.09723757  1
  La  La10  1  0.13318292  0.67275788  0.13461157  1
  La  La11  1  0.87019914  0.49168392  0.73138540  1
  Cu  Cu12  1  0.06817721  0.16097721  0.97121606  1
  Cu  Cu13  1  0.26972399  0.51489472  0.96018316  1
  Cu  Cu14  1  0.73027601  0.48510528  0.03981684  1
  Cu  Cu15  1  0.93182279  0.83902279  0.02878394  1
  Cu  Cu16  1  0.24480187  0.98510528  0.53981684  1
  Cu  Cu17  1  0.75519813  0.01489472  0.46018316  1
  Cu  Cu18  1  0.70037048  0.33902279  0.52878394  1
  Cu  Cu19  1  0.77273163  0.16698563  0.31906215  1
  Cu  Cu20  1  0.22726837  0.83301437  0.68093785  1
  Cu  Cu21  1  0.24122059  0.66698563  0.81906215  1
  Cu  Cu22  1  0.75877941  0.33301437  0.18093785  1
  Cu  Cu23  1  0.29962952  0.66097721  0.47121606  1
  O  O24  1  0.25875527  0.33461186  0.18100099  1
  O  O25  1  0.76656140  0.25000000  0.25000000  1
  O  O26  1  0.96754625  0.83372093  0.29111157  1
  O  O27  1  0.27436812  0.16538814  0.31899901  1
  O  O28  1  0.23343860  0.75000000  0.75000000  1
  O  O29  1  0.60149664  0.81951501  0.08739168  1
  O  O30  1  0.03344425  0.00681558  0.83741929  1
  O  O31  1  0.00840333  0.68048499  0.41260832  1
  O  O32  1  0.37767913  0.49318442  0.66258071  1
  O  O33  1  0.10243352  0.87994240  0.96094434  1
  O  O34  1  0.25730659  0.58620071  0.88905486  1
  O  O35  1  0.99159667  0.31951501  0.58739168  1
  O  O36  1  0.28731878  0.95095334  0.46405022  1
  O  O37  1  0.79767766  0.45095334  0.96405022  1
  O  O38  1  0.72563188  0.83461186  0.68100099  1
  O  O39  1  0.44332026  0.62005760  0.53905566  1
  O  O40  1  0.23256216  0.91379929  0.61094514  1
  O  O41  1  0.71268122  0.04904666  0.53594978  1
  O  O42  1  0.62232087  0.50681558  0.33741929  1
  O  O43  1  0.74124473  0.66538814  0.81899901  1
  O  O44  1  0.55667974  0.37994240  0.46094434  1
  O  O45  1  0.20232234  0.54904666  0.03594978  1
  O  O46  1  0.76743784  0.08620071  0.38905486  1
  O  O47  1  0.74269341  0.41379929  0.11094514  1
  O  O48  1  0.40762124  0.33372093  0.79111157  1
  O  O49  1  0.03245375  0.16627907  0.70888843  1
  O  O50  1  0.89756648  0.12005760  0.03905566  1
  O  O51  1  0.59237876  0.66627907  0.20888843  1
  O  O52  1  0.39850336  0.18048499  0.91260832  1
  O  O53  1  0.96655575  0.99318442  0.16258071  1
