# generated using pymatgen
data_VP2Cl7O4
_symmetry_space_group_name_H-M   'P 1'
_cell_length_a   8.41264969
_cell_length_b   8.56916366
_cell_length_c   10.74807751
_cell_angle_alpha   92.05221699
_cell_angle_beta   103.31110909
_cell_angle_gamma   105.71443681
_symmetry_Int_Tables_number   1
_chemical_formula_structural   VP2Cl7O4
_chemical_formula_sum   'V2 P4 Cl14 O8'
_cell_volume   721.82733719
_cell_formula_units_Z   2
loop_
 _symmetry_equiv_pos_site_id
 _symmetry_equiv_pos_as_xyz
  1  'x, y, z'
loop_
 _atom_site_type_symbol
 _atom_site_label
 _atom_site_symmetry_multiplicity
 _atom_site_fract_x
 _atom_site_fract_y
 _atom_site_fract_z
 _atom_site_occupancy
  V  V0  1  0.39816827  0.34789023  0.19248119  1
  V  V1  1  0.60183173  0.65210977  0.80751881  1
  P  P2  1  0.33467360  0.64617420  0.00210394  1
  P  P3  1  0.20736114  0.25377443  0.68547187  1
  P  P4  1  0.79263886  0.74622557  0.31452813  1
  P  P5  1  0.66532640  0.35382580  0.99789606  1
  Cl  Cl6  1  0.57511816  0.25108458  0.33664515  1
  Cl  Cl7  1  0.99323301  0.68687639  0.41928038  1
  Cl  Cl8  1  0.64072634  0.16888880  0.86878819  1
  Cl  Cl9  1  0.00676699  0.31312361  0.58071962  1
  Cl  Cl10  1  0.35927366  0.83111120  0.13121181  1
  Cl  Cl11  1  0.28295218  0.13348930  0.55848319  1
  Cl  Cl12  1  0.11456814  0.63040849  0.87467936  1
  Cl  Cl13  1  0.88543186  0.36959151  0.12532064  1
  Cl  Cl14  1  0.32374403  0.48117359  0.34095359  1
  Cl  Cl15  1  0.89278636  0.91499918  0.20876713  1
  Cl  Cl16  1  0.67625597  0.51882641  0.65904641  1
  Cl  Cl17  1  0.71704782  0.86651070  0.44151681  1
  Cl  Cl18  1  0.10721364  0.08500082  0.79123287  1
  Cl  Cl19  1  0.42488184  0.74891542  0.66335485  1
  O  O20  1  0.68772096  0.51097431  0.93589589  1
  O  O21  1  0.48108025  0.69700130  0.93912607  1
  O  O22  1  0.65754207  0.60649204  0.23668376  1
  O  O23  1  0.76379682  0.81007494  0.84708802  1
  O  O24  1  0.23620318  0.18992506  0.15291198  1
  O  O25  1  0.34245793  0.39350796  0.76331624  1
  O  O26  1  0.31227904  0.48902569  0.06410411  1
  O  O27  1  0.51891975  0.30299870  0.06087393  1
