# generated using pymatgen
data_CeCuSO
_symmetry_space_group_name_H-M   'P 1'
_cell_length_a   3.90973053
_cell_length_b   3.90975412
_cell_length_c   8.52197252
_cell_angle_alpha   90.00053869
_cell_angle_beta   90.00022161
_cell_angle_gamma   90.00038454
_symmetry_Int_Tables_number   1
_chemical_formula_structural   CeCuSO
_chemical_formula_sum   'Ce2 Cu2 S2 O2'
_cell_volume   130.26759671
_cell_formula_units_Z   2
loop_
 _symmetry_equiv_pos_site_id
 _symmetry_equiv_pos_as_xyz
  1  'x, y, z'
loop_
 _atom_site_type_symbol
 _atom_site_label
 _atom_site_symmetry_multiplicity
 _atom_site_fract_x
 _atom_site_fract_y
 _atom_site_fract_z
 _atom_site_occupancy
  Ce  Ce0  1  0.74999843  0.74999545  0.85055275  1
  Ce  Ce1  1  0.25000409  0.25000564  0.14943808  1
  Cu  Cu2  1  0.75000160  0.24999754  0.50000496  1
  Cu  Cu3  1  0.24999882  0.75000087  0.49999780  1
  S  S4  1  0.74999938  0.74999892  0.33432424  1
  S  S5  1  0.25000072  0.25000054  0.66566368  1
  O  O6  1  0.74999899  0.25000034  0.00000937  1
  O  O7  1  0.24999797  0.75000070  0.00000912  1
