# generated using pymatgen
data_Nd12Cu6O25
_symmetry_space_group_name_H-M   'P 1'
_cell_length_a   3.77375665
_cell_length_b   8.82276155
_cell_length_c   17.47937846
_cell_angle_alpha   81.96499468
_cell_angle_beta   83.80290989
_cell_angle_gamma   77.65105963
_symmetry_Int_Tables_number   1
_chemical_formula_structural   Nd12Cu6O25
_chemical_formula_sum   'Nd12 Cu6 O25'
_cell_volume   561.09310937
_cell_formula_units_Z   1
loop_
 _symmetry_equiv_pos_site_id
 _symmetry_equiv_pos_as_xyz
  1  'x, y, z'
loop_
 _atom_site_type_symbol
 _atom_site_label
 _atom_site_symmetry_multiplicity
 _atom_site_fract_x
 _atom_site_fract_y
 _atom_site_fract_z
 _atom_site_occupancy
  Nd  Nd0  1  0.83072284  0.91685580  0.42169853  1
  Nd  Nd1  1  0.55241289  0.82425223  0.07092200  1
  Nd  Nd2  1  0.03157206  0.67243543  0.26442044  1
  Nd  Nd3  1  0.34841789  0.06976647  0.23339775  1
  Nd  Nd4  1  0.14310805  0.31664431  0.39713959  1
  Nd  Nd5  1  0.76102926  0.57566720  0.90227428  1
  Nd  Nd6  1  0.65158211  0.93023353  0.76660225  1
  Nd  Nd7  1  0.85689195  0.68335569  0.60286041  1
  Nd  Nd8  1  0.96842794  0.32756457  0.73557956  1
  Nd  Nd9  1  0.44758711  0.17574777  0.92907800  1
  Nd  Nd10  1  0.23897074  0.42433280  0.09772572  1
  Nd  Nd11  1  0.16927716  0.08314420  0.57830147  1
  Cu  Cu12  1  0.10394864  0.87295219  0.91915052  1
  Cu  Cu13  1  0.89605136  0.12704781  0.08084948  1
  Cu  Cu14  1  0.48376772  0.60646098  0.42600358  1
  Cu  Cu15  1  0.31053461  0.62697270  0.75195809  1
  Cu  Cu16  1  0.68946539  0.37302730  0.24804191  1
  Cu  Cu17  1  0.51623228  0.39353902  0.57399642  1
  O  O18  1  0.81204001  0.62328278  0.75263719  1
  O  O19  1  0.18795999  0.37671722  0.24736281  1
  O  O20  1  0.57062573  0.16855369  0.69019485  1
  O  O21  1  0.77758474  0.13112722  0.31370330  1
  O  O22  1  0.39645851  0.12505655  0.08202643  1
  O  O23  1  0.24986310  0.05738035  0.44289346  1
  O  O24  1  0.83079114  0.34936735  0.98905036  1
  O  O25  1  0.21061537  0.73622048  0.84254878  1
  O  O26  1  0.22241526  0.86887278  0.68629670  1
  O  O27  1  0.01824610  0.37431563  0.58919216  1
  O  O28  1  0.62308074  0.59507545  0.15876306  1
  O  O29  1  0.42937427  0.83144631  0.30980515  1
  O  O30  1  0.41414886  0.50816245  0.66353983  1
  O  O31  1  0.58585114  0.49183755  0.33646017  1
  O  O32  1  0.02814522  0.10959475  0.83411482  1
  O  O33  1  0.78938463  0.26377952  0.15745122  1
  O  O34  1  0.75013690  0.94261965  0.55710654  1
  O  O35  1  0.38550585  0.71533606  0.51365225  1
  O  O36  1  0.00000000  0.00000000  0.00000000  1
  O  O37  1  0.60354149  0.87494345  0.91797357  1
  O  O38  1  0.97185478  0.89040525  0.16588518  1
  O  O39  1  0.37691926  0.40492455  0.84123694  1
  O  O40  1  0.61449415  0.28466394  0.48634775  1
  O  O41  1  0.98175390  0.62568437  0.41080784  1
  O  O42  1  0.16920886  0.65063265  0.01094964  1
