# generated using pymatgen
data_Fe2CuAs2(HO5)2
_symmetry_space_group_name_H-M   'P 1'
_cell_length_a   5.23109105
_cell_length_b   5.39686904
_cell_length_c   7.86148141
_cell_angle_alpha   104.64237889
_cell_angle_beta   105.29725290
_cell_angle_gamma   102.23644537
_symmetry_Int_Tables_number   1
_chemical_formula_structural   Fe2CuAs2(HO5)2
_chemical_formula_sum   'Fe2 Cu1 As2 H2 O10'
_cell_volume   197.67798779
_cell_formula_units_Z   1
loop_
 _symmetry_equiv_pos_site_id
 _symmetry_equiv_pos_as_xyz
  1  'x, y, z'
loop_
 _atom_site_type_symbol
 _atom_site_label
 _atom_site_symmetry_multiplicity
 _atom_site_fract_x
 _atom_site_fract_y
 _atom_site_fract_z
 _atom_site_occupancy
  Fe  Fe0  1  0.81810218  0.39995636  0.80580992  1
  Fe  Fe1  1  0.18189782  0.60004364  0.19419008  1
  Cu  Cu2  1  0.00000000  0.00000000  0.00000000  1
  As  As3  1  0.29493343  0.78780090  0.67490527  1
  As  As4  1  0.70506657  0.21219910  0.32509473  1
  H  H5  1  0.22874901  0.34318304  0.62004267  1
  H  H6  1  0.77125099  0.65681696  0.37995733  1
  O  O7  1  0.57415541  0.05370780  0.80621502  1
  O  O8  1  0.42584459  0.94629220  0.19378498  1
  O  O9  1  0.40740240  0.49173747  0.66723612  1
  O  O10  1  0.59259760  0.50826253  0.33276388  1
  O  O11  1  0.03512339  0.75292048  0.77213200  1
  O  O12  1  0.96487661  0.24707952  0.22786800  1
  O  O13  1  0.15239229  0.78195720  0.45067280  1
  O  O14  1  0.84760771  0.21804280  0.54932720  1
  O  O15  1  0.13580743  0.33113295  0.95895397  1
  O  O16  1  0.86419257  0.66886705  0.04104603  1
