# generated using pymatgen
data_Li5VP2O9
_symmetry_space_group_name_H-M   'P 1'
_cell_length_a   7.71654925
_cell_length_b   7.71654932
_cell_length_c   7.71654932
_cell_angle_alpha   105.38788296
_cell_angle_beta   105.38788308
_cell_angle_gamma   117.98858344
_symmetry_Int_Tables_number   1
_chemical_formula_structural   Li5VP2O9
_chemical_formula_sum   'Li10 V2 P4 O18'
_cell_volume   347.76823166
_cell_formula_units_Z   2
loop_
 _symmetry_equiv_pos_site_id
 _symmetry_equiv_pos_as_xyz
  1  'x, y, z'
loop_
 _atom_site_type_symbol
 _atom_site_label
 _atom_site_symmetry_multiplicity
 _atom_site_fract_x
 _atom_site_fract_y
 _atom_site_fract_z
 _atom_site_occupancy
  Li  Li0  1  0.25000000  0.75000000  0.50000000  1
  Li  Li1  1  0.25000000  0.02532687  0.77532687  1
  Li  Li2  1  0.47467313  0.25000000  0.22467313  1
  Li  Li3  1  0.02532687  0.25000000  0.77532687  1
  Li  Li4  1  0.75000000  0.52532687  0.77532687  1
  Li  Li5  1  0.52532687  0.75000000  0.77532687  1
  Li  Li6  1  0.75000000  0.25000000  0.50000000  1
  Li  Li7  1  0.75000000  0.97467313  0.22467313  1
  Li  Li8  1  0.25000000  0.47467313  0.22467313  1
  Li  Li9  1  0.97467313  0.75000000  0.22467313  1
  V  V10  1  0.50000000  0.50000000  0.00000000  1
  V  V11  1  0.00000000  0.00000000  0.00000000  1
  P  P12  1  0.79300153  0.29300153  0.08600306  1
  P  P13  1  0.20699847  0.70699847  0.91399694  1
  P  P14  1  0.29300153  0.20699847  0.50000000  1
  P  P15  1  0.70699847  0.79300153  0.50000000  1
  O  O16  1  0.87247042  0.81865051  0.69112093  1
  O  O17  1  0.20005476  0.98049555  0.50000000  1
  O  O18  1  0.70005476  0.20005476  0.21955920  1
  O  O19  1  0.37247042  0.68134949  0.05381991  1
  O  O20  1  0.31865051  0.37247042  0.69112093  1
  O  O21  1  0.01950445  0.51950445  0.21955920  1
  O  O22  1  0.79994524  0.01950445  0.50000000  1
  O  O23  1  0.12752958  0.18134949  0.30887907  1
  O  O24  1  0.18134949  0.87247042  0.05381991  1
  O  O25  1  0.51950445  0.29994524  0.50000000  1
  O  O26  1  0.75000000  0.75000000  0.00000000  1
  O  O27  1  0.29994524  0.79994524  0.78044080  1
  O  O28  1  0.68134949  0.62752958  0.30887907  1
  O  O29  1  0.81865051  0.12752958  0.94618009  1
  O  O30  1  0.25000000  0.25000000  0.00000000  1
  O  O31  1  0.98049555  0.48049555  0.78044080  1
  O  O32  1  0.48049555  0.70005476  0.50000000  1
  O  O33  1  0.62752958  0.31865051  0.94618009  1
