# generated using pymatgen
data_P(HO)3
_symmetry_space_group_name_H-M   'P 1'
_cell_length_a   7.53575307
_cell_length_b   12.17646878
_cell_length_c   6.96328102
_cell_angle_alpha   89.69184615
_cell_angle_beta   90.00000000
_cell_angle_gamma   90.00000000
_symmetry_Int_Tables_number   1
_chemical_formula_structural   P(HO)3
_chemical_formula_sum   'P8 H24 O24'
_cell_volume   638.93350099
_cell_formula_units_Z   8
loop_
 _symmetry_equiv_pos_site_id
 _symmetry_equiv_pos_as_xyz
  1  'x, y, z'
loop_
 _atom_site_type_symbol
 _atom_site_label
 _atom_site_symmetry_multiplicity
 _atom_site_fract_x
 _atom_site_fract_y
 _atom_site_fract_z
 _atom_site_occupancy
  P  P0  1  0.47788184  0.38105745  0.02180010  1
  P  P1  1  0.51269127  0.63581971  0.53585649  1
  P  P2  1  0.02211816  0.88105745  0.52180010  1
  P  P3  1  0.98730873  0.13581971  0.03585649  1
  P  P4  1  0.54824559  0.10480854  0.46315522  1
  P  P5  1  0.41993445  0.87221343  0.94669679  1
  P  P6  1  0.95175441  0.60480854  0.96315522  1
  P  P7  1  0.08006555  0.37221343  0.44669679  1
  H  H8  1  0.77081184  0.45465389  0.98171518  1
  H  H9  1  0.78455489  0.31343755  0.92254342  1
  H  H10  1  0.23017224  0.68475548  0.44804277  1
  H  H11  1  0.72918816  0.95465389  0.48171518  1
  H  H12  1  0.71544511  0.81343755  0.42254342  1
  H  H13  1  0.26982776  0.18475548  0.94804277  1
  H  H14  1  0.45360200  0.27157740  0.74697076  1
  H  H15  1  0.57031933  0.71867541  0.23697666  1
  H  H16  1  0.04639800  0.77157740  0.24697076  1
  H  H17  1  0.92968067  0.21867541  0.73697666  1
  H  H18  1  0.29440373  0.52045196  0.95854984  1
  H  H19  1  0.48177083  0.47367216  0.40230961  1
  H  H20  1  0.20559627  0.02045196  0.45854984  1
  H  H21  1  0.01822917  0.97367216  0.90230961  1
  H  H22  1  0.44280793  0.27348599  0.43161256  1
  H  H23  1  0.53679212  0.70625694  0.88603561  1
  H  H24  1  0.05719207  0.77348599  0.93161256  1
  H  H25  1  0.96320788  0.20625694  0.38603561  1
  H  H26  1  0.53472731  0.07087383  0.15222369  1
  H  H27  1  0.42561809  0.94079283  0.64462838  1
  H  H28  1  0.96527269  0.57087383  0.65222369  1
  H  H29  1  0.07438191  0.44079283  0.14462838  1
  H  H30  1  0.69608356  0.95302815  0.99332704  1
  H  H31  1  0.80391644  0.45302815  0.49332704  1
  O  O32  1  0.70402141  0.38651679  0.94135178  1
  O  O33  1  0.31674165  0.62245948  0.44634313  1
  O  O34  1  0.79597859  0.88651679  0.44135178  1
  O  O35  1  0.18325835  0.12245948  0.94634313  1
  O  O36  1  0.42393327  0.27793100  0.88954749  1
  O  O37  1  0.61215167  0.71984672  0.37431129  1
  O  O38  1  0.07606673  0.77793100  0.38954749  1
  O  O39  1  0.88784833  0.21984672  0.87431129  1
  O  O40  1  0.42192034  0.48980505  0.91245570  1
  O  O41  1  0.58049042  0.51301840  0.46418310  1
  O  O42  1  0.07807966  0.98980505  0.41245570  1
  O  O43  1  0.91950958  0.01301840  0.96418310  1
  O  O44  1  0.50987226  0.23538426  0.53394399  1
  O  O45  1  0.50209575  0.74880084  0.00130236  1
  O  O46  1  0.99012774  0.73538426  0.03394399  1
  O  O47  1  0.99790425  0.24880084  0.50130236  1
  O  O48  1  0.52449453  0.13685154  0.23680505  1
  O  O49  1  0.46978958  0.87198329  0.72137181  1
  O  O50  1  0.97550547  0.63685154  0.73680505  1
  O  O51  1  0.03021042  0.37198329  0.22137181  1
  O  O52  1  0.37881101  0.03835971  0.52580400  1
  O  O53  1  0.57184944  0.95277719  0.04258617  1
  O  O54  1  0.12118899  0.53835971  0.02580400  1
  O  O55  1  0.92815056  0.45277719  0.54258617  1
