# generated using pymatgen
data_LiSb2P5O18
_symmetry_space_group_name_H-M   'P 1'
_cell_length_a   9.72457995
_cell_length_b   10.20320325
_cell_length_c   6.60902333
_cell_angle_alpha   93.28101806
_cell_angle_beta   92.90424748
_cell_angle_gamma   95.11666153
_symmetry_Int_Tables_number   1
_chemical_formula_structural   LiSb2P5O18
_chemical_formula_sum   'Li2 Sb4 P10 O36'
_cell_volume   651.04950283
_cell_formula_units_Z   2
loop_
 _symmetry_equiv_pos_site_id
 _symmetry_equiv_pos_as_xyz
  1  'x, y, z'
loop_
 _atom_site_type_symbol
 _atom_site_label
 _atom_site_symmetry_multiplicity
 _atom_site_fract_x
 _atom_site_fract_y
 _atom_site_fract_z
 _atom_site_occupancy
  Li  Li0  1  0.18653436  0.69476692  0.11204294  1
  Li  Li1  1  0.81346564  0.30523208  0.88795706  1
  Sb  Sb2  1  0.65550433  0.58765645  0.76257077  1
  Sb  Sb3  1  0.34449567  0.41234355  0.23742923  1
  Sb  Sb4  1  0.22657762  0.04156221  0.66058394  1
  Sb  Sb5  1  0.77342238  0.95843779  0.33941606  1
  P  P6  1  0.72510430  0.90594309  0.83584069  1
  P  P7  1  0.01124132  0.41221016  0.21121426  1
  P  P8  1  0.27489570  0.09405691  0.16415931  1
  P  P9  1  0.59836119  0.64777054  0.27444706  1
  P  P10  1  0.96797731  0.21354721  0.52211578  1
  P  P11  1  0.03202269  0.78645279  0.47788422  1
  P  P12  1  0.98875868  0.58778984  0.78878574  1
  P  P13  1  0.40163881  0.35222946  0.72555294  1
  P  P14  1  0.57375369  0.18357886  0.17759201  1
  P  P15  1  0.42624631  0.81642114  0.82240799  1
  O  O16  1  0.19425108  0.03850544  0.96761791  1
  O  O17  1  0.66294598  0.60571620  0.07534313  1
  O  O18  1  0.15543950  0.75408875  0.37228137  1
  O  O19  1  0.96038154  0.67415933  0.59274196  1
  O  O20  1  0.06681876  0.90692776  0.64197239  1
  O  O21  1  0.16892940  0.49042449  0.21616896  1
  O  O22  1  0.61430629  0.80201200  0.31472442  1
  O  O23  1  0.91488617  0.51254680  0.26001839  1
  O  O24  1  0.09445010  0.17652865  0.66225318  1
  O  O25  1  0.52366718  0.31320291  0.27895501  1
  O  O26  1  0.66105437  0.57830939  0.45499508  1
  O  O27  1  0.33907811  0.79707001  0.99632463  1
  O  O28  1  0.75633890  0.76555977  0.77328259  1
  O  O29  1  0.08511383  0.48745320  0.73998161  1
  O  O30  1  0.56054737  0.40278970  0.75160654  1
  O  O31  1  0.38569371  0.19798800  0.68527558  1
  O  O32  1  0.98295440  0.31481323  0.03496581  1
  O  O33  1  0.33894563  0.42169061  0.54500492  1
  O  O34  1  0.43016702  0.09570992  0.10301345  1
  O  O35  1  0.56983298  0.90429008  0.89698655  1
  O  O36  1  0.90554990  0.82347135  0.33774682  1
  O  O37  1  0.66092189  0.20292999  0.00367537  1
  O  O38  1  0.84456050  0.24591125  0.62771863  1
  O  O39  1  0.93318124  0.09307224  0.35802761  1
  O  O40  1  0.47633282  0.68679709  0.72104499  1
  O  O41  1  0.33705402  0.39428380  0.92465687  1
  O  O42  1  0.80574892  0.96149456  0.03238209  1
  O  O43  1  0.75379889  0.98674186  0.65137206  1
  O  O44  1  0.24620111  0.01325814  0.34862794  1
  O  O45  1  0.63158125  0.09301098  0.34160143  1
  O  O46  1  0.36841875  0.90698902  0.65839857  1
  O  O47  1  0.83107060  0.50957551  0.78383104  1
  O  O48  1  0.43945263  0.59721030  0.24839346  1
  O  O49  1  0.01704560  0.68518677  0.96503419  1
  O  O50  1  0.03961846  0.32584067  0.40725804  1
  O  O51  1  0.24366110  0.23444023  0.22671741  1
