# generated using pymatgen
data_Li6Fe5CuO12
_symmetry_space_group_name_H-M   'P 1'
_cell_length_a   5.16839926
_cell_length_b   5.17954964
_cell_length_c   10.16114934
_cell_angle_alpha   89.68655415
_cell_angle_beta   89.92781281
_cell_angle_gamma   120.19943994
_symmetry_Int_Tables_number   1
_chemical_formula_structural   Li6Fe5CuO12
_chemical_formula_sum   'Li6 Fe5 Cu1 O12'
_cell_volume   235.08993397
_cell_formula_units_Z   1
loop_
 _symmetry_equiv_pos_site_id
 _symmetry_equiv_pos_as_xyz
  1  'x, y, z'
loop_
 _atom_site_type_symbol
 _atom_site_label
 _atom_site_symmetry_multiplicity
 _atom_site_fract_x
 _atom_site_fract_y
 _atom_site_fract_z
 _atom_site_occupancy
  Li  Li0  1  0.66287708  0.98474250  0.77480741  1
  Li  Li1  1  0.98415747  0.66120596  0.77447325  1
  Li  Li2  1  0.69356227  0.69461013  0.22179305  1
  Li  Li3  1  0.30505243  0.30661658  0.77825406  1
  Li  Li4  1  0.01554915  0.33709400  0.22516383  1
  Li  Li5  1  0.33873026  0.01588878  0.22547068  1
  Fe  Fe6  1  0.49788713  0.50135547  0.50003688  1
  Fe  Fe7  1  0.33654554  0.66352818  0.99999760  1
  Fe  Fe8  1  0.66339729  0.33648711  0.99999193  1
  Fe  Fe9  1  0.16809864  0.83314348  0.49991613  1
  Fe  Fe10  1  0.83444922  0.16626364  0.50007862  1
  Cu  Cu11  1  0.99992085  0.00000690  0.99999625  1
  O  O12  1  0.83991967  0.84773751  0.39494332  1
  O  O13  1  0.51016253  0.84143830  0.60179357  1
  O  O14  1  0.84070779  0.50133554  0.59933980  1
  O  O15  1  0.32921970  0.99208741  0.88898747  1
  O  O16  1  0.99217657  0.32997230  0.88959023  1
  O  O17  1  0.63552578  0.63519521  0.87917936  1
  O  O18  1  0.36505592  0.36444991  0.12073583  1
  O  O19  1  0.00801733  0.67075405  0.11094785  1
  O  O20  1  0.67018529  0.00768342  0.11058177  1
  O  O21  1  0.15849838  0.48689001  0.39759902  1
  O  O22  1  0.49911903  0.15921516  0.40064292  1
  O  O23  1  0.15119168  0.16230545  0.60567416  1
