# generated using pymatgen
data_Li3YbCl6
_symmetry_space_group_name_H-M   'P 1'
_cell_length_a   9.95456264
_cell_length_b   8.15791278
_cell_length_c   11.37044714
_cell_angle_alpha   89.99602081
_cell_angle_beta   90.00402845
_cell_angle_gamma   90.00058253
_symmetry_Int_Tables_number   1
_chemical_formula_structural   Li3YbCl6
_chemical_formula_sum   'Li12 Yb4 Cl24'
_cell_volume   923.37642631
_cell_formula_units_Z   4
loop_
 _symmetry_equiv_pos_site_id
 _symmetry_equiv_pos_as_xyz
  1  'x, y, z'
loop_
 _atom_site_type_symbol
 _atom_site_label
 _atom_site_symmetry_multiplicity
 _atom_site_fract_x
 _atom_site_fract_y
 _atom_site_fract_z
 _atom_site_occupancy
  Yb  Yb0  1  0.83329273  0.22207933  0.53241369  1
  Yb  Yb1  1  0.66674692  0.22214107  0.03246099  1
  Yb  Yb2  1  0.33336413  0.72200395  -0.03251068  1
  Yb  Yb3  1  0.16661848  0.72200684  0.46765935  1
  Li  Li4  1  0.94650568  0.48741629  0.13639113  1
  Li  Li5  1  0.30587264  0.17223933  0.05188281  1
  Li  Li6  1  0.96129579  0.97253674  0.21604684  1
  Li  Li7  1  0.53875591  0.97258355  0.71598382  1
  Li  Li8  1  0.19423614  0.17222179  0.55197036  1
  Li  Li9  1  0.55346592  0.48732832  0.63634583  1
  Li  Li10  1  0.80563607  0.67238577  0.44806781  1
  Li  Li11  1  0.44631245  0.98742854  0.36365102  1
  Li  Li12  1  0.46128328  0.47267563  0.28385301  1
  Li  Li13  1  0.03874416  0.47254025  0.78391751  1
  Li  Li14  1  0.05371353  0.98743962  0.86364167  1
  Li  Li15  1  0.69441211  0.67240631  0.94802874  1
  Cl  Cl16  1  0.35577663  0.96314490  0.55982770  1
  Cl  Cl17  1  0.31464598  0.50381892  0.60609803  1
  Cl  Cl18  1  0.35187231  0.74534110  0.29422999  1
  Cl  Cl19  1  0.46598633  0.18301383  0.20831532  1
  Cl  Cl20  1  0.25652741  0.37884909  0.90371817  1
  Cl  Cl21  1  0.45922507  0.02992063  0.92637026  1
  Cl  Cl22  1  0.04090194  0.02985115  0.42634909  1
  Cl  Cl23  1  0.24318828  0.37878847  0.40372590  1
  Cl  Cl24  1  0.03398446  0.18289515  0.70822805  1
  Cl  Cl25  1  0.14799826  0.74540210  0.79414153  1
  Cl  Cl26  1  0.18529691  0.50405199  0.10607141  1
  Cl  Cl27  1  0.14428138  0.96302522  0.05977386  1
  Cl  Cl28  1  0.81491094  0.00410250  0.89394997  1
  Cl  Cl29  1  0.85590041  0.46316041  0.94022528  1
  Cl  Cl30  1  0.85202534  0.24540604  0.20586101  1
  Cl  Cl31  1  0.96599119  0.68282249  0.29173894  1
  Cl  Cl32  1  0.95890585  0.53001625  0.57376456  1
  Cl  Cl33  1  0.75637315  0.87897896  0.59625874  1
  Cl  Cl34  1  0.74370242  0.87899903  0.09628975  1
  Cl  Cl35  1  0.54104731  0.52998518  0.07365808  1
  Cl  Cl36  1  0.53400856  0.68289114  0.79171865  1
  Cl  Cl37  1  0.64797548  0.24539700  0.70576839  1
  Cl  Cl38  1  0.64409222  0.46309837  0.44019092  1
  Cl  Cl39  1  0.68512623  0.00400678  0.39392251  1
