# generated using pymatgen
data_Ce3Dy2O9
_symmetry_space_group_name_H-M   'P 1'
_cell_length_a   3.85662469
_cell_length_b   19.25555826
_cell_length_c   17.64580102
_cell_angle_alpha   10.90665686
_cell_angle_beta   56.94345521
_cell_angle_gamma   60.00903446
_symmetry_Int_Tables_number   1
_chemical_formula_structural   Ce3Dy2O9
_chemical_formula_sum   'Ce3 Dy2 O9'
_cell_volume   202.45788851
_cell_formula_units_Z   1
loop_
 _symmetry_equiv_pos_site_id
 _symmetry_equiv_pos_as_xyz
  1  'x, y, z'
loop_
 _atom_site_type_symbol
 _atom_site_label
 _atom_site_symmetry_multiplicity
 _atom_site_fract_x
 _atom_site_fract_y
 _atom_site_fract_z
 _atom_site_occupancy
  Ce  Ce0  1  0.99777603  0.39827568  0.00025396  1
  Ce  Ce1  1  0.99679380  0.79749706  0.00421745  1
  Ce  Ce2  1  0.99558252  0.59968261  0.00043183  1
  Dy  Dy3  1  0.02922651  0.01420404  0.97502262  1
  Dy  Dy4  1  0.96700727  0.17800015  0.03315418  1
  O  O5  1  0.22142821  0.03112483  0.27849255  1
  O  O6  1  0.26705845  0.26169646  0.22917921  1
  O  O7  1  0.22598369  0.43642775  0.27254484  1
  O  O8  1  0.27633692  0.66200471  0.22841385  1
  O  O9  1  0.71021001  0.12182598  0.79527358  1
  O  O10  1  0.75132740  0.34617093  0.75376903  1
  O  O11  1  0.78796121  0.57080648  0.71211721  1
  O  O12  1  0.72645102  0.73755891  0.76971151  1
  O  O13  1  0.76671696  0.96058143  0.73227720  1
