# generated using pymatgen
data_Sr10Cu5Bi10O29
_symmetry_space_group_name_H-M   'P 1'
_cell_length_a   5.42379721
_cell_length_b   14.00262018
_cell_length_c   25.24005940
_cell_angle_alpha   81.76791280
_cell_angle_beta   83.73930813
_cell_angle_gamma   78.58009853
_symmetry_Int_Tables_number   1
_chemical_formula_structural   Sr10Cu5Bi10O29
_chemical_formula_sum   'Sr20 Cu10 Bi20 O58'
_cell_volume   1853.15959843
_cell_formula_units_Z   2
loop_
 _symmetry_equiv_pos_site_id
 _symmetry_equiv_pos_as_xyz
  1  'x, y, z'
loop_
 _atom_site_type_symbol
 _atom_site_label
 _atom_site_symmetry_multiplicity
 _atom_site_fract_x
 _atom_site_fract_y
 _atom_site_fract_z
 _atom_site_occupancy
  Sr  Sr0  1  0.16581980  0.16039374  0.48991760  1
  Sr  Sr1  1  0.15502500  0.57916613  0.06935401  1
  Sr  Sr2  1  0.79124331  0.25412375  0.12866033  1
  Sr  Sr3  1  0.80595012  0.42229323  0.92753089  1
  Sr  Sr4  1  0.64465100  0.49214634  0.17047355  1
  Sr  Sr5  1  0.17545649  0.94064768  0.67812256  1
  Sr  Sr6  1  0.65850738  0.66157772  0.96984365  1
  Sr  Sr7  1  0.67117392  0.84054804  0.77371764  1
  Sr  Sr8  1  0.81596852  0.84002829  0.51338127  1
  Sr  Sr9  1  0.66453470  0.04826953  0.58390023  1
  Sr  Sr10  1  0.30976840  0.50814740  0.82745082  1
  Sr  Sr11  1  0.17313162  0.74734278  0.87094696  1
  Sr  Sr12  1  0.15383810  0.38397542  0.28201094  1
  Sr  Sr13  1  0.29842058  0.95625349  0.41941938  1
  Sr  Sr14  1  0.82305112  0.61581718  0.71789014  1
  Sr  Sr15  1  0.28223769  0.16236722  0.22665922  1
  Sr  Sr16  1  0.29026792  0.33985596  0.02886501  1
  Sr  Sr17  1  0.65449917  0.27143793  0.39163850  1
  Sr  Sr18  1  0.32042178  0.72796916  0.61113691  1
  Sr  Sr19  1  0.79151717  0.05936057  0.32309221  1
  Cu  Cu20  1  0.75138044  0.82541704  0.64500711  1
  Cu  Cu21  1  0.72897513  0.05992984  0.45297213  1
  Cu  Cu22  1  0.21856899  0.17578308  0.35578904  1
  Cu  Cu23  1  0.74574773  0.62504444  0.84494348  1
  Cu  Cu24  1  0.72426773  0.45884893  0.05060743  1
  Cu  Cu25  1  0.23456292  0.54117067  0.94812528  1
  Cu  Cu26  1  0.24050349  0.94191491  0.54870707  1
  Cu  Cu27  1  0.21406722  0.37620650  0.15478859  1
  Cu  Cu28  1  0.25116453  0.72110787  0.74439834  1
  Cu  Cu29  1  0.71362116  0.27986207  0.25616993  1
  Bi  Bi30  1  0.03702988  0.02316832  0.81966491  1
  Bi  Bi31  1  0.94516848  0.54050628  0.57232136  1
  Bi  Bi32  1  0.60801076  0.61692481  0.31530690  1
  Bi  Bi33  1  0.96618675  0.68208060  0.21798471  1
  Bi  Bi34  1  0.51148823  0.41657267  0.68190667  1
  Bi  Bi35  1  0.47987427  0.65456295  0.46856784  1
  Bi  Bi36  1  0.55143787  0.76807319  0.10730863  1
  Bi  Bi37  1  0.02096579  0.85015354  0.01029301  1
  Bi  Bi38  1  0.59149818  0.34263686  0.53361532  1
  Bi  Bi39  1  0.88559501  0.97847772  0.17853611  1
  Bi  Bi40  1  0.42827637  0.23244578  0.89070757  1
  Bi  Bi41  1  0.91234994  0.77051204  0.36890637  1
  Bi  Bi42  1  0.84892761  0.32807507  0.77539231  1
  Bi  Bi43  1  0.57695999  0.11933658  0.72665202  1
  Bi  Bi44  1  0.57458076  0.93392694  0.91296749  1
  Bi  Bi45  1  0.03938818  0.46187085  0.42975818  1
  Bi  Bi46  1  0.42027380  0.06804939  0.08407604  1
  Bi  Bi47  1  0.42728189  0.88587629  0.26590736  1
  Bi  Bi48  1  0.88684350  0.15073713  0.98732911  1
  Bi  Bi49  1  0.02940293  0.22408830  0.63319861  1
  O  O50  1  0.59479297  0.69204305  0.18961813  1
  O  O51  1  0.16011254  0.89094732  0.78719913  1
  O  O52  1  0.09940575  0.53712059  0.20153146  1
  O  O53  1  0.84638575  0.45986418  0.80598074  1
  O  O54  1  0.18745005  0.34259892  0.38951689  1
  O  O55  1  0.96087241  0.33092249  0.20699204  1
  O  O56  1  0.97753546  0.50218416  0.00008060  1
  O  O57  1  0.30566730  0.36708271  0.91991473  1
  O  O58  1  0.47613699  0.11610805  0.40359140  1
  O  O59  1  0.99734659  0.77590020  0.69646203  1
  O  O60  1  0.91376462  0.66549292  0.60797566  1
  O  O61  1  0.61970753  0.98879073  0.69318592  1
  O  O62  1  0.47863170  0.30869322  0.81110657  1
  O  O63  1  0.50094876  0.76721037  0.69287263  1
  O  O64  1  0.62000326  0.80082147  0.88158106  1
  O  O65  1  0.50048582  0.66924847  0.79305049  1
  O  O66  1  0.99621685  0.88493498  0.59723453  1
  O  O67  1  0.97904753  0.11007671  0.73043370  1
  O  O68  1  0.48393686  0.99958514  0.49984163  1
  O  O69  1  0.30346522  0.00618448  0.30795472  1
  O  O70  1  0.32392285  0.78853186  0.49516251  1
  O  O71  1  0.97608104  0.93239750  0.90872554  1
  O  O72  1  0.98415250  0.00058398  0.50083202  1
  O  O73  1  0.29859315  0.19816887  0.11841254  1
  O  O74  1  0.63881114  0.20428043  0.64040796  1
  O  O75  1  0.50215540  0.88082011  0.59477433  1
  O  O76  1  0.96764192  0.41915444  0.10293963  1
  O  O77  1  0.95640659  0.23481538  0.30827013  1
  O  O78  1  0.93820630  0.54444143  0.35352204  1
  O  O79  1  0.46592105  0.33316645  0.20594858  1
  O  O80  1  0.86492092  0.46142645  0.64930016  1
  O  O81  1  0.55895883  0.58286580  0.54992228  1
  O  O82  1  0.98648422  0.58438820  0.89710925  1
  O  O83  1  0.46773771  0.41642376  0.10229701  1
  O  O84  1  0.81267415  0.06429760  0.09499671  1
  O  O85  1  0.47823658  0.97821564  0.18605907  1
  O  O86  1  0.85028458  0.28223567  0.01905690  1
  O  O87  1  0.15047093  0.71612095  0.98110429  1
  O  O88  1  0.59442484  0.63155326  0.08018873  1
  O  O89  1  0.62938305  0.85181244  0.99969476  1
  O  O90  1  0.48042024  0.49736792  0.99879761  1
  O  O91  1  0.97845701  0.11746472  0.40560151  1
  O  O92  1  0.81605463  0.90295265  0.39954259  1
  O  O93  1  0.00589238  0.66767724  0.79391071  1
  O  O94  1  0.48999710  0.58189922  0.89647782  1
  O  O95  1  0.83901986  0.10780012  0.21324419  1
  O  O96  1  0.95175915  0.77192209  0.09486632  1
  O  O97  1  0.48454586  0.14715052  0.00197720  1
  O  O98  1  0.46586370  0.22371110  0.30361031  1
  O  O99  1  0.81957891  0.22680235  0.90601984  1
  O  O100  1  0.52255338  0.74927712  0.35721157  1
  O  O101  1  0.64137226  0.01853571  0.81844703  1
  O  O102  1  0.98338570  0.30982959  0.55000779  1
  O  O103  1  0.15614850  0.09496248  0.59871538  1
  O  O104  1  0.60702682  0.21311359  0.50150350  1
  O  O105  1  0.82205801  0.88293137  0.27084351  1
  O  O106  1  0.68110237  0.41642980  0.45201434  1
  O  O107  1  0.85635208  0.69028878  0.45162751  1
