# generated using pymatgen
data_Ce2Dy2O7
_symmetry_space_group_name_H-M   'P 1'
_cell_length_a   3.76034004
_cell_length_b   15.36658886
_cell_length_c   13.24544262
_cell_angle_alpha   30.46220672
_cell_angle_beta   55.40347067
_cell_angle_gamma   60.69768106
_symmetry_Int_Tables_number   1
_chemical_formula_structural   Ce2Dy2O7
_chemical_formula_sum   'Ce4 Dy4 O14'
_cell_volume   319.40608457
_cell_formula_units_Z   2
loop_
 _symmetry_equiv_pos_site_id
 _symmetry_equiv_pos_as_xyz
  1  'x, y, z'
loop_
 _atom_site_type_symbol
 _atom_site_label
 _atom_site_symmetry_multiplicity
 _atom_site_fract_x
 _atom_site_fract_y
 _atom_site_fract_z
 _atom_site_occupancy
  Ce  Ce0  1  0.99168707  0.00000000  0.00415647  1
  Ce  Ce1  1  0.00831293  0.50000000  0.99584353  1
  Ce  Ce2  1  0.00000000  0.25000000  0.50000000  1
  Ce  Ce3  1  0.00000000  0.75000000  0.00000000  1
  Dy  Dy4  1  0.96354183  0.00000000  0.51822908  1
  Dy  Dy5  1  0.00000000  0.25000000  0.00000000  1
  Dy  Dy6  1  0.03645817  0.50000000  0.48177092  1
  Dy  Dy7  1  0.00000000  0.75000000  0.50000000  1
  O  O8  1  0.21644644  0.00000000  0.14177678  1
  O  O9  1  0.24935234  0.20758491  0.16773892  1
  O  O10  1  0.25772372  0.00000000  0.62113814  1
  O  O11  1  0.26621308  0.50000000  0.11689346  1
  O  O12  1  0.74505202  0.26079418  0.36667981  1
  O  O13  1  0.25494798  0.23920582  0.63332019  1
  O  O14  1  0.25494798  0.76079418  0.11173183  1
  O  O15  1  0.74227628  0.50000000  0.37886186  1
  O  O16  1  0.73378692  0.00000000  0.88310654  1
  O  O17  1  0.75064766  0.70758491  0.41709126  1
  O  O18  1  0.24935234  0.79241509  0.58290874  1
  O  O19  1  0.75064766  0.29241509  0.83226108  1
  O  O20  1  0.78355356  0.50000000  0.85822322  1
  O  O21  1  0.74505202  0.73920582  0.88826817  1
