# generated using pymatgen
data_La2CuO4
_symmetry_space_group_name_H-M   'P 1'
_cell_length_a   5.38141576
_cell_length_b   5.43927533
_cell_length_c   21.33589280
_cell_angle_alpha   90.00000000
_cell_angle_beta   112.17361141
_cell_angle_gamma   90.00000000
_symmetry_Int_Tables_number   1
_chemical_formula_structural   La2CuO4
_chemical_formula_sum   'La12 Cu6 O24'
_cell_volume   578.33605722
_cell_formula_units_Z   6
loop_
 _symmetry_equiv_pos_site_id
 _symmetry_equiv_pos_as_xyz
  1  'x, y, z'
loop_
 _atom_site_type_symbol
 _atom_site_label
 _atom_site_symmetry_multiplicity
 _atom_site_fract_x
 _atom_site_fract_y
 _atom_site_fract_z
 _atom_site_occupancy
  La  La0  1  0.13641919  0.51197409  0.75946272  1
  La  La1  1  0.36376447  0.00967436  0.90723295  1
  La  La2  1  0.13623553  0.50967436  0.42610105  1
  La  La3  1  0.36358081  0.01197409  0.57387028  1
  La  La4  1  0.63621214  0.98984180  0.75917332  1
  La  La5  1  0.86275014  0.49059750  0.90700060  1
  La  La6  1  0.13560021  0.49647670  0.09240079  1
  La  La7  1  0.36439979  0.99647670  0.24093221  1
  La  La8  1  0.63724986  0.99059750  0.42633340  1
  La  La9  1  0.86378786  0.48984180  0.57415968  1
  La  La10  1  0.63617834  0.00624092  0.09304412  1
  La  La11  1  0.86382166  0.50624092  0.24028888  1
  Cu  Cu12  1  0.49976818  0.50056452  0.66659072  1
  Cu  Cu13  1  -0.00092123  0.00064009  0.00005047  1
  Cu  Cu14  1  0.50092123  0.50064009  0.33328253  1
  Cu  Cu15  1  0.00023182  0.00056452  0.66674328  1
  Cu  Cu16  1  0.49940768  0.50390522  0.00025435  1
  Cu  Cu17  1  0.00059232  0.00390522  0.33307865  1
  O  O18  1  0.24741168  0.75342491  0.99944135  1
  O  O19  1  0.18804636  0.96442582  0.79040186  1
  O  O20  1  0.31263792  0.47223196  0.87642750  1
  O  O21  1  0.24284018  0.74964070  0.66214450  1
  O  O22  1  0.25715982  0.24964070  0.67118850  1
  O  O23  1  0.74949021  0.75465901  0.99875461  1
  O  O24  1  0.18736208  0.97223196  0.45690550  1
  O  O25  1  0.31195364  0.46442582  0.54293114  1
  O  O26  1  0.68923175  0.53684722  0.79054520  1
  O  O27  1  0.80974281  0.03670703  0.87552068  1
  O  O28  1  0.24677728  0.75154223  0.33323809  1
  O  O29  1  0.25258832  0.25342491  0.33389165  1
  O  O30  1  0.74274037  0.75059608  0.66214767  1
  O  O31  1  0.75725963  0.25059608  0.67118533  1
  O  O32  1  0.19108226  0.06196134  0.12502146  1
  O  O33  1  0.30891774  0.56196134  0.20831154  1
  O  O34  1  0.69025719  0.53670703  0.45781232  1
  O  O35  1  0.81076825  0.03684722  0.54278780  1
  O  O36  1  0.25322272  0.25154223  0.00009591  1
  O  O37  1  0.75129123  0.75126141  0.33245979  1
  O  O38  1  0.75050979  0.25465901  0.33457839  1
  O  O39  1  0.68768852  0.51978706  0.12329730  1
  O  O40  1  0.81231148  0.01978706  0.21003670  1
  O  O41  1  0.74870877  0.25126141  0.00087421  1
