# generated using pymatgen
data_FeCoAs
_symmetry_space_group_name_H-M   'P 1'
_cell_length_a   6.02202590
_cell_length_b   11.98448067
_cell_length_c   3.58986715
_cell_angle_alpha   89.99211675
_cell_angle_beta   90.00036883
_cell_angle_gamma   120.19480494
_symmetry_Int_Tables_number   1
_chemical_formula_structural   FeCoAs
_chemical_formula_sum   'Fe6 Co6 As6'
_cell_volume   223.93139072
_cell_formula_units_Z   6
loop_
 _symmetry_equiv_pos_site_id
 _symmetry_equiv_pos_as_xyz
  1  'x, y, z'
loop_
 _atom_site_type_symbol
 _atom_site_label
 _atom_site_symmetry_multiplicity
 _atom_site_fract_x
 _atom_site_fract_y
 _atom_site_fract_z
 _atom_site_occupancy
  Fe  Fe0  1  0.40558755  0.70082863  0.49792128  1
  Fe  Fe1  1  -0.00011188  0.29747893  0.49940809  1
  Fe  Fe2  1  0.59474904  0.50021073  0.49849663  1
  Fe  Fe3  1  0.00219609  0.79866391  0.49777802  1
  Fe  Fe4  1  0.39971398  0.20140437  0.49968051  1
  Fe  Fe5  1  0.25445310  0.99964472  0.99905717  1
  Co  Co6  1  0.00246665  0.62851542  0.99838927  1
  Co  Co7  1  0.59740959  0.99907502  0.49869619  1
  Co  Co8  1  0.25402115  0.49943756  0.99870144  1
  Co  Co9  1  0.74701365  0.87063403  0.99865404  1
  Co  Co10  1  0.00088546  0.12775065  -0.00052337  1
  Co  Co11  1  0.74289089  0.37147659  0.99936441  1
  As  As12  1  -0.00133456  0.99952228  0.49901752  1
  As  As13  1  0.33922106  0.83455993  0.99774990  1
  As  As14  1  0.33413191  0.33344871  0.99959138  1
  As  As15  1  0.66738137  0.66499975  0.99791537  1
  As  As16  1  0.99788291  0.49953683  0.49885735  1
  As  As17  1  0.66678504  0.16540994  0.99955979  1
