# generated using pymatgen
data_Ba3Bi2F12
_symmetry_space_group_name_H-M   'P 1'
_cell_length_a   4.48855369
_cell_length_b   4.45307864
_cell_length_c   22.00862411
_cell_angle_alpha   58.02529890
_cell_angle_beta   59.90032151
_cell_angle_gamma   59.01603978
_symmetry_Int_Tables_number   1
_chemical_formula_structural   Ba3Bi2F12
_chemical_formula_sum   'Ba3 Bi2 F12'
_cell_volume   303.65826983
_cell_formula_units_Z   1
loop_
 _symmetry_equiv_pos_site_id
 _symmetry_equiv_pos_as_xyz
  1  'x, y, z'
loop_
 _atom_site_type_symbol
 _atom_site_label
 _atom_site_symmetry_multiplicity
 _atom_site_fract_x
 _atom_site_fract_y
 _atom_site_fract_z
 _atom_site_occupancy
  Ba  Ba0  1  0.90608697  0.09117849  0.00578178  1
  Ba  Ba1  1  0.89095755  0.06980619  0.21171351  1
  Ba  Ba2  1  0.91999434  0.01394575  0.41668048  1
  Bi  Bi3  1  0.93360829  0.89372581  0.62080572  1
  Bi  Bi4  1  0.79544941  0.01685259  0.82121446  1
  F  F5  1  0.14823815  0.32420837  0.06266305  1
  F  F6  1  0.64173331  0.82631315  0.16153929  1
  F  F7  1  0.14039211  0.30340273  0.26468895  1
  F  F8  1  0.35552717  0.29191377  0.62636422  1
  F  F9  1  0.66096672  0.77293452  0.36791952  1
  F  F10  1  0.17138635  0.22707757  0.47804518  1
  F  F11  1  0.77273636  0.74632950  0.56286261  1
  F  F12  1  0.20732898  0.38365392  0.85244506  1
  F  F13  1  0.63734728  0.49982996  0.70654086  1
  F  F14  1  0.85455821  0.77025462  0.74718597  1
  F  F15  1  0.47106529  0.65741618  0.89165963  1
  F  F16  1  0.67262349  0.86115687  0.95188970  1
