# generated using pymatgen
data_Li9(RuO3)10
_symmetry_space_group_name_H-M   'P 1'
_cell_length_a   29.93239844
_cell_length_b   16.29970629
_cell_length_c   10.72293219
_cell_angle_alpha   24.93528504
_cell_angle_beta   26.25309265
_cell_angle_gamma   16.94137864
_symmetry_Int_Tables_number   1
_chemical_formula_structural   Li9(RuO3)10
_chemical_formula_sum   'Li9 Ru10 O30'
_cell_volume   624.00476086
_cell_formula_units_Z   1
loop_
 _symmetry_equiv_pos_site_id
 _symmetry_equiv_pos_as_xyz
  1  'x, y, z'
loop_
 _atom_site_type_symbol
 _atom_site_label
 _atom_site_symmetry_multiplicity
 _atom_site_fract_x
 _atom_site_fract_y
 _atom_site_fract_z
 _atom_site_occupancy
  Li  Li0  1  0.00095161  0.99762312  0.99871842  1
  Li  Li1  1  0.20130435  0.99958865  0.99261170  1
  Li  Li2  1  0.39869565  0.00041135  0.00738830  1
  Li  Li3  1  0.59904839  0.00237688  0.00128158  1
  Li  Li4  1  0.19858022  0.50563392  0.49571226  1
  Li  Li5  1  0.80000000  0.00000000  0.00000000  1
  Li  Li6  1  0.40141978  0.49436608  0.50428774  1
  Li  Li7  1  0.60323349  0.49547298  0.49781375  1
  Li  Li8  1  0.99676651  0.50452702  0.50218625  1
  Ru  Ru9  1  0.07084565  0.32262189  0.32584543  1
  Ru  Ru10  1  0.26666343  0.33193430  0.32346666  1
  Ru  Ru11  1  0.13127724  0.67276657  0.67753761  1
  Ru  Ru12  1  0.46872276  0.32723343  0.32246239  1
  Ru  Ru13  1  0.33333657  0.66806570  0.67653334  1
  Ru  Ru14  1  0.67376398  0.31909964  0.32162471  1
  Ru  Ru15  1  0.52915435  0.67737811  0.67415457  1
  Ru  Ru16  1  0.86526575  0.33487505  0.34068543  1
  Ru  Ru17  1  0.73473425  0.66512495  0.65931457  1
  Ru  Ru18  1  0.92623602  0.68090036  0.67837529  1
  O  O19  1  0.11964507  0.07811592  0.68334561  1
  O  O20  1  0.14490140  0.43639085  0.08796540  1
  O  O21  1  0.14151788  0.32166137  0.56378284  1
  O  O22  1  0.05319016  0.69410413  0.42534627  1
  O  O23  1  0.31481922  0.08597901  0.68346505  1
  O  O24  1  0.34348138  0.44110353  0.08523558  1
  O  O25  1  0.06133664  0.55219616  0.91363743  1
  O  O26  1  0.07816174  0.93019426  0.31675530  1
  O  O27  1  0.34341184  0.32147093  0.55414210  1
  O  O28  1  0.25658816  0.67852907  0.44585790  1
  O  O29  1  0.52183826  0.06980574  0.68324470  1
  O  O30  1  0.53866336  0.44780384  0.08636257  1
  O  O31  1  0.25651862  0.55889647  0.91476442  1
  O  O32  1  0.28518078  0.91402099  0.31653495  1
  O  O33  1  0.54680984  0.30589587  0.57465373  1
  O  O34  1  0.45848212  0.67833863  0.43621716  1
  O  O35  1  0.71712002  0.08834573  0.68212303  1
  O  O36  1  0.75030312  0.43178491  0.06945396  1
  O  O37  1  0.45509860  0.56360915  0.91203460  1
  O  O38  1  0.48035493  0.92188408  0.31665439  1
  O  O39  1  0.74556385  0.31722444  0.56619667  1
  O  O40  1  0.64831632  0.69286872  0.44388867  1
  O  O41  1  0.92163116  0.06628776  0.69887962  1
  O  O42  1  0.94650959  0.44267206  0.07412246  1
  O  O43  1  0.65349041  0.55732794  0.92587754  1
  O  O44  1  0.67836884  0.93371224  0.30112038  1
  O  O45  1  0.95168368  0.30713128  0.55611133  1
  O  O46  1  0.85443615  0.68277556  0.43380333  1
  O  O47  1  0.84969688  0.56821509  0.93054604  1
  O  O48  1  0.88287998  0.91165427  0.31787697  1
