# generated using pymatgen
data_Dy3NbO7
_symmetry_space_group_name_H-M   'P 1'
_cell_length_a   7.58076903
_cell_length_b   17.41946209
_cell_length_c   9.21829518
_cell_angle_alpha   26.53469505
_cell_angle_beta   35.73614029
_cell_angle_gamma   49.55741029
_symmetry_Int_Tables_number   1
_chemical_formula_structural   Dy3NbO7
_chemical_formula_sum   'Dy6 Nb2 O14'
_cell_volume   303.27395657
_cell_formula_units_Z   2
loop_
 _symmetry_equiv_pos_site_id
 _symmetry_equiv_pos_as_xyz
  1  'x, y, z'
loop_
 _atom_site_type_symbol
 _atom_site_label
 _atom_site_symmetry_multiplicity
 _atom_site_fract_x
 _atom_site_fract_y
 _atom_site_fract_z
 _atom_site_occupancy
  Dy  Dy0  1  0.01736696  0.01363745  0.93124543  1
  Dy  Dy1  1  0.49969171  0.01893638  0.96611475  1
  Dy  Dy2  1  0.45529814  0.25526123  0.93425629  1
  Dy  Dy3  1  0.87777384  0.27286700  0.96382713  1
  Dy  Dy4  1  0.10835687  0.79092728  0.91771661  1
  Dy  Dy5  1  0.56717690  0.74769378  0.04080893  1
  Nb  Nb6  1  0.25088160  0.48463429  0.04302156  1
  Nb  Nb7  1  0.78540491  0.53305764  0.92482954  1
  O  O8  1  0.52863700  0.00709803  0.21192161  1
  O  O9  1  0.38288106  0.30165084  0.15281434  1
  O  O10  1  0.15453596  0.53741274  0.21415466  1
  O  O11  1  0.50366715  0.01875040  0.71538232  1
  O  O12  1  0.00451557  0.04388008  0.63961755  1
  O  O13  1  0.09756222  0.75967562  0.22915609  1
  O  O14  1  0.42322348  0.30079852  0.61504061  1
  O  O15  1  0.86549256  0.50618869  0.17264163  1
  O  O16  1  0.17014413  0.46918815  0.78460291  1
  O  O17  1  0.53672634  0.70411180  0.40337357  1
  O  O18  1  0.04104581  0.86866664  0.58948312  1
  O  O19  1  0.89975476  0.21490791  0.82017028  1
  O  O20  1  0.68237787  0.45742293  0.92083071  1
  O  O21  1  0.65491317  0.72939660  0.76780438  1
