# generated using pymatgen
data_U2Cr3Si
_symmetry_space_group_name_H-M   'P 1'
_cell_length_a   5.10034549
_cell_length_b   5.12377932
_cell_length_c   8.07657658
_cell_angle_alpha   90.00000000
_cell_angle_beta   90.00000000
_cell_angle_gamma   120.28992707
_symmetry_Int_Tables_number   1
_chemical_formula_structural   U2Cr3Si
_chemical_formula_sum   'U4 Cr6 Si2'
_cell_volume   182.25176410
_cell_formula_units_Z   2
loop_
 _symmetry_equiv_pos_site_id
 _symmetry_equiv_pos_as_xyz
  1  'x, y, z'
loop_
 _atom_site_type_symbol
 _atom_site_label
 _atom_site_symmetry_multiplicity
 _atom_site_fract_x
 _atom_site_fract_y
 _atom_site_fract_z
 _atom_site_occupancy
  U  U0  1  0.66751317  0.33349898  0.58687850  1
  U  U1  1  0.33248683  0.66650102  0.41312150  1
  U  U2  1  0.33248683  0.66650102  0.08687850  1
  U  U3  1  0.66751317  0.33349898  0.91312150  1
  Cr  Cr4  1  0.17269650  0.34423685  0.75000000  1
  Cr  Cr5  1  0.17205514  0.82862513  0.75000000  1
  Cr  Cr6  1  0.65514631  0.82742073  0.75000000  1
  Cr  Cr7  1  0.82730350  0.65576315  0.25000000  1
  Cr  Cr8  1  0.82794486  0.17137487  0.25000000  1
  Cr  Cr9  1  0.34485369  0.17257927  0.25000000  1
  Si  Si10  1  -0.00000000  0.00000000  0.50000000  1
  Si  Si11  1  -0.00000000  0.00000000  -0.00000000  1
