# generated using pymatgen
data_K2AgC3(SN)3
_symmetry_space_group_name_H-M   'P 1'
_cell_length_a   9.96864030
_cell_length_b   10.72892971
_cell_length_c   20.27050298
_cell_angle_alpha   90.00000000
_cell_angle_beta   90.00000000
_cell_angle_gamma   105.57382753
_symmetry_Int_Tables_number   1
_chemical_formula_structural   K2AgC3(SN)3
_chemical_formula_sum   'K16 Ag8 C24 S24 N24'
_cell_volume   2088.39087471
_cell_formula_units_Z   8
loop_
 _symmetry_equiv_pos_site_id
 _symmetry_equiv_pos_as_xyz
  1  'x, y, z'
loop_
 _atom_site_type_symbol
 _atom_site_label
 _atom_site_symmetry_multiplicity
 _atom_site_fract_x
 _atom_site_fract_y
 _atom_site_fract_z
 _atom_site_occupancy
  K  K0  1  0.36864154  0.87699969  0.10735697  1
  K  K1  1  0.35925556  0.39021774  0.90206564  1
  K  K2  1  0.85925556  0.89021774  0.59793436  1
  K  K3  1  0.75186701  0.95726681  0.23550210  1
  K  K4  1  0.63135846  0.12300031  0.89264303  1
  K  K5  1  0.74813299  0.54273319  0.73550210  1
  K  K6  1  0.24813299  0.04273319  0.76449790  1
  K  K7  1  0.00975554  0.71139463  0.28021442  1
  K  K8  1  0.14074444  0.10978226  0.40206564  1
  K  K9  1  0.86864154  0.37699969  0.39264303  1
  K  K10  1  0.64074444  0.60978226  0.09793436  1
  K  K11  1  0.13135846  0.62300031  0.60735697  1
  K  K12  1  0.25186701  0.45726681  0.26449790  1
  K  K13  1  0.49024446  0.78860537  0.78021442  1
  K  K14  1  0.50975554  0.21139463  0.21978558  1
  K  K15  1  0.99024446  0.28860537  0.71978558  1
  Ag  Ag16  1  0.87652828  0.37847721  0.04816567  1
  Ag  Ag17  1  0.41726418  0.40011247  0.57198735  1
  Ag  Ag18  1  0.12347172  0.62152279  0.95183433  1
  Ag  Ag19  1  0.08273582  0.09988753  0.07198735  1
  Ag  Ag20  1  0.62347172  0.12152279  0.54816567  1
  Ag  Ag21  1  0.37652828  0.87847721  0.45183433  1
  Ag  Ag22  1  0.91726418  0.90011247  0.92801265  1
  Ag  Ag23  1  0.58273582  0.59988753  0.42801265  1
  C  C24  1  0.89591799  0.36744905  0.87211873  1
  C  C25  1  0.82543689  0.87688153  0.38741838  1
  C  C26  1  0.32543689  0.37688153  0.11258162  1
  C  C27  1  0.95906459  0.27563538  0.54809823  1
  C  C28  1  0.09758397  0.63897452  0.78197075  1
  C  C29  1  0.84335247  0.91374518  0.77234156  1
  C  C30  1  0.10408201  0.63255095  0.12788127  1
  C  C31  1  0.60408201  0.13255095  0.37211873  1
  C  C32  1  0.90241603  0.36102548  0.21802925  1
  C  C33  1  0.17456311  0.12311847  0.61258162  1
  C  C34  1  0.54093541  0.22436462  0.04809823  1
  C  C35  1  0.65664753  0.58625482  0.27234156  1
  C  C36  1  0.59758397  0.13897452  0.71802925  1
  C  C37  1  0.45906459  0.77563538  0.95190177  1
  C  C38  1  0.15664753  0.08625482  0.22765844  1
  C  C39  1  0.76610489  0.54619340  0.56412081  1
  C  C40  1  0.26610489  0.04619340  0.93587919  1
  C  C41  1  0.04093541  0.72436462  0.45190177  1
  C  C42  1  0.67456311  0.62311847  0.88741838  1
  C  C43  1  0.23389511  0.45380660  0.43587919  1
  C  C44  1  0.39591799  0.86744905  0.62788127  1
  C  C45  1  0.34335247  0.41374518  0.72765844  1
  C  C46  1  0.40241603  0.86102548  0.28197075  1
  C  C47  1  0.73389511  0.95380660  0.06412081  1
  S  S48  1  0.92203342  0.03188060  0.82273891  1
  S  S49  1  0.12154531  0.84968179  0.49782366  1
  S  S50  1  0.83505355  0.25468558  0.16013966  1
  S  S51  1  0.66494645  0.24531442  0.66013966  1
  S  S52  1  0.57796658  0.46811940  0.32273891  1
  S  S53  1  0.37845469  0.65031821  0.99782366  1
  S  S54  1  0.16625793  0.93969486  0.98599654  1
  S  S55  1  0.07796658  0.96811940  0.17726109  1
  S  S56  1  0.29482791  0.16437318  0.55504964  1
  S  S57  1  0.87845469  0.15031821  0.50217634  1
  S  S58  1  0.79482791  0.66437318  0.94495036  1
  S  S59  1  0.62154531  0.34968179  0.00217634  1
  S  S60  1  0.83374207  0.06030514  0.01400346  1
  S  S61  1  0.51277277  0.86827454  0.56955951  1
  S  S62  1  0.01277277  0.36827454  0.93044049  1
  S  S63  1  0.48722723  0.13172546  0.43044049  1
  S  S64  1  0.70517209  0.83562682  0.44495036  1
  S  S65  1  0.33505355  0.75468558  0.33986034  1
  S  S66  1  0.33374207  0.56030514  0.48599654  1
  S  S67  1  0.20517209  0.33562682  0.05504964  1
  S  S68  1  0.16494645  0.74531442  0.83986034  1
  S  S69  1  0.98722723  0.63172546  0.06955951  1
  S  S70  1  0.66625793  0.43969486  0.51400346  1
  S  S71  1  0.42203342  0.53188060  0.67726109  1
  N  N72  1  0.95126561  0.43653556  0.26005543  1
  N  N73  1  0.81128786  0.36218654  0.83041103  1
  N  N74  1  0.18871214  0.63781346  0.16958897  1
  N  N75  1  0.54873439  0.06346444  0.76005543  1
  N  N76  1  0.68871214  0.13781346  0.33041103  1
  N  N77  1  0.01557341  0.36451647  0.58151504  1
  N  N78  1  0.66261985  0.87855833  0.10089652  1
  N  N79  1  0.91275660  0.91104552  0.34643805  1
  N  N80  1  0.21413419  0.17017010  0.26403934  1
  N  N81  1  0.41275660  0.41104552  0.15356195  1
  N  N82  1  0.51557341  0.86451647  0.91848496  1
  N  N83  1  0.78586581  0.82982990  0.73596066  1
  N  N84  1  0.04873439  0.56346444  0.73994457  1
  N  N85  1  0.58724340  0.58895448  0.84643805  1
  N  N86  1  0.45126561  0.93653556  0.23994457  1
  N  N87  1  0.31128786  0.86218654  0.66958897  1
  N  N88  1  0.16261985  0.37855833  0.39910348  1
  N  N89  1  0.71413419  0.67017010  0.23596066  1
  N  N90  1  0.48442659  0.13548353  0.08151504  1
  N  N91  1  0.33738015  0.12144167  0.89910348  1
  N  N92  1  0.98442659  0.63548353  0.41848496  1
  N  N93  1  0.83738015  0.62144167  0.60089652  1
  N  N94  1  0.08724340  0.08895448  0.65356195  1
  N  N95  1  0.28586581  0.32982990  0.76403934  1
