# generated using pymatgen
data_U4Be2C5
_symmetry_space_group_name_H-M   'P 1'
_cell_length_a   7.21759567
_cell_length_b   11.84414289
_cell_length_c   7.96206309
_cell_angle_alpha   19.10318849
_cell_angle_beta   47.18969328
_cell_angle_gamma   40.42707317
_symmetry_Int_Tables_number   1
_chemical_formula_structural   U4Be2C5
_chemical_formula_sum   'U4 Be2 C5'
_cell_volume   141.89764960
_cell_formula_units_Z   1
loop_
 _symmetry_equiv_pos_site_id
 _symmetry_equiv_pos_as_xyz
  1  'x, y, z'
loop_
 _atom_site_type_symbol
 _atom_site_label
 _atom_site_symmetry_multiplicity
 _atom_site_fract_x
 _atom_site_fract_y
 _atom_site_fract_z
 _atom_site_occupancy
  U  U0  1  0.94689952  0.01120945  0.05203548  1
  U  U1  1  0.44195862  0.02349876  0.03853246  1
  U  U2  1  0.17104705  0.75136679  0.85339860  1
  U  U3  1  0.67692148  0.74021181  0.86374880  1
  Be  Be4  1  0.30219444  0.38334780  0.95016982  1
  Be  Be5  1  0.81631797  0.38006808  0.95332481  1
  C  C6  1  0.16274235  0.22173765  0.43720983  1
  C  C7  1  0.62991716  0.21695046  0.44136189  1
  C  C8  1  0.48852002  0.54609277  0.46222459  1
  C  C9  1  0.95521611  0.54065230  0.46831499  1
  C  C10  1  0.05968428  0.38087314  0.95260873  1
