# generated using pymatgen
data_Tc6BiO18
_symmetry_space_group_name_H-M   'P 1'
_cell_length_a   7.26508077
_cell_length_b   21.76378982
_cell_length_c   19.20200534
_cell_angle_alpha   19.14588897
_cell_angle_beta   55.61448224
_cell_angle_gamma   60.12702116
_symmetry_Int_Tables_number   1
_chemical_formula_structural   Tc6BiO18
_chemical_formula_sum   'Tc12 Bi2 O36'
_cell_volume   814.69535978
_cell_formula_units_Z   2
loop_
 _symmetry_equiv_pos_site_id
 _symmetry_equiv_pos_as_xyz
  1  'x, y, z'
loop_
 _atom_site_type_symbol
 _atom_site_label
 _atom_site_symmetry_multiplicity
 _atom_site_fract_x
 _atom_site_fract_y
 _atom_site_fract_z
 _atom_site_occupancy
  Tc  Tc0  1  0.99543429  0.99186140  0.00614774  1
  Tc  Tc1  1  0.49861924  0.01742634  0.98069198  1
  Tc  Tc2  1  0.50784735  0.33425865  0.99351277  1
  Tc  Tc3  1  0.00188297  0.16615137  0.99790462  1
  Tc  Tc4  1  0.50081125  0.65300148  0.01236483  1
  Tc  Tc5  1  0.00056751  0.33997411  0.99232696  1
  Tc  Tc6  1  0.97700393  0.99859970  0.50130189  1
  Tc  Tc7  1  0.01357675  0.49929709  0.99839874  1
  Tc  Tc8  1  0.98965618  0.65883876  0.01264138  1
  Tc  Tc9  1  0.00522552  0.33484882  0.49928141  1
  Tc  Tc10  1  0.00889649  0.83504916  0.99377685  1
  Tc  Tc11  1  0.99840698  0.66821129  0.50062449  1
  Bi  Bi12  1  0.44835046  0.99579940  0.50626109  1
  Bi  Bi13  1  0.49895470  0.53781778  0.46388852  1
  O  O14  1  0.04921961  0.20574944  0.04295778  1
  O  O15  1  0.33148440  0.08554927  0.33480572  1
  O  O16  1  0.05435636  0.52266421  0.06008983  1
  O  O17  1  0.69608543  0.19569360  0.05407998  1
  O  O18  1  0.04059266  0.09374316  0.71142751  1
  O  O19  1  0.66725633  0.29901938  0.08863519  1
  O  O20  1  0.30295004  0.44281160  0.30740460  1
  O  O21  1  0.05628377  0.22498948  0.69695878  1
  O  O22  1  0.05742506  0.84922721  0.06963527  1
  O  O23  1  0.68911554  0.52568540  0.05402413  1
  O  O24  1  0.93987863  0.09157289  0.32155294  1
  O  O25  1  0.95056299  0.22273059  0.31139885  1
  O  O26  1  0.70084076  0.64647806  0.05296687  1
  O  O27  1  0.30771256  0.01736562  0.94832850  1
  O  O28  1  0.09493430  0.45143569  0.65688517  1
  O  O29  1  0.32753315  0.15489698  0.92917398  1
  O  O30  1  0.33623821  0.74793304  0.33091125  1
  O  O31  1  0.05470506  0.55714518  0.69198931  1
  O  O32  1  0.66321290  0.82079777  0.09962420  1
  O  O33  1  0.94715747  0.44772052  0.30432994  1
  O  O34  1  0.68096950  0.23545586  0.67956011  1
  O  O35  1  0.91404915  0.55799544  0.33132570  1
  O  O36  1  0.29970459  0.34940513  0.95086926  1
  O  O37  1  0.05005312  0.77282729  0.69320745  1
  O  O38  1  0.69240092  0.97926058  0.05323318  1
  O  O39  1  0.30965670  0.47261180  0.94357694  1
  O  O40  1  0.08914717  0.91131874  0.66859914  1
  O  O41  1  0.69963966  0.55375791  0.69450281  1
  O  O42  1  0.94711808  0.14894315  0.93402048  1
  O  O43  1  0.94651648  0.78454800  0.29868028  1
  O  O44  1  0.96002990  0.90182274  0.29747885  1
  O  O45  1  0.32745206  0.69884920  0.91070429  1
  O  O46  1  0.30017140  0.79783726  0.94926246  1
  O  O47  1  0.67750618  0.90500015  0.68151315  1
  O  O48  1  0.93698731  0.47025191  0.94917858  1
  O  O49  1  0.94162097  0.80749438  0.94172426  1
