# generated using pymatgen
data_K2Ti(GeO3)3
_symmetry_space_group_name_H-M   'P 1'
_cell_length_a   12.04833687
_cell_length_b   12.04830542
_cell_length_c   10.61709989
_cell_angle_alpha   90.00758785
_cell_angle_beta   89.99244258
_cell_angle_gamma   119.99553166
_symmetry_Int_Tables_number   1
_chemical_formula_structural   K2Ti(GeO3)3
_chemical_formula_sum   'K12 Ti6 Ge18 O54'
_cell_volume   1334.77834707
_cell_formula_units_Z   6
loop_
 _symmetry_equiv_pos_site_id
 _symmetry_equiv_pos_as_xyz
  1  'x, y, z'
loop_
 _atom_site_type_symbol
 _atom_site_label
 _atom_site_symmetry_multiplicity
 _atom_site_fract_x
 _atom_site_fract_y
 _atom_site_fract_z
 _atom_site_occupancy
  K  K0  1  0.64807436  0.99664015  0.50996327  1
  K  K1  1  0.34716483  0.35127312  0.50946808  1
  K  K2  1  0.99654153  0.64827715  0.99016778  1
  K  K3  1  0.00348286  0.35170428  0.00977461  1
  K  K4  1  0.99620120  0.34836130  0.48990966  1
  K  K5  1  0.00382069  0.65192770  0.50997939  1
  K  K6  1  0.35146720  0.00345879  0.49029547  1
  K  K7  1  0.35108731  0.34700710  0.99060719  1
  K  K8  1  0.64776788  0.65189887  0.00989128  1
  K  K9  1  0.34830945  0.99618886  0.01005875  1
  K  K10  1  0.65194120  0.64781846  0.49015355  1
  K  K11  1  0.65174688  0.00377177  0.98994590  1
  Ti  Ti12  1  0.66661242  0.33330261  0.50841451  1
  Ti  Ti13  1  0.99999407  0.99997881  0.00000451  1
  Ti  Ti14  1  0.33343537  0.66677977  0.49159452  1
  Ti  Ti15  1  0.33331822  0.66658464  0.99158596  1
  Ti  Ti16  1  0.00001056  0.00001987  0.49998573  1
  Ti  Ti17  1  0.66675907  0.33342380  0.00838444  1
  Ge  Ge18  1  0.17749414  0.00002065  0.25010184  1
  Ge  Ge19  1  0.28359253  0.45316603  0.23628636  1
  Ge  Ge20  1  0.54696697  0.83060505  0.23651948  1
  Ge  Ge21  1  0.28358343  0.83039362  0.73649074  1
  Ge  Ge22  1  0.45310584  0.16940988  0.76374030  1
  Ge  Ge23  1  0.71650102  0.16965911  0.26333485  1
  Ge  Ge24  1  0.83060557  0.54695167  0.26358323  1
  Ge  Ge25  1  0.54689391  0.71641122  0.73609898  1
  Ge  Ge26  1  0.82257674  0.00001397  0.74980993  1
  Ge  Ge27  1  0.16941564  0.45312793  0.73619232  1
  Ge  Ge28  1  0.17746247  0.17742568  0.74985689  1
  Ge  Ge29  1  -0.00004074  0.82252483  0.74996026  1
  Ge  Ge30  1  0.00009796  0.17751125  0.25010789  1
  Ge  Ge31  1  0.16967779  0.71649429  0.23665622  1
  Ge  Ge32  1  0.45319605  0.28360924  0.26379466  1
  Ge  Ge33  1  0.83040002  0.28354026  0.76343549  1
  Ge  Ge34  1  0.82259144  0.82262843  0.25011412  1
  Ge  Ge35  1  0.71643052  0.54689299  0.76384548  1
  O  O36  1  0.84847851  0.93465099  0.88683621  1
  O  O37  1  0.48777644  0.76558119  0.38473707  1
  O  O38  1  0.35694710  0.80693000  0.60446439  1
  O  O39  1  0.19318806  0.64298096  0.10443433  1
  O  O40  1  0.64307497  0.45022198  0.89601643  1
  O  O41  1  0.91388180  0.84848098  0.11309612  1
  O  O42  1  0.35705967  0.54973984  0.10380295  1
  O  O43  1  0.45020687  0.64304624  0.60402368  1
  O  O44  1  0.84852323  0.91385479  0.38678933  1
  O  O45  1  0.79339992  0.12513361  0.80665636  1
  O  O46  1  0.19303621  0.54983244  0.60406743  1
  O  O47  1  0.76517650  0.27725506  0.61494814  1
  O  O48  1  0.87489433  0.66827723  0.80687713  1
  O  O49  1  0.23451110  0.51238194  0.88473689  1
  O  O50  1  0.62035204  0.00014216  0.24976101  1
  O  O51  1  0.00014502  0.62036654  0.25029243  1
  O  O52  1  0.54979778  0.19303949  0.89596057  1
  O  O53  1  0.66830612  0.79346454  0.19338269  1
  O  O54  1  0.87483347  0.20654199  0.30675271  1
  O  O55  1  0.91388537  0.06541091  0.61322103  1
  O  O56  1  0.15169400  0.06547587  0.11309099  1
  O  O57  1  0.20655544  0.33175482  0.69335209  1
  O  O58  1  0.37963642  0.99989254  0.75030822  1
  O  O59  1  0.06545069  0.15173694  0.38684292  1
  O  O60  1  0.48749870  0.72248446  0.88449155  1
  O  O61  1  0.80692564  0.45020420  0.39596989  1
  O  O62  1  0.79347281  0.66830721  0.30665777  1
  O  O63  1  0.93472641  0.84846374  0.61324408  1
  O  O64  1  0.20653514  0.87482130  0.19322309  1
  O  O65  1  0.06543243  0.91386809  0.88690260  1
  O  O66  1  0.64302465  0.19324380  0.39546836  1
  O  O67  1  0.99988745  0.37958716  0.74966675  1
  O  O68  1  0.66830004  0.87488063  0.69306775  1
  O  O69  1  0.23488105  0.72282954  0.38489859  1
  O  O70  1  0.51239827  0.23449176  0.61527902  1
  O  O71  1  0.51259407  0.27758665  0.11565927  1
  O  O72  1  0.54976639  0.35707885  0.39619257  1
  O  O73  1  0.80688128  0.35693188  0.89547933  1
  O  O74  1  0.76554804  0.48770465  0.11531453  1
  O  O75  1  0.33174702  0.20655508  0.80661637  1
  O  O76  1  0.37935223  0.37934238  0.25002991  1
  O  O77  1  0.72248114  0.48748439  0.61553398  1
  O  O78  1  0.12518451  0.79344247  0.69331062  1
  O  O79  1  0.27730960  0.76514618  0.88502973  1
  O  O80  1  0.12516373  0.33174977  0.19309226  1
  O  O81  1  0.08624329  0.93469826  0.38674327  1
  O  O82  1  0.33177298  0.12516460  0.30691016  1
  O  O83  1  0.15166869  0.08632394  0.61310820  1
  O  O84  1  0.45014741  0.80686065  0.10408959  1
  O  O85  1  0.93466492  0.08611942  0.11320321  1
  O  O86  1  0.27758758  0.51258329  0.38432809  1
  O  O87  1  0.08622073  0.15156267  0.88691050  1
  O  O88  1  0.62066841  0.62065764  0.75001259  1
  O  O89  1  0.72281791  0.23482915  0.11499960  1
