# generated using pymatgen
data_Ce3NbS3O4
_symmetry_space_group_name_H-M   'P 1'
_cell_length_a   7.03134497
_cell_length_b   7.56072502
_cell_length_c   14.57433952
_cell_angle_alpha   90.00000000
_cell_angle_beta   90.00000000
_cell_angle_gamma   90.00000000
_symmetry_Int_Tables_number   1
_chemical_formula_structural   Ce3NbS3O4
_chemical_formula_sum   'Ce12 Nb4 S12 O16'
_cell_volume   774.80199712
_cell_formula_units_Z   4
loop_
 _symmetry_equiv_pos_site_id
 _symmetry_equiv_pos_as_xyz
  1  'x, y, z'
loop_
 _atom_site_type_symbol
 _atom_site_label
 _atom_site_symmetry_multiplicity
 _atom_site_fract_x
 _atom_site_fract_y
 _atom_site_fract_z
 _atom_site_occupancy
  Ce  Ce0  1  0.71306139  0.75320380  0.15715284  1
  Ce  Ce1  1  0.78693861  0.75320380  0.65715284  1
  Ce  Ce2  1  0.71688582  0.50000000  0.91969831  1
  Ce  Ce3  1  0.21306139  0.75320380  0.34284716  1
  Ce  Ce4  1  0.28693861  0.24679620  0.84284716  1
  Ce  Ce5  1  0.21306139  0.24679620  0.34284716  1
  Ce  Ce6  1  0.28693861  0.75320380  0.84284716  1
  Ce  Ce7  1  0.21688582  0.50000000  0.58030169  1
  Ce  Ce8  1  0.28311418  0.50000000  0.08030169  1
  Ce  Ce9  1  0.78693861  0.24679620  0.65715284  1
  Ce  Ce10  1  0.71306139  0.24679620  0.15715284  1
  Ce  Ce11  1  0.78311418  0.50000000  0.41969831  1
  Nb  Nb12  1  0.74931619  0.00000000  0.43036846  1
  Nb  Nb13  1  0.75068381  0.00000000  0.93036846  1
  Nb  Nb14  1  0.25068381  0.00000000  0.56963154  1
  Nb  Nb15  1  0.24931619  0.00000000  0.06963154  1
  S  S16  1  0.50000000  0.24649571  0.50000000  1
  S  S17  1  0.97144506  0.00000000  0.79197966  1
  S  S18  1  0.02855494  0.00000000  0.20802034  1
  S  S19  1  0.52855494  0.00000000  0.29197966  1
  S  S20  1  0.00000000  0.24649571  0.00000000  1
  S  S21  1  0.50000000  0.75350429  0.50000000  1
  S  S22  1  0.00000000  0.75350429  0.00000000  1
  S  S23  1  0.47144506  0.00000000  0.70802034  1
  S  S24  1  0.50659825  0.50000000  0.72580596  1
  S  S25  1  0.99340175  0.50000000  0.22580596  1
  S  S26  1  0.00659825  0.50000000  0.77419404  1
  S  S27  1  0.49340175  0.50000000  0.27419404  1
  O  O28  1  0.62344801  0.20755367  0.88628745  1
  O  O29  1  0.86702597  0.50000000  0.57250597  1
  O  O30  1  0.37655199  0.79244633  0.11371255  1
  O  O31  1  0.12344801  0.79244633  0.61371255  1
  O  O32  1  0.31693851  0.00000000  0.94008621  1
  O  O33  1  0.81693851  0.00000000  0.55991379  1
  O  O34  1  0.13297403  0.50000000  0.42749403  1
  O  O35  1  0.87655199  0.79244633  0.38628745  1
  O  O36  1  0.18306149  0.00000000  0.44008621  1
  O  O37  1  0.87655199  0.20755367  0.38628745  1
  O  O38  1  0.37655199  0.20755367  0.11371255  1
  O  O39  1  0.12344801  0.20755367  0.61371255  1
  O  O40  1  0.63297403  0.50000000  0.07250597  1
  O  O41  1  0.36702597  0.50000000  0.92749403  1
  O  O42  1  0.62344801  0.79244633  0.88628745  1
  O  O43  1  0.68306149  0.00000000  0.05991379  1
