# generated using pymatgen
data_Ba3La3Ti4NbO18
_symmetry_space_group_name_H-M   'P 1'
_cell_length_a   14.17746131
_cell_length_b   14.17746105
_cell_length_c   14.17746192
_cell_angle_alpha   23.12808524
_cell_angle_beta   23.12808768
_cell_angle_gamma   23.12808654
_symmetry_Int_Tables_number   1
_chemical_formula_structural   Ba3La3Ti4NbO18
_chemical_formula_sum   'Ba3 La3 Ti4 Nb1 O18'
_cell_volume   385.91965334
_cell_formula_units_Z   1
loop_
 _symmetry_equiv_pos_site_id
 _symmetry_equiv_pos_as_xyz
  1  'x, y, z'
loop_
 _atom_site_type_symbol
 _atom_site_label
 _atom_site_symmetry_multiplicity
 _atom_site_fract_x
 _atom_site_fract_y
 _atom_site_fract_z
 _atom_site_occupancy
  Ba  Ba0  1  0.13810312  0.13810312  0.13810312  1
  Ba  Ba1  1  0.31223022  0.31223022  0.31223022  1
  Ba  Ba2  1  0.58398628  0.58398628  0.58398628  1
  La  La3  1  0.40964405  0.40964405  0.40964405  1
  La  La4  1  0.68485087  0.68485087  0.68485087  1
  La  La5  1  0.86077925  0.86077925  0.86077925  1
  Ti  Ti6  1  0.05233607  0.05233607  0.05233607  1
  Ti  Ti7  1  0.22186989  0.22186989  0.22186989  1
  Ti  Ti8  1  0.49802799  0.49802799  0.49802799  1
  Ti  Ti9  1  0.77531244  0.77531244  0.77531244  1
  Nb  Nb10  1  0.94891729  0.94891729  0.94891729  1
  O  O11  1  0.07821240  0.07821240  0.58574514  1
  O  O12  1  0.07821240  0.58574514  0.07821240  1
  O  O13  1  0.58574514  0.07821240  0.07821240  1
  O  O14  1  0.20192246  0.20192246  0.69394186  1
  O  O15  1  0.20192246  0.69394186  0.20192246  1
  O  O16  1  0.69394186  0.20192246  0.20192246  1
  O  O17  1  0.13700303  0.64223175  0.64223175  1
  O  O18  1  0.64223175  0.64223175  0.13700303  1
  O  O19  1  0.64223175  0.13700303  0.64223175  1
  O  O20  1  0.36000629  0.86174585  0.36000629  1
  O  O21  1  0.36000629  0.36000629  0.86174585  1
  O  O22  1  0.86174585  0.36000629  0.36000629  1
  O  O23  1  0.30868283  0.80418118  0.80418118  1
  O  O24  1  0.80418118  0.80418118  0.30868283  1
  O  O25  1  0.80418118  0.30868283  0.80418118  1
  O  O26  1  0.42409960  0.91480802  0.91480802  1
  O  O27  1  0.91480802  0.42409960  0.91480802  1
  O  O28  1  0.91480802  0.91480802  0.42409960  1
