# generated using pymatgen
data_Ti8Fe35O64
_symmetry_space_group_name_H-M   'P 1'
_cell_length_a   8.56171163
_cell_length_b   8.53056676
_cell_length_c   17.11535389
_cell_angle_alpha   89.79632840
_cell_angle_beta   90.22791082
_cell_angle_gamma   89.93829052
_symmetry_Int_Tables_number   1
_chemical_formula_structural   Ti8Fe35O64
_chemical_formula_sum   'Ti8 Fe35 O64'
_cell_volume   1250.02277993
_cell_formula_units_Z   1
loop_
 _symmetry_equiv_pos_site_id
 _symmetry_equiv_pos_as_xyz
  1  'x, y, z'
loop_
 _atom_site_type_symbol
 _atom_site_label
 _atom_site_symmetry_multiplicity
 _atom_site_fract_x
 _atom_site_fract_y
 _atom_site_fract_z
 _atom_site_occupancy
  Ti  Ti0  1  0.11419835  0.62488530  0.57214120  1
  Ti  Ti1  1  0.12145937  0.36860145  0.44555829  1
  Ti  Ti2  1  0.13598002  0.37240459  0.94565308  1
  Ti  Ti3  1  0.13963412  0.11710442  0.31558487  1
  Ti  Ti4  1  0.14502200  0.11564932  0.80910084  1
  Ti  Ti5  1  0.35737929  0.87731648  0.05694936  1
  Ti  Ti6  1  0.36381155  0.89311623  0.56094890  1
  Ti  Ti7  1  0.61615103  0.62179701  0.81233661  1
  Fe  Fe8  1  0.00384279  0.49895283  0.25372071  1
  Fe  Fe9  1  0.99512046  0.48900951  0.75340944  1
  Fe  Fe10  1  0.11707648  0.86317853  0.18202504  1
  Fe  Fe11  1  0.25315218  0.74308899  0.37821352  1
  Fe  Fe12  1  0.24477771  0.74685830  0.87815401  1
  Fe  Fe13  1  0.25648691  0.24107124  0.12888340  1
  Fe  Fe14  1  0.25603395  0.25302163  0.63062954  1
  Fe  Fe15  1  0.36700387  0.62170458  0.18622501  1
  Fe  Fe16  1  0.36882715  0.62841900  0.68887340  1
  Fe  Fe17  1  0.38088692  0.37393891  0.31723046  1
  Fe  Fe18  1  0.38221397  0.36505355  0.81658163  1
  Fe  Fe19  1  0.50105943  0.50715116  0.00132967  1
  Fe  Fe20  1  0.48716777  0.50603500  0.49968626  1
  Fe  Fe21  1  0.49802590  0.00027871  0.24581878  1
  Fe  Fe22  1  0.50756951  -0.00325351  0.74259993  1
  Fe  Fe23  1  0.61788648  0.88014319  0.43542623  1
  Fe  Fe24  1  0.61730762  0.88754043  0.93443634  1
  Fe  Fe25  1  0.62086299  0.12899226  0.05568793  1
  Fe  Fe26  1  0.62688125  0.62433918  0.31442618  1
  Fe  Fe27  1  0.62766012  0.13752676  0.55584192  1
  Fe  Fe28  1  0.63024189  0.37377975  0.18703889  1
  Fe  Fe29  1  0.62970774  0.37925701  0.68112956  1
  Fe  Fe30  1  0.73822413  0.75159842  0.12440784  1
  Fe  Fe31  1  0.74865853  0.76128776  0.62511009  1
  Fe  Fe32  1  0.75939675  0.24429041  0.37375412  1
  Fe  Fe33  1  0.76379521  0.25111692  0.87432104  1
  Fe  Fe34  1  0.87966079  0.62975217  0.94227522  1
  Fe  Fe35  1  0.86994492  0.61673055  0.44223562  1
  Fe  Fe36  1  0.88387412  0.38464992  0.06533737  1
  Fe  Fe37  1  0.87310201  0.86930172  0.31126028  1
  Fe  Fe38  1  0.88152615  0.87297567  0.80805927  1
  Fe  Fe39  1  0.87483304  0.12494675  0.18515816  1
  Fe  Fe40  1  0.88393049  0.12598024  0.68330694  1
  Fe  Fe41  1  0.99309745  0.99628444  0.49772853  1
  Fe  Fe42  1  0.99148115  0.00893784  0.99515005  1
  O  O43  1  0.12047525  0.60930499  0.44206343  1
  O  O44  1  0.11043222  0.60225261  0.92876981  1
  O  O45  1  0.12154340  0.89026144  0.31831418  1
  O  O46  1  0.11623564  0.88972597  0.82117391  1
  O  O47  1  0.12560821  0.11968972  0.19837202  1
  O  O48  1  0.10994399  0.13661723  0.70163854  1
  O  O49  1  0.11322910  0.14022980  0.43159063  1
  O  O50  1  0.10583320  0.14554303  0.92662902  1
  O  O51  1  0.12924906  0.34803402  0.05403278  1
  O  O52  1  0.13859757  0.39604170  0.55302144  1
  O  O53  1  0.13962013  0.89991105  0.05949024  1
  O  O54  1  0.14169435  0.86219452  0.55248691  1
  O  O55  1  0.13827095  0.62535425  0.19422788  1
  O  O56  1  0.12103885  0.60189177  0.67979195  1
  O  O57  1  0.13787268  0.35631296  0.31802897  1
  O  O58  1  0.12712087  0.35717568  0.81947867  1
  O  O59  1  0.39109903  0.64600802  0.06905890  1
  O  O60  1  0.35568628  0.63965666  0.56322051  1
  O  O61  1  0.35279654  0.38796449  0.43101813  1
  O  O62  1  0.35623998  0.39474271  0.93647813  1
  O  O63  1  0.35861163  0.13088329  0.30672645  1
  O  O64  1  0.36188108  0.11343768  0.80351694  1
  O  O65  1  0.37517070  0.61464503  0.30862989  1
  O  O66  1  0.39306479  0.63438162  0.81393110  1
  O  O67  1  0.37254113  0.86227746  0.18161136  1
  O  O68  1  0.39574198  0.86605647  0.67413334  1
  O  O69  1  0.38597979  0.86251101  0.44487223  1
  O  O70  1  0.37715293  0.85700403  0.94768270  1
  O  O71  1  0.38674267  0.10481140  0.07073426  1
  O  O72  1  0.38746464  0.10506071  0.56475203  1
  O  O73  1  0.38363279  0.38287259  0.19329694  1
  O  O74  1  0.39743929  0.39015014  0.69730060  1
  O  O75  1  0.60917864  0.89085421  0.06136404  1
  O  O76  1  0.61132393  0.88207589  0.55500154  1
  O  O77  1  0.61260570  0.61331287  0.19190057  1
  O  O78  1  0.63436362  0.61823632  0.69494439  1
  O  O79  1  0.61515151  0.36789640  0.30936784  1
  O  O80  1  0.63139036  0.39254179  0.81081656  1
  O  O81  1  0.61952514  0.36698696  0.06753622  1
  O  O82  1  0.60682309  0.36900123  0.56509661  1
  O  O83  1  0.63935348  0.13075064  0.94058984  1
  O  O84  1  0.64061787  0.11602525  0.44200382  1
  O  O85  1  0.63446332  0.62116360  0.92715627  1
  O  O86  1  0.62350437  0.63389343  0.43669190  1
  O  O87  1  0.63199729  0.88202394  0.31633772  1
  O  O88  1  0.63208377  0.85841051  0.81053459  1
  O  O89  1  0.62497821  0.13636409  0.18313889  1
  O  O90  1  0.63587147  0.13867797  0.68050590  1
  O  O91  1  0.86252112  0.86884972  0.43080716  1
  O  O92  1  0.86895822  0.86489700  0.93082444  1
  O  O93  1  0.86247286  0.12971478  0.06408751  1
  O  O94  1  0.86552172  0.10753888  0.56801045  1
  O  O95  1  0.86521320  0.37685987  0.18982292  1
  O  O96  1  0.86102745  0.36118105  0.69456794  1
  O  O97  1  0.87190012  0.87258422  0.19280962  1
  O  O98  1  0.86086269  0.88870335  0.69398094  1
  O  O99  1  0.87735876  0.63719193  0.31495584  1
  O  O100  1  0.86288439  0.63427722  0.81583717  1
  O  O101  1  0.85185639  0.62438187  0.05524682  1
  O  O102  1  0.89645024  0.65194317  0.56303640  1
  O  O103  1  0.89229481  0.38927305  0.93762484  1
  O  O104  1  0.89943512  0.37839966  0.42650612  1
  O  O105  1  0.89556721  0.11316872  0.30939060  1
  O  O106  1  0.88324961  0.11000171  0.80780007  1
