# generated using pymatgen
data_BeH8(NF2)2
_symmetry_space_group_name_H-M   'P 1'
_cell_length_a   7.98925510
_cell_length_b   11.05489097
_cell_length_c   5.85543978
_cell_angle_alpha   90.00003633
_cell_angle_beta   90.00023141
_cell_angle_gamma   90.01348735
_symmetry_Int_Tables_number   1
_chemical_formula_structural   BeH8(NF2)2
_chemical_formula_sum   'Be4 H32 N8 F16'
_cell_volume   517.15444168
_cell_formula_units_Z   4
loop_
 _symmetry_equiv_pos_site_id
 _symmetry_equiv_pos_as_xyz
  1  'x, y, z'
loop_
 _atom_site_type_symbol
 _atom_site_label
 _atom_site_symmetry_multiplicity
 _atom_site_fract_x
 _atom_site_fract_y
 _atom_site_fract_z
 _atom_site_occupancy
  Be  Be0  1  0.44362744  0.33878196  0.25000081  1
  Be  Be1  1  0.94345143  0.16135415  0.24999892  1
  Be  Be2  1  0.55651893  0.66088501  0.74999940  1
  Be  Be3  1  0.05626257  0.83897895  0.75000068  1
  H  H4  1  0.04606027  0.41525568  0.24999662  1
  H  H5  1  0.54608526  0.08496907  0.25000077  1
  H  H6  1  0.95404136  0.58500226  0.75000120  1
  H  H7  1  0.45463567  0.91498551  0.74999726  1
  H  H8  1  0.74077379  0.35316314  0.25000075  1
  H  H9  1  0.24072551  0.14706778  0.24999950  1
  H  H10  1  0.25931106  0.64674810  0.75000069  1
  H  H11  1  0.75907107  0.85276396  0.75000143  1
  H  H12  1  0.65798344  0.46857387  0.11247243  1
  H  H13  1  0.15777915  0.03168005  0.38751282  1
  H  H14  1  0.34201583  0.53130401  0.61246270  1
  H  H15  1  0.84146106  0.96835666  0.88750537  1
  H  H16  1  0.34201564  0.53130439  0.88754026  1
  H  H17  1  0.84146189  0.96835545  0.61249762  1
  H  H18  1  0.65798428  0.46857440  0.38752958  1
  H  H19  1  0.15777972  0.03167987  0.11248476  1
  H  H20  1  0.00220323  0.78052299  0.25000238  1
  H  H21  1  0.50233777  0.71953163  0.24999718  1
  H  H22  1  0.99771636  0.21944253  0.74999536  1
  H  H23  1  0.49753080  0.28021641  0.74999786  1
  H  H24  1  0.98850780  0.62674921  0.25000080  1
  H  H25  1  0.48841859  0.87331696  0.25000030  1
  H  H26  1  0.01145342  0.37319531  0.74999918  1
  H  H27  1  0.51210150  0.12645231  0.74999873  1
  H  H28  1  0.84404711  0.70626875  0.10778027  1
  H  H29  1  0.34409738  0.79360462  0.39223118  1
  H  H30  1  0.15590047  0.29365521  0.60776459  1
  H  H31  1  0.65608046  0.20646378  0.89220216  1
  H  H32  1  0.15589871  0.29365447  0.89223572  1
  H  H33  1  0.65608135  0.20646421  0.60779944  1
  H  H34  1  0.84404747  0.70626847  0.39222226  1
  H  H35  1  0.34409400  0.79360591  0.10776799  1
  N  N36  1  0.64108579  0.41154643  0.25000113  1
  N  N37  1  0.14098230  0.08873736  0.24999918  1
  N  N38  1  0.35894026  0.58832601  0.75000153  1
  N  N39  1  0.85857042  0.91138936  0.75000163  1
  N  N40  1  0.92027857  0.70852782  0.25000088  1
  N  N41  1  0.42028935  0.79149054  0.25000024  1
  N  N42  1  0.07964796  0.29145930  0.74999906  1
  N  N43  1  0.58001723  0.20860554  0.74999924  1
  F  F44  1  0.84984940  0.13632908  0.02405605  1
  F  F45  1  0.34984386  0.36362875  0.47584377  1
  F  F46  1  0.14987376  0.86409547  0.52417276  1
  F  F47  1  0.65016738  0.63604725  0.97592638  1
  F  F48  1  0.14987842  0.86409259  0.97582863  1
  F  F49  1  0.65016688  0.63604315  0.52407533  1
  F  F50  1  0.84985635  0.13633336  0.47594853  1
  F  F51  1  0.34983732  0.36363344  0.02416296  1
  F  F52  1  0.47962974  0.19647106  0.24999232  1
  F  F53  1  0.97934904  0.30369621  0.24999513  1
  F  F54  1  0.52021328  0.80335819  0.74999413  1
  F  F55  1  0.02080393  0.69657610  0.75000113  1
  F  F56  1  0.08870095  0.50178815  0.24999711  1
  F  F57  1  0.58857558  0.99843466  0.25000793  1
  F  F58  1  0.91156778  0.49853580  0.74999754  1
  F  F59  1  0.41231267  0.00165735  0.74999840  1
