# generated using pymatgen
data_YAl6Si30(N15O)3
_symmetry_space_group_name_H-M   'P 1'
_cell_length_a   7.92887825
_cell_length_b   7.88304543
_cell_length_c   17.12646136
_cell_angle_alpha   90.28235909
_cell_angle_beta   89.81660481
_cell_angle_gamma   120.32009388
_symmetry_Int_Tables_number   1
_chemical_formula_structural   YAl6Si30(N15O)3
_chemical_formula_sum   'Y1 Al6 Si30 N45 O3'
_cell_volume   924.03572850
_cell_formula_units_Z   1
loop_
 _symmetry_equiv_pos_site_id
 _symmetry_equiv_pos_as_xyz
  1  'x, y, z'
loop_
 _atom_site_type_symbol
 _atom_site_label
 _atom_site_symmetry_multiplicity
 _atom_site_fract_x
 _atom_site_fract_y
 _atom_site_fract_z
 _atom_site_occupancy
  Y  Y0  1  0.67595495  0.32979813  0.72837956  1
  Al  Al1  1  0.09639676  0.58160256  0.71755719  1
  Al  Al2  1  0.91604023  0.48345403  0.55060708  1
  Al  Al3  1  0.92510311  0.49290158  0.89275042  1
  Al  Al4  1  0.91350852  0.16579292  0.31971189  1
  Al  Al5  1  0.92298426  0.16907392  0.65030806  1
  Al  Al6  1  0.91406872  0.16601411  0.98695307  1
  Si  Si7  1  0.16931112  0.92823732  0.15158896  1
  Si  Si8  1  0.16872873  0.92714227  0.48051053  1
  Si  Si9  1  0.17049416  0.92866579  0.81853590  1
  Si  Si10  1  0.08318913  0.56596774  0.05483325  1
  Si  Si11  1  0.08786280  0.56857309  0.38390178  1
  Si  Si12  1  0.08900670  0.26041522  0.15320091  1
  Si  Si13  1  0.08865494  0.26052226  0.48524411  1
  Si  Si14  1  0.07883729  0.25623657  0.81969966  1
  Si  Si15  1  0.48641213  0.91789089  0.05574748  1
  Si  Si16  1  0.48876431  0.92045913  0.38693496  1
  Si  Si17  1  0.48647755  0.90665135  0.72003956  1
  Si  Si18  1  0.42886494  0.51075479  0.05661050  1
  Si  Si19  1  0.43115282  0.51174857  0.38771348  1
  Si  Si20  1  0.42638302  0.51138828  0.72132815  1
  Si  Si21  1  0.25298654  0.08527966  0.31719915  1
  Si  Si22  1  0.24680600  0.07382188  0.64857421  1
  Si  Si23  1  0.24867375  0.08051703  0.98572414  1
  Si  Si24  1  0.51455037  0.43036746  0.22141581  1
  Si  Si25  1  0.51318354  0.42964287  0.55134793  1
  Si  Si26  1  0.50781632  0.42788879  0.88965338  1
  Si  Si27  1  0.74459064  0.83507600  0.15235101  1
  Si  Si28  1  0.74552885  0.83492645  0.48335590  1
  Si  Si29  1  0.74796219  0.83045415  0.82006364  1
  Si  Si30  1  0.83651353  0.74787930  0.31800128  1
  Si  Si31  1  0.83119855  0.74576737  0.64937299  1
  Si  Si32  1  0.83561840  0.74604792  0.98845212  1
  Si  Si33  1  0.56865750  0.08054028  0.22218186  1
  Si  Si34  1  0.56535945  0.07600451  0.89063243  1
  Si  Si35  1  0.56311892  0.07917669  0.55229418  1
  Si  Si36  1  0.91360284  0.47964470  0.22418530  1
  N  N37  1  0.00638603  0.99234512  0.31858197  1
  N  N38  1  0.00350935  0.98802777  0.65271720  1
  N  N39  1  0.30967996  0.98980086  0.06765381  1
  N  N40  1  0.31656995  0.99733165  0.39906872  1
  N  N41  1  0.32459289  0.00096934  0.73393745  1
  N  N42  1  0.00727924  0.32669104  0.07323048  1
  N  N43  1  0.00664120  0.32930103  0.40517815  1
  N  N44  1  0.98386845  0.31906934  0.74092918  1
  N  N45  1  0.33181809  0.66539752  0.04169560  1
  N  N46  1  0.33584402  0.66784349  0.37246204  1
  N  N47  1  0.34790520  0.66740827  0.69724511  1
  N  N48  1  0.99805011  0.00034876  0.81682517  1
  N  N49  1  0.60840435  0.95327588  0.47857123  1
  N  N50  1  0.60907034  0.95525135  0.14603031  1
  N  N51  1  0.60920483  0.95237181  0.81110121  1
  N  N52  1  0.34759778  0.38630200  0.14616372  1
  N  N53  1  0.34663769  0.38756305  0.47751092  1
  N  N54  1  0.34404703  0.38484793  0.81016130  1
  N  N55  1  0.39137454  0.34485480  0.31164279  1
  N  N56  1  0.40137469  0.33853972  0.64745379  1
  N  N57  1  0.39198814  0.34216328  0.98002915  1
  N  N58  1  0.31847057  0.00584367  0.23177783  1
  N  N59  1  0.30889134  0.99037141  0.56478788  1
  N  N60  1  0.31642417  0.00346260  0.89963947  1
  N  N61  1  0.67741861  0.68803640  0.06773357  1
  N  N62  1  0.68178201  0.68592164  0.39945111  1
  N  N63  1  0.68117032  0.67086373  0.73575143  1
  N  N64  1  0.69050289  0.68105961  0.23304390  1
  N  N65  1  0.68913768  0.67755994  0.90097214  1
  N  N66  1  0.68309525  0.68252219  0.56566529  1
  N  N67  1  0.66750889  0.33364172  0.20319278  1
  N  N68  1  0.65252582  0.32371120  0.53387783  1
  N  N69  1  0.65696776  0.32651680  0.86328073  1
  N  N70  1  0.99786596  0.00235536  0.15217292  1
  N  N71  1  0.00341155  0.99045667  0.98585767  1
  N  N72  1  0.64372448  0.05688424  0.64709024  1
  N  N73  1  0.64325078  0.04046299  0.31104198  1
  N  N74  1  0.64069872  0.04053606  0.97906183  1
  N  N75  1  0.95489928  0.60803938  0.31217815  1
  N  N76  1  0.92590065  0.59305618  0.64951504  1
  N  N77  1  0.95121995  0.61012008  0.98811907  1
  N  N78  1  0.00684175  0.32851965  0.23266323  1
  N  N79  1  0.00969306  0.32107682  0.90108402  1
  N  N80  1  0.01596227  0.32515084  0.56627582  1
  N  N81  1  0.99809289  0.00150873  0.48366645  1
  O  O82  1  0.04412977  0.66125702  0.14836734  1
  O  O83  1  0.04810048  0.67058133  0.47149901  1
  O  O84  1  0.05277162  0.67778615  0.81241519  1
