# generated using pymatgen
data_SbH32C8N4Cl7
_symmetry_space_group_name_H-M   'P 1'
_cell_length_a   8.65108933
_cell_length_b   10.41257769
_cell_length_c   13.84895724
_cell_angle_alpha   90.00000000
_cell_angle_beta   90.00000000
_cell_angle_gamma   90.00000000
_symmetry_Int_Tables_number   1
_chemical_formula_structural   SbH32C8N4Cl7
_chemical_formula_sum   'Sb2 H64 C16 N8 Cl14'
_cell_volume   1247.51600360
_cell_formula_units_Z   2
loop_
 _symmetry_equiv_pos_site_id
 _symmetry_equiv_pos_as_xyz
  1  'x, y, z'
loop_
 _atom_site_type_symbol
 _atom_site_label
 _atom_site_symmetry_multiplicity
 _atom_site_fract_x
 _atom_site_fract_y
 _atom_site_fract_z
 _atom_site_occupancy
  Sb  Sb0  1  0.57396433  0.00000000  0.00000000  1
  Sb  Sb1  1  0.42603567  0.50000000  0.50000000  1
  H  H2  1  0.87945794  0.82032424  0.06960541  1
  H  H3  1  0.87945794  0.17967576  0.93039459  1
  H  H4  1  0.12054206  0.67967576  0.56960541  1
  H  H5  1  0.12054206  0.32032424  0.43039459  1
  H  H6  1  0.96909140  0.67696695  0.05878744  1
  H  H7  1  0.96909140  0.32303305  0.94121256  1
  H  H8  1  0.03090860  0.82303305  0.55878744  1
  H  H9  1  0.03090860  0.17696695  0.44121256  1
  H  H10  1  0.49054196  0.70926402  0.81153881  1
  H  H11  1  0.49054196  0.29073598  0.18846119  1
  H  H12  1  0.50945804  0.79073598  0.31153881  1
  H  H13  1  0.50945804  0.20926402  0.68846119  1
  H  H14  1  0.51969133  0.57332512  0.74684901  1
  H  H15  1  0.51969133  0.42667488  0.25315099  1
  H  H16  1  0.48030867  0.92667488  0.24684901  1
  H  H17  1  0.48030867  0.07332512  0.75315099  1
  H  H18  1  0.13562425  0.92160386  0.09943300  1
  H  H19  1  0.13562425  0.07839614  0.90056700  1
  H  H20  1  0.86437575  0.57839614  0.59943300  1
  H  H21  1  0.86437575  0.42160386  0.40056700  1
  H  H22  1  0.21652516  0.76502969  0.07853056  1
  H  H23  1  0.21652516  0.23497031  0.92146944  1
  H  H24  1  0.78347484  0.73497031  0.57853056  1
  H  H25  1  0.78347484  0.26502969  0.42146944  1
  H  H26  1  0.11507804  0.84431783  0.98405024  1
  H  H27  1  0.11507804  0.15568217  0.01594976  1
  H  H28  1  0.88492196  0.65568217  0.48405024  1
  H  H29  1  0.88492196  0.34431783  0.51594976  1
  H  H30  1  0.05551762  0.68802185  0.22450047  1
  H  H31  1  0.05551762  0.31197815  0.77549953  1
  H  H32  1  0.94448238  0.81197815  0.72450047  1
  H  H33  1  0.94448238  0.18802185  0.27549953  1
  H  H34  1  0.95756306  0.83933844  0.23651829  1
  H  H35  1  0.95756306  0.16066156  0.76348171  1
  H  H36  1  0.04243694  0.66066156  0.73651829  1
  H  H37  1  0.04243694  0.33933844  0.26348171  1
  H  H38  1  0.84903988  0.69611224  0.21329647  1
  H  H39  1  0.84903988  0.30388776  0.78670353  1
  H  H40  1  0.15096012  0.80388776  0.71329647  1
  H  H41  1  0.15096012  0.19611224  0.28670353  1
  H  H42  1  0.64435725  0.62261966  0.94320061  1
  H  H43  1  0.64435725  0.37738034  0.05679939  1
  H  H44  1  0.35564275  0.87738034  0.44320061  1
  H  H45  1  0.35564275  0.12261966  0.55679939  1
  H  H46  1  0.67882283  0.48157829  0.87132812  1
  H  H47  1  0.67882283  0.51842171  0.12867188  1
  H  H48  1  0.32117717  0.01842171  0.37132812  1
  H  H49  1  0.32117717  0.98157829  0.62867188  1
  H  H50  1  0.75040145  0.63524257  0.83319328  1
  H  H51  1  0.75040145  0.36475743  0.16680672  1
  H  H52  1  0.24959855  0.86475743  0.33319328  1
  H  H53  1  0.24959855  0.13524257  0.66680672  1
  H  H54  1  0.38469451  0.45145489  0.87423528  1
  H  H55  1  0.38469451  0.54854511  0.12576472  1
  H  H56  1  0.61530549  0.04854511  0.37423528  1
  H  H57  1  0.61530549  0.95145489  0.62576472  1
  H  H58  1  0.35582812  0.60226325  0.93459113  1
  H  H59  1  0.35582812  0.39773675  0.06540887  1
  H  H60  1  0.64417188  0.89773675  0.43459113  1
  H  H61  1  0.64417188  0.10226325  0.56540887  1
  H  H62  1  0.26905755  0.57526413  0.81993590  1
  H  H63  1  0.26905755  0.42473587  0.18006410  1
  H  H64  1  0.73094245  0.92473587  0.31993590  1
  H  H65  1  0.73094245  0.07526413  0.68006410  1
  C  C66  1  0.11996867  0.82957528  0.06233947  1
  C  C67  1  0.11996867  0.17042472  0.93766053  1
  C  C68  1  0.88003133  0.67042472  0.56233947  1
  C  C69  1  0.88003133  0.32957528  0.43766053  1
  C  C70  1  0.95829160  0.74651831  0.19936349  1
  C  C71  1  0.95829160  0.25348169  0.80063651  1
  C  C72  1  0.04170840  0.75348169  0.69936349  1
  C  C73  1  0.04170840  0.24651831  0.30063651  1
  C  C74  1  0.65601589  0.58511047  0.86995508  1
  C  C75  1  0.65601589  0.41488953  0.13004492  1
  C  C76  1  0.34398411  0.91488953  0.36995508  1
  C  C77  1  0.34398411  0.08511047  0.63004492  1
  C  C78  1  0.37023073  0.55525987  0.86462536  1
  C  C79  1  0.37023073  0.44474013  0.13537464  1
  C  C80  1  0.62976927  0.94474013  0.36462536  1
  C  C81  1  0.62976927  0.05525987  0.63537464  1
  N  N82  1  0.97342758  0.76737384  0.09356948  1
  N  N83  1  0.97342758  0.23262616  0.90643052  1
  N  N84  1  0.02657242  0.73262616  0.59356948  1
  N  N85  1  0.02657242  0.26737384  0.40643052  1
  N  N86  1  0.50945728  0.61010465  0.81650001  1
  N  N87  1  0.50945728  0.38989535  0.18349999  1
  N  N88  1  0.49054272  0.88989535  0.31650001  1
  N  N89  1  0.49054272  0.11010465  0.68349999  1
  Cl  Cl90  1  0.57581341  0.22421302  0.90758480  1
  Cl  Cl91  1  0.57581341  0.77578698  0.09241520  1
  Cl  Cl92  1  0.42418659  0.27578698  0.40758480  1
  Cl  Cl93  1  0.42418659  0.72421302  0.59241520  1
  Cl  Cl94  1  0.37957264  0.09640953  0.14773975  1
  Cl  Cl95  1  0.37957264  0.90359047  0.85226025  1
  Cl  Cl96  1  0.62042736  0.40359047  0.64773975  1
  Cl  Cl97  1  0.62042736  0.59640953  0.35226025  1
  Cl  Cl98  1  0.79608993  0.92568845  0.88808856  1
  Cl  Cl99  1  0.79608993  0.07431155  0.11191144  1
  Cl  Cl100  1  0.20391007  0.57431155  0.38808856  1
  Cl  Cl101  1  0.20391007  0.42568845  0.61191144  1
  Cl  Cl102  1  0.01031462  0.50000000  0.00000000  1
  Cl  Cl103  1  0.98968538  0.00000000  0.50000000  1
