# generated using pymatgen
data_VP2O7
_symmetry_space_group_name_H-M   'P 1'
_cell_length_a   6.36737797
_cell_length_b   10.59635380
_cell_length_c   9.48059249
_cell_angle_alpha   64.67948968
_cell_angle_beta   106.45833668
_cell_angle_gamma   94.57790052
_symmetry_Int_Tables_number   1
_chemical_formula_structural   VP2O7
_chemical_formula_sum   'V4 P8 O28'
_cell_volume   553.88902626
_cell_formula_units_Z   4
loop_
 _symmetry_equiv_pos_site_id
 _symmetry_equiv_pos_as_xyz
  1  'x, y, z'
loop_
 _atom_site_type_symbol
 _atom_site_label
 _atom_site_symmetry_multiplicity
 _atom_site_fract_x
 _atom_site_fract_y
 _atom_site_fract_z
 _atom_site_occupancy
  V  V0  1  0.62733269  0.75751269  0.50185835  1
  V  V1  1  0.36964043  0.24888059  0.48769787  1
  V  V2  1  0.73064666  0.77843666  0.09447928  1
  V  V3  1  0.27145091  0.22408245  0.89589323  1
  P  P4  1  0.94456990  0.78009372  0.81663362  1
  P  P5  1  0.30960116  0.96614145  0.79772543  1
  P  P6  1  0.89131524  0.30113621  0.55014775  1
  P  P7  1  0.10632106  0.70391031  0.44074490  1
  P  P8  1  0.05571372  0.22427040  0.17223427  1
  P  P9  1  0.40794327  0.46101639  0.67861646  1
  P  P10  1  0.69238650  0.03768502  0.19143571  1
  P  P11  1  0.58958192  0.54410701  0.31440782  1
  O  O12  1  0.19063266  0.54128195  0.54395847  1
  O  O13  1  0.92530266  0.08622899  0.26248225  1
  O  O14  1  0.06544232  0.64568172  0.88271318  1
  O  O15  1  0.42673127  0.31795792  0.67159059  1
  O  O16  1  0.12545844  0.18271254  0.05360382  1
  O  O17  1  0.72767923  0.80438448  0.67193526  1
  O  O18  1  0.73093946  0.94852142  0.10561412  1
  O  O19  1  0.94141635  0.73422043  0.51184638  1
  O  O20  1  0.64142099  0.59186302  0.14849446  1
  O  O21  1  0.59745421  0.55522356  0.65086096  1
  O  O22  1  0.68299631  0.21967750  0.52980037  1
  O  O23  1  0.45351413  0.83758268  0.91953185  1
  O  O24  1  0.31392175  0.78649936  0.45888065  1
  O  O25  1  0.98982720  0.28141037  0.72538515  1
  O  O26  1  0.27043393  0.20238163  0.31775884  1
  O  O27  1  0.80553261  0.46407326  0.45102889  1
  O  O28  1  0.93293350  0.35851535  0.10300038  1
  O  O29  1  0.27139038  0.05420329  0.88488580  1
  O  O30  1  0.35665217  0.41153998  0.84470178  1
  O  O31  1  0.07626501  0.91769471  0.72738971  1
  O  O32  1  0.00948079  0.71940701  0.26683672  1
  O  O33  1  0.39355685  0.05783494  0.65275059  1
  O  O34  1  0.60524836  0.94795689  0.33561140  1
  O  O35  1  0.88104431  0.81958491  0.93925370  1
  O  O36  1  0.05508059  0.27428954  0.47572707  1
  O  O37  1  0.39872758  0.45094597  0.34098516  1
  O  O38  1  0.57042434  0.68748483  0.31987887  1
  O  O39  1  0.55109311  0.16677583  0.06761188  1
