# generated using pymatgen
data_MnF4
_symmetry_space_group_name_H-M   'P 1'
_cell_length_a   10.48636515
_cell_length_b   10.48636531
_cell_length_c   13.16275532
_cell_angle_alpha   33.19446857
_cell_angle_beta   33.19446727
_cell_angle_gamma   56.60592086
_symmetry_Int_Tables_number   1
_chemical_formula_structural   MnF4
_chemical_formula_sum   'Mn6 F24'
_cell_volume   375.72297354
_cell_formula_units_Z   6
loop_
 _symmetry_equiv_pos_site_id
 _symmetry_equiv_pos_as_xyz
  1  'x, y, z'
loop_
 _atom_site_type_symbol
 _atom_site_label
 _atom_site_symmetry_multiplicity
 _atom_site_fract_x
 _atom_site_fract_y
 _atom_site_fract_z
 _atom_site_occupancy
  Mn  Mn0  1  0.00000000  0.50000000  0.00000000  1
  Mn  Mn1  1  0.50000000  0.00000000  0.00000000  1
  Mn  Mn2  1  0.50000000  0.50000000  0.00000000  1
  Mn  Mn3  1  0.50000000  0.50000000  0.50000000  1
  Mn  Mn4  1  0.50000000  0.00000000  0.50000000  1
  Mn  Mn5  1  0.00000000  0.50000000  0.50000000  1
  F  F6  1  0.11439769  0.32668622  0.11595337  1
  F  F7  1  0.32668622  0.21228853  0.23067420  1
  F  F8  1  0.11439769  0.78771147  0.15525126  1
  F  F9  1  0.18667360  0.37334721  0.37665279  1
  F  F10  1  0.62488254  0.31244127  0.12511746  1
  F  F11  1  0.31244127  0.68755873  0.25000000  1
  F  F12  1  0.32668622  0.11439769  0.61595337  1
  F  F13  1  0.21228853  0.88560231  0.34474874  1
  F  F14  1  0.21228853  0.32668622  0.73067420  1
  F  F15  1  0.81332640  0.18667360  0.25000000  1
  F  F16  1  0.62665279  0.81332640  0.12334721  1
  F  F17  1  0.68755873  0.37511746  0.37488254  1
  F  F18  1  0.31244127  0.62488254  0.62511746  1
  F  F19  1  0.37334721  0.18667360  0.87665279  1
  F  F20  1  0.18667360  0.81332640  0.75000000  1
  F  F21  1  0.78771147  0.67331378  0.26932580  1
  F  F22  1  0.78771147  0.11439769  0.65525126  1
  F  F23  1  0.67331378  0.88560231  0.38404663  1
  F  F24  1  0.68755873  0.31244127  0.75000000  1
  F  F25  1  0.37511746  0.68755873  0.87488254  1
  F  F26  1  0.81332640  0.62665279  0.62334721  1
  F  F27  1  0.88560231  0.21228853  0.84474874  1
  F  F28  1  0.67331378  0.78771147  0.76932580  1
  F  F29  1  0.88560231  0.67331378  0.88404663  1
