# generated using pymatgen
data_Co23O32
_symmetry_space_group_name_H-M   'P 1'
_cell_length_a   11.70156578
_cell_length_b   15.44790197
_cell_length_c   10.08830255
_cell_angle_alpha   29.23934709
_cell_angle_beta   54.29039803
_cell_angle_gamma   40.58897232
_symmetry_Int_Tables_number   1
_chemical_formula_structural   Co23O32
_chemical_formula_sum   'Co23 O32'
_cell_volume   561.37849395
_cell_formula_units_Z   1
loop_
 _symmetry_equiv_pos_site_id
 _symmetry_equiv_pos_as_xyz
  1  'x, y, z'
loop_
 _atom_site_type_symbol
 _atom_site_label
 _atom_site_symmetry_multiplicity
 _atom_site_fract_x
 _atom_site_fract_y
 _atom_site_fract_z
 _atom_site_occupancy
  Co  Co0  1  0.12678991  0.24820069  0.00100001  1
  Co  Co1  1  0.25051414  0.00197990  0.50180859  1
  Co  Co2  1  0.56553232  -0.00005902  0.12241124  1
  Co  Co3  1  0.12105231  0.25753965  0.49495842  1
  Co  Co4  1  0.49590862  0.00198142  0.49969035  1
  Co  Co5  1  0.62273461  0.24765313  0.00390561  1
  Co  Co6  1  0.30981402  0.49829861  0.12688125  1
  Co  Co7  1  0.24845298  0.50049831  0.49988772  1
  Co  Co8  1  0.75470012  -0.00290806  0.49340836  1
  Co  Co9  1  0.63541900  0.24231173  0.49954288  1
  Co  Co10  1  0.36748797  0.75612990  0.00657520  1
  Co  Co11  1  0.18849986  0.49961923  0.87252454  1
  Co  Co12  1  0.99580921  0.00353070  0.49717467  1
  Co  Co13  1  0.49869116  0.49824973  0.50424784  1
  Co  Co14  1  0.81182016  0.50407892  0.12236896  1
  Co  Co15  1  0.37592951  0.74890978  0.49992247  1
  Co  Co16  1  0.75356957  0.49585779  0.50376943  1
  Co  Co17  1  0.87797305  0.74356551  0.00739388  1
  Co  Co18  1  0.68572905  0.50810445  0.85986841  1
  Co  Co19  1  0.99838914  0.50304592  0.49468047  1
  Co  Co20  1  0.87013474  0.75187285  0.49861737  1
  Co  Co21  1  0.43652515  0.99983614  0.87615919  1
  Co  Co22  1  0.93875316  -0.00197832  0.88251712  1
  O  O23  1  0.02547205  0.22659102  0.26598840  1
  O  O24  1  0.13238987  0.01641077  0.73406469  1
  O  O25  1  0.25643934  0.22969588  0.28555453  1
  O  O26  1  0.35997765  0.01825912  0.72060700  1
  O  O27  1  0.10098997  0.50429914  0.25929290  1
  O  O28  1  0.22834798  0.28477597  0.72028065  1
  O  O29  1  0.50999672  0.22620962  0.26031134  1
  O  O30  1  0.00978241  0.72010062  0.29263845  1
  O  O31  1  0.11576360  0.50231543  0.73294645  1
  O  O32  1  0.65085204  0.98089148  0.75683698  1
  O  O33  1  0.36949633  0.49920040  0.27062798  1
  O  O34  1  0.27419093  0.70570728  0.28811353  1
  O  O35  1  0.48174576  0.28272311  0.71593337  1
  O  O36  1  0.76200082  0.23160080  0.26199583  1
  O  O37  1  0.88350168  0.97618467  0.76470915  1
  O  O38  1  0.61203910  0.49599147  0.27174332  1
  O  O39  1  0.39353816  0.50283754  0.73571675  1
  O  O40  1  0.14865836  0.99485565  0.26362857  1
  O  O41  1  0.72928128  0.27850927  0.73510745  1
  O  O42  1  0.26298609  0.76050931  0.71806099  1
  O  O43  1  0.50686430  0.72019527  0.29412754  1
  O  O44  1  0.61908467  0.49646010  0.73722623  1
  O  O45  1  0.37183589  -0.01760175  0.26910811  1
  O  O46  1  0.88016063  0.50147687  0.26472441  1
  O  O47  1  0.98529459  0.29507530  0.68758720  1
  O  O48  1  0.47659180  0.77891157  0.73674688  1
  O  O49  1  0.76981188  0.72081061  0.26610875  1
  O  O50  1  0.88889925  0.50959497  0.72195619  1
  O  O51  1  0.62964408  -0.00029400  0.26438327  1
  O  O52  1  0.73581814  0.77177328  0.71386725  1
  O  O53  1  0.84642453  0.99965926  0.26144688  1
  O  O54  1  0.98548936  0.76098900  0.75578299  1
