# generated using pymatgen
data_VCu2BiO6
_symmetry_space_group_name_H-M   'P 1'
_cell_length_a   7.88955613
_cell_length_b   13.68536361
_cell_length_c   15.88450055
_cell_angle_alpha   112.74041805
_cell_angle_beta   89.99998274
_cell_angle_gamma   90.00009795
_symmetry_Int_Tables_number   1
_chemical_formula_structural   VCu2BiO6
_chemical_formula_sum   'V12 Cu24 Bi12 O72'
_cell_volume   1581.75239078
_cell_formula_units_Z   12
loop_
 _symmetry_equiv_pos_site_id
 _symmetry_equiv_pos_as_xyz
  1  'x, y, z'
loop_
 _atom_site_type_symbol
 _atom_site_label
 _atom_site_symmetry_multiplicity
 _atom_site_fract_x
 _atom_site_fract_y
 _atom_site_fract_z
 _atom_site_occupancy
  V  V0  1  0.47840830  0.30872274  0.68417608  1
  V  V1  1  0.02176910  0.81127985  0.54080961  1
  V  V2  1  0.50409294  0.69153876  0.65340305  1
  V  V3  1  0.99590742  0.19153971  0.15340378  1
  V  V4  1  0.52159170  0.69127726  0.31582392  1
  V  V5  1  0.47823113  0.31128036  0.04080981  1
  V  V6  1  0.97823090  0.18872015  0.45919039  1
  V  V7  1  0.97840805  0.19127782  0.81582390  1
  V  V8  1  0.00409258  0.80846029  0.84659622  1
  V  V9  1  0.52176887  0.68871964  0.95919019  1
  V  V10  1  0.49590706  0.30846124  0.34659695  1
  V  V11  1  0.02159195  0.80872218  0.18417610  1
  Cu  Cu12  1  0.81150555  0.07580306  0.94382837  1
  Cu  Cu13  1  0.81663158  0.07605746  0.60198913  1
  Cu  Cu14  1  0.18336842  0.92394254  0.39801087  1
  Cu  Cu15  1  0.20762224  0.06877697  0.26713176  1
  Cu  Cu16  1  0.80340028  0.05360970  0.25992286  1
  Cu  Cu17  1  0.68474344  0.41225896  0.55174415  1
  Cu  Cu18  1  0.68336786  0.57605601  0.10198941  1
  Cu  Cu19  1  0.79237776  0.93122303  0.73286824  1
  Cu  Cu20  1  0.31663214  0.42394399  0.89801059  1
  Cu  Cu21  1  0.31525656  0.58774104  0.44825585  1
  Cu  Cu22  1  0.69659549  0.55360949  0.75992195  1
  Cu  Cu23  1  0.68849502  0.57580277  0.44382827  1
  Cu  Cu24  1  0.19659972  0.94639030  0.74007714  1
  Cu  Cu25  1  0.18849445  0.92419694  0.05617163  1
  Cu  Cu26  1  0.31150498  0.42419723  0.55617173  1
  Cu  Cu27  1  0.81525681  0.91226092  0.05174522  1
  Cu  Cu28  1  0.18034417  0.08413683  0.60411011  1
  Cu  Cu29  1  0.81965583  0.91586317  0.39588989  1
  Cu  Cu30  1  0.30340451  0.44639051  0.24007805  1
  Cu  Cu31  1  0.70762184  0.43122346  0.23286819  1
  Cu  Cu32  1  0.31965793  0.58413586  0.10410930  1
  Cu  Cu33  1  0.68034207  0.41586414  0.89589070  1
  Cu  Cu34  1  0.29237816  0.56877654  0.76713181  1
  Cu  Cu35  1  0.18474319  0.08773908  0.94825478  1
  Bi  Bi36  1  0.51465674  0.09588418  0.43895556  1
  Bi  Bi37  1  0.48534326  0.90411582  0.56104444  1
  Bi  Bi38  1  0.98611219  0.59015204  0.62196998  1
  Bi  Bi39  1  0.48611294  0.90984736  0.87802979  1
  Bi  Bi40  1  0.48420682  0.87436506  0.21291301  1
  Bi  Bi41  1  0.51579318  0.12563494  0.78708699  1
  Bi  Bi42  1  0.98534329  0.59588403  0.93895566  1
  Bi  Bi43  1  0.01388781  0.40984796  0.37803002  1
  Bi  Bi44  1  0.51388706  0.09015264  0.12197021  1
  Bi  Bi45  1  0.01465671  0.40411597  0.06104434  1
  Bi  Bi46  1  0.98420688  0.62563476  0.28708684  1
  Bi  Bi47  1  0.01579312  0.37436524  0.71291316  1
  O  O48  1  0.49986156  0.39190191  0.16181542  1
  O  O49  1  0.31979948  0.35139163  0.30487483  1
  O  O50  1  0.27948389  0.25722064  0.02369095  1
  O  O51  1  0.87071102  0.71286139  0.14561905  1
  O  O52  1  0.67938656  0.98152718  0.32865902  1
  O  O53  1  0.12963315  0.28556173  0.48813543  1
  O  O54  1  0.22051620  0.75722046  0.52369093  1
  O  O55  1  0.67357627  0.34244995  0.30088911  1
  O  O56  1  0.99440933  0.12889973  0.69443292  1
  O  O57  1  0.01115159  0.67036667  0.81593035  1
  O  O58  1  0.49626702  0.38575900  0.97017523  1
  O  O59  1  0.82553808  0.49258192  0.49787365  1
  O  O60  1  0.00013896  0.89190219  0.66181543  1
  O  O61  1  0.81979960  0.14860841  0.19512521  1
  O  O62  1  0.32362567  0.98750618  0.32917166  1
  O  O63  1  0.99626735  0.11424108  0.52982474  1
  O  O64  1  0.00559067  0.87110027  0.30556708  1
  O  O65  1  0.22003543  0.75218046  0.15724135  1
  O  O66  1  0.66206114  0.02134246  0.83924692  1
  O  O67  1  0.00137539  0.90544275  0.13436734  1
  O  O68  1  0.37071084  0.78713865  0.35438104  1
  O  O69  1  0.17357595  0.15755012  0.19911085  1
  O  O70  1  0.18020040  0.85139159  0.80487479  1
  O  O71  1  0.49862254  0.40544239  0.63436822  1
  O  O72  1  0.12928898  0.28713861  0.85438095  1
  O  O73  1  0.77948380  0.24277954  0.47630907  1
  O  O74  1  0.37036710  0.78556175  0.98813556  1
  O  O75  1  0.49440895  0.37110009  0.80556695  1
  O  O76  1  0.17446192  0.50741808  0.50212635  1
  O  O77  1  0.99862461  0.09455725  0.86563266  1
  O  O78  1  0.82462855  0.49513784  0.99817416  1
  O  O79  1  0.27996469  0.25218065  0.65724162  1
  O  O80  1  0.87036685  0.71443827  0.51186457  1
  O  O81  1  0.16206080  0.47865817  0.66075360  1
  O  O82  1  0.99986104  0.10809781  0.33818457  1
  O  O83  1  0.17637423  0.48750620  0.82917164  1
  O  O84  1  0.99381742  0.12239091  0.03286302  1
  O  O85  1  0.17938636  0.51847256  0.17134082  1
  O  O86  1  0.82642405  0.84244988  0.80088915  1
  O  O87  1  0.67446335  0.99258117  0.99787392  1
  O  O88  1  0.16386795  0.53294325  0.34470389  1
  O  O89  1  0.77996457  0.24781954  0.84275865  1
  O  O90  1  0.51115177  0.82963384  0.68406982  1
  O  O91  1  0.50013844  0.60809809  0.83818458  1
  O  O92  1  0.82061364  0.48152744  0.82865918  1
  O  O93  1  0.00618258  0.87760909  0.96713698  1
  O  O94  1  0.50373298  0.61424100  0.02982477  1
  O  O95  1  0.72051611  0.74277936  0.97630905  1
  O  O96  1  0.62963290  0.21443825  0.01186444  1
  O  O97  1  0.32553665  0.00741883  0.00212608  1
  O  O98  1  0.83793920  0.52134183  0.33924640  1
  O  O99  1  0.00373265  0.88575892  0.47017526  1
  O  O100  1  0.17537145  0.50486216  0.00182584  1
  O  O101  1  0.32462791  0.00486244  0.50182617  1
  O  O102  1  0.33793886  0.97865754  0.16075308  1
  O  O103  1  0.67537209  0.99513756  0.49817383  1
  O  O104  1  0.32061344  0.01847282  0.67134098  1
  O  O105  1  0.66386990  0.96705611  0.15529522  1
  O  O106  1  0.68020052  0.64860837  0.69512517  1
  O  O107  1  0.48884823  0.17036616  0.31593018  1
  O  O108  1  0.83613205  0.46705675  0.65529611  1
  O  O109  1  0.98884841  0.32963333  0.18406965  1
  O  O110  1  0.62928916  0.21286135  0.64561896  1
  O  O111  1  0.82362577  0.51249380  0.17082836  1
  O  O112  1  0.50618396  0.62239134  0.53286416  1
  O  O113  1  0.49381604  0.37760866  0.46713584  1
  O  O114  1  0.67637433  0.01249382  0.67082834  1
  O  O115  1  0.50137746  0.59455761  0.36563178  1
  O  O116  1  0.50559105  0.62889991  0.19443305  1
  O  O117  1  0.72003531  0.74781935  0.34275838  1
  O  O118  1  0.33613010  0.03294389  0.84470478  1
  O  O119  1  0.32642373  0.65755005  0.69911089  1
