# generated using pymatgen
data_Al2H12(SeO5)3
_symmetry_space_group_name_H-M   'P 1'
_cell_length_a   8.99765058
_cell_length_b   8.99765095
_cell_length_c   11.09387921
_cell_angle_alpha   89.99995199
_cell_angle_beta   89.99995196
_cell_angle_gamma   120.00039844
_symmetry_Int_Tables_number   1
_chemical_formula_structural   Al2H12(SeO5)3
_chemical_formula_sum   'Al4 H24 Se6 O30'
_cell_volume   777.80474109
_cell_formula_units_Z   2
loop_
 _symmetry_equiv_pos_site_id
 _symmetry_equiv_pos_as_xyz
  1  'x, y, z'
loop_
 _atom_site_type_symbol
 _atom_site_label
 _atom_site_symmetry_multiplicity
 _atom_site_fract_x
 _atom_site_fract_y
 _atom_site_fract_z
 _atom_site_occupancy
  Al  Al0  1  0.66667144  0.33334036  0.62446763  1
  Al  Al1  1  0.33334036  0.66667144  0.12446763  1
  Al  Al2  1  0.66666926  0.33333659  0.04182301  1
  Al  Al3  1  0.33333659  0.66666926  0.54182301  1
  H  H4  1  0.58407598  0.41067824  0.43145375  1
  H  H5  1  0.58931620  0.17339775  0.43145847  1
  H  H6  1  0.82660412  0.41592677  0.43145609  1
  H  H7  1  0.41067824  0.58407598  0.93145375  1
  H  H8  1  0.17339775  0.58931620  0.93145847  1
  H  H9  1  0.41592677  0.82660412  0.93145609  1
  H  H10  1  0.54449701  0.96260255  0.01172604  1
  H  H11  1  0.03740824  0.58190541  0.01172989  1
  H  H12  1  0.41810753  0.45551045  0.01172803  1
  H  H13  1  0.96260255  0.54449701  0.51172604  1
  H  H14  1  0.58190541  0.03740824  0.51172989  1
  H  H15  1  0.45551045  0.41810753  0.51172803  1
  H  H16  1  0.57834267  0.80024375  0.71036993  1
  H  H17  1  0.19976590  0.77810129  0.71036920  1
  H  H18  1  0.22190312  0.42166361  0.71036947  1
  H  H19  1  0.80024375  0.57834267  0.21036993  1
  H  H20  1  0.77810129  0.19976590  0.21036920  1
  H  H21  1  0.42166361  0.22190312  0.21036947  1
  H  H22  1  0.42356134  0.48763456  0.67905541  1
  H  H23  1  0.51237274  0.93593076  0.67905601  1
  H  H24  1  0.06407560  0.57644366  0.67905499  1
  H  H25  1  0.48763456  0.42356134  0.17905541  1
  H  H26  1  0.93593076  0.51237274  0.17905601  1
  H  H27  1  0.57644366  0.06407560  0.17905499  1
  Se  Se28  1  0.73636158  0.61860952  0.83066884  1
  Se  Se29  1  0.38139658  0.11775461  0.83066912  1
  Se  Se30  1  0.88224839  0.26364491  0.83066882  1
  Se  Se31  1  0.61860952  0.73636158  0.33066884  1
  Se  Se32  1  0.11775461  0.38139658  0.33066912  1
  Se  Se33  1  0.26364491  0.88224839  0.33066882  1
  O  O34  1  0.61832310  0.48292214  0.70917124  1
  O  O35  1  0.51708724  0.13540647  0.70917274  1
  O  O36  1  0.86460214  0.38168768  0.70917244  1
  O  O37  1  0.48292214  0.61832310  0.20917124  1
  O  O38  1  0.13540647  0.51708724  0.20917274  1
  O  O39  1  0.38168768  0.86460214  0.20917244  1
  O  O40  1  0.51109406  0.34758324  0.50022545  1
  O  O41  1  0.65242203  0.16351639  0.50022606  1
  O  O42  1  0.83649072  0.48891046  0.50022265  1
  O  O43  1  0.34758324  0.51109406  0.00022545  1
  O  O44  1  0.16351639  0.65242203  0.00022606  1
  O  O45  1  0.48891046  0.83649072  0.00022265  1
  O  O46  1  0.65837000  0.75316579  0.82505544  1
  O  O47  1  0.24683914  0.90520568  0.82505478  1
  O  O48  1  0.09479649  0.34163474  0.82505503  1
  O  O49  1  0.75316579  0.65837000  0.32505544  1
  O  O50  1  0.90520568  0.24683914  0.32505478  1
  O  O51  1  0.34163474  0.09479649  0.32505503  1
  O  O52  1  0.62114351  0.48377891  0.95209633  1
  O  O53  1  0.51622635  0.13736732  0.95209675  1
  O  O54  1  0.86263816  0.37886378  0.95209627  1
  O  O55  1  0.48377891  0.62114351  0.45209633  1
  O  O56  1  0.13736732  0.51622635  0.45209675  1
  O  O57  1  0.37886378  0.86263816  0.45209627  1
  O  O58  1  0.48165207  0.31661658  0.14774332  1
  O  O59  1  0.68338863  0.16504042  0.14774310  1
  O  O60  1  0.83496877  0.51835548  0.14774370  1
  O  O61  1  0.31661659  0.48165207  0.64774332  1
  O  O62  1  0.16504042  0.68338863  0.64774310  1
  O  O63  1  0.51835548  0.83496877  0.64774370  1
