# generated using pymatgen
data_Nb5(AsPd)4
_symmetry_space_group_name_H-M   'P 1'
_cell_length_a   3.81775301
_cell_length_b   7.74665216
_cell_length_c   7.74665217
_cell_angle_alpha   86.51889273
_cell_angle_beta   75.73464158
_cell_angle_gamma   75.73464161
_symmetry_Int_Tables_number   1
_chemical_formula_structural   Nb5(AsPd)4
_chemical_formula_sum   'Nb5 As4 Pd4'
_cell_volume   215.19455980
_cell_formula_units_Z   1
loop_
 _symmetry_equiv_pos_site_id
 _symmetry_equiv_pos_as_xyz
  1  'x, y, z'
loop_
 _atom_site_type_symbol
 _atom_site_label
 _atom_site_symmetry_multiplicity
 _atom_site_fract_x
 _atom_site_fract_y
 _atom_site_fract_z
 _atom_site_occupancy
  As  As0  1  0.93406387  0.82200288  0.30986938  1
  As  As1  1  0.06593613  0.17799712  0.69013062  1
  As  As2  1  0.24393325  0.69013062  0.82200288  1
  As  As3  1  0.75606675  0.30986938  0.17799712  1
  Nb  Nb4  1  0.38172385  0.30622599  0.93032632  1
  Nb  Nb5  1  0.61827615  0.69377401  0.06967368  1
  Nb  Nb6  1  0.00000000  0.00000000  0.00000000  1
  Nb  Nb7  1  0.68794984  0.93032632  0.69377401  1
  Nb  Nb8  1  0.31205016  0.06967368  0.30622599  1
  Pd  Pd9  1  0.59619221  0.29238690  0.51522867  1
  Pd  Pd10  1  0.11142088  0.48477133  0.29238690  1
  Pd  Pd11  1  0.40380779  0.70761310  0.48477133  1
  Pd  Pd12  1  0.88857912  0.51522867  0.70761310  1
