# generated using pymatgen
data_NaY3SiS7
_symmetry_space_group_name_H-M   'P 1'
_cell_length_a   9.98512515
_cell_length_b   9.98512515
_cell_length_c   5.75609684
_cell_angle_alpha   90.00000000
_cell_angle_beta   90.00000000
_cell_angle_gamma   120.00000003
_symmetry_Int_Tables_number   1
_chemical_formula_structural   NaY3SiS7
_chemical_formula_sum   'Na2 Y6 Si2 S14'
_cell_volume   497.01071143
_cell_formula_units_Z   2
loop_
 _symmetry_equiv_pos_site_id
 _symmetry_equiv_pos_as_xyz
  1  'x, y, z'
loop_
 _atom_site_type_symbol
 _atom_site_label
 _atom_site_symmetry_multiplicity
 _atom_site_fract_x
 _atom_site_fract_y
 _atom_site_fract_z
 _atom_site_occupancy
  Na  Na0  1  0.00000000  0.00000000  0.03791364  1
  Na  Na1  1  0.00000000  0.00000000  0.53791364  1
  Si  Si2  1  0.66666667  0.33333333  0.66613806  1
  Si  Si3  1  0.33333333  0.66666667  0.16613806  1
  S  S4  1  0.09731239  0.83468716  0.29081201  1
  S  S5  1  0.73737478  0.90268761  0.29081201  1
  S  S6  1  0.83468716  0.73737478  0.79081201  1
  S  S7  1  0.90268761  0.16531284  0.79081201  1
  S  S8  1  0.52257426  0.41387360  0.51497525  1
  S  S9  1  0.16531284  0.26262522  0.29081201  1
  S  S10  1  0.33333333  0.66666667  0.53468436  1
  S  S11  1  0.66666667  0.33333333  0.03468436  1
  S  S12  1  0.41387360  0.89129934  0.01497525  1
  S  S13  1  0.10870066  0.52257426  0.01497525  1
  S  S14  1  0.47742574  0.58612640  0.01497525  1
  S  S15  1  0.58612640  0.10870066  0.51497525  1
  S  S16  1  0.89129934  0.47742574  0.51497525  1
  S  S17  1  0.26262522  0.09731239  0.79081201  1
  Y  Y18  1  0.13109790  0.76888133  0.75376738  1
  Y  Y19  1  0.36221657  0.13109790  0.25376738  1
  Y  Y20  1  0.23111867  0.36221657  0.75376738  1
  Y  Y21  1  0.63778343  0.86890210  0.75376738  1
  Y  Y22  1  0.76888133  0.63778343  0.25376738  1
  Y  Y23  1  0.86890210  0.23111867  0.25376738  1
