# generated using pymatgen
data_LiAgF2
_symmetry_space_group_name_H-M   'P 1'
_cell_length_a   5.70300161
_cell_length_b   6.38247575
_cell_length_c   6.71204240
_cell_angle_alpha   90.36057357
_cell_angle_beta   88.99157522
_cell_angle_gamma   116.21827713
_symmetry_Int_Tables_number   1
_chemical_formula_structural   LiAgF2
_chemical_formula_sum   'Li4 Ag4 F8'
_cell_volume   219.14361338
_cell_formula_units_Z   4
loop_
 _symmetry_equiv_pos_site_id
 _symmetry_equiv_pos_as_xyz
  1  'x, y, z'
loop_
 _atom_site_type_symbol
 _atom_site_label
 _atom_site_symmetry_multiplicity
 _atom_site_fract_x
 _atom_site_fract_y
 _atom_site_fract_z
 _atom_site_occupancy
  Li  Li0  1  0.05674167  0.63483556  0.85821080  1
  Li  Li1  1  0.42533123  0.36587637  0.35796675  1
  Li  Li2  1  0.57462573  0.63411186  0.64202958  1
  Li  Li3  1  0.94329602  0.36517066  0.14177981  1
  Ag  Ag4  1  0.19873523  0.86303579  0.44346317  1
  Ag  Ag5  1  0.66275943  0.86310083  0.05548687  1
  Ag  Ag6  1  0.33728476  0.13688932  0.94451759  1
  Ag  Ag7  1  0.80130044  0.13697044  0.55653046  1
  F  F8  1  0.11276584  0.69198852  0.13230906  1
  F  F9  1  0.09986841  0.19088652  0.24767584  1
  F  F10  1  0.39055132  0.78857569  0.74766736  1
  F  F11  1  0.58246258  0.69287438  0.36735719  1
  F  F12  1  0.41740225  0.30712068  0.63266085  1
  F  F13  1  0.60951846  0.21149150  0.25235812  1
  F  F14  1  0.90010954  0.80905417  0.75230490  1
  F  F15  1  0.88724610  0.30801571  0.86768066  1
