# generated using pymatgen
data_CoP3H16N4O11
_symmetry_space_group_name_H-M   'P 1'
_cell_length_a   7.39224678
_cell_length_b   14.28005594
_cell_length_c   12.55508833
_cell_angle_alpha   90.00000000
_cell_angle_beta   93.87446990
_cell_angle_gamma   90.00000000
_symmetry_Int_Tables_number   1
_chemical_formula_structural   CoP3H16N4O11
_chemical_formula_sum   'Co4 P12 H64 N16 O44'
_cell_volume   1322.30736161
_cell_formula_units_Z   4
loop_
 _symmetry_equiv_pos_site_id
 _symmetry_equiv_pos_as_xyz
  1  'x, y, z'
loop_
 _atom_site_type_symbol
 _atom_site_label
 _atom_site_symmetry_multiplicity
 _atom_site_fract_x
 _atom_site_fract_y
 _atom_site_fract_z
 _atom_site_occupancy
  Co  Co0  1  0.24519236  0.10377288  0.71216580  1
  Co  Co1  1  0.74519236  0.39622712  0.21216580  1
  Co  Co2  1  0.75480764  0.89622712  0.28783420  1
  Co  Co3  1  0.25480764  0.60377288  0.78783420  1
  P  P4  1  0.11019074  0.17536393  0.46014667  1
  P  P5  1  0.61019074  0.32463607  0.96014667  1
  P  P6  1  0.88980926  0.82463607  0.53985333  1
  P  P7  1  0.38980926  0.67536393  0.03985333  1
  P  P8  1  0.34141974  0.34136019  0.52580830  1
  P  P9  1  0.84141974  0.15863981  0.02580830  1
  P  P10  1  0.65858026  0.65863981  0.47419170  1
  P  P11  1  0.15858026  0.84136019  0.97419170  1
  P  P12  1  0.60717034  0.20915735  0.62810824  1
  P  P13  1  0.10717034  0.29084265  0.12810824  1
  P  P14  1  0.39282966  0.79084265  0.37189176  1
  P  P15  1  0.89282966  0.70915735  0.87189176  1
  H  H16  1  0.38942612  0.13754033  0.90391490  1
  H  H17  1  0.88942612  0.36245967  0.40391490  1
  H  H18  1  0.61057388  0.86245967  0.09608510  1
  H  H19  1  0.11057388  0.63754033  0.59608510  1
  H  H20  1  0.39573365  0.02300629  0.88549020  1
  H  H21  1  0.89573365  0.47699371  0.38549020  1
  H  H22  1  0.60426635  0.97699371  0.11450980  1
  H  H23  1  0.10426635  0.52300629  0.61450980  1
  H  H24  1  0.20396759  0.07355406  0.91661779  1
  H  H25  1  0.70396759  0.42644594  0.41661779  1
  H  H26  1  0.79603241  0.92644594  0.08338221  1
  H  H27  1  0.29603241  0.57355406  0.58338221  1
  H  H28  1  0.12020555  0.22828461  0.83185955  1
  H  H29  1  0.62020555  0.27171539  0.33185955  1
  H  H30  1  0.87979445  0.77171539  0.16814045  1
  H  H31  1  0.37979445  0.72828461  0.66814045  1
  H  H32  1  0.00093205  0.23381409  0.71582525  1
  H  H33  1  0.50093205  0.26618591  0.21582525  1
  H  H34  1  0.99906795  0.76618591  0.28417475  1
  H  H35  1  0.49906795  0.73381409  0.78417475  1
  H  H36  1  0.21284594  0.27594639  0.72706946  1
  H  H37  1  0.71284594  0.22405361  0.22706946  1
  H  H38  1  0.78715406  0.72405361  0.27293054  1
  H  H39  1  0.28715406  0.77594639  0.77293054  1
  H  H40  1  0.93601977  0.02476341  0.66061189  1
  H  H41  1  0.43601977  0.47523659  0.16061189  1
  H  H42  1  0.06398023  0.97523659  0.33938811  1
  H  H43  1  0.56398023  0.52476341  0.83938811  1
  H  H44  1  0.93554251  0.06143606  0.78664760  1
  H  H45  1  0.43554251  0.43856394  0.28664760  1
  H  H46  1  0.06445749  0.93856394  0.21335240  1
  H  H47  1  0.56445749  0.56143606  0.71335240  1
  H  H48  1  0.04442147  0.96453701  0.76071177  1
  H  H49  1  0.54442147  0.53546299  0.26071177  1
  H  H50  1  0.95557853  0.03546299  0.23928823  1
  H  H51  1  0.45557853  0.46453701  0.73928823  1
  H  H52  1  0.28135615  0.93311938  0.66147971  1
  H  H53  1  0.78135615  0.56688062  0.16147971  1
  H  H54  1  0.71864385  0.06688062  0.33852029  1
  H  H55  1  0.21864385  0.43311938  0.83852029  1
  H  H56  1  0.47129760  0.97071467  0.73056649  1
  H  H57  1  0.97129760  0.52928533  0.23056649  1
  H  H58  1  0.52870240  0.02928533  0.26943351  1
  H  H59  1  0.02870240  0.47071467  0.76943351  1
  H  H60  1  0.42674693  0.00027141  0.60237033  1
  H  H61  1  0.92674693  0.49972859  0.10237033  1
  H  H62  1  0.57325307  0.99972859  0.39762967  1
  H  H63  1  0.07325307  0.50027141  0.89762967  1
  H  H64  1  0.27699537  0.00088243  0.10892691  1
  H  H65  1  0.77699537  0.49911757  0.60892691  1
  H  H66  1  0.72300463  0.99911757  0.89107309  1
  H  H67  1  0.22300463  0.50088243  0.39107309  1
  H  H68  1  0.31662470  0.10729818  0.14093926  1
  H  H69  1  0.81662470  0.39270182  0.64093926  1
  H  H70  1  0.68337530  0.89270182  0.85906074  1
  H  H71  1  0.18337530  0.60729818  0.35906074  1
  H  H72  1  0.21790655  0.18289678  0.29500824  1
  H  H73  1  0.71790655  0.31710322  0.79500824  1
  H  H74  1  0.78209345  0.81710322  0.70499176  1
  H  H75  1  0.28209345  0.68289678  0.20499176  1
  H  H76  1  0.78453830  0.14242857  0.51495086  1
  H  H77  1  0.28453830  0.35757143  0.01495086  1
  H  H78  1  0.21546170  0.85757143  0.48504914  1
  H  H79  1  0.71546170  0.64242857  0.98504914  1
  N  N80  1  0.31601146  0.08167777  0.87385724  1
  N  N81  1  0.81601146  0.41832223  0.37385724  1
  N  N82  1  0.68398854  0.91832223  0.12614276  1
  N  N83  1  0.18398854  0.58167777  0.62614276  1
  N  N84  1  0.12959372  0.22274070  0.75110611  1
  N  N85  1  0.62959372  0.27725930  0.25110611  1
  N  N86  1  0.87040628  0.77725930  0.24889389  1
  N  N87  1  0.37040628  0.72274070  0.74889389  1
  N  N88  1  0.01214423  0.03021804  0.73123834  1
  N  N89  1  0.51214423  0.46978196  0.23123834  1
  N  N90  1  0.98785577  0.96978196  0.26876166  1
  N  N91  1  0.48785577  0.53021804  0.76876166  1
  N  N92  1  0.36974232  0.98813275  0.67306504  1
  N  N93  1  0.86974232  0.51186725  0.17306504  1
  N  N94  1  0.63025768  0.01186725  0.32693496  1
  N  N95  1  0.13025768  0.48813275  0.82693496  1
  O  O96  1  0.17682931  0.11488527  0.55397077  1
  O  O97  1  0.67682931  0.38511473  0.05397077  1
  O  O98  1  0.82317069  0.88511473  0.44602923  1
  O  O99  1  0.32317069  0.61488527  0.94602923  1
  O  O100  1  0.22799256  0.14715051  0.36517252  1
  O  O101  1  0.72799256  0.35284949  0.86517252  1
  O  O102  1  0.77200744  0.85284949  0.63482748  1
  O  O103  1  0.27200744  0.64715051  0.13482748  1
  O  O104  1  0.90818663  0.17137672  0.43014654  1
  O  O105  1  0.40818663  0.32862328  0.93014654  1
  O  O106  1  0.09181337  0.82862328  0.56985346  1
  O  O107  1  0.59181337  0.67137672  0.06985346  1
  O  O108  1  0.15639002  0.28429036  0.48680960  1
  O  O109  1  0.65639002  0.21570964  0.98680960  1
  O  O110  1  0.84360998  0.71570964  0.51319040  1
  O  O111  1  0.34360998  0.78429036  0.01319040  1
  O  O112  1  0.38097958  0.40700292  0.43667019  1
  O  O113  1  0.88097958  0.09299708  0.93667019  1
  O  O114  1  0.61902042  0.59299708  0.56332981  1
  O  O115  1  0.11902042  0.90700292  0.06332981  1
  O  O116  1  0.32094512  0.37553695  0.63690448  1
  O  O117  1  0.82094512  0.12446305  0.13690448  1
  O  O118  1  0.67905488  0.62446305  0.36309552  1
  O  O119  1  0.17905488  0.87553695  0.86309552  1
  O  O120  1  0.49836739  0.26028531  0.52703585  1
  O  O121  1  0.99836739  0.23971469  0.02703585  1
  O  O122  1  0.50163261  0.73971469  0.47296415  1
  O  O123  1  0.00163261  0.76028531  0.97296415  1
  O  O124  1  0.69347027  0.12329552  0.57117898  1
  O  O125  1  0.19347027  0.37670448  0.07117898  1
  O  O126  1  0.30652973  0.87670448  0.42882102  1
  O  O127  1  0.80652973  0.62329552  0.92882102  1
  O  O128  1  0.75075409  0.27524040  0.67748372  1
  O  O129  1  0.25075409  0.22475960  0.17748372  1
  O  O130  1  0.24924591  0.72475960  0.32251628  1
  O  O131  1  0.74924591  0.77524040  0.82251628  1
  O  O132  1  0.47712317  0.17393843  0.70700324  1
  O  O133  1  0.97712317  0.32606157  0.20700324  1
  O  O134  1  0.52287683  0.82606157  0.29299676  1
  O  O135  1  0.02287683  0.67393843  0.79299676  1
  O  O136  1  0.37256533  0.04477844  0.13633834  1
  O  O137  1  0.87256533  0.45522156  0.63633834  1
  O  O138  1  0.62743467  0.95522156  0.86366166  1
  O  O139  1  0.12743467  0.54477844  0.36366166  1
