# generated using pymatgen
data_Li3BiS3
_symmetry_space_group_name_H-M   'P 1'
_cell_length_a   4.01150483
_cell_length_b   12.42914598
_cell_length_c   12.17459150
_cell_angle_alpha   90.00000000
_cell_angle_beta   103.96617271
_cell_angle_gamma   90.00000000
_symmetry_Int_Tables_number   1
_chemical_formula_structural   Li3BiS3
_chemical_formula_sum   'Li12 Bi4 S12'
_cell_volume   589.07551717
_cell_formula_units_Z   4
loop_
 _symmetry_equiv_pos_site_id
 _symmetry_equiv_pos_as_xyz
  1  'x, y, z'
loop_
 _atom_site_type_symbol
 _atom_site_label
 _atom_site_symmetry_multiplicity
 _atom_site_fract_x
 _atom_site_fract_y
 _atom_site_fract_z
 _atom_site_occupancy
  Li  Li0  1  0.12076671  0.54193762  0.61914618  1
  Li  Li1  1  0.22489138  0.03023634  0.60507916  1
  Li  Li2  1  0.51139898  0.78076998  0.02600112  1
  Li  Li3  1  0.12076671  0.95806238  0.11914618  1
  Li  Li4  1  0.22489138  0.46976366  0.10507916  1
  Li  Li5  1  0.48860102  0.28076998  0.47399888  1
  Li  Li6  1  0.51139898  0.71923002  0.52600112  1
  Li  Li7  1  0.77510862  0.53023634  0.89492084  1
  Li  Li8  1  0.87923329  0.04193762  0.88085382  1
  Li  Li9  1  0.48860102  0.21923002  0.97399888  1
  Li  Li10  1  0.77510862  0.96976366  0.39492084  1
  Li  Li11  1  0.87923329  0.45806238  0.38085382  1
  Bi  Bi12  1  0.88348566  0.29306929  0.75096205  1
  Bi  Bi13  1  0.88348566  0.20693071  0.25096205  1
  Bi  Bi14  1  0.11651434  0.79306929  0.74903795  1
  Bi  Bi15  1  0.11651434  0.70693071  0.24903795  1
  S  S16  1  0.06839768  0.35361226  0.56924346  1
  S  S17  1  0.29888772  0.40617316  0.90844851  1
  S  S18  1  0.06839768  0.14638774  0.06924346  1
  S  S19  1  0.29604609  0.12365439  0.78809896  1
  S  S20  1  0.29888772  0.09382684  0.40844851  1
  S  S21  1  0.29604609  0.37634561  0.28809896  1
  S  S22  1  0.70395391  0.62365439  0.71190104  1
  S  S23  1  0.70111228  0.90617316  0.59155149  1
  S  S24  1  0.70395391  0.87634561  0.21190104  1
  S  S25  1  0.93160232  0.85361226  0.93075654  1
  S  S26  1  0.70111228  0.59382684  0.09155149  1
  S  S27  1  0.93160232  0.64638774  0.43075754  1
