# generated using pymatgen
data_NaH4CSNO2
_symmetry_space_group_name_H-M   'P 1'
_cell_length_a   9.21847756
_cell_length_b   9.21847756
_cell_length_c   6.43037876
_cell_angle_alpha   77.33707561
_cell_angle_beta   102.66292439
_cell_angle_gamma   82.24949440
_symmetry_Int_Tables_number   1
_chemical_formula_structural   NaH4CSNO2
_chemical_formula_sum   'Na4 H16 C4 S4 N4 O8'
_cell_volume   510.50227103
_cell_formula_units_Z   4
loop_
 _symmetry_equiv_pos_site_id
 _symmetry_equiv_pos_as_xyz
  1  'x, y, z'
loop_
 _atom_site_type_symbol
 _atom_site_label
 _atom_site_symmetry_multiplicity
 _atom_site_fract_x
 _atom_site_fract_y
 _atom_site_fract_z
 _atom_site_occupancy
  Na  Na0  1  0.06585041  0.06585041  0.75000000  1
  Na  Na1  1  0.93414959  0.93414959  0.25000000  1
  Na  Na2  1  0.80067552  0.80067552  0.75000000  1
  Na  Na3  1  0.19932448  0.19932448  0.25000000  1
  H  H4  1  0.02465707  0.63271572  0.16484716  1
  H  H5  1  0.63271572  0.02465707  0.33515284  1
  H  H6  1  0.97534293  0.36728428  0.83515284  1
  H  H7  1  0.36728428  0.97534293  0.66484716  1
  H  H8  1  0.86164906  0.62942031  0.18885779  1
  H  H9  1  0.62942031  0.86164906  0.31114221  1
  H  H10  1  0.13835094  0.37057969  0.81114221  1
  H  H11  1  0.37057969  0.13835094  0.68885779  1
  H  H12  1  0.75884212  0.50485323  0.60446092  1
  H  H13  1  0.50485323  0.75884212  0.89553908  1
  H  H14  1  0.24115788  0.49514677  0.39553908  1
  H  H15  1  0.49514677  0.24115788  0.10446092  1
  H  H16  1  0.74041019  0.49582614  0.84327931  1
  H  H17  1  0.49582614  0.74041019  0.65672069  1
  H  H18  1  0.25958981  0.50417386  0.15672069  1
  H  H19  1  0.50417386  0.25958981  0.34327931  1
  C  C20  1  0.14971400  0.70186172  0.70511052  1
  C  C21  1  0.70186172  0.14971400  0.79488948  1
  C  C22  1  0.85028600  0.29813828  0.29488948  1
  C  C23  1  0.29813828  0.85028600  0.20511052  1
  S  S24  1  0.28289194  0.55246272  0.75741067  1
  S  S25  1  0.55246272  0.28289194  0.74258933  1
  S  S26  1  0.71710806  0.44753728  0.24258933  1
  S  S27  1  0.44753728  0.71710806  0.25741067  1
  N  N28  1  0.05508032  0.81180623  0.66977038  1
  N  N29  1  0.81180623  0.05508032  0.83022962  1
  N  N30  1  0.94491968  0.18819377  0.33022962  1
  N  N31  1  0.18819377  0.94491968  0.16977038  1
  O  O32  1  0.92614810  0.70042254  0.14045817  1
  O  O33  1  0.70042254  0.92614810  0.35954183  1
  O  O34  1  0.07385190  0.29957746  0.85954183  1
  O  O35  1  0.29957746  0.07385190  0.64045817  1
  O  O36  1  0.80307218  0.52977986  0.74333200  1
  O  O37  1  0.52977986  0.80307218  0.75666800  1
  O  O38  1  0.19692782  0.47022014  0.25666800  1
  O  O39  1  0.47022014  0.19692782  0.24333200  1
