# generated using pymatgen
data_Fe3O4
_symmetry_space_group_name_H-M   'P 1'
_cell_length_a   2.95581600
_cell_length_b   9.79544842
_cell_length_c   10.00548365
_cell_angle_alpha   90.28720700
_cell_angle_beta   90.00000000
_cell_angle_gamma   90.00000000
_symmetry_Int_Tables_number   1
_chemical_formula_structural   Fe3O4
_chemical_formula_sum   'Fe12 O16'
_cell_volume   289.69056291
_cell_formula_units_Z   4
loop_
 _symmetry_equiv_pos_site_id
 _symmetry_equiv_pos_as_xyz
  1  'x, y, z'
loop_
 _atom_site_type_symbol
 _atom_site_label
 _atom_site_symmetry_multiplicity
 _atom_site_fract_x
 _atom_site_fract_y
 _atom_site_fract_z
 _atom_site_occupancy
  Fe  Fe0  1  0.67489104  0.13793292  0.75199369  1
  Fe  Fe1  1  0.72096246  0.36557795  0.24819973  1
  Fe  Fe2  1  0.27903754  0.86557795  0.24819973  1
  Fe  Fe3  1  0.32510896  0.63793292  0.75199369  1
  Fe  Fe4  1  0.77118530  0.88146315  0.57355355  1
  Fe  Fe5  1  0.22881470  0.38146315  0.57355355  1
  Fe  Fe6  1  0.21017137  0.38218851  0.92496743  1
  Fe  Fe7  1  0.24474423  0.11660261  0.42503345  1
  Fe  Fe8  1  0.25478515  0.11759540  0.07649833  1
  Fe  Fe9  1  0.75525577  0.61660261  0.42503345  1
  Fe  Fe10  1  0.78982863  0.88218851  0.92496743  1
  Fe  Fe11  1  0.74521485  0.61759540  0.07649833  1
  O  O12  1  0.24709650  0.47788230  0.38589234  1
  O  O13  1  0.28748256  0.02099422  0.88765940  1
  O  O14  1  0.23383924  0.47883933  0.11322240  1
  O  O15  1  0.75290350  0.97788230  0.38589234  1
  O  O16  1  0.71251744  0.52099422  0.88765940  1
  O  O17  1  0.76616076  0.97883933  0.11322240  1
  O  O18  1  0.73307906  0.51892241  0.60905887  1
  O  O19  1  0.26692094  0.01892241  0.60905887  1
  O  O20  1  0.22516265  0.21080963  0.25086805  1
  O  O21  1  0.82023546  0.79122646  0.75028690  1
  O  O22  1  0.17976454  0.29122646  0.75028690  1
  O  O23  1  0.77483735  0.71080963  0.25086805  1
  O  O24  1  0.27163052  0.75129444  0.00200132  1
  O  O25  1  0.73059456  0.24867068  0.50076452  1
  O  O26  1  0.26940544  0.74867068  0.50076452  1
  O  O27  1  0.72836948  0.25129444  0.00200132  1
