# generated using pymatgen
data_Li3La8Ti9Cr3O36
_symmetry_space_group_name_H-M   'P 1'
_cell_length_a   5.51468046
_cell_length_b   5.51730902
_cell_length_c   23.28630965
_cell_angle_alpha   90.04331090
_cell_angle_beta   89.98718997
_cell_angle_gamma   89.99303531
_symmetry_Int_Tables_number   1
_chemical_formula_structural   Li3La8Ti9Cr3O36
_chemical_formula_sum   'Li3 La8 Ti9 Cr3 O36'
_cell_volume   708.51360256
_cell_formula_units_Z   1
loop_
 _symmetry_equiv_pos_site_id
 _symmetry_equiv_pos_as_xyz
  1  'x, y, z'
loop_
 _atom_site_type_symbol
 _atom_site_label
 _atom_site_symmetry_multiplicity
 _atom_site_fract_x
 _atom_site_fract_y
 _atom_site_fract_z
 _atom_site_occupancy
  Li  Li0  1  0.99544027  0.98010109  0.25245025  1
  Li  Li1  1  0.50512402  0.48793912  0.08767415  1
  Li  Li2  1  0.50408353  0.48039579  0.41674997  1
  La  La3  1  0.00000244  0.99539072  0.91596983  1
  La  La4  1  0.49987326  0.49839205  0.75098739  1
  La  La5  1  0.49758501  0.50387282  0.57684877  1
  La  La6  1  0.50027285  0.50853945  0.91989021  1
  La  La7  1  0.49952181  0.50674701  0.25055043  1
  La  La8  1  0.00080918  0.00640977  0.08564460  1
  La  La9  1  0.00124966  0.01047171  0.41770732  1
  La  La10  1  0.99992793  0.00747706  0.74806266  1
  Ti  Ti11  1  0.50016205  0.99073500  0.16582778  1
  Ti  Ti12  1  0.50012695  0.99031681  0.49702442  1
  Ti  Ti13  1  0.50072177  0.99725916  0.33206738  1
  Ti  Ti14  1  0.49957686  0.00069395  0.66105520  1
  Ti  Ti15  1  0.00025819  0.49650321  0.00483329  1
  Ti  Ti16  1  0.00037417  0.49644742  0.33372403  1
  Ti  Ti17  1  -0.00000438  0.49136366  0.16940903  1
  Ti  Ti18  1  0.99931749  0.50300098  0.66025070  1
  Ti  Ti19  1  0.99944516  0.49995627  0.49813862  1
  Cr  Cr20  1  0.49997160  0.00041959  0.83346255  1
  Cr  Cr21  1  0.50029447  0.99783726  0.00288695  1
  Cr  Cr22  1  0.99997489  0.50004765  0.83326225  1
  O  O23  1  -0.00005817  0.40430282  0.25010832  1
  O  O24  1  0.00240280  0.43388380  0.58240566  1
  O  O25  1  0.00119241  0.42980013  0.91801535  1
  O  O26  1  0.25222567  0.25873018  0.34855789  1
  O  O27  1  0.24491565  0.25096980  0.01339793  1
  O  O28  1  0.25326550  0.26017347  0.15161345  1
  O  O29  1  0.25463948  0.25900517  0.48460316  1
  O  O30  1  0.24632609  0.24633662  0.81865139  1
  O  O31  1  0.25418740  0.25165697  0.68100067  1
  O  O32  1  0.24595117  0.75768227  0.18253103  1
  O  O33  1  0.25311998  0.75036090  0.51067793  1
  O  O34  1  0.24627058  0.75743610  0.31763413  1
  O  O35  1  0.25335925  0.74672491  0.84800737  1
  O  O36  1  0.26003858  0.73651569  0.65725474  1
  O  O37  1  0.24265421  0.75400372  0.98597217  1
  O  O38  1  0.49952181  0.90666150  0.08623086  1
  O  O39  1  0.49931193  0.91168128  0.41565616  1
  O  O40  1  0.49920308  0.93139483  0.74909534  1
  O  O41  1  0.50079848  0.08129469  0.25071453  1
  O  O42  1  0.49976100  0.07146524  0.58300552  1
  O  O43  1  0.50164309  0.07973442  0.91793469  1
  O  O44  1  0.74550816  0.26014602  0.34876267  1
  O  O45  1  0.75502455  0.25137808  0.01341352  1
  O  O46  1  0.74508634  0.26139756  0.15145298  1
  O  O47  1  0.74579408  0.25109713  0.68091416  1
  O  O48  1  0.74480064  0.25898124  0.48462856  1
  O  O49  1  0.75188451  0.24794973  0.81865591  1
  O  O50  1  0.75471103  0.75916532  0.31744066  1
  O  O51  1  0.75526984  0.75934322  0.18279400  1
  O  O52  1  0.73894381  0.73596829  0.65698593  1
  O  O53  1  0.75787528  0.75393980  0.98582474  1
  O  O54  1  0.74583055  0.74986307  0.51099131  1
  O  O55  1  0.74842141  0.74844236  0.84799571  1
  O  O56  1  0.99838287  0.58062688  0.41581319  1
  O  O57  1  0.99798185  0.57792243  0.08441815  1
  O  O58  1  0.99874590  0.57374679  0.74902943  1
