# generated using pymatgen
data_Cs2Sr2O3
_symmetry_space_group_name_H-M   'P 1'
_cell_length_a   7.22712046
_cell_length_b   7.51548555
_cell_length_c   7.45275100
_cell_angle_alpha   90.00000000
_cell_angle_beta   116.19846159
_cell_angle_gamma   90.00000000
_symmetry_Int_Tables_number   1
_chemical_formula_structural   Cs2Sr2O3
_chemical_formula_sum   'Cs4 Sr4 O6'
_cell_volume   363.21368604
_cell_formula_units_Z   2
loop_
 _symmetry_equiv_pos_site_id
 _symmetry_equiv_pos_as_xyz
  1  'x, y, z'
loop_
 _atom_site_type_symbol
 _atom_site_label
 _atom_site_symmetry_multiplicity
 _atom_site_fract_x
 _atom_site_fract_y
 _atom_site_fract_z
 _atom_site_occupancy
  Cs  Cs0  1  0.17780401  0.64734590  0.92293016  1
  Cs  Cs1  1  0.17780401  0.85265410  0.42293016  1
  Cs  Cs2  1  0.82219599  0.14734590  0.57706984  1
  Cs  Cs3  1  0.82219599  0.35265410  0.07706984  1
  Sr  Sr4  1  0.33325618  0.37929734  0.56885731  1
  Sr  Sr5  1  0.66674382  0.87929734  0.93114269  1
  Sr  Sr6  1  0.33325618  0.12070266  0.06885731  1
  Sr  Sr7  1  0.66674382  0.62070266  0.43114269  1
  O  O8  1  0.00000000  0.50000000  0.50000000  1
  O  O9  1  0.00000000  0.00000000  0.00000000  1
  O  O10  1  0.40184313  0.10873135  0.77079431  1
  O  O11  1  0.59815687  0.60873135  0.72920569  1
  O  O12  1  0.40184313  0.39126865  0.27079431  1
  O  O13  1  0.59815687  0.89126865  0.22920569  1
