# generated using pymatgen
data_LiTiSiO4
_symmetry_space_group_name_H-M   'P 1'
_cell_length_a   5.93272450
_cell_length_b   10.34762833
_cell_length_c   4.80163595
_cell_angle_alpha   90.00000000
_cell_angle_beta   89.95312135
_cell_angle_gamma   90.00000000
_symmetry_Int_Tables_number   1
_chemical_formula_structural   LiTiSiO4
_chemical_formula_sum   'Li4 Ti4 Si4 O16'
_cell_volume   294.77054627
_cell_formula_units_Z   4
loop_
 _symmetry_equiv_pos_site_id
 _symmetry_equiv_pos_as_xyz
  1  'x, y, z'
loop_
 _atom_site_type_symbol
 _atom_site_label
 _atom_site_symmetry_multiplicity
 _atom_site_fract_x
 _atom_site_fract_y
 _atom_site_fract_z
 _atom_site_occupancy
  Li  Li0  1  0.25460512  0.29218784  0.25029194  1
  Li  Li1  1  0.24633152  0.79948189  0.74953417  1
  Li  Li2  1  0.75366848  0.29948189  0.25046583  1
  Li  Li3  1  0.74539488  0.79218784  0.74970806  1
  Ti  Ti4  1  0.99864022  0.02259130  0.24839622  1
  Ti  Ti5  1  0.50058535  0.07163716  0.74897769  1
  Ti  Ti6  1  0.49941465  0.57163716  0.25102231  1
  Ti  Ti7  1  0.00135978  0.52259130  0.75160378  1
  Si  Si8  1  0.00051545  0.20250332  0.80175722  1
  Si  Si9  1  0.49866957  0.89203996  0.30256707  1
  Si  Si10  1  0.50133043  0.39203996  0.69743293  1
  Si  Si11  1  0.99948455  0.70250332  0.19824278  1
  O  O12  1  0.99967244  0.34754172  0.94055034  1
  O  O13  1  0.00111955  0.19924444  0.46579316  1
  O  O14  1  0.21291537  0.62191015  0.04877421  1
  O  O15  1  0.21362807  0.12226543  0.95195945  1
  O  O16  1  0.28515021  0.97229563  0.45262350  1
  O  O17  1  0.50062999  0.24703934  0.55834170  1
  O  O18  1  0.49977466  0.89485426  0.96631888  1
  O  O19  1  0.28832100  0.47332855  0.54928214  1
  O  O20  1  0.71167900  0.97332855  0.45071786  1
  O  O21  1  0.50022534  0.39485426  0.03368112  1
  O  O22  1  0.49937001  0.74703934  0.44165830  1
  O  O23  1  0.71484979  0.47229563  0.54737650  1
  O  O24  1  0.78637193  0.62226543  0.04804055  1
  O  O25  1  0.78708463  0.12191015  0.95122579  1
  O  O26  1  0.99888045  0.69924444  0.53420684  1
  O  O27  1  0.00032756  0.84754172  0.05944966  1
