# generated using pymatgen
data_Y3I7O
_symmetry_space_group_name_H-M   'P 1'
_cell_length_a   8.38537279
_cell_length_b   8.38540001
_cell_length_c   14.89043417
_cell_angle_alpha   89.95803240
_cell_angle_beta   90.01977827
_cell_angle_gamma   119.99236665
_symmetry_Int_Tables_number   1
_chemical_formula_structural   Y3I7O
_chemical_formula_sum   'Y6 I14 O2'
_cell_volume   906.81237039
_cell_formula_units_Z   2
loop_
 _symmetry_equiv_pos_site_id
 _symmetry_equiv_pos_as_xyz
  1  'x, y, z'
loop_
 _atom_site_type_symbol
 _atom_site_label
 _atom_site_symmetry_multiplicity
 _atom_site_fract_x
 _atom_site_fract_y
 _atom_site_fract_z
 _atom_site_occupancy
  Y  Y0  1  0.14687736  0.85290780  0.75879258  1
  Y  Y1  1  0.14713133  0.29400214  0.75868782  1
  Y  Y2  1  0.29392642  0.14666994  0.25871540  1
  Y  Y3  1  0.70605049  0.85324990  0.75883042  1
  Y  Y4  1  0.85288465  0.70591131  0.25872246  1
  Y  Y5  1  0.85318298  0.14709368  0.25873308  1
  I  I6  1  0.17045587  0.82952348  0.12765754  1
  I  I7  1  0.00078768  0.50017886  0.37354411  1
  I  I8  1  0.33345763  0.66694565  0.64127743  1
  I  I9  1  0.17042513  0.34080176  0.12760962  1
  I  I10  1  0.49991767  0.99904254  0.37359617  1
  I  I11  1  0.49918343  0.50015324  0.37310308  1
  I  I12  1  0.65941602  0.83004601  0.12760109  1
  I  I13  1  0.34076032  0.17042362  0.62764015  1
  I  I14  1  0.50043954  0.49949540  0.87340126  1
  I  I15  1  0.50050033  0.00149393  0.87343651  1
  I  I16  1  0.66669225  0.33386953  0.14120858  1
  I  I17  1  0.82952250  0.65929969  0.62769976  1
  I  I18  1  0.99889905  0.49886931  0.87336187  1
  I  I19  1  0.82959904  0.17036504  0.62758450  1
  O  O20  1  0.99996915  0.99985859  0.29620352  1
  O  O21  1  0.00004217  0.00001656  0.79625406  1
