# generated using pymatgen
data_LiSbCSO7
_symmetry_space_group_name_H-M   'P 1'
_cell_length_a   8.85400988
_cell_length_b   6.75729330
_cell_length_c   5.58055205
_cell_angle_alpha   90.00000000
_cell_angle_beta   93.50984540
_cell_angle_gamma   90.00000000
_symmetry_Int_Tables_number   1
_chemical_formula_structural   LiSbCSO7
_chemical_formula_sum   'Li2 Sb2 C2 S2 O14'
_cell_volume   333.25337887
_cell_formula_units_Z   2
loop_
 _symmetry_equiv_pos_site_id
 _symmetry_equiv_pos_as_xyz
  1  'x, y, z'
loop_
 _atom_site_type_symbol
 _atom_site_label
 _atom_site_symmetry_multiplicity
 _atom_site_fract_x
 _atom_site_fract_y
 _atom_site_fract_z
 _atom_site_occupancy
  Li  Li0  1  0.20457468  0.49122312  0.27844109  1
  Li  Li1  1  0.79542532  0.99122312  0.72155891  1
  Sb  Sb2  1  0.35790357  0.74405839  0.79400184  1
  Sb  Sb3  1  0.64209643  0.24405839  0.20599816  1
  C  C4  1  0.07051196  0.74257268  0.72283250  1
  C  C5  1  0.92948804  0.24257268  0.27716750  1
  S  S6  1  0.39777493  0.25653364  0.72785629  1
  S  S7  1  0.60222507  0.75653364  0.27214371  1
  O  O8  1  0.06509538  0.28002644  0.30614746  1
  O  O9  1  0.14878971  0.74501766  0.93983411  1
  O  O10  1  0.16256338  0.70269931  0.54660033  1
  O  O11  1  0.30890479  0.07759316  0.78590487  1
  O  O12  1  0.34298391  0.41768455  0.88989120  1
  O  O13  1  0.43499464  0.72417556  0.21107790  1
  O  O14  1  0.37743574  0.31626748  0.47521508  1
  O  O15  1  0.62256426  0.81626748  0.52478492  1
  O  O16  1  0.56500536  0.22417556  0.78892210  1
  O  O17  1  0.65701609  0.91768455  0.11010880  1
  O  O18  1  0.69109521  0.57759316  0.21409513  1
  O  O19  1  0.83743662  0.20269931  0.45339967  1
  O  O20  1  0.85121029  0.24501766  0.06016589  1
  O  O21  1  0.93490462  0.78002644  0.69385254  1
