# generated using pymatgen
data_Ce3Y4O12
_symmetry_space_group_name_H-M   'P 1'
_cell_length_a   3.75906794
_cell_length_b   13.94079918
_cell_length_c   5.49971262
_cell_angle_alpha   101.18785582
_cell_angle_beta   90.00000000
_cell_angle_gamma   82.25163867
_symmetry_Int_Tables_number   1
_chemical_formula_structural   Ce3Y4O12
_chemical_formula_sum   'Ce3 Y4 O12'
_cell_volume   280.04928127
_cell_formula_units_Z   1
loop_
 _symmetry_equiv_pos_site_id
 _symmetry_equiv_pos_as_xyz
  1  'x, y, z'
loop_
 _atom_site_type_symbol
 _atom_site_label
 _atom_site_symmetry_multiplicity
 _atom_site_fract_x
 _atom_site_fract_y
 _atom_site_fract_z
 _atom_site_occupancy
  Ce  Ce0  1  0.85675485  0.28649129  0.14531989  1
  Ce  Ce1  1  0.28030837  0.43938226  0.72179992  1
  Ce  Ce2  1  0.42494083  0.15011833  0.56783420  1
  Y  Y3  1  0.00415150  0.99169800  0.05097492  1
  Y  Y4  1  0.57252067  0.85495765  0.42815645  1
  Y  Y5  1  0.71817779  0.56364542  0.29256487  1
  Y  Y6  1  0.14231425  0.71537150  0.80501308  1
  O  O7  1  0.20228570  0.59542860  0.03948208  1
  O  O8  1  0.08571913  0.82856175  0.16494311  1
  O  O9  1  0.92637296  0.14725409  0.32824813  1
  O  O10  1  0.35720022  0.28560056  0.38896935  1
  O  O11  1  0.50171246  0.99657507  0.26630005  1
  O  O12  1  0.78773477  0.42453147  0.46637333  1
  O  O13  1  0.05489294  0.89021512  0.68689440  1
  O  O14  1  0.21703044  0.56593911  0.53210218  1
  O  O15  1  0.64056655  0.71886791  0.59118493  1
  O  O16  1  0.78463747  0.43072506  0.97020497  1
  O  O17  1  0.35944787  0.28110326  0.88724370  1
  O  O18  1  0.94037623  0.11924654  0.80924744  1
