# generated using pymatgen
data_U4O7
_symmetry_space_group_name_H-M   'P 1'
_cell_length_a   10.15950722
_cell_length_b   5.46801639
_cell_length_c   6.64953745
_cell_angle_alpha   114.23487211
_cell_angle_beta   89.94232684
_cell_angle_gamma   105.56700072
_symmetry_Int_Tables_number   1
_chemical_formula_structural   U4O7
_chemical_formula_sum   'U8 O14'
_cell_volume   321.97150050
_cell_formula_units_Z   2
loop_
 _symmetry_equiv_pos_site_id
 _symmetry_equiv_pos_as_xyz
  1  'x, y, z'
loop_
 _atom_site_type_symbol
 _atom_site_label
 _atom_site_symmetry_multiplicity
 _atom_site_fract_x
 _atom_site_fract_y
 _atom_site_fract_z
 _atom_site_occupancy
  U  U0  1  0.37936024  0.11685283  0.88878595  1
  U  U1  1  0.11869008  0.38210764  0.62578548  1
  U  U2  1  0.50754682  0.51535112  0.50259919  1
  U  U3  1  0.74715546  0.26094068  0.74031272  1
  U  U4  1  0.24678373  0.72546909  0.23906085  1
  U  U5  1  0.00781547  0.99443831  0.00151133  1
  U  U6  1  0.61846342  0.86296754  0.12754944  1
  U  U7  1  0.87911894  0.65099425  0.38839126  1
  O  O8  1  0.19409099  0.30523072  0.92278937  1
  O  O9  1  0.18682427  0.81035165  0.93899190  1
  O  O10  1  0.57424906  0.95322639  0.83101144  1
  O  O11  1  0.07504824  0.95013752  0.32843833  1
  O  O12  1  0.31340524  0.68463586  0.56364747  1
  O  O13  1  0.55280613  0.42591384  0.79966576  1
  O  O14  1  0.05203944  0.42560418  0.29883545  1
  O  O15  1  0.93903590  0.56505589  0.68754428  1
  O  O16  1  0.68639099  0.81813761  0.44262217  1
  O  O17  1  0.93237349  0.06986281  0.70347623  1
  O  O18  1  0.69386613  0.31227636  0.42333647  1
  O  O19  1  0.43943333  0.56005175  0.18689780  1
  O  O20  1  0.43096531  0.06539702  0.20635729  1
  O  O21  1  0.81298932  0.69398294  0.06595085  1
