# generated using pymatgen
data_CsRbO
_symmetry_space_group_name_H-M   'P 1'
_cell_length_a   7.15408265
_cell_length_b   5.04008398
_cell_length_c   9.95291335
_cell_angle_alpha   90.00000000
_cell_angle_beta   90.00000000
_cell_angle_gamma   90.00000000
_symmetry_Int_Tables_number   1
_chemical_formula_structural   CsRbO
_chemical_formula_sum   'Cs4 Rb4 O4'
_cell_volume   358.87396187
_cell_formula_units_Z   4
loop_
 _symmetry_equiv_pos_site_id
 _symmetry_equiv_pos_as_xyz
  1  'x, y, z'
loop_
 _atom_site_type_symbol
 _atom_site_label
 _atom_site_symmetry_multiplicity
 _atom_site_fract_x
 _atom_site_fract_y
 _atom_site_fract_z
 _atom_site_occupancy
  Cs  Cs0  1  0.10954029  0.25000000  0.61650884  1
  Cs  Cs1  1  0.39045971  0.75000000  0.11650884  1
  Cs  Cs2  1  0.60954029  0.25000000  0.88349116  1
  Cs  Cs3  1  0.89045971  0.75000000  0.38349116  1
  Rb  Rb4  1  0.01324694  0.75000000  0.87453121  1
  Rb  Rb5  1  0.48675306  0.25000000  0.37453121  1
  Rb  Rb6  1  0.51324694  0.75000000  0.62546879  1
  Rb  Rb7  1  -0.01324694  0.25000000  0.12546879  1
  O  O8  1  0.28463596  0.75000000  0.40645593  1
  O  O9  1  0.21536404  0.25000000  0.90645593  1
  O  O10  1  0.78463596  0.75000000  0.09354407  1
  O  O11  1  0.71536404  0.25000000  0.59354407  1
