# generated using pymatgen
data_SbOF
_symmetry_space_group_name_H-M   'P 1'
_cell_length_a   10.26046774
_cell_length_b   10.26046774
_cell_length_c   4.54822874
_cell_angle_alpha   90.00000000
_cell_angle_beta   90.00000000
_cell_angle_gamma   90.00000000
_symmetry_Int_Tables_number   1
_chemical_formula_structural   SbOF
_chemical_formula_sum   'Sb8 O8 F8'
_cell_volume   478.82477872
_cell_formula_units_Z   8
loop_
 _symmetry_equiv_pos_site_id
 _symmetry_equiv_pos_as_xyz
  1  'x, y, z'
loop_
 _atom_site_type_symbol
 _atom_site_label
 _atom_site_symmetry_multiplicity
 _atom_site_fract_x
 _atom_site_fract_y
 _atom_site_fract_z
 _atom_site_occupancy
  Sb  Sb0  1  0.03905674  0.23139552  0.13244076  1
  Sb  Sb1  1  0.23139552  0.96094326  0.86755924  1
  Sb  Sb2  1  0.26860448  0.46094326  0.63244076  1
  Sb  Sb3  1  0.46094326  0.73139552  0.36755924  1
  Sb  Sb4  1  0.53905674  0.26860448  0.36755924  1
  Sb  Sb5  1  0.73139552  0.53905674  0.63244076  1
  Sb  Sb6  1  0.76860448  0.03905674  0.86755924  1
  Sb  Sb7  1  0.96094326  0.76860448  0.13244076  1
  O  O8  1  0.11985307  0.87399749  0.17008917  1
  O  O9  1  0.12600251  0.11985307  0.82991083  1
  O  O10  1  0.37399749  0.61985307  0.67008917  1
  O  O11  1  0.38014693  0.37399749  0.32991083  1
  O  O12  1  0.61985307  0.62600251  0.32991083  1
  O  O13  1  0.62600251  0.38014693  0.67008917  1
  O  O14  1  0.87399749  0.88014693  0.82991083  1
  O  O15  1  0.88014693  0.12600251  0.17008917  1
  F  F16  1  0.02871859  0.66419990  0.80377559  1
  F  F17  1  0.16419990  0.52871859  0.30377559  1
  F  F18  1  0.33580010  0.02871859  0.19622441  1
  F  F19  1  0.47128141  0.16419990  0.69622441  1
  F  F20  1  0.52871859  0.83580010  0.69622441  1
  F  F21  1  0.66419990  0.97128141  0.19622441  1
  F  F22  1  0.83580010  0.47128141  0.30377559  1
  F  F23  1  0.97128141  0.33580010  0.80377559  1
