# generated using pymatgen
data_Li2Sn5(PO4)4
_symmetry_space_group_name_H-M   'P 1'
_cell_length_a   9.65615782
_cell_length_b   9.77283728
_cell_length_c   5.17906465
_cell_angle_alpha   98.86342894
_cell_angle_beta   99.87865869
_cell_angle_gamma   117.88123309
_symmetry_Int_Tables_number   1
_chemical_formula_structural   Li2Sn5(PO4)4
_chemical_formula_sum   'Li2 Sn5 P4 O16'
_cell_volume   409.90399451
_cell_formula_units_Z   1
loop_
 _symmetry_equiv_pos_site_id
 _symmetry_equiv_pos_as_xyz
  1  'x, y, z'
loop_
 _atom_site_type_symbol
 _atom_site_label
 _atom_site_symmetry_multiplicity
 _atom_site_fract_x
 _atom_site_fract_y
 _atom_site_fract_z
 _atom_site_occupancy
  Li  Li0  1  0.07864215  0.25431359  0.62119909  1
  Li  Li1  1  0.92135785  0.74568641  0.37880091  1
  Sn  Sn2  1  0.22151841  0.76867301  0.99723283  1
  Sn  Sn3  1  0.00000000  0.00000000  0.00000000  1
  Sn  Sn4  1  0.47287099  0.66750486  0.69218166  1
  Sn  Sn5  1  0.52712901  0.33249514  0.30781834  1
  Sn  Sn6  1  0.77848159  0.23132699  0.00276717  1
  P  P7  1  0.18771955  0.43750152  0.22123372  1
  P  P8  1  0.27527555  0.05042896  0.60439985  1
  P  P9  1  0.72472445  0.94957104  0.39560015  1
  P  P10  1  0.81228045  0.56249848  0.77876628  1
  O  O11  1  0.16866858  0.92281627  0.31620638  1
  O  O12  1  0.31963135  0.96826239  0.80956116  1
  O  O13  1  0.03291151  0.28246612  0.24684281  1
  O  O14  1  0.17111673  0.43120369  0.92171112  1
  O  O15  1  0.21204144  0.59525704  0.39411715  1
  O  O16  1  0.16880431  0.11621146  0.69944473  1
  O  O17  1  0.56387915  0.81377627  0.42148255  1
  O  O18  1  0.34141620  0.43050676  0.37018058  1
  O  O19  1  0.65858380  0.56949324  0.62981942  1
  O  O20  1  0.43612085  0.18622373  0.57851745  1
  O  O21  1  0.83119569  0.88378854  0.30055527  1
  O  O22  1  0.78795856  0.40474296  0.60588285  1
  O  O23  1  0.82888327  0.56879631  0.07828888  1
  O  O24  1  0.96708849  0.71753388  0.75315719  1
  O  O25  1  0.68036865  0.03173761  0.19043884  1
  O  O26  1  0.83133142  0.07718373  0.68379362  1
