# generated using pymatgen
data_Li2CuSnO4
_symmetry_space_group_name_H-M   'P 1'
_cell_length_a   6.29371354
_cell_length_b   6.29371377
_cell_length_c   5.89929651
_cell_angle_alpha   118.25680013
_cell_angle_beta   118.25679223
_cell_angle_gamma   95.16788123
_symmetry_Int_Tables_number   1
_chemical_formula_structural   Li2CuSnO4
_chemical_formula_sum   'Li4 Cu2 Sn2 O8'
_cell_volume   165.76988628
_cell_formula_units_Z   2
loop_
 _symmetry_equiv_pos_site_id
 _symmetry_equiv_pos_as_xyz
  1  'x, y, z'
loop_
 _atom_site_type_symbol
 _atom_site_label
 _atom_site_symmetry_multiplicity
 _atom_site_fract_x
 _atom_site_fract_y
 _atom_site_fract_z
 _atom_site_occupancy
  Li  Li0  1  0.00000000  0.50000000  0.50000000  1
  Li  Li1  1  0.50000000  0.50000000  0.50000000  1
  Li  Li2  1  0.50000000  0.00000000  0.00000000  1
  Li  Li3  1  0.50000000  0.50000000  0.00000000  1
  Cu  Cu4  1  0.00000000  0.00000000  0.50000000  1
  Cu  Cu5  1  0.00000000  0.00000000  0.00000000  1
  Sn  Sn6  1  0.00000000  0.50000000  0.00000000  1
  Sn  Sn7  1  0.50000000  0.00000000  0.50000000  1
  O  O8  1  0.26737266  0.72742381  0.00306655  1
  O  O9  1  0.24885203  0.20125337  0.47766227  1
  O  O10  1  0.27257619  0.73262734  0.49693345  1
  O  O11  1  0.79874663  0.75114797  0.02233773  1
  O  O12  1  0.20125337  0.24885203  0.97766227  1
  O  O13  1  0.72742381  0.26737266  0.50306655  1
  O  O14  1  0.75114797  0.79874663  0.52233773  1
  O  O15  1  0.73262734  0.27257619  0.99693345  1
