# generated using pymatgen
data_UNb6O16
_symmetry_space_group_name_H-M   'P 1'
_cell_length_a   3.82714173
_cell_length_b   11.53698749
_cell_length_c   7.43761351
_cell_angle_alpha   83.85898331
_cell_angle_beta   90.00000000
_cell_angle_gamma   80.45257046
_symmetry_Int_Tables_number   1
_chemical_formula_structural   UNb6O16
_chemical_formula_sum   'U1 Nb6 O16'
_cell_volume   321.93819399
_cell_formula_units_Z   1
loop_
 _symmetry_equiv_pos_site_id
 _symmetry_equiv_pos_as_xyz
  1  'x, y, z'
loop_
 _atom_site_type_symbol
 _atom_site_label
 _atom_site_symmetry_multiplicity
 _atom_site_fract_x
 _atom_site_fract_y
 _atom_site_fract_z
 _atom_site_occupancy
  U  U0  1  0.00679013  0.00000000  0.00000000  1
  Nb  Nb1  1  0.09701578  0.85492919  0.53079297  1
  Nb  Nb2  1  0.67829649  0.73503618  0.89083565  1
  Nb  Nb3  1  0.12536056  0.55679024  0.32422645  1
  Nb  Nb4  1  0.68215181  0.44320976  0.67577355  1
  Nb  Nb5  1  0.41333267  0.26496382  0.10916435  1
  Nb  Nb6  1  0.95194597  0.14507081  0.46920703  1
  O  O7  1  0.02946773  0.97209267  0.32527467  1
  O  O8  1  0.60326316  0.84228869  0.61352762  1
  O  O9  1  0.55823260  0.88807619  0.01976079  1
  O  O10  1  0.13743384  0.78541982  0.82688604  1
  O  O11  1  0.13728775  0.71844421  0.41985659  1
  O  O12  1  0.66687056  0.58965525  0.78633234  1
  O  O13  1  0.89077328  0.64784100  0.10831187  1
  O  O14  1  0.65069029  0.53197131  0.40467237  1
  O  O15  1  0.18266161  0.46802869  0.59532763  1
  O  O16  1  0.53861428  0.35215900  0.89168813  1
  O  O17  1  0.25652681  0.41034475  0.21366766  1
  O  O18  1  0.85573097  0.28155579  0.58014341  1
  O  O19  1  0.92285366  0.21458018  0.17311396  1
  O  O20  1  0.44630878  0.11192381  0.98023921  1
  O  O21  1  0.44555185  0.15771131  0.38647238  1
  O  O22  1  0.00156040  0.02790733  0.67472533  1
