# generated using pymatgen
data_MgCu2(SiO3)4
_symmetry_space_group_name_H-M   'P 1'
_cell_length_a   5.74623476
_cell_length_b   7.29517473
_cell_length_c   5.28503389
_cell_angle_alpha   99.76611759
_cell_angle_beta   95.94584860
_cell_angle_gamma   84.83695571
_symmetry_Int_Tables_number   1
_chemical_formula_structural   MgCu2(SiO3)4
_chemical_formula_sum   'Mg1 Cu2 Si4 O12'
_cell_volume   216.56881774
_cell_formula_units_Z   1
loop_
 _symmetry_equiv_pos_site_id
 _symmetry_equiv_pos_as_xyz
  1  'x, y, z'
loop_
 _atom_site_type_symbol
 _atom_site_label
 _atom_site_symmetry_multiplicity
 _atom_site_fract_x
 _atom_site_fract_y
 _atom_site_fract_z
 _atom_site_occupancy
  Mg  Mg0  1  0.00000000  0.00000000  0.00000000  1
  Cu  Cu1  1  0.17711914  0.81462769  0.50710304  1
  Cu  Cu2  1  0.82288086  0.18537231  0.49289696  1
  Si  Si3  1  0.21729038  0.38049119  0.30675307  1
  Si  Si4  1  0.41240870  0.19780212  0.77929266  1
  Si  Si5  1  0.58759130  0.80219788  0.22070734  1
  Si  Si6  1  0.78270962  0.61950881  0.69324693  1
  O  O7  1  0.99411817  0.24597251  0.24252399  1
  O  O8  1  0.00588183  0.75402749  0.75747601  1
  O  O9  1  0.20896088  0.04462057  0.73035371  1
  O  O10  1  0.12254020  0.59566668  0.29457160  1
  O  O11  1  0.36894325  0.34715775  0.57743530  1
  O  O12  1  0.32081034  0.90247417  0.25335449  1
  O  O13  1  0.39141591  0.30138918  0.07621399  1
  O  O14  1  0.60858409  0.69861082  0.92378601  1
  O  O15  1  0.67918966  0.09752583  0.74664551  1
  O  O16  1  0.63105675  0.65284225  0.42256470  1
  O  O17  1  0.87745980  0.40433332  0.70542840  1
  O  O18  1  0.79103912  0.95537943  0.26964629  1
