# generated using pymatgen
data_Li2Ti(BO3)2
_symmetry_space_group_name_H-M   'P 1'
_cell_length_a   4.99227181
_cell_length_b   6.87139967
_cell_length_c   8.07506031
_cell_angle_alpha   69.87811866
_cell_angle_beta   92.48470611
_cell_angle_gamma   90.44356821
_symmetry_Int_Tables_number   1
_chemical_formula_structural   Li2Ti(BO3)2
_chemical_formula_sum   'Li4 Ti2 B4 O12'
_cell_volume   259.84625442
_cell_formula_units_Z   2
loop_
 _symmetry_equiv_pos_site_id
 _symmetry_equiv_pos_as_xyz
  1  'x, y, z'
loop_
 _atom_site_type_symbol
 _atom_site_label
 _atom_site_symmetry_multiplicity
 _atom_site_fract_x
 _atom_site_fract_y
 _atom_site_fract_z
 _atom_site_occupancy
  Li  Li0  1  0.17327522  0.92164108  0.90017560  1
  Li  Li1  1  0.37185586  0.77555802  0.60191534  1
  Li  Li2  1  0.62814414  0.22444198  0.39808466  1
  Li  Li3  1  0.82672478  0.07835892  0.09982440  1
  Ti  Ti4  1  0.12239824  0.58968110  0.25015849  1
  Ti  Ti5  1  0.87760176  0.41031890  0.74984151  1
  B  B6  1  0.14521744  0.19053839  0.55243696  1
  B  B7  1  0.32662372  0.34554221  0.88682413  1
  B  B8  1  0.67337628  0.65445779  0.11317587  1
  B  B9  1  0.85478256  0.80946161  0.44756304  1
  O  O10  1  0.09910145  0.73368566  0.40109641  1
  O  O11  1  0.21497057  0.53582120  0.78177781  1
  O  O12  1  0.13391253  0.19704912  0.94527524  1
  O  O13  1  0.25702064  0.32912133  0.39953268  1
  O  O14  1  0.25472404  0.01130598  0.65181263  1
  O  O15  1  0.39980147  0.68727501  0.09059001  1
  O  O16  1  0.60019853  0.31272499  0.90940999  1
  O  O17  1  0.74527596  0.98869402  0.34818737  1
  O  O18  1  0.74297936  0.67087867  0.60046732  1
  O  O19  1  0.86608747  0.80295088  0.05472476  1
  O  O20  1  0.78502943  0.46417880  0.21822219  1
  O  O21  1  0.90089855  0.26631434  0.59890359  1
