# generated using pymatgen
data_BaCaI4
_symmetry_space_group_name_H-M   'P 1'
_cell_length_a   8.16291142
_cell_length_b   10.31772032
_cell_length_c   8.16291142
_cell_angle_alpha   66.69801779
_cell_angle_beta   90.00000000
_cell_angle_gamma   113.30198221
_symmetry_Int_Tables_number   1
_chemical_formula_structural   BaCaI4
_chemical_formula_sum   'Ba2 Ca2 I8'
_cell_volume   569.85459786
_cell_formula_units_Z   2
loop_
 _symmetry_equiv_pos_site_id
 _symmetry_equiv_pos_as_xyz
  1  'x, y, z'
loop_
 _atom_site_type_symbol
 _atom_site_label
 _atom_site_symmetry_multiplicity
 _atom_site_fract_x
 _atom_site_fract_y
 _atom_site_fract_z
 _atom_site_occupancy
  Ba  Ba0  1  0.87500000  0.25000000  0.37500000  1
  Ba  Ba1  1  0.12500000  0.75000000  0.62500000  1
  Ca  Ca2  1  0.62500000  0.75000000  0.12500000  1
  Ca  Ca3  1  0.37500000  0.25000000  0.87500000  1
  I  I4  1  0.11517234  0.07859643  0.23415560  1
  I  I5  1  0.26584440  0.57859643  0.03657492  1
  I  I6  1  0.81275303  0.57859643  0.38482766  1
  I  I7  1  0.53657492  0.92140357  0.31275303  1
  I  I8  1  0.46342508  0.07859643  0.68724697  1
  I  I9  1  0.18724697  0.42140357  0.61517234  1
  I  I10  1  0.73415560  0.42140357  0.96342508  1
  I  I11  1  0.88482766  0.92140357  0.76584440  1
