# generated using pymatgen
data_Li2CuSiO4
_symmetry_space_group_name_H-M   'P 1'
_cell_length_a   6.30464643
_cell_length_b   10.64197902
_cell_length_c   5.00786231
_cell_angle_alpha   90.00532127
_cell_angle_beta   90.00001160
_cell_angle_gamma   90.00003669
_symmetry_Int_Tables_number   1
_chemical_formula_structural   Li2CuSiO4
_chemical_formula_sum   'Li8 Cu4 Si4 O16'
_cell_volume   335.99708663
_cell_formula_units_Z   4
loop_
 _symmetry_equiv_pos_site_id
 _symmetry_equiv_pos_as_xyz
  1  'x, y, z'
loop_
 _atom_site_type_symbol
 _atom_site_label
 _atom_site_symmetry_multiplicity
 _atom_site_fract_x
 _atom_site_fract_y
 _atom_site_fract_z
 _atom_site_occupancy
  Li  Li0  1  0.99845378  0.41119761  0.18126073  1
  Li  Li1  1  0.99848718  0.91117960  0.31874464  1
  Li  Li2  1  0.50151281  0.91117961  0.31874443  1
  Li  Li3  1  0.50154621  0.41119762  0.18126058  1
  Li  Li4  1  0.49847334  0.08879200  0.68126423  1
  Li  Li5  1  0.49845038  0.58882728  0.81873408  1
  Li  Li6  1  0.00152663  0.08879197  0.68126408  1
  Li  Li7  1  0.00154957  0.58882728  0.81873398  1
  Cu  Cu8  1  0.25000011  0.34376142  0.68530410  1
  Cu  Cu9  1  0.25000025  0.84378755  0.81476141  1
  Cu  Cu10  1  0.75000017  0.65624137  0.31472211  1
  Cu  Cu11  1  0.74999991  0.15621632  0.18527060  1
  Si  Si12  1  0.25000001  0.17046402  0.17056968  1
  Si  Si13  1  0.24999998  0.67046021  0.32943574  1
  Si  Si14  1  0.75000001  0.32953420  0.67054581  1
  Si  Si15  1  0.75000004  0.82954303  0.82943555  1
  O  O16  1  0.96385388  0.40408876  0.77824317  1
  O  O17  1  0.96382113  0.90410950  0.72172683  1
  O  O18  1  0.25000001  0.31734901  0.27648384  1
  O  O19  1  0.25000013  0.66887738  0.65874942  1
  O  O20  1  0.24999999  0.16892353  0.84122828  1
  O  O21  1  0.25000004  0.81733377  0.22358151  1
  O  O22  1  0.53617874  0.90410948  0.72172702  1
  O  O23  1  0.53614598  0.40408876  0.77824286  1
  O  O24  1  0.46384939  0.59590898  0.22173988  1
  O  O25  1  0.46384146  0.09590532  0.27824350  1
  O  O26  1  0.74999991  0.68265588  0.72354435  1
  O  O27  1  0.74999970  0.18265637  0.77645852  1
  O  O28  1  0.74999991  0.33108886  0.34123438  1
  O  O29  1  0.74999991  0.83108899  0.15876166  1
  O  O30  1  0.03615062  0.59590900  0.22173985  1
  O  O31  1  0.03615881  0.09590531  0.27824319  1
