# generated using pymatgen
data_Li3Si2BiO7
_symmetry_space_group_name_H-M   'P 1'
_cell_length_a   9.05569805
_cell_length_b   9.05602713
_cell_length_c   13.86474068
_cell_angle_alpha   89.99980770
_cell_angle_beta   89.99977421
_cell_angle_gamma   120.00165946
_symmetry_Int_Tables_number   1
_chemical_formula_structural   Li3Si2BiO7
_chemical_formula_sum   'Li18 Si12 Bi6 O42'
_cell_volume   984.67920989
_cell_formula_units_Z   6
loop_
 _symmetry_equiv_pos_site_id
 _symmetry_equiv_pos_as_xyz
  1  'x, y, z'
loop_
 _atom_site_type_symbol
 _atom_site_label
 _atom_site_symmetry_multiplicity
 _atom_site_fract_x
 _atom_site_fract_y
 _atom_site_fract_z
 _atom_site_occupancy
  Li  Li0  1  0.31348688  0.98571529  0.08799153  1
  Li  Li1  1  0.31304938  0.98433998  0.41328630  1
  Li  Li2  1  0.01429095  0.32772585  0.08801616  1
  Li  Li3  1  0.01566150  0.32866963  0.41326272  1
  Li  Li4  1  0.00000561  0.99999401  0.49959733  1
  Li  Li5  1  0.99999343  0.99998861  0.99959601  1
  Li  Li6  1  0.33340575  0.66669988  0.25172049  1
  Li  Li7  1  0.33338361  0.66670177  0.76222702  1
  Li  Li8  1  0.32774000  0.31344993  0.58800865  1
  Li  Li9  1  0.32867565  0.31301560  0.91326706  1
  Li  Li10  1  0.67226111  0.68655638  0.08800931  1
  Li  Li11  1  0.67132714  0.68698638  0.41326200  1
  Li  Li12  1  0.66668566  0.33330041  0.26222797  1
  Li  Li13  1  0.66668984  0.33329073  0.75172018  1
  Li  Li14  1  0.98432920  0.67132971  0.91325862  1
  Li  Li15  1  0.98570600  0.67227099  0.58801961  1
  Li  Li16  1  0.68651660  0.01428313  0.58799089  1
  Li  Li17  1  0.68693926  0.01564893  0.91328713  1
  Si  Si18  1  0.32563063  0.98038034  0.85909565  1
  Si  Si19  1  0.32534343  0.97998910  0.64117439  1
  Si  Si20  1  0.02001206  0.34541139  0.64116177  1
  Si  Si21  1  0.01962178  0.34529928  0.85911536  1
  Si  Si22  1  0.34528109  0.32564245  0.35910485  1
  Si  Si23  1  0.34538054  0.32536407  0.14117036  1
  Si  Si24  1  0.65462473  0.67464074  0.64116878  1
  Si  Si25  1  0.65470422  0.67434226  0.85910570  1
  Si  Si26  1  0.98037738  0.65470071  0.35911636  1
  Si  Si27  1  0.97999270  0.65458954  0.14116195  1
  Si  Si28  1  0.67435427  0.01962704  0.35909106  1
  Si  Si29  1  0.67466906  0.02001767  0.14116705  1
  Bi  Bi30  1  0.33333006  0.66667321  0.02208444  1
  Bi  Bi31  1  0.00009896  0.99995152  0.25016482  1
  Bi  Bi32  1  0.99992553  0.00007299  0.75016073  1
  Bi  Bi33  1  0.33334688  0.66668034  0.48058302  1
  Bi  Bi34  1  0.66665367  0.33332101  0.52208588  1
  Bi  Bi35  1  0.66664988  0.33332116  0.98058255  1
  O  O36  1  0.08746818  0.86303887  0.13634057  1
  O  O37  1  0.08648250  0.86314789  0.36469082  1
  O  O38  1  0.09995565  0.56724134  0.12895253  1
  O  O39  1  0.10162411  0.56888624  0.37162188  1
  O  O40  1  0.23377396  0.82572852  0.56184101  1
  O  O41  1  0.23472368  0.82274668  0.93645259  1
  O  O42  1  0.29258524  0.88123008  0.75014802  1
  O  O43  1  0.11873802  0.41133095  0.75015153  1
  O  O44  1  0.17427830  0.40805732  0.56184622  1
  O  O45  1  0.17726448  0.41199878  0.93644748  1
  O  O46  1  0.46732995  0.90002744  0.12895283  1
  O  O47  1  0.46731056  0.89838280  0.37160599  1
  O  O48  1  0.13694494  0.22433932  0.13637189  1
  O  O49  1  0.13682944  0.22325373  0.36465657  1
  O  O50  1  0.43273315  0.53269442  0.12895264  1
  O  O51  1  0.43109631  0.53270528  0.37161456  1
  O  O52  1  0.22324475  0.08644619  0.86464339  1
  O  O53  1  0.22432401  0.08740933  0.63636984  1
  O  O54  1  0.59195785  0.76623897  0.56184246  1
  O  O55  1  0.58798300  0.76526293  0.93644046  1
  O  O56  1  0.58863975  0.70740384  0.75014837  1
  O  O57  1  0.41135611  0.29258364  0.25014895  1
  O  O58  1  0.40804413  0.23376766  0.06184178  1
  O  O59  1  0.41199044  0.23472432  0.43645016  1
  O  O60  1  0.77569443  0.91259924  0.13636662  1
  O  O61  1  0.77675383  0.91355249  0.36463927  1
  O  O62  1  0.56726737  0.46731600  0.62894520  1
  O  O63  1  0.56890247  0.46729403  0.87162029  1
  O  O64  1  0.86306520  0.77567524  0.63637228  1
  O  O65  1  0.86317168  0.77675537  0.86465599  1
  O  O66  1  0.53268533  0.10161598  0.87160727  1
  O  O67  1  0.53267402  0.09996403  0.62895914  1
  O  O68  1  0.82273242  0.58799591  0.43644837  1
  O  O69  1  0.82572148  0.59194861  0.06184327  1
  O  O70  1  0.88126699  0.58866687  0.25015125  1
  O  O71  1  0.70740616  0.11876336  0.25014130  1
  O  O72  1  0.76526233  0.17726368  0.43643801  1
  O  O73  1  0.76622667  0.17427368  0.06183819  1
  O  O74  1  0.90002798  0.43274549  0.62895979  1
  O  O75  1  0.89837343  0.43111345  0.87161327  1
  O  O76  1  0.91253642  0.13696288  0.63633701  1
  O  O77  1  0.91350783  0.13685214  0.86468722  1
