# generated using pymatgen
data_Li3Sb2(PO4)3
_symmetry_space_group_name_H-M   'P 1'
_cell_length_a   9.43026350
_cell_length_b   9.07988011
_cell_length_c   9.43026350
_cell_angle_alpha   123.00077810
_cell_angle_beta   121.08654273
_cell_angle_gamma   56.99922190
_symmetry_Int_Tables_number   1
_chemical_formula_structural   Li3Sb2(PO4)3
_chemical_formula_sum   'Li6 Sb4 P6 O24'
_cell_volume   539.52623399
_cell_formula_units_Z   2
loop_
 _symmetry_equiv_pos_site_id
 _symmetry_equiv_pos_as_xyz
  1  'x, y, z'
loop_
 _atom_site_type_symbol
 _atom_site_label
 _atom_site_symmetry_multiplicity
 _atom_site_fract_x
 _atom_site_fract_y
 _atom_site_fract_z
 _atom_site_occupancy
  Li  Li0  1  0.53822680  0.92714757  0.17969700  1
  Li  Li1  1  0.88256717  0.75000000  0.88256717  1
  Li  Li2  1  0.17969700  0.57285243  0.53822680  1
  Li  Li3  1  0.82030300  0.42714757  0.46177320  1
  Li  Li4  1  0.11743283  0.25000000  0.11743283  1
  Li  Li5  1  0.46177320  0.07285243  0.82030300  1
  Sb  Sb6  1  0.85437834  0.94766800  0.65768520  1
  Sb  Sb7  1  0.65768520  0.55233200  0.85437834  1
  Sb  Sb8  1  0.34231480  0.44766800  0.14562166  1
  Sb  Sb9  1  0.14562166  0.05233200  0.34231480  1
  P  P10  1  0.24610715  0.77943728  0.95227318  1
  P  P11  1  0.58331542  0.75000000  0.58331542  1
  P  P12  1  0.04772682  0.27943728  0.75389285  1
  P  P13  1  0.95227318  0.72056272  0.24610715  1
  P  P14  1  0.41668458  0.25000000  0.41668458  1
  P  P15  1  0.75389285  0.22056272  0.04772682  1
  O  O16  1  0.11848554  0.75369117  0.75536883  1
  O  O17  1  0.01199999  0.84641681  0.24472912  1
  O  O18  1  0.43584207  0.93603554  0.56090020  1
  O  O19  1  0.43672897  0.73176952  0.96165086  1
  O  O20  1  0.18382750  0.98915469  0.07524183  1
  O  O21  1  0.59943680  0.77616832  0.77201697  1
  O  O22  1  0.77201697  0.72383168  0.59943680  1
  O  O23  1  0.07524183  0.51084531  0.18382750  1
  O  O24  1  0.24463117  0.25369117  0.88151446  1
  O  O25  1  0.96165086  0.76823048  0.43672897  1
  O  O26  1  0.56090020  0.56396446  0.43584207  1
  O  O27  1  0.24472912  0.65358319  0.01199999  1
  O  O28  1  0.75527088  0.34641681  0.98800001  1
  O  O29  1  0.43909980  0.43603554  0.56415793  1
  O  O30  1  0.03834914  0.23176952  0.56327103  1
  O  O31  1  0.75536883  0.74630883  0.11848554  1
  O  O32  1  0.92475817  0.48915469  0.81617250  1
  O  O33  1  0.22798303  0.27616832  0.40056320  1
  O  O34  1  0.40056320  0.22383168  0.22798303  1
  O  O35  1  0.81617250  0.01084531  0.92475817  1
  O  O36  1  0.56327103  0.26823048  0.03834914  1
  O  O37  1  0.56415793  0.06396446  0.43909980  1
  O  O38  1  0.98800001  0.15358319  0.75527088  1
  O  O39  1  0.88151446  0.24630883  0.24463117  1
