# generated using pymatgen
data_LiSn(PO3)3
_symmetry_space_group_name_H-M   'P 1'
_cell_length_a   10.91386365
_cell_length_b   12.66435931
_cell_length_c   5.61287474
_cell_angle_alpha   90.00000000
_cell_angle_beta   90.00000000
_cell_angle_gamma   90.00000000
_symmetry_Int_Tables_number   1
_chemical_formula_structural   LiSn(PO3)3
_chemical_formula_sum   'Li4 Sn4 P12 O36'
_cell_volume   775.79521716
_cell_formula_units_Z   4
loop_
 _symmetry_equiv_pos_site_id
 _symmetry_equiv_pos_as_xyz
  1  'x, y, z'
loop_
 _atom_site_type_symbol
 _atom_site_label
 _atom_site_symmetry_multiplicity
 _atom_site_fract_x
 _atom_site_fract_y
 _atom_site_fract_z
 _atom_site_occupancy
  Li  Li0  1  0.10464308  0.09730755  0.13229778  1
  Li  Li1  1  0.39535692  0.90269245  0.63229778  1
  Li  Li2  1  0.60464308  0.40269245  0.86770222  1
  Li  Li3  1  0.89535692  0.59730755  0.36770222  1
  Sn  Sn4  1  0.02846879  0.86779760  0.58318328  1
  Sn  Sn5  1  0.47153121  0.13220240  0.08318328  1
  Sn  Sn6  1  0.52846879  0.63220240  0.41681672  1
  Sn  Sn7  1  0.97153121  0.36779760  0.91681672  1
  P  P8  1  0.07165267  0.63118220  0.89476513  1
  P  P9  1  0.15940612  0.35817500  0.39775282  1
  P  P10  1  0.20615402  0.81925311  0.07781048  1
  P  P11  1  0.29384598  0.18074689  0.57781048  1
  P  P12  1  0.34059388  0.64182500  0.89775282  1
  P  P13  1  0.42834733  0.36881780  0.39476513  1
  P  P14  1  0.57165267  0.86881780  0.10523487  1
  P  P15  1  0.65940612  0.14182500  0.60224718  1
  P  P16  1  0.70615402  0.68074689  0.92218952  1
  P  P17  1  0.79384598  0.31925311  0.42218952  1
  P  P18  1  0.84059388  0.85817500  0.10224718  1
  P  P19  1  0.92834733  0.13118220  0.60523487  1
  O  O20  1  0.00793497  0.05979303  0.45515655  1
  O  O21  1  0.03003068  0.65948924  0.64718583  1
  O  O22  1  0.06515726  0.43057165  0.49926237  1
  O  O23  1  0.08996136  0.73911634  0.04970165  1
  O  O24  1  0.13795305  0.30529724  0.16022224  1
  O  O25  1  0.21888728  0.88664517  0.85765979  1
  O  O26  1  0.19404691  0.87244408  0.31580257  1
  O  O27  1  0.18325473  0.26512751  0.59512428  1
  O  O28  1  0.20867128  0.58206317  0.89670127  1
  O  O29  1  0.29132872  0.41793683  0.39670127  1
  O  O30  1  0.31674527  0.73487249  0.09512428  1
  O  O31  1  0.30595309  0.12755592  0.81580257  1
  O  O32  1  0.28111272  0.11335483  0.35765979  1
  O  O33  1  0.36204695  0.69470276  0.66022224  1
  O  O34  1  0.41003864  0.26088366  0.54970165  1
  O  O35  1  0.43484274  0.56942835  0.99926337  1
  O  O36  1  0.46996932  0.34051076  0.14718583  1
  O  O37  1  0.49206503  0.94020697  0.95515655  1
  O  O38  1  0.50793497  0.44020697  0.54484345  1
  O  O39  1  0.53003068  0.84051076  0.35281417  1
  O  O40  1  0.56515726  0.06942835  0.50073663  1
  O  O41  1  0.58996136  0.76088366  0.95029835  1
  O  O42  1  0.63795305  0.19470276  0.83977776  1
  O  O43  1  0.71888728  0.61335483  0.14234021  1
  O  O44  1  0.69404691  0.62755592  0.68419743  1
  O  O45  1  0.68325473  0.23487249  0.40487572  1
  O  O46  1  0.70867128  0.91793683  0.10329873  1
  O  O47  1  0.79132872  0.08206317  0.60329873  1
  O  O48  1  0.81674527  0.76512751  0.90487572  1
  O  O49  1  0.80595309  0.37244408  0.18419743  1
  O  O50  1  0.78111272  0.38664517  0.64234021  1
  O  O51  1  0.86204695  0.80529724  0.33977776  1
  O  O52  1  0.91003864  0.23911634  0.45029835  1
  O  O53  1  0.93484274  0.93057165  0.00073663  1
  O  O54  1  0.96996932  0.15948924  0.85281417  1
  O  O55  1  0.99206503  0.55979303  0.04484345  1
