# generated using pymatgen
data_Li3Sb3(PO4)4
_symmetry_space_group_name_H-M   'P 1'
_cell_length_a   13.37540637
_cell_length_b   9.10816293
_cell_length_c   8.97708606
_cell_angle_alpha   91.37783857
_cell_angle_beta   90.29600094
_cell_angle_gamma   89.14518071
_symmetry_Int_Tables_number   1
_chemical_formula_structural   Li3Sb3(PO4)4
_chemical_formula_sum   'Li9 Sb9 P12 O48'
_cell_volume   1093.18639549
_cell_formula_units_Z   3
loop_
 _symmetry_equiv_pos_site_id
 _symmetry_equiv_pos_as_xyz
  1  'x, y, z'
loop_
 _atom_site_type_symbol
 _atom_site_label
 _atom_site_symmetry_multiplicity
 _atom_site_fract_x
 _atom_site_fract_y
 _atom_site_fract_z
 _atom_site_occupancy
  Li  Li0  1  0.16438961  0.46859217  0.35211748  1
  Li  Li1  1  0.50699350  0.53017995  0.98679596  1
  Li  Li2  1  0.17350289  0.16033274  0.43987999  1
  Li  Li3  1  0.82538585  0.66942151  0.06144292  1
  Li  Li4  1  0.16528588  0.00290681  0.81465881  1
  Li  Li5  1  0.50351480  0.99304937  0.52576859  1
  Li  Li6  1  0.83396267  0.96798982  0.15778290  1
  Li  Li7  1  0.49322750  0.82932311  0.89442621  1
  Li  Li8  1  0.83109828  0.50595068  0.69459644  1
  Sb  Sb9  1  0.13503647  0.84314553  0.20988549  1
  Sb  Sb10  1  0.52978531  0.14594405  0.12756107  1
  Sb  Sb11  1  0.13736153  0.66036873  0.70090028  1
  Sb  Sb12  1  0.47180759  0.66987815  0.36535246  1
  Sb  Sb13  1  0.19890281  0.33610564  0.95916686  1
  Sb  Sb14  1  0.52590359  0.34180040  0.62836849  1
  Sb  Sb15  1  0.86424196  0.35297843  0.28374109  1
  Sb  Sb16  1  0.79782438  0.82940814  0.53688416  1
  Sb  Sb17  1  0.86734500  0.16151108  0.79710146  1
  P  P18  1  0.05696739  0.20245710  0.14687716  1
  P  P19  1  0.28092312  0.72330948  0.00577356  1
  P  P20  1  0.05990863  0.29485390  0.64694164  1
  P  P21  1  0.38401923  0.27623554  0.32188959  1
  P  P22  1  0.27792123  0.80384101  0.51010555  1
  P  P23  1  0.61526919  0.79845507  0.18179276  1
  P  P24  1  0.38975543  0.19559523  0.82206581  1
  P  P25  1  0.72308789  0.21350612  0.49110096  1
  P  P26  1  0.60528794  0.70198744  0.68372911  1
  P  P27  1  0.94840625  0.69489587  0.34801465  1
  P  P28  1  0.71937679  0.30316195  0.98571603  1
  P  P29  1  0.93638716  0.79433357  0.84998126  1
  O  O30  1  0.23972606  0.88276557  0.99947431  1
  O  O31  1  0.08931871  0.36487273  0.16647207  1
  O  O32  1  0.09785381  0.09981392  0.26535915  1
  O  O33  1  0.06407349  0.67420447  0.35817159  1
  O  O34  1  0.24151452  0.66878907  0.16129071  1
  O  O35  1  0.08989054  0.36874273  0.50495205  1
  O  O36  1  0.42222496  0.33099680  0.16770781  1
  O  O37  1  0.27314310  0.29371439  0.34738769  1
  O  O38  1  0.22316486  0.90079753  0.38955104  1
  O  O39  1  0.60702508  0.33732510  0.98226845  1
  O  O40  1  0.56053445  0.90191992  0.07155899  1
  O  O41  1  0.26145604  0.63810028  0.49140311  1
  O  O42  1  0.09112671  0.13441344  0.65346379  1
  O  O43  1  0.57528574  0.63758833  0.16746893  1
  O  O44  1  0.42651833  0.11514930  0.32438059  1
  O  O45  1  0.11019285  0.38874214  0.78424536  1
  O  O46  1  0.05274426  0.81575795  0.82395679  1
  O  O47  1  0.44235052  0.37704341  0.44355254  1
  O  O48  1  0.39027574  0.84136652  0.50797449  1
  O  O49  1  0.77009605  0.40058934  0.11381092  1
  O  O50  1  0.22728899  0.84827979  0.66387028  1
  O  O51  1  0.72799881  0.80720656  0.17375397  1
  O  O52  1  0.57140567  0.84374534  0.34429023  1
  O  O53  1  0.90697954  0.87091227  0.99498288  1
  O  O54  1  0.10185562  0.15638979  0.98882993  1
  O  O55  1  0.43799430  0.14934891  0.66799021  1
  O  O56  1  0.27614604  0.16283628  0.82609207  1
  O  O57  1  0.76520996  0.16262053  0.33611472  1
  O  O58  1  0.22296488  0.62035045  0.88494436  1
  O  O59  1  0.60974777  0.17453887  0.50201333  1
  O  O60  1  0.55537762  0.60922248  0.54570613  1
  O  O61  1  0.93947874  0.19598749  0.13889549  1
  O  O62  1  0.90426508  0.59250834  0.22461251  1
  O  O63  1  0.57746946  0.86349391  0.67649714  1
  O  O64  1  0.40690563  0.36195016  0.83715304  1
  O  O65  1  0.92002638  0.85822205  0.32985997  1
  O  O66  1  0.73974635  0.37767771  0.51455994  1
  O  O67  1  0.44270737  0.09932693  0.94327787  1
  O  O68  1  0.39198442  0.70052824  0.98579866  1
  O  O69  1  0.77867838  0.11771989  0.61347699  1
  O  O70  1  0.72216206  0.67601124  0.66232798  1
  O  O71  1  0.57189431  0.62961865  0.82459337  1
  O  O72  1  0.89749464  0.65170688  0.50119213  1
  O  O73  1  0.77364755  0.34870582  0.83740233  1
  O  O74  1  0.94337966  0.31869444  0.67205652  1
  O  O75  1  0.88506359  0.88573501  0.71575319  1
  O  O76  1  0.90673076  0.63426331  0.84097782  1
  O  O77  1  0.74399871  0.13818814  0.99810982  1
