# generated using pymatgen
data_Li2CuSiO4
_symmetry_space_group_name_H-M   'P 1'
_cell_length_a   6.16605715
_cell_length_b   10.87600590
_cell_length_c   5.13526614
_cell_angle_alpha   90.00000000
_cell_angle_beta   92.31134155
_cell_angle_gamma   90.00000000
_symmetry_Int_Tables_number   1
_chemical_formula_structural   Li2CuSiO4
_chemical_formula_sum   'Li8 Cu4 Si4 O16'
_cell_volume   344.10141949
_cell_formula_units_Z   4
loop_
 _symmetry_equiv_pos_site_id
 _symmetry_equiv_pos_as_xyz
  1  'x, y, z'
loop_
 _atom_site_type_symbol
 _atom_site_label
 _atom_site_symmetry_multiplicity
 _atom_site_fract_x
 _atom_site_fract_y
 _atom_site_fract_z
 _atom_site_occupancy
  Li  Li0  1  0.00763817  0.83700963  0.68801613  1
  Li  Li1  1  0.24415897  0.07271876  0.70678772  1
  Li  Li2  1  0.25584103  0.57271876  0.79321228  1
  Li  Li3  1  0.49236183  0.33700963  0.81198387  1
  Li  Li4  1  0.50763817  0.66299037  0.18801613  1
  Li  Li5  1  0.74415897  0.42728124  0.20678772  1
  Li  Li6  1  0.75584103  0.92728124  0.29321228  1
  Li  Li7  1  0.99236183  0.16299037  0.31198387  1
  Cu  Cu8  1  0.01084374  0.66762644  0.18667316  1
  Cu  Cu9  1  0.48915626  0.16762644  0.31332684  1
  Cu  Cu10  1  0.51084374  0.83237356  0.68667316  1
  Cu  Cu11  1  0.98915626  0.33237356  0.81332684  1
  Si  Si12  1  0.24473826  0.40959892  0.30930818  1
  Si  Si13  1  0.25526174  0.90959892  0.19069182  1
  Si  Si14  1  0.74473826  0.09040108  0.80930818  1
  Si  Si15  1  0.75526174  0.59040108  0.69069182  1
  O  O16  1  0.02357649  0.33496148  0.20178618  1
  O  O17  1  0.03391545  0.84078221  0.29159311  1
  O  O18  1  0.24963303  0.05034597  0.30947808  1
  O  O19  1  0.24121929  0.41054517  0.62897934  1
  O  O20  1  0.25878071  0.91054517  0.87102066  1
  O  O21  1  0.25036697  0.55034597  0.19052192  1
  O  O22  1  0.46608455  0.34078221  0.20840689  1
  O  O23  1  0.47642351  0.83496148  0.29821382  1
  O  O24  1  0.52357649  0.16503852  0.70178618  1
  O  O25  1  0.53391545  0.65921779  0.79159311  1
  O  O26  1  0.74963303  0.44965403  0.80947808  1
  O  O27  1  0.74121929  0.08945483  0.12897934  1
  O  O28  1  0.75878071  0.58945483  0.37102066  1
  O  O29  1  0.75036697  0.94965403  0.69052192  1
  O  O30  1  0.96608455  0.15921779  0.70840689  1
  O  O31  1  0.97642351  0.66503852  0.79821382  1
