# generated using pymatgen
data_LiAg2F6
_symmetry_space_group_name_H-M   'P 1'
_cell_length_a   5.60953328
_cell_length_b   5.48718029
_cell_length_c   16.08450181
_cell_angle_alpha   90.00000000
_cell_angle_beta   86.18731730
_cell_angle_gamma   90.00000000
_symmetry_Int_Tables_number   1
_chemical_formula_structural   LiAg2F6
_chemical_formula_sum   'Li4 Ag8 F24'
_cell_volume   493.99359266
_cell_formula_units_Z   4
loop_
 _symmetry_equiv_pos_site_id
 _symmetry_equiv_pos_as_xyz
  1  'x, y, z'
loop_
 _atom_site_type_symbol
 _atom_site_label
 _atom_site_symmetry_multiplicity
 _atom_site_fract_x
 _atom_site_fract_y
 _atom_site_fract_z
 _atom_site_occupancy
  Li  Li0  1  0.15676257  0.46219987  0.06741082  1
  Li  Li1  1  0.15676257  0.03780013  0.56741082  1
  Li  Li2  1  0.84323743  0.96219987  0.43258918  1
  Li  Li3  1  0.84323743  0.53780013  0.93258918  1
  Ag  Ag4  1  0.24184378  0.98581205  0.24505568  1
  Ag  Ag5  1  0.29910988  0.52824606  0.42308515  1
  Ag  Ag6  1  0.24184378  0.51418795  0.74505568  1
  Ag  Ag7  1  0.29910988  0.97175394  0.92308515  1
  Ag  Ag8  1  0.70089012  0.02824606  0.07691485  1
  Ag  Ag9  1  0.75815622  0.48581205  0.25494432  1
  Ag  Ag10  1  0.70089012  0.47175394  0.57691485  1
  Ag  Ag11  1  0.75815622  0.01418795  0.75494432  1
  F  F12  1  0.00920748  0.14651503  0.17324367  1
  F  F13  1  0.00920748  0.35348497  0.67324367  1
  F  F14  1  0.07564710  0.14342282  0.34489883  1
  F  F15  1  0.07953335  0.76318947  0.49393402  1
  F  F16  1  0.07564710  0.35657718  0.84489883  1
  F  F17  1  0.07953335  0.73681053  0.99393402  1
  F  F18  1  0.39354255  0.23944936  0.02157726  1
  F  F19  1  0.42448605  0.82880984  0.14694789  1
  F  F20  1  0.39354255  0.26055064  0.52157726  1
  F  F21  1  0.46932938  0.82512798  0.31688513  1
  F  F22  1  0.42448605  0.67119016  0.64694789  1
  F  F23  1  0.53067062  0.32512798  0.18311487  1
  F  F24  1  0.46932938  0.67487202  0.81688513  1
  F  F25  1  0.57551395  0.32880984  0.35305211  1
  F  F26  1  0.53067062  0.17487202  0.68311487  1
  F  F27  1  0.60645745  0.73944936  0.47842274  1
  F  F28  1  0.57551395  0.17119016  0.85305211  1
  F  F29  1  0.60645745  0.76055064  0.97842274  1
  F  F30  1  0.92046665  0.26318947  0.00606598  1
  F  F31  1  0.92435290  0.64342282  0.15510117  1
  F  F32  1  0.92046665  0.23681053  0.50606598  1
  F  F33  1  0.92435290  0.85657718  0.65510117  1
  F  F34  1  0.99079252  0.64651503  0.32675633  1
  F  F35  1  0.99079252  0.85348497  0.82675633  1
