# generated using pymatgen
data_Li2CuF5
_symmetry_space_group_name_H-M   'P 1'
_cell_length_a   7.88421697
_cell_length_b   7.34605311
_cell_length_c   6.25108108
_cell_angle_alpha   90.00000000
_cell_angle_beta   87.82845211
_cell_angle_gamma   90.00000000
_symmetry_Int_Tables_number   1
_chemical_formula_structural   Li2CuF5
_chemical_formula_sum   'Li8 Cu4 F20'
_cell_volume   361.78933932
_cell_formula_units_Z   4
loop_
 _symmetry_equiv_pos_site_id
 _symmetry_equiv_pos_as_xyz
  1  'x, y, z'
loop_
 _atom_site_type_symbol
 _atom_site_label
 _atom_site_symmetry_multiplicity
 _atom_site_fract_x
 _atom_site_fract_y
 _atom_site_fract_z
 _atom_site_occupancy
  Li  Li0  1  0.17211123  0.35302282  0.05886216  1
  Li  Li1  1  0.17211123  0.14697718  0.55886216  1
  Li  Li2  1  0.49364955  0.12848768  0.32094492  1
  Li  Li3  1  0.50635045  0.62848768  0.17905508  1
  Li  Li4  1  0.49364955  0.37151232  0.82094492  1
  Li  Li5  1  0.50635045  0.87151232  0.67905508  1
  Li  Li6  1  0.82788877  0.85302282  0.44113784  1
  Li  Li7  1  0.82788877  0.64697718  0.94113784  1
  Cu  Cu8  1  0.15928226  0.89218263  0.11314010  1
  Cu  Cu9  1  0.15928226  0.60781737  0.61314010  1
  Cu  Cu10  1  0.84071774  0.39218263  0.38685990  1
  Cu  Cu11  1  0.84071774  0.10781737  0.88685990  1
  F  F12  1  0.06454378  0.43661431  0.32547702  1
  F  F13  1  0.06454378  0.06338569  0.82547702  1
  F  F14  1  0.09770222  0.81582124  0.48548094  1
  F  F15  1  0.09770222  0.68417876  0.98548094  1
  F  F16  1  0.22483869  0.10381392  0.23239059  1
  F  F17  1  0.22483869  0.39618608  0.73239059  1
  F  F18  1  0.37549738  0.84044645  0.04075805  1
  F  F19  1  0.39528233  0.39952862  0.12270744  1
  F  F20  1  0.37549738  0.65955355  0.54075805  1
  F  F21  1  0.39528233  0.10047138  0.62270744  1
  F  F22  1  0.60471767  0.89952862  0.37729256  1
  F  F23  1  0.62450262  0.34044645  0.45924195  1
  F  F24  1  0.60471767  0.60047138  0.87729256  1
  F  F25  1  0.62450262  0.15955355  0.95924195  1
  F  F26  1  0.77516131  0.60381392  0.26760941  1
  F  F27  1  0.77516131  0.89618608  0.76760941  1
  F  F28  1  0.90229778  0.31582124  0.01451906  1
  F  F29  1  0.90229778  0.18417876  0.51451906  1
  F  F30  1  0.93545622  0.93661431  0.17452298  1
  F  F31  1  0.93545622  0.56338569  0.67452298  1
