# generated using pymatgen
data_Li2VCo3O8
_symmetry_space_group_name_H-M   'P 1'
_cell_length_a   5.70609325
_cell_length_b   5.70620743
_cell_length_c   9.13963061
_cell_angle_alpha   90.00052776
_cell_angle_beta   89.99980789
_cell_angle_gamma   120.00063092
_symmetry_Int_Tables_number   1
_chemical_formula_structural   Li2VCo3O8
_chemical_formula_sum   'Li4 V2 Co6 O16'
_cell_volume   257.71692096
_cell_formula_units_Z   2
loop_
 _symmetry_equiv_pos_site_id
 _symmetry_equiv_pos_as_xyz
  1  'x, y, z'
loop_
 _atom_site_type_symbol
 _atom_site_label
 _atom_site_symmetry_multiplicity
 _atom_site_fract_x
 _atom_site_fract_y
 _atom_site_fract_z
 _atom_site_occupancy
  Li  Li0  1  0.33334274  0.66667859  0.89417201  1
  Li  Li1  1  0.99998635  0.00001158  0.99839309  1
  Li  Li2  1  0.00001473  0.00002622  0.49838330  1
  Li  Li3  1  0.66665698  0.33333568  0.39417096  1
  V  V4  1  0.33333154  0.66667392  0.49801766  1
  V  V5  1  0.66666781  0.33334166  0.99801766  1
  Co  Co6  1  0.17142915  0.82857899  0.21518950  1
  Co  Co7  1  0.17143030  0.34286962  0.21519031  1
  Co  Co8  1  0.65714597  0.82858174  0.21518825  1
  Co  Co9  1  0.34285462  0.17143582  0.71518825  1
  Co  Co10  1  0.82857054  0.65714883  0.71518976  1
  Co  Co11  1  0.82856923  0.17143966  0.71519035  1
  O  O12  1  0.17139368  0.82862032  0.59520813  1
  O  O13  1  0.04357223  0.52179898  0.33850806  1
  O  O14  1  0.33333017  0.66667187  0.10888186  1
  O  O15  1  0.00000531  0.00001453  0.30773372  1
  O  O16  1  0.99999482  0.00000916  0.80773412  1
  O  O17  1  0.17139213  0.34279509  0.59520529  1
  O  O18  1  0.47821971  0.95643534  0.33850855  1
  O  O19  1  0.47822171  0.52180818  0.33850925  1
  O  O20  1  0.34276730  0.17139607  0.09521668  1
  O  O21  1  0.65722002  0.82862178  0.59521357  1
  O  O22  1  0.52178032  0.47821641  0.83850776  1
  O  O23  1  0.52177786  0.04358525  0.83850841  1
  O  O24  1  0.66666881  0.33334122  0.60888264  1
  O  O25  1  0.82861286  0.65724049  0.09521109  1
  O  O26  1  0.95642870  0.47822682  0.83850761  1
  O  O27  1  0.82861441  0.17139618  0.09520817  1
