# generated using pymatgen
data_Li2Co(NiO3)2
_symmetry_space_group_name_H-M   'P 1'
_cell_length_a   4.84962332
_cell_length_b   4.96017970
_cell_length_c   9.87211731
_cell_angle_alpha   89.78799228
_cell_angle_beta   89.89035333
_cell_angle_gamma   59.25294788
_symmetry_Int_Tables_number   1
_chemical_formula_structural   Li2Co(NiO3)2
_chemical_formula_sum   'Li4 Co2 Ni4 O12'
_cell_volume   204.09136661
_cell_formula_units_Z   2
loop_
 _symmetry_equiv_pos_site_id
 _symmetry_equiv_pos_as_xyz
  1  'x, y, z'
loop_
 _atom_site_type_symbol
 _atom_site_label
 _atom_site_symmetry_multiplicity
 _atom_site_fract_x
 _atom_site_fract_y
 _atom_site_fract_z
 _atom_site_occupancy
  Li  Li0  1  0.49556993  0.14629718  0.74990500  1
  Li  Li1  1  0.50679030  0.35241348  0.24774295  1
  Li  Li2  1  0.50227266  0.64365387  0.74783089  1
  Li  Li3  1  0.48799828  0.86223279  0.24943851  1
  Co  Co4  1  0.00252425  0.99721609  0.99925692  1
  Co  Co5  1  0.00306899  0.49839549  0.49885166  1
  Ni  Ni6  1  0.32624440  0.33556489  0.99939068  1
  Ni  Ni7  1  0.32686894  0.83633030  0.49896041  1
  Ni  Ni8  1  0.66895032  0.16538725  0.49905158  1
  Ni  Ni9  1  0.66858582  0.66419179  0.99946848  1
  O  O10  1  0.99763488  0.17040136  0.59598614  1
  O  O11  1  0.99728791  0.32864323  0.09654125  1
  O  O12  1  0.99692895  0.67082647  0.90227143  1
  O  O13  1  0.34291681  0.97085539  0.89208798  1
  O  O14  1  0.99722438  0.83213883  0.40180505  1
  O  O15  1  0.34330627  0.18582547  0.39167874  1
  O  O16  1  0.34319254  0.47102380  0.60631407  1
  O  O17  1  0.34265361  0.68328745  0.10679236  1
  O  O18  1  0.66150025  0.99699181  0.09952352  1
  O  O19  1  0.66168712  0.33862103  0.89902795  1
  O  O20  1  0.66234658  0.49933026  0.39869583  1
  O  O21  1  0.66235378  0.83797775  0.59937361  1
