# generated using pymatgen
data_Na11Ti8(PO4)12
_symmetry_space_group_name_H-M   'P 1'
_cell_length_a   12.59910258
_cell_length_b   8.88197611
_cell_length_c   9.08770430
_cell_angle_alpha   90.25334512
_cell_angle_beta   89.82029114
_cell_angle_gamma   90.12154088
_symmetry_Int_Tables_number   1
_chemical_formula_structural   Na11Ti8(PO4)12
_chemical_formula_sum   'Na11 Ti8 P12 O48'
_cell_volume   1016.94169490
_cell_formula_units_Z   1
loop_
 _symmetry_equiv_pos_site_id
 _symmetry_equiv_pos_as_xyz
  1  'x, y, z'
loop_
 _atom_site_type_symbol
 _atom_site_label
 _atom_site_symmetry_multiplicity
 _atom_site_fract_x
 _atom_site_fract_y
 _atom_site_fract_z
 _atom_site_occupancy
  Na  Na0  1  0.17019101  0.28565390  0.20422997  1
  Na  Na1  1  0.17291724  0.72489233  0.71262351  1
  Na  Na2  1  0.30879635  0.43474550  0.53107534  1
  Na  Na3  1  0.31449940  0.16744131  0.72396595  1
  Na  Na4  1  0.32522129  0.78621753  0.21359839  1
  Na  Na5  1  0.67033957  0.22645146  0.78878482  1
  Na  Na6  1  0.67550651  0.82900828  0.28316800  1
  Na  Na7  1  0.69129673  0.56362047  0.46414709  1
  Na  Na8  1  0.80876426  0.93821303  0.96652880  1
  Na  Na9  1  0.82916117  0.27586448  0.28379709  1
  Na  Na10  1  0.82675948  0.67243583  0.78483148  1
  Ti  Ti11  1  0.10333899  0.24054313  0.53466296  1
  Ti  Ti12  1  0.10654015  0.75060419  0.03873003  1
  Ti  Ti13  1  0.39512726  0.75967240  0.54146682  1
  Ti  Ti14  1  0.39258591  0.25602553  0.03563858  1
  Ti  Ti15  1  0.60423395  0.23971624  0.46012262  1
  Ti  Ti16  1  0.60064264  0.73999137  0.96452427  1
  Ti  Ti17  1  0.89917429  0.26130676  0.95848329  1
  Ti  Ti18  1  0.89858013  0.75905985  0.46305683  1
  P  P19  1  0.00033202  0.03031568  0.24584082  1
  P  P20  1  0.00086116  0.96823705  0.75003870  1
  P  P21  1  0.14596967  0.61020641  0.38983541  1
  P  P22  1  0.15076702  0.39399132  0.88587548  1
  P  P23  1  0.35143223  0.11028448  0.38958288  1
  P  P24  1  0.35254894  0.88738433  0.89711433  1
  P  P25  1  0.49907998  0.46616629  0.74860285  1
  P  P26  1  0.49833562  0.53140076  0.25060148  1
  P  P27  1  0.64414358  0.11581606  0.10396319  1
  P  P28  1  0.65061619  0.88894260  0.61399321  1
  P  P29  1  0.85487468  0.38675519  0.60439081  1
  P  P30  1  0.85136733  0.61292341  0.11393690  1
  O  O31  1  0.04183382  0.68006813  0.44740979  1
  O  O32  1  0.04338934  0.32782932  0.94262247  1
  O  O33  1  0.06405444  0.86562588  0.85393769  1
  O  O34  1  0.06649322  0.13631484  0.34594610  1
  O  O35  1  0.08030900  0.05883918  0.65543503  1
  O  O36  1  0.07867403  0.93125462  0.15827110  1
  O  O37  1  0.14408846  0.43613589  0.40767199  1
  O  O38  1  0.14583121  0.56659198  0.90478407  1
  O  O39  1  0.16969682  0.35317469  0.72027686  1
  O  O40  1  0.16592804  0.64797958  0.22566593  1
  O  O41  1  0.23877222  0.32367244  0.98149143  1
  O  O42  1  0.23803508  0.67164307  0.48864086  1
  O  O43  1  0.26040177  0.81687720  0.98560851  1
  O  O44  1  0.26404906  0.18573449  0.48710925  1
  O  O45  1  0.33514416  0.86483670  0.72789557  1
  O  O46  1  0.33428026  0.15194938  0.22664766  1
  O  O47  1  0.35810920  0.05874262  0.92871273  1
  O  O48  1  0.35054370  0.93806819  0.41032866  1
  O  O49  1  0.42375449  0.57074267  0.66351100  1
  O  O50  1  0.42119741  0.43990247  0.15239405  1
  O  O51  1  0.43039236  0.62953530  0.35667130  1
  O  O52  1  0.43057887  0.35394852  0.83824289  1
  O  O53  1  0.45833256  0.17464205  0.44917454  1
  O  O54  1  0.45640054  0.81322250  0.94785282  1
  O  O55  1  0.54215145  0.18989391  0.05058366  1
  O  O56  1  0.54359013  0.82325622  0.55741743  1
  O  O57  1  0.56866301  0.37219661  0.64087553  1
  O  O58  1  0.56910918  0.64144184  0.16019362  1
  O  O59  1  0.57369866  0.42825245  0.33793595  1
  O  O60  1  0.57807068  0.55707957  0.84659024  1
  O  O61  1  0.65093794  0.06174607  0.59445195  1
  O  O62  1  0.64083888  0.94245185  0.07647525  1
  O  O63  1  0.66458072  0.14028336  0.27158635  1
  O  O64  1  0.67129718  0.84764735  0.77755164  1
  O  O65  1  0.73950785  0.17732954  0.01150251  1
  O  O66  1  0.73665611  0.81309456  0.51449790  1
  O  O67  1  0.76175855  0.32297324  0.50933050  1
  O  O68  1  0.76509508  0.68905644  0.01618802  1
  O  O69  1  0.83479289  0.36130359  0.77136478  1
  O  O70  1  0.82836678  0.65082109  0.27845554  1
  O  O71  1  0.85148331  0.43975227  0.09257478  1
  O  O72  1  0.85711541  0.55883337  0.57676895  1
  O  O73  1  0.92427185  0.07274060  0.83650300  1
  O  O74  1  0.92054611  0.93641987  0.33818448  1
  O  O75  1  0.93380770  0.12993763  0.14150252  1
  O  O76  1  0.92971400  0.86104170  0.65566189  1
  O  O77  1  0.95863622  0.31423071  0.55139394  1
  O  O78  1  0.95861050  0.67849827  0.06039035  1
