# generated using pymatgen
data_Li2Cr3CoO8
_symmetry_space_group_name_H-M   'P 1'
_cell_length_a   5.90942819
_cell_length_b   5.90942867
_cell_length_c   5.90942844
_cell_angle_alpha   59.69062197
_cell_angle_beta   59.69062261
_cell_angle_gamma   59.69062104
_symmetry_Int_Tables_number   1
_chemical_formula_structural   Li2Cr3CoO8
_chemical_formula_sum   'Li2 Cr3 Co1 O8'
_cell_volume   144.89669581
_cell_formula_units_Z   1
loop_
 _symmetry_equiv_pos_site_id
 _symmetry_equiv_pos_as_xyz
  1  'x, y, z'
loop_
 _atom_site_type_symbol
 _atom_site_label
 _atom_site_symmetry_multiplicity
 _atom_site_fract_x
 _atom_site_fract_y
 _atom_site_fract_z
 _atom_site_occupancy
  Li  Li0  1  0.12332461  0.12332461  0.12332461  1
  Li  Li1  1  0.50050639  0.50050639  0.50050639  1
  Cr  Cr2  1  0.00617360  0.49840941  0.49840941  1
  Cr  Cr3  1  0.49840941  0.49840941  0.00617360  1
  Cr  Cr4  1  0.49840941  0.00617360  0.49840941  1
  Co  Co5  1  0.87926919  0.87926919  0.87926919  1
  O  O6  1  0.25977667  0.25977667  0.25977667  1
  O  O7  1  0.24924355  0.70889511  0.24924355  1
  O  O8  1  0.24924355  0.24924355  0.70889511  1
  O  O9  1  0.70889511  0.24924355  0.24924355  1
  O  O10  1  0.28868571  0.74797339  0.74797339  1
  O  O11  1  0.74797339  0.74797339  0.28868571  1
  O  O12  1  0.74797339  0.28868571  0.74797339  1
  O  O13  1  0.74211602  0.74211602  0.74211602  1
