# generated using pymatgen
data_NaSbO3
_symmetry_space_group_name_H-M   'P 1'
_cell_length_a   8.16446324
_cell_length_b   8.10530618
_cell_length_c   8.24757807
_cell_angle_alpha   109.31935748
_cell_angle_beta   109.39925358
_cell_angle_gamma   108.45155717
_symmetry_Int_Tables_number   1
_chemical_formula_structural   NaSbO3
_chemical_formula_sum   'Na6 Sb6 O18'
_cell_volume   426.44620628
_cell_formula_units_Z   6
loop_
 _symmetry_equiv_pos_site_id
 _symmetry_equiv_pos_as_xyz
  1  'x, y, z'
loop_
 _atom_site_type_symbol
 _atom_site_label
 _atom_site_symmetry_multiplicity
 _atom_site_fract_x
 _atom_site_fract_y
 _atom_site_fract_z
 _atom_site_occupancy
  Na  Na0  1  0.01748315  0.98591274  0.67791754  1
  Na  Na1  1  0.00000000  0.50000000  0.00000000  1
  Na  Na2  1  0.34804887  0.32936030  0.29820110  1
  Na  Na3  1  0.65195113  0.67063970  0.70179890  1
  Na  Na4  1  0.50000000  0.00000000  0.00000000  1
  Na  Na5  1  0.98251685  0.01408726  0.32208246  1
  Sb  Sb6  1  0.15978431  0.50130052  0.66283153  1
  Sb  Sb7  1  0.33671076  0.84071157  0.49886945  1
  Sb  Sb8  1  0.50328443  0.34019346  0.84047605  1
  Sb  Sb9  1  0.49671557  0.65980654  0.15952395  1
  Sb  Sb10  1  0.66328924  0.15928843  0.50113055  1
  Sb  Sb11  1  0.84021569  0.49869948  0.33716847  1
  O  O12  1  0.04362559  0.72560530  0.33908443  1
  O  O13  1  0.28023198  0.66453462  0.95387183  1
  O  O14  1  0.00858808  0.36181006  0.36451271  1
  O  O15  1  0.37796524  0.71738699  0.67159428  1
  O  O16  1  0.29483451  0.33683398  0.61874401  1
  O  O17  1  0.32720845  0.61618627  0.28591715  1
  O  O18  1  0.33469227  0.04788349  0.71784880  1
  O  O19  1  0.63703276  0.98985234  0.63355267  1
  O  O20  1  0.63688756  0.64128539  0.99655468  1
  O  O21  1  0.36311244  0.35871461  0.00344532  1
  O  O22  1  0.36296724  0.01014766  0.36644733  1
  O  O23  1  0.66530773  0.95211651  0.28215120  1
  O  O24  1  0.67279155  0.38381373  0.71408285  1
  O  O25  1  0.70516549  0.66316602  0.38125599  1
  O  O26  1  0.62203476  0.28261301  0.32840572  1
  O  O27  1  0.99141192  0.63818994  0.63548729  1
  O  O28  1  0.71976802  0.33546538  0.04612817  1
  O  O29  1  0.95637541  0.27439470  0.66091557  1
