# generated using pymatgen
data_Li5CuP3O11
_symmetry_space_group_name_H-M   'P 1'
_cell_length_a   5.39043672
_cell_length_b   8.26558547
_cell_length_c   9.59864681
_cell_angle_alpha   96.24415560
_cell_angle_beta   90.69792001
_cell_angle_gamma   95.07948514
_symmetry_Int_Tables_number   1
_chemical_formula_structural   Li5CuP3O11
_chemical_formula_sum   'Li10 Cu2 P6 O22'
_cell_volume   423.35933654
_cell_formula_units_Z   2
loop_
 _symmetry_equiv_pos_site_id
 _symmetry_equiv_pos_as_xyz
  1  'x, y, z'
loop_
 _atom_site_type_symbol
 _atom_site_label
 _atom_site_symmetry_multiplicity
 _atom_site_fract_x
 _atom_site_fract_y
 _atom_site_fract_z
 _atom_site_occupancy
  Li  Li0  1  0.23614517  0.66900996  0.33646507  1
  Li  Li1  1  0.26263163  0.35088633  0.82373470  1
  Li  Li2  1  0.30504385  0.61827133  0.68836318  1
  Li  Li3  1  0.18948814  0.37319435  0.14972504  1
  Li  Li4  1  0.49975141  0.00495894  0.84866201  1
  Li  Li5  1  0.50024859  0.99504106  0.15133799  1
  Li  Li6  1  0.81051186  0.62680565  0.85027496  1
  Li  Li7  1  0.69495615  0.38172867  0.31163682  1
  Li  Li8  1  0.73736837  0.64911367  0.17626530  1
  Li  Li9  1  0.76385483  0.33099004  0.66353493  1
  Cu  Cu10  1  0.00000000  0.00000000  0.00000000  1
  Cu  Cu11  1  0.50000000  0.00000000  0.50000000  1
  P  P12  1  0.03452240  0.03409722  0.30464062  1
  P  P13  1  0.24810261  0.69677431  0.01272478  1
  P  P14  1  0.26522522  0.32276976  0.47514032  1
  P  P15  1  0.73477478  0.67723024  0.52485968  1
  P  P16  1  0.75189739  0.30322569  0.98727522  1
  P  P17  1  0.96547760  0.96590278  0.69535938  1
  O  O18  1  0.00091044  0.77247188  0.06661351  1
  O  O19  1  0.03658931  0.18452715  0.42881848  1
  O  O20  1  0.11672708  0.12015210  0.17468918  1
  O  O21  1  0.17806991  0.58181661  0.87615691  1
  O  O22  1  0.18004880  0.39944828  0.61548876  1
  O  O23  1  0.23105172  0.04284846  0.70535736  1
  O  O24  1  0.24273587  0.92814120  0.34185284  1
  O  O25  1  0.29695963  0.43295853  0.35731949  1
  O  O26  1  0.35327518  0.60617563  0.13075738  1
  O  O27  1  0.43613628  0.83824882  0.98012775  1
  O  O28  1  0.49072356  0.76423216  0.51821823  1
  O  O29  1  0.50927644  0.23576784  0.48178177  1
  O  O30  1  0.56386372  0.16175118  0.01987225  1
  O  O31  1  0.64672482  0.39382437  0.86924262  1
  O  O32  1  0.70304037  0.56704147  0.64268051  1
  O  O33  1  0.75726413  0.07185880  0.65814716  1
  O  O34  1  0.76894828  0.95715154  0.29464264  1
  O  O35  1  0.81995120  0.60055172  0.38451124  1
  O  O36  1  0.82193009  0.41818339  0.12384309  1
  O  O37  1  0.88327292  0.87984790  0.82531082  1
  O  O38  1  0.96341069  0.81547285  0.57118152  1
  O  O39  1  0.99908956  0.22752812  0.93338649  1
