# generated using pymatgen
data_Li2FeCO5
_symmetry_space_group_name_H-M   'P 1'
_cell_length_a   9.34087209
_cell_length_b   12.29231626
_cell_length_c   2.91453823
_cell_angle_alpha   89.99997494
_cell_angle_beta   90.00001066
_cell_angle_gamma   90.00346252
_symmetry_Int_Tables_number   1
_chemical_formula_structural   Li2FeCO5
_chemical_formula_sum   'Li8 Fe4 C4 O20'
_cell_volume   334.65005909
_cell_formula_units_Z   4
loop_
 _symmetry_equiv_pos_site_id
 _symmetry_equiv_pos_as_xyz
  1  'x, y, z'
loop_
 _atom_site_type_symbol
 _atom_site_label
 _atom_site_symmetry_multiplicity
 _atom_site_fract_x
 _atom_site_fract_y
 _atom_site_fract_z
 _atom_site_occupancy
  Li  Li0  1  0.00002185  0.00002609  0.49999964  1
  Li  Li1  1  0.00004901  0.50001353  0.99999951  1
  Li  Li2  1  0.00760465  0.27986056  0.49999983  1
  Li  Li3  1  0.49232070  0.77987230  0.50000007  1
  Li  Li4  1  0.49994082  0.49998203  0.49999973  1
  Li  Li5  1  0.49998367  0.00000256  0.99999961  1
  Li  Li6  1  0.50763768  0.22011735  0.49999972  1
  Li  Li7  1  0.99245240  0.72014080  0.49999976  1
  Fe  Fe8  1  0.24552131  0.11332673  0.00000009  1
  Fe  Fe9  1  0.25450575  0.61335074  0.99999661  1
  Fe  Fe10  1  0.74550290  0.38667624  -0.00000062  1
  Fe  Fe11  1  0.75449730  0.88664997  0.00001112  1
  C  C12  1  0.22902098  0.86123284  0.99999922  1
  C  C13  1  0.27095217  0.36100394  0.99999940  1
  C  C14  1  0.72906352  0.63889038  0.00000059  1
  C  C15  1  0.77094329  0.13886509  0.00000037  1
  O  O16  1  0.11992833  0.14221717  0.49999869  1
  O  O17  1  0.12582695  0.58045586  0.49999740  1
  O  O18  1  0.13441920  0.36099945  0.00000018  1
  O  O19  1  0.15576031  0.77030183  0.99999818  1
  O  O20  1  0.15507681  0.95180838  0.99999877  1
  O  O21  1  0.34509075  0.45154861  0.99999776  1
  O  O22  1  0.34402066  0.27004786  0.99999943  1
  O  O23  1  0.36554935  0.86105972  0.00000050  1
  O  O24  1  0.37418955  0.08041071  0.49999825  1
  O  O25  1  0.38011742  0.64218152  0.49999726  1
  O  O26  1  0.61989723  0.35780467  0.50000098  1
  O  O27  1  0.62583714  0.91954992  0.50000268  1
  O  O28  1  0.63442902  0.13895399  -0.00000013  1
  O  O29  1  0.65590052  0.72983812  0.99999959  1
  O  O30  1  0.65497331  0.54833309  0.00000039  1
  O  O31  1  0.84498218  0.04830767  0.00000062  1
  O  O32  1  0.84413197  0.22981321  0.00000088  1
  O  O33  1  0.86556501  0.63897648  0.00000056  1
  O  O34  1  0.87418094  0.41957735  0.49999998  1
  O  O35  1  0.88010533  0.85780324  0.50000335  1
