# generated using pymatgen
data_LiFe(PO3)3
_symmetry_space_group_name_H-M   'P 1'
_cell_length_a   10.69581037
_cell_length_b   12.08202869
_cell_length_c   5.32076867
_cell_angle_alpha   90.00000000
_cell_angle_beta   90.00000000
_cell_angle_gamma   90.00000000
_symmetry_Int_Tables_number   1
_chemical_formula_structural   LiFe(PO3)3
_chemical_formula_sum   'Li4 Fe4 P12 O36'
_cell_volume   687.58743983
_cell_formula_units_Z   4
loop_
 _symmetry_equiv_pos_site_id
 _symmetry_equiv_pos_as_xyz
  1  'x, y, z'
loop_
 _atom_site_type_symbol
 _atom_site_label
 _atom_site_symmetry_multiplicity
 _atom_site_fract_x
 _atom_site_fract_y
 _atom_site_fract_z
 _atom_site_occupancy
  Li  Li0  1  0.11173986  0.08198162  0.10364080  1
  Li  Li1  1  0.38826014  0.91801838  0.60364080  1
  Li  Li2  1  0.61173986  0.41801838  0.89635920  1
  Li  Li3  1  0.88826014  0.58198162  0.39635920  1
  Fe  Fe4  1  0.03138703  0.86836474  0.59317908  1
  Fe  Fe5  1  0.46861297  0.13163526  0.09317908  1
  Fe  Fe6  1  0.53138703  0.63163526  0.40682092  1
  Fe  Fe7  1  0.96861297  0.36836474  0.90682092  1
  P  P8  1  0.07382250  0.62495867  0.87936036  1
  P  P9  1  0.15140172  0.36095349  0.39182394  1
  P  P10  1  0.19364387  0.81964594  0.07798977  1
  P  P11  1  0.30635613  0.18035406  0.57798977  1
  P  P12  1  0.34859828  0.63904651  0.89182394  1
  P  P13  1  0.42617750  0.37504133  0.37936036  1
  P  P14  1  0.57382250  0.87504133  0.12063964  1
  P  P15  1  0.65140172  0.13904651  0.60817606  1
  P  P16  1  0.69364387  0.68035406  0.92201023  1
  P  P17  1  0.80635613  0.31964594  0.42201023  1
  P  P18  1  0.84859828  0.86095349  0.10817606  1
  P  P19  1  0.92617750  0.12495867  0.62063964  1
  O  O20  1  0.01018959  0.04102697  0.49599389  1
  O  O21  1  0.03701886  0.67549912  0.63211690  1
  O  O22  1  0.06095313  0.42808948  0.54379741  1
  O  O23  1  0.08831132  0.72395912  0.08418993  1
  O  O24  1  0.11674949  0.32290600  0.13190417  1
  O  O25  1  0.18685497  0.88634733  0.83780194  1
  O  O26  1  0.18819083  0.87945789  0.32412318  1
  O  O27  1  0.18112963  0.25358308  0.56617499  1
  O  O28  1  0.21527017  0.57611760  0.87817630  1
  O  O29  1  0.28472983  0.42388240  0.37817630  1
  O  O30  1  0.31887037  0.74641692  0.06617499  1
  O  O31  1  0.31180917  0.12054211  0.82412318  1
  O  O32  1  0.31314503  0.11365267  0.33780194  1
  O  O33  1  0.38325051  0.67709400  0.63190417  1
  O  O34  1  0.41168868  0.27604088  0.58418993  1
  O  O35  1  0.43904687  0.57191052  0.04379741  1
  O  O36  1  0.46298114  0.32450088  0.13211690  1
  O  O37  1  0.48981041  0.95897303  0.99599389  1
  O  O38  1  0.51018959  0.45897303  0.50400611  1
  O  O39  1  0.53701886  0.82450088  0.36788310  1
  O  O40  1  0.56095313  0.07191052  0.45620259  1
  O  O41  1  0.58831132  0.77604088  0.91581007  1
  O  O42  1  0.61674949  0.17709400  0.86809583  1
  O  O43  1  0.68685497  0.61365267  0.16219806  1
  O  O44  1  0.68819083  0.62054211  0.67587682  1
  O  O45  1  0.68112963  0.24641692  0.43382501  1
  O  O46  1  0.71527017  0.92388240  0.12182370  1
  O  O47  1  0.78472983  0.07611760  0.62182370  1
  O  O48  1  0.81887037  0.75358308  0.93382501  1
  O  O49  1  0.81180917  0.37945789  0.17587682  1
  O  O50  1  0.81314503  0.38634733  0.66219806  1
  O  O51  1  0.88325051  0.82290600  0.36809583  1
  O  O52  1  0.91168868  0.22395912  0.41581007  1
  O  O53  1  0.93904687  0.92808948  0.95620259  1
  O  O54  1  0.96298114  0.17549912  0.86788310  1
  O  O55  1  0.98981041  0.54102697  0.00400611  1
