# generated using pymatgen
data_Li2FeCo3O8
_symmetry_space_group_name_H-M   'P 1'
_cell_length_a   5.77652855
_cell_length_b   5.79468942
_cell_length_c   9.41620269
_cell_angle_alpha   90.59835259
_cell_angle_beta   89.69988859
_cell_angle_gamma   120.10405292
_symmetry_Int_Tables_number   1
_chemical_formula_structural   Li2FeCo3O8
_chemical_formula_sum   'Li4 Fe2 Co6 O16'
_cell_volume   272.66131119
_cell_formula_units_Z   2
loop_
 _symmetry_equiv_pos_site_id
 _symmetry_equiv_pos_as_xyz
  1  'x, y, z'
loop_
 _atom_site_type_symbol
 _atom_site_label
 _atom_site_symmetry_multiplicity
 _atom_site_fract_x
 _atom_site_fract_y
 _atom_site_fract_z
 _atom_site_occupancy
  Li  Li0  1  0.33133861  0.66107112  0.89438084  1
  Li  Li1  1  0.00187477  0.00200035  0.99792247  1
  Li  Li2  1  0.99812523  0.00012458  0.49792247  1
  Li  Li3  1  0.66866139  0.32973351  0.39438084  1
  Fe  Fe4  1  0.33621150  0.67518730  0.48873191  1
  Fe  Fe5  1  0.66378850  0.33897579  0.98873191  1
  Co  Co6  1  0.16930016  0.83089865  0.21468177  1
  Co  Co7  1  0.16915663  0.33769687  0.21312133  1
  Co  Co8  1  0.66279166  0.83187085  0.21287373  1
  Co  Co9  1  0.33720834  0.16907918  0.71287373  1
  Co  Co10  1  0.83069984  0.66159849  0.71468177  1
  Co  Co11  1  0.83084337  0.16854024  0.71312133  1
  O  O12  1  0.17499432  0.85083526  0.60284142  1
  O  O13  1  0.03803197  0.50519527  0.33624902  1
  O  O14  1  0.34024979  0.65951894  0.10695162  1
  O  O15  1  -0.00618856  0.00835549  0.30985691  1
  O  O16  1  0.00618856  0.01454405  0.80985691  1
  O  O17  1  0.16191648  0.32100499  0.60896744  1
  O  O18  1  0.49731963  0.96392429  0.33414753  1
  O  O19  1  0.48132083  0.52033402  0.32821292  1
  O  O20  1  0.32482943  0.17382973  0.10498010  1
  O  O21  1  0.67517057  0.84900030  0.60498010  1
  O  O22  1  0.50268037  0.46660566  0.83414753  1
  O  O23  1  0.51867917  0.03901319  0.82821292  1
  O  O24  1  0.65975021  0.31926914  0.60695162  1
  O  O25  1  0.82500568  0.67584094  0.10284142  1
  O  O26  1  0.96196803  0.46716331  0.83624902  1
  O  O27  1  0.83808352  0.15908851  0.10896744  1
