# generated using pymatgen
data_LiMn2(CO4)2
_symmetry_space_group_name_H-M   'P 1'
_cell_length_a   9.30277596
_cell_length_b   9.76382194
_cell_length_c   6.38742540
_cell_angle_alpha   71.12210840
_cell_angle_beta   90.00000000
_cell_angle_gamma   90.00000000
_symmetry_Int_Tables_number   1
_chemical_formula_structural   LiMn2(CO4)2
_chemical_formula_sum   'Li4 Mn8 C8 O32'
_cell_volume   548.96659035
_cell_formula_units_Z   4
loop_
 _symmetry_equiv_pos_site_id
 _symmetry_equiv_pos_as_xyz
  1  'x, y, z'
loop_
 _atom_site_type_symbol
 _atom_site_label
 _atom_site_symmetry_multiplicity
 _atom_site_fract_x
 _atom_site_fract_y
 _atom_site_fract_z
 _atom_site_occupancy
  Li  Li0  1  0.89787214  0.68447693  0.29049071  1
  Li  Li1  1  0.60212786  0.18447693  0.79049071  1
  Li  Li2  1  0.39787214  0.81552307  0.70950929  1
  Li  Li3  1  0.10212786  0.31552307  0.20950929  1
  Mn  Mn4  1  0.87689772  0.05550133  0.09877701  1
  Mn  Mn5  1  0.88324597  0.06757207  0.59012808  1
  Mn  Mn6  1  0.62310228  0.55550133  0.59877701  1
  Mn  Mn7  1  0.61675403  0.56757207  0.09012808  1
  Mn  Mn8  1  0.37689772  0.44449867  0.90122299  1
  Mn  Mn9  1  0.38324597  0.43242793  0.40987192  1
  Mn  Mn10  1  0.12310228  0.94449867  0.40122299  1
  Mn  Mn11  1  0.11675403  0.93242793  0.90987192  1
  C  C12  1  0.83731616  0.36724252  0.93782513  1
  C  C13  1  0.83954520  0.36375586  0.45106103  1
  C  C14  1  0.66045480  0.86375586  0.95106103  1
  C  C15  1  0.66268384  0.86724252  0.43782513  1
  C  C16  1  0.33731616  0.13275748  0.06217487  1
  C  C17  1  0.33954520  0.13624414  0.54893897  1
  C  C18  1  0.16268384  0.63275748  0.56217487  1
  C  C19  1  0.16045480  0.63624414  0.04893897  1
  O  O20  1  0.00394624  0.89818217  0.66092077  1
  O  O21  1  0.99994398  0.88553941  0.20132041  1
  O  O22  1  0.97020876  0.36797281  0.41731364  1
  O  O23  1  0.96705813  0.38177955  0.95814485  1
  O  O24  1  0.74967443  0.48481076  0.86967945  1
  O  O25  1  0.76120741  0.48668782  0.40314076  1
  O  O26  1  0.76572302  0.24314342  0.52796566  1
  O  O27  1  0.76997738  0.24195790  0.98409720  1
  O  O28  1  0.73427698  0.74314342  0.02796566  1
  O  O29  1  0.73002262  0.74195790  0.48409720  1
  O  O30  1  0.73879259  0.98668782  0.90314076  1
  O  O31  1  0.75032557  0.98481076  0.36967945  1
  O  O32  1  0.53294187  0.88177955  0.45814485  1
  O  O33  1  0.52979124  0.86797281  0.91731364  1
  O  O34  1  0.50005602  0.38553941  0.70132041  1
  O  O35  1  0.49605376  0.39818217  0.16092077  1
  O  O36  1  0.49994398  0.61446059  0.79867959  1
  O  O37  1  0.50394624  0.60181783  0.33907923  1
  O  O38  1  0.46705813  0.11822045  0.04185515  1
  O  O39  1  0.47020876  0.13202719  0.58268636  1
  O  O40  1  0.24967443  0.01518924  0.13032055  1
  O  O41  1  0.26120741  0.01331218  0.59685924  1
  O  O42  1  0.26997738  0.25804210  0.01590280  1
  O  O43  1  0.26572302  0.25685658  0.47203434  1
  O  O44  1  0.23427698  0.75685658  0.97203434  1
  O  O45  1  0.23002262  0.75804210  0.51590280  1
  O  O46  1  0.25032557  0.51518924  0.63032055  1
  O  O47  1  0.23879259  0.51331218  0.09685924  1
  O  O48  1  0.02979124  0.63202719  0.08268636  1
  O  O49  1  0.03294187  0.61822045  0.54185515  1
  O  O50  1  0.00005602  0.11446059  0.29867959  1
  O  O51  1  0.99605376  0.10181783  0.83907923  1
