# generated using pymatgen
data_RbAl(H2N)4
_symmetry_space_group_name_H-M   'P 1'
_cell_length_a   7.97923343
_cell_length_b   7.97923343
_cell_length_c   5.13409511
_cell_angle_alpha   90.00000000
_cell_angle_beta   90.00000000
_cell_angle_gamma   90.00000000
_symmetry_Int_Tables_number   1
_chemical_formula_structural   RbAl(H2N)4
_chemical_formula_sum   'Rb2 Al2 H16 N8'
_cell_volume   326.87842039
_cell_formula_units_Z   2
loop_
 _symmetry_equiv_pos_site_id
 _symmetry_equiv_pos_as_xyz
  1  'x, y, z'
loop_
 _atom_site_type_symbol
 _atom_site_label
 _atom_site_symmetry_multiplicity
 _atom_site_fract_x
 _atom_site_fract_y
 _atom_site_fract_z
 _atom_site_occupancy
  Rb  Rb0  1  0.25000000  0.25000000  0.62404177  1
  Rb  Rb1  1  0.75000000  0.75000000  0.37595823  1
  Al  Al2  1  0.25000000  0.75000000  0.00000000  1
  Al  Al3  1  0.75000000  0.25000000  0.00000000  1
  H  H4  1  0.27667501  0.46436367  0.14058051  1
  H  H5  1  0.07989421  0.70971871  0.60446850  1
  H  H6  1  0.03563633  0.27667501  0.14058051  1
  H  H7  1  0.20971871  0.92010579  0.39553150  1
  H  H8  1  0.29028129  0.57989421  0.39553150  1
  H  H9  1  0.46436367  0.22332499  0.14058051  1
  H  H10  1  0.42010579  0.79028129  0.60446850  1
  H  H11  1  0.22332499  0.03563633  0.14058051  1
  H  H12  1  0.77667501  0.96436367  0.85941949  1
  H  H13  1  0.57989421  0.20971871  0.39553150  1
  H  H14  1  0.53563633  0.77667501  0.85941949  1
  H  H15  1  0.70971871  0.42010579  0.60446850  1
  H  H16  1  0.79028129  0.07989421  0.60446850  1
  H  H17  1  0.96436367  0.72332499  0.85941949  1
  H  H18  1  0.92010579  0.29028129  0.39553150  1
  H  H19  1  0.72332499  0.53563633  0.85941949  1
  N  N20  1  0.43374613  0.72208216  0.77312698  1
  N  N21  1  0.22208216  0.56625387  0.22687302  1
  N  N22  1  0.27791784  0.93374613  0.22687302  1
  N  N23  1  0.06625387  0.77791784  0.77312698  1
  N  N24  1  0.93374613  0.22208216  0.22687302  1
  N  N25  1  0.72208216  0.06625387  0.77312698  1
  N  N26  1  0.77791784  0.43374613  0.77312698  1
  N  N27  1  0.56625387  0.27791784  0.22687302  1
