# generated using pymatgen
data_Li6Mn3Cu(PO4)6
_symmetry_space_group_name_H-M   'P 1'
_cell_length_a   8.42636106
_cell_length_b   8.47764927
_cell_length_c   8.80748287
_cell_angle_alpha   61.24927172
_cell_angle_beta   61.76742442
_cell_angle_gamma   62.46691258
_symmetry_Int_Tables_number   1
_chemical_formula_structural   Li6Mn3Cu(PO4)6
_chemical_formula_sum   'Li6 Mn3 Cu1 P6 O24'
_cell_volume   463.00159334
_cell_formula_units_Z   1
loop_
 _symmetry_equiv_pos_site_id
 _symmetry_equiv_pos_as_xyz
  1  'x, y, z'
loop_
 _atom_site_type_symbol
 _atom_site_label
 _atom_site_symmetry_multiplicity
 _atom_site_fract_x
 _atom_site_fract_y
 _atom_site_fract_z
 _atom_site_occupancy
  Li  Li0  1  0.02235554  0.99113265  0.98850966  1
  Li  Li1  1  0.75302445  0.14980804  0.35841323  1
  Li  Li2  1  0.48366244  0.51539244  0.48630566  1
  Li  Li3  1  0.22847211  0.84343333  0.66060409  1
  Li  Li4  1  0.66054171  0.21197975  0.85440328  1
  Li  Li5  1  0.83630747  0.67676477  0.20451532  1
  Mn  Mn6  1  0.14209896  0.14545197  0.13655911  1
  Mn  Mn7  1  0.35907308  0.35883922  0.35547954  1
  Mn  Mn8  1  0.64837048  0.64284475  0.64924003  1
  Cu  Cu9  1  0.85549573  0.85294283  0.83942044  1
  P  P10  1  0.05804001  0.74913543  0.44926843  1
  P  P11  1  0.44761350  0.05108475  0.74500582  1
  P  P12  1  0.75008932  0.45324953  0.05032167  1
  P  P13  1  0.25347003  0.54136972  0.96750157  1
  P  P14  1  0.53721778  0.96753687  0.24977045  1
  P  P15  1  0.95246294  0.24985475  0.53955592  1
  O  O16  1  0.12788846  0.29889452  0.49157435  1
  O  O17  1  0.31164606  0.50337670  0.12510650  1
  O  O18  1  0.05467259  0.91813706  0.26604447  1
  O  O19  1  0.51694526  0.12064323  0.31255238  1
  O  O20  1  0.24661160  0.58564712  0.42378804  1
  O  O21  1  0.05197588  0.79674264  0.59946681  1
  O  O22  1  0.25415438  0.07154060  0.89140752  1
  O  O23  1  0.45349881  0.23639020  0.57017632  1
  O  O24  1  0.59133655  0.42982291  0.24402548  1
  O  O25  1  0.19756855  0.38043010  0.99439264  1
  O  O26  1  0.09188793  0.73290374  0.95108284  1
  O  O27  1  0.36537745  0.01230140  0.20283937  1
  O  O28  1  0.60467092  0.03249030  0.80213867  1
  O  O29  1  0.90563855  0.25690985  0.08142619  1
  O  O30  1  0.80450092  0.61738371  0.02375059  1
  O  O31  1  0.41231997  0.56624393  0.77537612  1
  O  O32  1  0.56013733  0.76883226  0.39955900  1
  O  O33  1  0.72364615  0.96230345  0.08592945  1
  O  O34  1  0.95254336  0.21024040  0.38854546  1
  O  O35  1  0.76111639  0.40896182  0.58211779  1
  O  O36  1  0.49212657  0.88452951  0.68827007  1
  O  O37  1  0.94965938  0.07951879  0.72458283  1
  O  O38  1  0.69601576  0.47862702  0.89795232  1
  O  O39  1  0.88576764  0.69530992  0.49402257  1
