# generated using pymatgen
data_Li3Mn3O8
_symmetry_space_group_name_H-M   'P 1'
_cell_length_a   8.30310551
_cell_length_b   8.34016188
_cell_length_c   8.34042551
_cell_angle_alpha   90.21243980
_cell_angle_beta   90.95263168
_cell_angle_gamma   90.94820871
_symmetry_Int_Tables_number   1
_chemical_formula_structural   Li3Mn3O8
_chemical_formula_sum   'Li12 Mn12 O32'
_cell_volume   577.40466956
_cell_formula_units_Z   4
loop_
 _symmetry_equiv_pos_site_id
 _symmetry_equiv_pos_as_xyz
  1  'x, y, z'
loop_
 _atom_site_type_symbol
 _atom_site_label
 _atom_site_symmetry_multiplicity
 _atom_site_fract_x
 _atom_site_fract_y
 _atom_site_fract_z
 _atom_site_occupancy
  Li  Li0  1  0.99989966  0.74842809  0.25182539  1
  Li  Li1  1  0.00426592  0.80847650  0.77830225  1
  Li  Li2  1  0.14038787  0.61388531  0.60856799  1
  Li  Li3  1  0.22696830  0.18084757  0.99840941  1
  Li  Li4  1  0.36936006  0.87102451  0.37871901  1
  Li  Li5  1  0.38991784  0.38683050  0.86530831  1
  Li  Li6  1  0.50004308  0.50070936  0.49936692  1
  Li  Li7  1  0.61040102  0.13490059  0.61316258  1
  Li  Li8  1  0.63058774  0.62143321  0.12898181  1
  Li  Li9  1  0.77315252  0.00259348  0.81942376  1
  Li  Li10  1  0.85944226  0.39118499  0.38625237  1
  Li  Li11  1  0.99461064  0.22151225  0.19136410  1
  Mn  Mn12  1  0.00010822  0.26013174  0.73988831  1
  Mn  Mn13  1  0.00252292  0.49844111  0.99455600  1
  Mn  Mn14  1  0.24745732  0.24915423  0.49537542  1
  Mn  Mn15  1  0.25242962  0.49243683  0.24543021  1
  Mn  Mn16  1  0.25895619  0.73934063  0.00423636  1
  Mn  Mn17  1  0.49625172  0.24575223  0.24761650  1
  Mn  Mn18  1  0.50002024  0.99527633  0.00471869  1
  Mn  Mn19  1  0.50385753  0.75241267  0.75426159  1
  Mn  Mn20  1  0.74097428  0.99565533  0.26066015  1
  Mn  Mn21  1  0.74752202  0.75453975  0.50754139  1
  Mn  Mn22  1  0.75264315  0.50461386  0.75081626  1
  Mn  Mn23  1  0.99744035  0.00545844  0.50152163  1
  O  O24  1  0.01624723  0.27126099  0.96549078  1
  O  O25  1  0.00980613  0.24246104  0.50386064  1
  O  O26  1  0.01703384  0.48008991  0.22027871  1
  O  O27  1  0.03285529  0.72615470  0.99551332  1
  O  O28  1  0.21934712  0.02134074  0.48739994  1
  O  O29  1  0.23045378  0.26742787  0.72128658  1
  O  O30  1  0.24147417  0.50543838  0.00927138  1
  O  O31  1  0.25012210  0.47754719  0.46915225  1
  O  O32  1  0.25646922  0.71751719  0.23227691  1
  O  O33  1  0.25538464  0.25657359  0.25516517  1
  O  O34  1  0.27469310  0.96222559  0.00974493  1
  O  O35  1  0.27734221  0.73643853  0.77049392  1
  O  O36  1  0.47152838  0.24778473  0.47684586  1
  O  O37  1  0.48238681  0.47060042  0.24200538  1
  O  O38  1  0.47140319  0.21777629  0.01852867  1
  O  O39  1  0.49467374  0.75844428  0.99044538  1
  O  O40  1  0.50530215  0.00953188  0.24156343  1
  O  O41  1  0.52883006  0.98151325  0.78228225  1
  O  O42  1  0.51760061  0.75793123  0.52943090  1
  O  O43  1  0.52859693  0.52316294  0.75213247  1
  O  O44  1  0.72283752  0.22938607  0.26349724  1
  O  O45  1  0.72536825  0.99003009  0.03784553  1
  O  O46  1  0.74474124  0.74482341  0.74335347  1
  O  O47  1  0.74343536  0.76762390  0.28251712  1
  O  O48  1  0.74987905  0.53080983  0.52243476  1
  O  O49  1  0.75848834  0.99069955  0.49453617  1
  O  O50  1  0.76975901  0.27863944  0.73268038  1
  O  O51  1  0.78060175  0.51253133  0.97863277  1
  O  O52  1  0.96707296  0.00424435  0.27381602  1
  O  O53  1  0.98286493  0.77969217  0.51975964  1
  O  O54  1  0.99027206  0.49617840  0.75753219  1
  O  O55  1  0.98391637  0.03453921  0.72868444  1
