# generated using pymatgen
data_Li2Cu2F7
_symmetry_space_group_name_H-M   'P 1'
_cell_length_a   6.84839251
_cell_length_b   7.22415454
_cell_length_c   3.12416633
_cell_angle_alpha   77.51277826
_cell_angle_beta   103.19662315
_cell_angle_gamma   107.02967778
_symmetry_Int_Tables_number   1
_chemical_formula_structural   Li2Cu2F7
_chemical_formula_sum   'Li2 Cu2 F7'
_cell_volume   142.02050256
_cell_formula_units_Z   1
loop_
 _symmetry_equiv_pos_site_id
 _symmetry_equiv_pos_as_xyz
  1  'x, y, z'
loop_
 _atom_site_type_symbol
 _atom_site_label
 _atom_site_symmetry_multiplicity
 _atom_site_fract_x
 _atom_site_fract_y
 _atom_site_fract_z
 _atom_site_occupancy
  Li  Li0  1  0.25730119  0.66155246  0.29823744  1
  Li  Li1  1  0.62657086  0.10609689  0.76012641  1
  Cu  Cu2  1  0.24331880  0.30128033  0.97142538  1
  Cu  Cu3  1  0.90474658  0.85834815  0.52262285  1
  F  F4  1  0.14602663  0.76940639  0.68836236  1
  F  F5  1  0.09026660  0.37362251  0.35894299  1
  F  F6  1  0.03600534  0.04871210  0.99389609  1
  F  F7  1  0.39964576  0.56275821  0.91865771  1
  F  F8  1  0.67525711  0.98469412  0.34506298  1
  F  F9  1  0.40524126  0.22201055  0.59153438  1
  F  F10  1  0.80396888  0.69986827  0.05113041  1
