# generated using pymatgen
data_Li12Mn2O9
_symmetry_space_group_name_H-M   'P 1'
_cell_length_a   5.76384156
_cell_length_b   5.67241431
_cell_length_c   8.15472168
_cell_angle_alpha   87.08457378
_cell_angle_beta   92.23955233
_cell_angle_gamma   117.88426313
_symmetry_Int_Tables_number   1
_chemical_formula_structural   Li12Mn2O9
_chemical_formula_sum   'Li12 Mn2 O9'
_cell_volume   235.32156902
_cell_formula_units_Z   1
loop_
 _symmetry_equiv_pos_site_id
 _symmetry_equiv_pos_as_xyz
  1  'x, y, z'
loop_
 _atom_site_type_symbol
 _atom_site_label
 _atom_site_symmetry_multiplicity
 _atom_site_fract_x
 _atom_site_fract_y
 _atom_site_fract_z
 _atom_site_occupancy
  Li  Li0  1  0.06119331  0.69991054  0.91769739  1
  Li  Li1  1  0.28929943  0.95496889  0.58046938  1
  Li  Li2  1  0.06409590  0.34760955  0.57299601  1
  Li  Li3  1  0.03863254  0.02830861  0.26150873  1
  Li  Li4  1  0.96978563  0.99663661  0.77212857  1
  Li  Li5  1  0.32100152  0.36556885  0.91754380  1
  Li  Li6  1  0.62337302  0.67954166  0.58318926  1
  Li  Li7  1  0.37610076  0.03569744  0.08920786  1
  Li  Li8  1  0.70403788  0.71370984  0.06942088  1
  Li  Li9  1  0.92355159  0.62118053  0.40278887  1
  Li  Li10  1  0.66885552  0.06848951  0.39661948  1
  Li  Li11  1  0.93825771  0.29217951  0.07841566  1
  Mn  Mn12  1  0.33075048  0.62015442  0.27318242  1
  Mn  Mn13  1  0.66922198  0.30131792  0.75872371  1
  O  O14  1  0.29188300  0.91981400  0.34842910  1
  O  O15  1  0.99520284  0.34409505  0.32268876  1
  O  O16  1  0.03872767  0.02000426  0.00791289  1
  O  O17  1  0.32589219  0.64775222  0.03640386  1
  O  O18  1  0.33424638  0.28568444  0.68302112  1
  O  O19  1  0.68792509  0.74605803  0.32575492  1
  O  O20  1  0.67642266  0.38275083  0.97913412  1
  O  O21  1  0.95914079  0.63926996  0.66929115  1
  O  O22  1  0.70079212  0.04682731  0.63410009  1
