# generated using pymatgen
data_Li3VF5
_symmetry_space_group_name_H-M   'P 1'
_cell_length_a   7.73927021
_cell_length_b   6.95836273
_cell_length_c   7.87444505
_cell_angle_alpha   90.00000000
_cell_angle_beta   91.85307156
_cell_angle_gamma   90.00000000
_symmetry_Int_Tables_number   1
_chemical_formula_structural   Li3VF5
_chemical_formula_sum   'Li12 V4 F20'
_cell_volume   423.83796096
_cell_formula_units_Z   4
loop_
 _symmetry_equiv_pos_site_id
 _symmetry_equiv_pos_as_xyz
  1  'x, y, z'
loop_
 _atom_site_type_symbol
 _atom_site_label
 _atom_site_symmetry_multiplicity
 _atom_site_fract_x
 _atom_site_fract_y
 _atom_site_fract_z
 _atom_site_occupancy
  Li  Li0  1  0.99724580  0.44811646  0.78235613  1
  Li  Li1  1  0.00275420  0.94811646  0.71764387  1
  Li  Li2  1  0.99724580  0.05188354  0.28235613  1
  Li  Li3  1  0.00275420  0.55188354  0.21764387  1
  Li  Li4  1  0.26627212  0.72162163  0.96767240  1
  Li  Li5  1  0.26627212  0.77837837  0.46767240  1
  Li  Li6  1  0.46450492  0.98511662  0.81270565  1
  Li  Li7  1  0.46450492  0.51488338  0.31270565  1
  Li  Li8  1  0.53549508  0.48511662  0.68729435  1
  Li  Li9  1  0.53549508  0.01488338  0.18729435  1
  Li  Li10  1  0.73372788  0.22162163  0.53232760  1
  Li  Li11  1  0.73372788  0.27837837  0.03232760  1
  V  V12  1  0.25240163  0.23574495  0.59377970  1
  V  V13  1  0.25240163  0.26425505  0.09377970  1
  V  V14  1  0.74759837  0.73574495  0.90622030  1
  V  V15  1  0.74759837  0.76425505  0.40622030  1
  F  F16  1  0.02317402  0.72512934  0.88360575  1
  F  F17  1  0.02317402  0.77487066  0.38360575  1
  F  F18  1  0.22887493  0.36033425  0.83995946  1
  F  F19  1  0.23849254  0.94475256  0.66275431  1
  F  F20  1  0.22887493  0.13966575  0.33995946  1
  F  F21  1  0.23849254  0.55524744  0.16275431  1
  F  F22  1  0.32082095  0.51511120  0.52349506  1
  F  F23  1  0.32082095  0.98488880  0.02349506  1
  F  F24  1  0.48304182  0.70019282  0.84604027  1
  F  F25  1  0.48304182  0.79980718  0.34604027  1
  F  F26  1  0.51695818  0.20019282  0.65395973  1
  F  F27  1  0.51695818  0.29980718  0.15395973  1
  F  F28  1  0.67917905  0.01511120  0.97650494  1
  F  F29  1  0.67917905  0.48488880  0.47650494  1
  F  F30  1  0.76150746  0.44475256  0.83724569  1
  F  F31  1  0.77112507  0.86033425  0.66004054  1
  F  F32  1  0.76150746  0.05524744  0.33724569  1
  F  F33  1  0.77112507  0.63966575  0.16004054  1
  F  F34  1  0.97682598  0.22512934  0.61639425  1
  F  F35  1  0.97682598  0.27487066  0.11639425  1
