# generated using pymatgen
data_LiFe2P5O16
_symmetry_space_group_name_H-M   'P 1'
_cell_length_a   7.55536643
_cell_length_b   9.44866271
_cell_length_c   10.32005709
_cell_angle_alpha   90.00000000
_cell_angle_beta   111.19054967
_cell_angle_gamma   90.00000000
_symmetry_Int_Tables_number   1
_chemical_formula_structural   LiFe2P5O16
_chemical_formula_sum   'Li2 Fe4 P10 O32'
_cell_volume   686.91425183
_cell_formula_units_Z   2
loop_
 _symmetry_equiv_pos_site_id
 _symmetry_equiv_pos_as_xyz
  1  'x, y, z'
loop_
 _atom_site_type_symbol
 _atom_site_label
 _atom_site_symmetry_multiplicity
 _atom_site_fract_x
 _atom_site_fract_y
 _atom_site_fract_z
 _atom_site_occupancy
  Li  Li0  1  0.24894855  0.79995962  0.24729598  1
  Li  Li1  1  0.74894855  0.20004038  0.74729598  1
  Fe  Fe2  1  0.15576234  0.14073246  0.53399337  1
  Fe  Fe3  1  0.20709400  0.36946383  0.14131246  1
  Fe  Fe4  1  0.70709400  0.63053617  0.64131246  1
  Fe  Fe5  1  0.65576234  0.85926754  0.03399337  1
  P  P6  1  0.01037079  0.86150426  0.63014173  1
  P  P7  1  0.30040991  0.29491974  0.87355311  1
  P  P8  1  0.41765198  0.87423899  0.69967639  1
  P  P9  1  0.35207753  0.41662214  0.47561527  1
  P  P10  1  0.85207753  0.58337786  0.97561527  1
  P  P11  1  0.51037079  0.13849574  0.13014173  1
  P  P12  1  0.49370328  0.54176047  0.01258260  1
  P  P13  1  0.80040991  0.70508026  0.37355311  1
  P  P14  1  0.99370328  0.45823953  0.51258260  1
  P  P15  1  0.91765198  0.12576101  0.19967639  1
  O  O16  1  0.14448772  0.29755575  0.93275579  1
  O  O17  1  0.22214470  0.81977352  0.72026840  1
  O  O18  1  0.04337298  0.06524696  0.34019799  1
  O  O19  1  0.25948294  0.23167920  0.73332712  1
  O  O20  1  0.21218384  0.49432442  0.54457755  1
  O  O21  1  0.38454003  0.45225865  0.87109738  1
  O  O22  1  0.46030032  0.69790049  0.98128258  1
  O  O23  1  0.48330976  0.21367277  0.98242498  1
  O  O24  1  0.05038545  0.53420174  0.06177076  1
  O  O25  1  0.35556484  0.98886752  0.58741433  1
  O  O26  1  0.34286797  0.25688540  0.49396483  1
  O  O27  1  0.27819160  0.46472738  0.32461521  1
  O  O28  1  0.54337298  0.93475304  0.84019799  1
  O  O29  1  0.49509675  0.74437105  0.65213317  1
  O  O30  1  0.55038545  0.46579826  0.56177076  1
  O  O31  1  0.38148577  0.20030093  0.19711086  1
  O  O32  1  0.84286797  0.74311460  0.99396483  1
  O  O33  1  0.43852246  0.48043741  0.12681519  1
  O  O34  1  0.77819160  0.53527262  0.82461521  1
  O  O35  1  0.64448772  0.70244425  0.43275579  1
  O  O36  1  0.48825549  0.97950434  0.10663396  1
  O  O37  1  0.88148477  0.79969907  0.69711086  1
  O  O38  1  0.72214470  0.18022648  0.22026840  1
  O  O39  1  0.93852246  0.51956259  0.62681519  1
  O  O40  1  0.75948294  0.76832080  0.23332712  1
  O  O41  1  0.71218384  0.50567558  0.04457755  1
  O  O42  1  0.98825549  0.02049566  0.60663396  1
  O  O43  1  0.88454003  0.54774135  0.37109738  1
  O  O44  1  0.96030032  0.30209951  0.48128258  1
  O  O45  1  0.98330976  0.78632723  0.48242498  1
  O  O46  1  0.85556484  0.01113248  0.08741433  1
  O  O47  1  0.99509675  0.25562895  0.15213317  1
