# generated using pymatgen
data_LiMnP2O7
_symmetry_space_group_name_H-M   'P 1'
_cell_length_a   7.13329275
_cell_length_b   9.81243938
_cell_length_c   8.42105077
_cell_angle_alpha   90.00000000
_cell_angle_beta   110.78405600
_cell_angle_gamma   90.00000000
_symmetry_Int_Tables_number   1
_chemical_formula_structural   LiMnP2O7
_chemical_formula_sum   'Li4 Mn4 P8 O28'
_cell_volume   551.07389818
_cell_formula_units_Z   4
loop_
 _symmetry_equiv_pos_site_id
 _symmetry_equiv_pos_as_xyz
  1  'x, y, z'
loop_
 _atom_site_type_symbol
 _atom_site_label
 _atom_site_symmetry_multiplicity
 _atom_site_fract_x
 _atom_site_fract_y
 _atom_site_fract_z
 _atom_site_occupancy
  Li  Li0  1  0.39349509  0.15348347  0.95987131  1
  Li  Li1  1  0.39349509  0.34651653  0.45987131  1
  Li  Li2  1  0.60650491  0.65348347  0.54012869  1
  Li  Li3  1  0.60650491  0.84651653  0.04012869  1
  Mn  Mn4  1  0.27122673  0.60296722  0.74696145  1
  Mn  Mn5  1  0.27122673  0.89703278  0.24696145  1
  Mn  Mn6  1  0.72877327  0.10296722  0.75303855  1
  Mn  Mn7  1  0.72877327  0.39703278  0.25303855  1
  P  P8  1  0.03796998  0.85729034  0.79430789  1
  P  P9  1  0.03796998  0.64270966  0.29430789  1
  P  P10  1  0.36388517  0.90563539  0.68460912  1
  P  P11  1  0.36388517  0.59436461  0.18460912  1
  P  P12  1  0.63611483  0.40563539  0.81539088  1
  P  P13  1  0.63611483  0.09436461  0.31539088  1
  P  P14  1  0.96203002  0.35729034  0.70569211  1
  P  P15  1  0.96203002  0.14270966  0.20569211  1
  O  O16  1  0.02018636  0.70573603  0.73964272  1
  O  O17  1  0.17166081  0.88850540  0.97388666  1
  O  O18  1  0.17448606  0.41705290  0.75730593  1
  O  O19  1  0.13589826  0.93342183  0.66818660  1
  O  O20  1  0.02018636  0.79426397  0.23964272  1
  O  O21  1  0.17166081  0.61149460  0.47388666  1
  O  O22  1  0.38116876  0.60594596  0.01455946  1
  O  O23  1  0.17448606  0.08294710  0.25730593  1
  O  O24  1  0.13589826  0.56657817  0.16818660  1
  O  O25  1  0.43229486  0.77323881  0.79254901  1
  O  O26  1  0.38116876  0.89405404  0.51455946  1
  O  O27  1  0.51303456  0.52253503  0.70116277  1
  O  O28  1  0.48696544  0.02253503  0.79883723  1
  O  O29  1  0.43229486  0.72676119  0.29254901  1
  O  O30  1  0.56770514  0.27323881  0.70745099  1
  O  O31  1  0.51303456  0.97746497  0.20116277  1
  O  O32  1  0.48696544  0.47746497  0.29883723  1
  O  O33  1  0.61883124  0.10594596  0.48544054  1
  O  O34  1  0.56770514  0.22676119  0.20745099  1
  O  O35  1  0.86410174  0.43342183  0.83181340  1
  O  O36  1  0.82551394  0.91705290  0.74269407  1
  O  O37  1  0.61883124  0.39405404  0.98544054  1
  O  O38  1  0.82833919  0.38850540  0.52611334  1
  O  O39  1  0.97981364  0.20573603  0.76035728  1
  O  O40  1  0.86410174  0.06657817  0.33181340  1
  O  O41  1  0.82551394  0.58294710  0.24269407  1
  O  O42  1  0.82833919  0.11149460  0.02611334  1
  O  O43  1  0.97981364  0.29426397  0.26035728  1
