# generated using pymatgen
data_LiFeSiO4
_symmetry_space_group_name_H-M   'P 1'
_cell_length_a   8.03221344
_cell_length_b   5.14610722
_cell_length_c   8.41429568
_cell_angle_alpha   90.00000000
_cell_angle_beta   74.60630962
_cell_angle_gamma   90.00000000
_symmetry_Int_Tables_number   1
_chemical_formula_structural   LiFeSiO4
_chemical_formula_sum   'Li4 Fe4 Si4 O16'
_cell_volume   335.32429763
_cell_formula_units_Z   4
loop_
 _symmetry_equiv_pos_site_id
 _symmetry_equiv_pos_as_xyz
  1  'x, y, z'
loop_
 _atom_site_type_symbol
 _atom_site_label
 _atom_site_symmetry_multiplicity
 _atom_site_fract_x
 _atom_site_fract_y
 _atom_site_fract_z
 _atom_site_occupancy
  Li  Li0  1  0.14753216  0.15549119  0.55526372  1
  Li  Li1  1  0.37596364  0.78002715  0.03227422  1
  Li  Li2  1  0.62403636  0.28002715  0.96772578  1
  Li  Li3  1  0.85246784  0.65549119  0.44473628  1
  Fe  Fe4  1  0.04149080  0.07606156  0.24075500  1
  Fe  Fe5  1  0.47111114  0.74375017  0.67715486  1
  Fe  Fe6  1  0.52888886  0.24375017  0.32284514  1
  Fe  Fe7  1  0.95850920  0.57606156  0.75924500  1
  Si  Si8  1  0.24675423  0.69632835  0.41479310  1
  Si  Si9  1  0.26356605  0.27918576  0.87890481  1
  Si  Si10  1  0.73643395  0.77918576  0.12109519  1
  Si  Si11  1  0.75324577  0.19632835  0.58520690  1
  O  O12  1  0.05852851  0.74649330  0.55184119  1
  O  O13  1  0.15392503  0.35741082  0.74649576  1
  O  O14  1  0.21984414  0.83212326  0.24704103  1
  O  O15  1  0.34905279  0.98854326  0.84138450  1
  O  O16  1  0.38947071  0.86121579  0.48719219  1
  O  O17  1  0.30201450  0.38952952  0.38399807  1
  O  O18  1  0.13337142  0.28969972  0.06396098  1
  O  O19  1  0.42274568  0.49162914  0.86242260  1
  O  O20  1  0.57725432  0.99162914  0.13757740  1
  O  O21  1  0.86662858  0.78969972  0.93603902  1
  O  O22  1  0.69798550  0.88952952  0.61600193  1
  O  O23  1  0.61052929  0.36121579  0.51280781  1
  O  O24  1  0.65094721  0.48854326  0.15861550  1
  O  O25  1  0.78015586  0.33212326  0.75295897  1
  O  O26  1  0.84607497  0.85741082  0.25350424  1
  O  O27  1  0.94147149  0.24649330  0.44815881  1
