# generated using pymatgen
data_Li3Fe(PO4)2
_symmetry_space_group_name_H-M   'P 1'
_cell_length_a   8.50505852
_cell_length_b   8.50474663
_cell_length_c   8.50478054
_cell_angle_alpha   63.08298411
_cell_angle_beta   63.08334260
_cell_angle_gamma   63.08157840
_symmetry_Int_Tables_number   1
_chemical_formula_structural   Li3Fe(PO4)2
_chemical_formula_sum   'Li9 Fe3 P6 O24'
_cell_volume   464.74798363
_cell_formula_units_Z   3
loop_
 _symmetry_equiv_pos_site_id
 _symmetry_equiv_pos_as_xyz
  1  'x, y, z'
loop_
 _atom_site_type_symbol
 _atom_site_label
 _atom_site_symmetry_multiplicity
 _atom_site_fract_x
 _atom_site_fract_y
 _atom_site_fract_z
 _atom_site_occupancy
  Li  Li0  1  0.24367829  0.85189891  0.65483135  1
  Li  Li1  1  0.32317746  0.81390578  0.14248878  1
  Li  Li2  1  0.14224130  0.32336234  0.81397182  1
  Li  Li3  1  0.00834738  0.00838799  0.00852688  1
  Li  Li4  1  0.15468975  0.15435603  0.15444166  1
  Li  Li5  1  0.49716065  0.49700095  0.49710770  1
  Li  Li6  1  0.85169102  0.65487779  0.24399566  1
  Li  Li7  1  0.65521379  0.24343474  0.85156536  1
  Li  Li8  1  0.81405011  0.14236241  0.32323291  1
  Fe  Fe9  1  0.35390219  0.35380843  0.35381937  1
  Fe  Fe10  1  0.85473116  0.85465379  0.85472120  1
  Fe  Fe11  1  0.64433066  0.64459276  0.64445830  1
  P  P12  1  0.04623438  0.74566877  0.45335484  1
  P  P13  1  0.54713765  0.94904288  0.24719894  1
  P  P14  1  0.24719695  0.54711359  0.94908901  1
  P  P15  1  0.74573800  0.45337614  0.04616442  1
  P  P16  1  0.45318406  0.04639419  0.74577351  1
  P  P17  1  0.94915439  0.24718430  0.54702664  1
  O  O18  1  0.04648571  0.90749760  0.27004275  1
  O  O19  1  0.09045477  0.74142105  0.93468867  1
  O  O20  1  0.49734697  0.89117862  0.67106351  1
  O  O21  1  0.61782994  0.01581563  0.80147448  1
  O  O22  1  0.24311693  0.59688525  0.42373405  1
  O  O23  1  0.19067650  0.39096992  0.97278403  1
  O  O24  1  0.11338703  0.30598088  0.50878624  1
  O  O25  1  0.57980293  0.75419633  0.40230890  1
  O  O26  1  0.74144332  0.93454625  0.09056223  1
  O  O27  1  0.97300697  0.19041632  0.39095722  1
  O  O28  1  0.30607357  0.50879156  0.11326347  1
  O  O29  1  0.40219634  0.57997663  0.75417450  1
  O  O30  1  0.59694335  0.42371143  0.24308383  1
  O  O31  1  0.67116469  0.49798635  0.89081896  1
  O  O32  1  0.01593164  0.80141495  0.61789414  1
  O  O33  1  0.42363683  0.24331388  0.59704331  1
  O  O34  1  0.26994810  0.04668127  0.90763904  1
  O  O35  1  0.80159633  0.61777396  0.01606196  1
  O  O36  1  0.89088149  0.67111658  0.49779786  1
  O  O37  1  0.75427921  0.40231650  0.57960821  1
  O  O38  1  0.39100970  0.97272757  0.19066137  1
  O  O39  1  0.50886427  0.11328866  0.30597820  1
  O  O40  1  0.90752476  0.27001559  0.04637840  1
  O  O41  1  0.93454044  0.09055642  0.74142730  1
