# generated using pymatgen
data_Li4Fe3(NiO5)2
_symmetry_space_group_name_H-M   'P 1'
_cell_length_a   5.10026991
_cell_length_b   5.09859546
_cell_length_c   7.74813018
_cell_angle_alpha   71.24586401
_cell_angle_beta   108.74524096
_cell_angle_gamma   100.17563114
_symmetry_Int_Tables_number   1
_chemical_formula_structural   Li4Fe3(NiO5)2
_chemical_formula_sum   'Li4 Fe3 Ni2 O10'
_cell_volume   180.06127406
_cell_formula_units_Z   1
loop_
 _symmetry_equiv_pos_site_id
 _symmetry_equiv_pos_as_xyz
  1  'x, y, z'
loop_
 _atom_site_type_symbol
 _atom_site_label
 _atom_site_symmetry_multiplicity
 _atom_site_fract_x
 _atom_site_fract_y
 _atom_site_fract_z
 _atom_site_occupancy
  Li  Li0  1  0.22498654  0.48716519  0.42873950  1
  Li  Li1  1  0.50359728  0.98033355  0.50872902  1
  Li  Li2  1  0.79681746  0.51065846  0.58924715  1
  Li  Li3  1  0.61833093  0.48674069  0.22551652  1
  Fe  Fe4  1  0.99987290  0.50008108  0.99348712  1
  Fe  Fe5  1  0.30673427  0.99760907  0.11400954  1
  Fe  Fe6  1  0.68050551  0.99778395  0.88552310  1
  Ni  Ni7  1  0.09991637  0.00769864  0.69241296  1
  Ni  Ni8  1  0.89807717  0.00048309  0.30580264  1
  O  O9  1  0.03224856  0.23640787  0.85433548  1
  O  O10  1  0.11669592  0.79483792  0.53207885  1
  O  O11  1  0.32486186  0.78658125  0.93568811  1
  O  O12  1  0.23501506  0.25808490  0.22885608  1
  O  O13  1  0.43192101  0.21138434  0.65826509  1
  O  O14  1  0.54804828  0.76276543  0.33848194  1
  O  O15  1  0.78950872  0.76851555  0.75513606  1
  O  O16  1  0.67666590  0.22314359  0.07094124  1
  O  O17  1  0.87906853  0.22812189  0.46631372  1
  O  O18  1  0.94619573  0.75486354  0.13735788  1
