# generated using pymatgen
data_Li2Mn(PO3)4
_symmetry_space_group_name_H-M   'P 1'
_cell_length_a   7.49057222
_cell_length_b   11.14232918
_cell_length_c   13.33729993
_cell_angle_alpha   90.00000000
_cell_angle_beta   72.70954930
_cell_angle_gamma   90.00000000
_symmetry_Int_Tables_number   1
_chemical_formula_structural   Li2Mn(PO3)4
_chemical_formula_sum   'Li8 Mn4 P16 O48'
_cell_volume   1062.85988373
_cell_formula_units_Z   4
loop_
 _symmetry_equiv_pos_site_id
 _symmetry_equiv_pos_as_xyz
  1  'x, y, z'
loop_
 _atom_site_type_symbol
 _atom_site_label
 _atom_site_symmetry_multiplicity
 _atom_site_fract_x
 _atom_site_fract_y
 _atom_site_fract_z
 _atom_site_occupancy
  Li  Li0  1  0.10916585  0.09697059  0.26234209  1
  Li  Li1  1  0.39083415  0.59697059  0.23765791  1
  Li  Li2  1  0.19379140  0.94308284  0.46942670  1
  Li  Li3  1  0.30620860  0.44308284  0.03057330  1
  Li  Li4  1  0.69379140  0.55691716  0.96942670  1
  Li  Li5  1  0.80620860  0.05691716  0.53057330  1
  Li  Li6  1  0.60916585  0.40302941  0.76234209  1
  Li  Li7  1  0.89083415  0.90302941  0.73765791  1
  Mn  Mn8  1  0.30263466  0.25959755  0.66770356  1
  Mn  Mn9  1  0.19736534  0.75959755  0.83229644  1
  Mn  Mn10  1  0.80263466  0.24040245  0.16770356  1
  Mn  Mn11  1  0.69736534  0.74040245  0.33229644  1
  P  P12  1  0.95537674  0.72498044  0.08160914  1
  P  P13  1  0.07052155  0.38378875  0.29823401  1
  P  P14  1  0.37800782  0.74529718  0.02410913  1
  P  P15  1  0.12199218  0.24529718  0.47589087  1
  P  P16  1  0.04462326  0.27501956  0.91838986  1
  P  P17  1  0.42947845  0.88378875  0.20176599  1
  P  P18  1  0.18557075  0.04464734  0.82354845  1
  P  P19  1  0.31442925  0.54464734  0.67645155  1
  P  P20  1  0.54462326  0.22498044  0.41838986  1
  P  P21  1  0.45537674  0.77501956  0.58161014  1
  P  P22  1  0.68557075  0.45535266  0.32354845  1
  P  P23  1  0.81442925  0.95535266  0.17645155  1
  P  P24  1  0.57052155  0.11621125  0.79823401  1
  P  P25  1  0.87800782  0.75470282  0.52410913  1
  P  P26  1  0.62199218  0.25470282  0.97589087  1
  P  P27  1  0.92947845  0.61621125  0.70176599  1
  O  O28  1  0.16112202  0.75810972  0.08829896  1
  O  O29  1  0.04305984  0.35307729  0.42142155  1
  O  O30  1  0.24462409  0.45227411  0.24623064  1
  O  O31  1  0.05497206  0.12322819  0.44813004  1
  O  O32  1  0.08521011  0.27451663  0.58941789  1
  O  O33  1  0.44502794  0.62322819  0.05186996  1
  O  O34  1  0.96607193  0.73155112  0.75306543  1
  O  O35  1  0.09875836  0.52255534  0.68404770  1
  O  O36  1  0.25537591  0.95227411  0.25376936  1
  O  O37  1  0.14376810  0.34023346  0.82026647  1
  O  O38  1  0.96701482  0.66913127  0.97622784  1
  O  O39  1  0.45694016  0.85307729  0.07857845  1
  O  O40  1  0.33887798  0.25810972  0.41170104  1
  O  O41  1  0.07699425  0.93157830  0.86177316  1
  O  O42  1  0.13009657  0.14200456  0.91780716  1
  O  O43  1  0.17216938  0.09558362  0.72207960  1
  O  O44  1  0.32783062  0.59558362  0.77792040  1
  O  O45  1  0.58521011  0.22548337  0.08941789  1
  O  O46  1  0.36990343  0.64200456  0.58219284  1
  O  O47  1  0.42300575  0.43157830  0.63822684  1
  O  O48  1  0.46607193  0.76844888  0.25306543  1
  O  O49  1  0.59875836  0.97744466  0.18404770  1
  O  O50  1  0.53298518  0.16913127  0.52377216  1
  O  O51  1  0.35623190  0.84023346  0.67973353  1
  O  O52  1  0.64376810  0.15976654  0.32026647  1
  O  O53  1  0.46701482  0.83086873  0.47622784  1
  O  O54  1  0.40124164  0.02255534  0.81595230  1
  O  O55  1  0.53392807  0.23155112  0.74693457  1
  O  O56  1  0.57699425  0.56842170  0.36177316  1
  O  O57  1  0.63009657  0.35799544  0.41780716  1
  O  O58  1  0.41478989  0.77451663  0.91058211  1
  O  O59  1  0.67216938  0.40441638  0.22207960  1
  O  O60  1  0.82783062  0.90441638  0.27792040  1
  O  O61  1  0.86990343  0.85799544  0.08219284  1
  O  O62  1  0.92300575  0.06842170  0.13822684  1
  O  O63  1  0.66112202  0.74189028  0.58829896  1
  O  O64  1  0.54305984  0.14692271  0.92142155  1
  O  O65  1  0.03298518  0.33086873  0.02377216  1
  O  O66  1  0.85623190  0.65976654  0.17973353  1
  O  O67  1  0.74462409  0.04772589  0.74623064  1
  O  O68  1  0.90124164  0.47744466  0.31595230  1
  O  O69  1  0.03392807  0.26844888  0.24693457  1
  O  O70  1  0.55497206  0.37677181  0.94813004  1
  O  O71  1  0.91478989  0.72548337  0.41058211  1
  O  O72  1  0.94502794  0.87677181  0.55186996  1
  O  O73  1  0.75537591  0.54772589  0.75376936  1
  O  O74  1  0.95694016  0.64692271  0.57857845  1
  O  O75  1  0.83887798  0.24189028  0.91170104  1
