# generated using pymatgen
data_Li2Ti(FeO3)2
_symmetry_space_group_name_H-M   'P 1'
_cell_length_a   7.94942654
_cell_length_b   7.94942665
_cell_length_c   6.04472571
_cell_angle_alpha   101.30892859
_cell_angle_beta   101.30893300
_cell_angle_gamma   68.47684288
_symmetry_Int_Tables_number   1
_chemical_formula_structural   Li2Ti(FeO3)2
_chemical_formula_sum   'Li6 Ti3 Fe6 O18'
_cell_volume   345.20857210
_cell_formula_units_Z   3
loop_
 _symmetry_equiv_pos_site_id
 _symmetry_equiv_pos_as_xyz
  1  'x, y, z'
loop_
 _atom_site_type_symbol
 _atom_site_label
 _atom_site_symmetry_multiplicity
 _atom_site_fract_x
 _atom_site_fract_y
 _atom_site_fract_z
 _atom_site_occupancy
  Li  Li0  1  0.33348537  0.99747768  0.83702369  1
  Li  Li1  1  0.99747768  0.33348537  0.83702369  1
  Li  Li2  1  0.33318063  0.66918932  0.49630931  1
  Li  Li3  1  0.66918932  0.33318063  0.49630931  1
  Li  Li4  1  0.00391300  0.66275300  0.16666700  1
  Li  Li5  1  0.66275300  0.00391300  0.16666700  1
  Ti  Ti6  1  0.00030300  0.66636400  0.66666700  1
  Ti  Ti7  1  0.33333300  0.33333300  0.66666700  1
  Ti  Ti8  1  0.66636400  0.00030300  0.66666700  1
  Fe  Fe9  1  0.32539544  0.99815426  0.33014084  1
  Fe  Fe10  1  0.66687243  0.66687243  0.32965880  1
  Fe  Fe11  1  0.99815426  0.32539544  0.33014084  1
  Fe  Fe12  1  0.34127156  0.66851174  0.00319216  1
  Fe  Fe13  1  0.66851174  0.34127156  0.00319216  1
  Fe  Fe14  1  0.99979357  0.99979357  0.00367520  1
  O  O15  1  0.82548512  0.82548512  0.43946558  1
  O  O16  1  0.49137713  0.83793908  0.10379221  1
  O  O17  1  0.83793908  0.49137713  0.10379221  1
  O  O18  1  0.84118188  0.84118188  0.89386842  1
  O  O19  1  0.50409883  0.85071219  0.56799295  1
  O  O20  1  0.85071219  0.50409883  0.56799295  1
  O  O21  1  0.17528887  0.82872692  0.22954079  1
  O  O22  1  0.51148533  0.51148533  0.24013387  1
  O  O23  1  0.82872692  0.17528887  0.22954079  1
  O  O24  1  0.16256817  0.81595381  0.76534105  1
  O  O25  1  0.48542179  0.48542179  0.76000450  1
  O  O26  1  0.81595381  0.16256817  0.76534105  1
  O  O27  1  0.16265777  0.50313217  0.44841666  1
  O  O28  1  0.50313217  0.16265777  0.44841666  1
  O  O29  1  0.15518167  0.15518167  0.09320013  1
  O  O30  1  0.16353383  0.50400923  0.88491734  1
  O  O31  1  0.50400923  0.16353383  0.88491734  1
  O  O32  1  0.18124521  0.18124521  0.57332850  1
