# generated using pymatgen
data_LiFeP2O7
_symmetry_space_group_name_H-M   'P 1'
_cell_length_a   6.26930747
_cell_length_b   6.26930747
_cell_length_c   14.02545603
_cell_angle_alpha   76.44427770
_cell_angle_beta   81.83694699
_cell_angle_gamma   99.08928922
_symmetry_Int_Tables_number   1
_chemical_formula_structural   LiFeP2O7
_chemical_formula_sum   'Li4 Fe4 P8 O28'
_cell_volume   519.89031196
_cell_formula_units_Z   4
loop_
 _symmetry_equiv_pos_site_id
 _symmetry_equiv_pos_as_xyz
  1  'x, y, z'
loop_
 _atom_site_type_symbol
 _atom_site_label
 _atom_site_symmetry_multiplicity
 _atom_site_fract_x
 _atom_site_fract_y
 _atom_site_fract_z
 _atom_site_occupancy
  Li  Li0  1  0.21405947  0.62304015  0.65565954  1
  Li  Li1  1  0.77869969  0.86971902  0.84434046  1
  Li  Li2  1  0.22130031  0.13028098  0.15565954  1
  Li  Li3  1  0.78594053  0.37695985  0.34434046  1
  Fe  Fe4  1  0.41290031  0.99321870  0.35258308  1
  Fe  Fe5  1  0.15419922  0.23451661  0.85258308  1
  Fe  Fe6  1  0.84580078  0.76548339  0.14741692  1
  Fe  Fe7  1  0.58709969  0.00678130  0.64741692  1
  P  P8  1  0.27805685  0.76545527  0.86630147  1
  P  P9  1  0.34525459  0.67674346  0.08730351  1
  P  P10  1  0.26404696  0.43255810  0.41269649  1
  P  P11  1  0.86824326  0.85564068  0.36630147  1
  P  P12  1  0.13175674  0.14435932  0.63369853  1
  P  P13  1  0.73595304  0.56744190  0.58730351  1
  P  P14  1  0.65474541  0.32325654  0.91269649  1
  P  P15  1  0.72194315  0.23454473  0.13369853  1
  O  O16  1  0.09413474  0.89863070  0.87909066  1
  O  O17  1  0.17678951  0.82405028  0.11178950  1
  O  O18  1  0.27772036  0.97322539  0.62090934  1
  O  O19  1  0.48494060  0.91141251  0.79222744  1
  O  O20  1  0.08148208  0.42538379  0.35667216  1
  O  O21  1  0.19463881  0.55798171  0.83236895  1
  O  O22  1  0.35330451  0.68636792  0.96880397  1
  O  O23  1  0.37860039  0.67009098  0.41249937  1
  O  O24  1  0.58259035  0.79109976  0.08750063  1
  O  O25  1  0.28205595  0.43815424  0.14332784  1
  O  O26  1  0.15517289  0.32210848  0.53119603  1
  O  O27  1  0.56416122  0.71142099  0.61178950  1
  O  O28  1  0.89035066  0.02700776  0.66763105  1
  O  O29  1  0.20363895  0.27716704  0.70777256  1
  O  O30  1  0.79636105  0.72283296  0.29222744  1
  O  O31  1  0.10964934  0.97299224  0.33236895  1
  O  O32  1  0.43583878  0.28857901  0.38821050  1
  O  O33  1  0.84482711  0.67789152  0.46880397  1
  O  O34  1  0.71794405  0.56184576  0.85667216  1
  O  O35  1  0.41740965  0.20890024  0.91249937  1
  O  O36  1  0.62139961  0.32990902  0.58750063  1
  O  O37  1  0.64669549  0.31363208  0.03119603  1
  O  O38  1  0.80536119  0.44201829  0.16763105  1
  O  O39  1  0.91851792  0.57461621  0.64332784  1
  O  O40  1  0.51505940  0.08858749  0.20777256  1
  O  O41  1  0.72227964  0.02677461  0.37909066  1
  O  O42  1  0.82321049  0.17594972  0.88821050  1
  O  O43  1  0.90586526  0.10136930  0.12090934  1
