# generated using pymatgen
data_RuC3SeO3
_symmetry_space_group_name_H-M   'P 1'
_cell_length_a   9.02854427
_cell_length_b   9.02854410
_cell_length_c   9.02854427
_cell_angle_alpha   109.47121869
_cell_angle_beta   109.47121837
_cell_angle_gamma   109.47122002
_symmetry_Int_Tables_number   1
_chemical_formula_structural   RuC3SeO3
_chemical_formula_sum   'Ru4 C12 Se4 O12'
_cell_volume   566.54097112
_cell_formula_units_Z   4
loop_
 _symmetry_equiv_pos_site_id
 _symmetry_equiv_pos_as_xyz
  1  'x, y, z'
loop_
 _atom_site_type_symbol
 _atom_site_label
 _atom_site_symmetry_multiplicity
 _atom_site_fract_x
 _atom_site_fract_y
 _atom_site_fract_z
 _atom_site_occupancy
  Ru  Ru0  1  0.73759900  0.73759900  0.73759900  1
  Ru  Ru1  1  0.00000000  0.00000000  0.26240100  1
  Ru  Ru2  1  0.26240100  0.00000000  0.00000000  1
  Ru  Ru3  1  0.00000000  0.26240100  0.00000000  1
  C  C4  1  1.00000000  0.18965811  0.44110326  1
  C  C5  1  0.25144516  0.81034189  0.81034189  1
  C  C6  1  0.18965811  0.44110326  1.00000000  1
  C  C7  1  0.55889674  0.55889674  0.74855484  1
  C  C8  1  1.00000000  0.44110326  0.18965811  1
  C  C9  1  0.44110326  1.00000000  0.18965811  1
  C  C10  1  0.44110326  0.18965811  1.00000000  1
  C  C11  1  0.74855484  0.55889674  0.55889674  1
  C  C12  1  0.18965811  1.00000000  0.44110326  1
  C  C13  1  0.81034189  0.81034189  0.25144516  1
  C  C14  1  0.81034189  0.25144516  0.81034189  1
  C  C15  1  0.55889674  0.74855484  0.55889674  1
  Se  Se16  1  0.76290152  1.00000000  1.00000000  1
  Se  Se17  1  1.00000000  1.00000000  0.76290152  1
  Se  Se18  1  1.00000000  0.76290152  1.00000000  1
  Se  Se19  1  0.23709848  0.23709848  0.23709848  1
  O  O20  1  0.00000000  0.54966193  0.30310771  1
  O  O21  1  0.54966193  0.30310771  0.00000000  1
  O  O22  1  0.45033807  0.75344578  0.45033807  1
  O  O23  1  0.45033807  0.45033807  0.75344578  1
  O  O24  1  0.30310771  0.00000000  0.54966193  1
  O  O25  1  0.69689229  0.69689229  0.24655422  1
  O  O26  1  0.24655422  0.69689229  0.69689229  1
  O  O27  1  0.75344578  0.45033807  0.45033807  1
  O  O28  1  0.30310771  0.54966193  0.00000000  1
  O  O29  1  0.54966193  0.00000000  0.30310771  1
  O  O30  1  0.00000000  0.30310771  0.54966193  1
  O  O31  1  0.69689229  0.24655422  0.69689229  1
