# generated using pymatgen
data_LiFe(PO3)4
_symmetry_space_group_name_H-M   'P 1'
_cell_length_a   14.15980046
_cell_length_b   9.02893837
_cell_length_c   7.16728315
_cell_angle_alpha   90.00000000
_cell_angle_beta   91.64889383
_cell_angle_gamma   90.00000000
_symmetry_Int_Tables_number   1
_chemical_formula_structural   LiFe(PO3)4
_chemical_formula_sum   'Li4 Fe4 P16 O48'
_cell_volume   915.94314289
_cell_formula_units_Z   4
loop_
 _symmetry_equiv_pos_site_id
 _symmetry_equiv_pos_as_xyz
  1  'x, y, z'
loop_
 _atom_site_type_symbol
 _atom_site_label
 _atom_site_symmetry_multiplicity
 _atom_site_fract_x
 _atom_site_fract_y
 _atom_site_fract_z
 _atom_site_occupancy
  Li  Li0  1  0.11799542  0.52392612  0.52975813  1
  Li  Li1  1  0.38200458  0.02392612  0.97024187  1
  Li  Li2  1  0.61799542  0.97607388  0.02975813  1
  Li  Li3  1  0.88200458  0.47607388  0.47024187  1
  Fe  Fe4  1  0.15898542  0.75826674  0.00875620  1
  Fe  Fe5  1  0.34101458  0.25826674  0.49124380  1
  Fe  Fe6  1  0.65898542  0.74173326  0.50875620  1
  Fe  Fe7  1  0.84101458  0.24173326  0.99124380  1
  P  P8  1  0.04021975  0.25673954  0.25169732  1
  P  P9  1  0.05765136  0.32820514  0.86144801  1
  P  P10  1  0.18176066  0.07886768  0.75500014  1
  P  P11  1  0.17724833  0.01005140  0.35929835  1
  P  P12  1  0.31823934  0.57886768  0.74499986  1
  P  P13  1  0.32275167  0.51005140  0.14070165  1
  P  P14  1  0.44234864  0.82820514  0.63855199  1
  P  P15  1  0.45978025  0.75673954  0.24830268  1
  P  P16  1  0.54021975  0.24326046  0.75169732  1
  P  P17  1  0.55765136  0.17179486  0.36144801  1
  P  P18  1  0.67724833  0.48994860  0.85929835  1
  P  P19  1  0.68176066  0.42113232  0.25500014  1
  P  P20  1  0.82275167  0.98994860  0.64070165  1
  P  P21  1  0.81823934  0.92113232  0.24499986  1
  P  P22  1  0.94234864  0.67179486  0.13855199  1
  P  P23  1  0.95978025  0.74326046  0.74830268  1
  O  O24  1  0.04907635  0.66299715  0.14512608  1
  O  O25  1  0.06123588  0.77546558  0.80563507  1
  O  O26  1  0.05867502  0.35642621  0.41328911  1
  O  O27  1  0.08318120  0.16463453  0.78167964  1
  O  O28  1  0.08428445  0.09430725  0.28510619  1
  O  O29  1  0.09654500  0.31634577  0.07565154  1
  O  O30  1  0.11117432  0.45003995  0.77545266  1
  O  O31  1  0.15540311  0.97869616  0.57495099  1
  O  O32  1  0.17772401  0.86291096  0.26274231  1
  O  O33  1  0.20025394  0.97752899  0.92031560  1
  O  O34  1  0.24200220  0.68935608  0.78777593  1
  O  O35  1  0.23624903  0.60576964  0.15165429  1
  O  O36  1  0.25799780  0.18935608  0.71222407  1
  O  O37  1  0.26375097  0.10576964  0.34834571  1
  O  O38  1  0.29974606  0.47752899  0.57968440  1
  O  O39  1  0.34459689  0.47869616  0.92504901  1
  O  O40  1  0.32227599  0.36291096  0.23725869  1
  O  O41  1  0.38882568  0.95003995  0.72454734  1
  O  O42  1  0.40345500  0.81634577  0.42434846  1
  O  O43  1  0.41681880  0.66463453  0.71832036  1
  O  O44  1  0.41571555  0.59430725  0.21489381  1
  O  O45  1  0.44132498  0.85642621  0.08671089  1
  O  O46  1  0.43876412  0.27546558  0.69436493  1
  O  O47  1  0.45092365  0.16299715  0.35487392  1
  O  O48  1  0.54907635  0.83700285  0.64512608  1
  O  O49  1  0.56123588  0.72453442  0.30563507  1
  O  O50  1  0.55867502  0.14357379  0.91328911  1
  O  O51  1  0.58428445  0.40569275  0.78510619  1
  O  O52  1  0.58318120  0.33536547  0.28167964  1
  O  O53  1  0.59654500  0.18365423  0.57565154  1
  O  O54  1  0.61117432  0.04996005  0.27545266  1
  O  O55  1  0.67772401  0.63708904  0.76274231  1
  O  O56  1  0.65540311  0.52130384  0.07495099  1
  O  O57  1  0.70025394  0.52247101  0.42031560  1
  O  O58  1  0.73624903  0.89423036  0.65165429  1
  O  O59  1  0.74200220  0.81064392  0.28777593  1
  O  O60  1  0.76375097  0.39423036  0.84834571  1
  O  O61  1  0.75799780  0.31064392  0.21222407  1
  O  O62  1  0.79974606  0.02247101  0.07968440  1
  O  O63  1  0.82227599  0.13708904  0.73725769  1
  O  O64  1  0.84459689  0.02130384  0.42504901  1
  O  O65  1  0.88882568  0.54996005  0.22454734  1
  O  O66  1  0.90345500  0.68365423  0.92434846  1
  O  O67  1  0.91571555  0.90569275  0.71489381  1
  O  O68  1  0.91681880  0.83536547  0.21832036  1
  O  O69  1  0.94132498  0.64357379  0.58671089  1
  O  O70  1  0.93876412  0.22453442  0.19436493  1
  O  O71  1  0.95092365  0.33700285  0.85487392  1
