# generated using pymatgen
data_Li4Mn2Nb3V3O16
_symmetry_space_group_name_H-M   'P 1'
_cell_length_a   6.10552810
_cell_length_b   6.10847958
_cell_length_c   10.07097440
_cell_angle_alpha   89.99926226
_cell_angle_beta   89.94008974
_cell_angle_gamma   120.01315962
_symmetry_Int_Tables_number   1
_chemical_formula_structural   Li4Mn2Nb3V3O16
_chemical_formula_sum   'Li4 Mn2 Nb3 V3 O16'
_cell_volume   325.23745831
_cell_formula_units_Z   1
loop_
 _symmetry_equiv_pos_site_id
 _symmetry_equiv_pos_as_xyz
  1  'x, y, z'
loop_
 _atom_site_type_symbol
 _atom_site_label
 _atom_site_symmetry_multiplicity
 _atom_site_fract_x
 _atom_site_fract_y
 _atom_site_fract_z
 _atom_site_occupancy
  Li  Li0  1  0.33136152  0.66572898  0.90134969  1
  Li  Li1  1  0.00898400  0.00450437  0.00350840  1
  Li  Li2  1  0.01778812  0.00884318  0.49152042  1
  Li  Li3  1  0.66932113  0.33466816  0.38383286  1
  Mn  Mn4  1  0.31702319  0.65849623  0.48593114  1
  Mn  Mn5  1  0.65384252  0.32700359  0.01221288  1
  Nb  Nb6  1  0.65895456  0.82953101  0.21794208  1
  Nb  Nb7  1  0.82572469  0.66049231  0.71564280  1
  Nb  Nb8  1  0.82579206  0.16519607  0.71569644  1
  V  V9  1  0.16652487  0.82571204  0.21253372  1
  V  V10  1  0.16649473  0.34092041  0.21251376  1
  V  V11  1  0.33588973  0.16790118  0.71381230  1
  O  O12  1  0.15210562  0.84278115  0.60864849  1
  O  O13  1  0.03526022  0.51759515  0.32725850  1
  O  O14  1  0.35124828  0.67564305  0.09889770  1
  O  O15  1  0.99265778  0.99642706  0.31367407  1
  O  O16  1  0.99424499  0.99706380  0.81935750  1
  O  O17  1  0.15209313  0.30923017  0.60862654  1
  O  O18  1  0.48866345  0.97025474  0.33062501  1
  O  O19  1  0.48875020  0.51854402  0.33061257  1
  O  O20  1  0.30672325  0.15347381  0.11257668  1
  O  O21  1  0.68679664  0.84337091  0.60174124  1
  O  O22  1  0.51971795  0.48970693  0.82672279  1
  O  O23  1  0.51974976  0.03001956  0.82673350  1
  O  O24  1  0.67697898  0.33845526  0.60061927  1
  O  O25  1  0.84329423  0.68722796  0.10394167  1
  O  O26  1  0.97076822  0.48534381  0.82737095  1
  O  O27  1  0.84324717  0.15616209  0.10393604  1
