# generated using pymatgen
data_LiCoSiO4
_symmetry_space_group_name_H-M   'P 1'
_cell_length_a   5.08607991
_cell_length_b   10.08304077
_cell_length_c   6.78546168
_cell_angle_alpha   90.00000000
_cell_angle_beta   89.50555023
_cell_angle_gamma   90.00000000
_symmetry_Int_Tables_number   1
_chemical_formula_structural   LiCoSiO4
_chemical_formula_sum   'Li4 Co4 Si4 O16'
_cell_volume   347.96689851
_cell_formula_units_Z   4
loop_
 _symmetry_equiv_pos_site_id
 _symmetry_equiv_pos_as_xyz
  1  'x, y, z'
loop_
 _atom_site_type_symbol
 _atom_site_label
 _atom_site_symmetry_multiplicity
 _atom_site_fract_x
 _atom_site_fract_y
 _atom_site_fract_z
 _atom_site_occupancy
  Li  Li0  1  0.19855639  0.35951318  0.00840540  1
  Li  Li1  1  0.30144361  0.85951318  0.49159460  1
  Li  Li2  1  0.69855639  0.14048682  0.50840540  1
  Li  Li3  1  0.80144361  0.64048682  0.99159460  1
  Co  Co4  1  0.19445199  0.32360861  0.50447287  1
  Co  Co5  1  0.30554801  0.82360861  0.99552713  1
  Co  Co6  1  0.69445199  0.17639139  0.00447287  1
  Co  Co7  1  0.80554801  0.67639139  0.49552713  1
  Si  Si8  1  0.19856187  0.09281921  0.77209946  1
  Si  Si9  1  0.30143813  0.59281921  0.72790054  1
  Si  Si10  1  0.69856187  0.40718079  0.27209946  1
  Si  Si11  1  0.80143813  0.90718079  0.22790054  1
  O  O12  1  0.11957638  0.87577201  0.22081774  1
  O  O13  1  0.16359160  0.67497574  0.54720755  1
  O  O14  1  0.18904711  0.64976785  0.94039928  1
  O  O15  1  0.24040535  0.43366163  0.72253116  1
  O  O16  1  0.25959465  0.93366163  0.77746884  1
  O  O17  1  0.31095289  0.14976785  0.55960072  1
  O  O18  1  0.33640840  0.17497574  0.95279245  1
  O  O19  1  0.38042362  0.37577201  0.27918226  1
  O  O20  1  0.61957638  0.62422799  0.72081774  1
  O  O21  1  0.66359160  0.82502426  0.04720755  1
  O  O22  1  0.68904711  0.85023215  0.44039928  1
  O  O23  1  0.74040535  0.06633837  0.22253116  1
  O  O24  1  0.75959465  0.56633837  0.27746884  1
  O  O25  1  0.81095289  0.35023215  0.05960072  1
  O  O26  1  0.83640840  0.32502426  0.45279245  1
  O  O27  1  0.88042362  0.12422799  0.77918226  1
