# generated using pymatgen
data_LiMn2(CO4)2
_symmetry_space_group_name_H-M   'P 1'
_cell_length_a   6.40854070
_cell_length_b   9.24858152
_cell_length_c   9.34535858
_cell_angle_alpha   90.00000000
_cell_angle_beta   88.22767635
_cell_angle_gamma   90.00000000
_symmetry_Int_Tables_number   1
_chemical_formula_structural   LiMn2(CO4)2
_chemical_formula_sum   'Li4 Mn8 C8 O32'
_cell_volume   553.63359641
_cell_formula_units_Z   4
loop_
 _symmetry_equiv_pos_site_id
 _symmetry_equiv_pos_as_xyz
  1  'x, y, z'
loop_
 _atom_site_type_symbol
 _atom_site_label
 _atom_site_symmetry_multiplicity
 _atom_site_fract_x
 _atom_site_fract_y
 _atom_site_fract_z
 _atom_site_occupancy
  Li  Li0  1  0.12603164  0.31762177  0.89902255  1
  Li  Li1  1  0.37396836  0.81762177  0.60097745  1
  Li  Li2  1  0.62603164  0.18237823  0.39902255  1
  Li  Li3  1  0.87396836  0.68237823  0.10097745  1
  Mn  Mn4  1  0.12471939  0.94807058  0.87727166  1
  Mn  Mn5  1  0.12761106  0.57013784  0.38463643  1
  Mn  Mn6  1  0.37528061  0.44807058  0.62272834  1
  Mn  Mn7  1  0.37238894  0.07013784  0.11536357  1
  Mn  Mn8  1  0.62761106  0.92986216  0.88463643  1
  Mn  Mn9  1  0.62471939  0.55192942  0.37727166  1
  Mn  Mn10  1  0.87238894  0.42986216  0.61536357  1
  Mn  Mn11  1  0.87528061  0.05192942  0.12272834  1
  C  C12  1  0.13539703  0.64021870  0.83951299  1
  C  C13  1  0.12073023  0.86628628  0.33240613  1
  C  C14  1  0.36460297  0.14021870  0.66048701  1
  C  C15  1  0.37926977  0.36628628  0.16759387  1
  C  C16  1  0.62073023  0.63371372  0.83240613  1
  C  C17  1  0.63539703  0.85978130  0.33951299  1
  C  C18  1  0.87926977  0.13371372  0.66759387  1
  C  C19  1  0.86460297  0.35978130  0.16048701  1
  O  O20  1  0.15052045  0.51927371  0.75777548  1
  O  O21  1  0.14780730  0.76273098  0.76849512  1
  O  O22  1  0.10488289  0.62823876  0.96945852  1
  O  O23  1  0.10424212  0.11539909  0.99929769  1
  O  O24  1  0.11037953  0.98575168  0.24954095  1
  O  O25  1  0.09685023  0.74243971  0.26520201  1
  O  O26  1  0.15515509  0.87458557  0.46141640  1
  O  O27  1  0.14192444  0.40064582  0.50564837  1
  O  O28  1  0.39575788  0.61539909  0.50070231  1
  O  O29  1  0.39511711  0.12823876  0.53054148  1
  O  O30  1  0.35219270  0.26273098  0.73150488  1
  O  O31  1  0.34948055  0.01927371  0.74222452  1
  O  O32  1  0.35807556  0.90064582  0.99435163  1
  O  O33  1  0.34484491  0.37458557  0.03858360  1
  O  O34  1  0.40314977  0.24243971  0.23479799  1
  O  O35  1  0.38962047  0.48575168  0.25045905  1
  O  O36  1  0.61037953  0.51424832  0.74954095  1
  O  O37  1  0.59685023  0.75756029  0.76520201  1
  O  O38  1  0.65515509  0.62541443  0.96141640  1
  O  O39  1  0.64192444  0.09935418  0.00564837  1
  O  O40  1  0.65051945  0.98072629  0.25777548  1
  O  O41  1  0.64780730  0.73726902  0.26849512  1
  O  O42  1  0.60488289  0.87176124  0.46945852  1
  O  O43  1  0.60424212  0.38460091  0.49929769  1
  O  O44  1  0.85807556  0.59935418  0.49435163  1
  O  O45  1  0.84484491  0.12541443  0.53858360  1
  O  O46  1  0.90314977  0.25756029  0.73479799  1
  O  O47  1  0.88962047  0.01424832  0.75045905  1
  O  O48  1  0.89575788  0.88460091  0.00070231  1
  O  O49  1  0.89511711  0.37176124  0.03054148  1
  O  O50  1  0.85219270  0.23726902  0.23150488  1
  O  O51  1  0.84948055  0.48072629  0.24222452  1
