# generated using pymatgen
data_FeOF
_symmetry_space_group_name_H-M   'P 1'
_cell_length_a   14.24224863
_cell_length_b   9.51866751
_cell_length_c   3.09866466
_cell_angle_alpha   90.00000000
_cell_angle_beta   90.00000000
_cell_angle_gamma   90.36493825
_symmetry_Int_Tables_number   1
_chemical_formula_structural   FeOF
_chemical_formula_sum   'Fe12 O12 F12'
_cell_volume   420.06886143
_cell_formula_units_Z   12
loop_
 _symmetry_equiv_pos_site_id
 _symmetry_equiv_pos_as_xyz
  1  'x, y, z'
loop_
 _atom_site_type_symbol
 _atom_site_label
 _atom_site_symmetry_multiplicity
 _atom_site_fract_x
 _atom_site_fract_y
 _atom_site_fract_z
 _atom_site_occupancy
  Fe  Fe0  1  0.00419752  0.00631300  0.00000000  1
  Fe  Fe1  1  0.00711673  0.49378319  0.00000000  1
  Fe  Fe2  1  0.14989886  0.24968804  0.50000000  1
  Fe  Fe3  1  0.16796659  0.78395822  0.50000000  1
  Fe  Fe4  1  0.33400151  0.00003364  0.00000000  1
  Fe  Fe5  1  0.34401844  0.49812124  0.00000000  1
  Fe  Fe6  1  0.50068531  0.72476959  0.50000000  1
  Fe  Fe7  1  0.48477387  0.24394210  0.50000000  1
  Fe  Fe8  1  0.67961267  0.99771227  0.00000000  1
  Fe  Fe9  1  0.66775447  0.51370129  0.00000000  1
  Fe  Fe10  1  0.83472878  0.22098228  0.50000000  1
  Fe  Fe11  1  0.81970172  0.74782487  0.50000000  1
  O  O12  1  0.06421297  0.40965451  0.50000000  1
  O  O13  1  0.06490407  0.90312622  0.50000000  1
  O  O14  1  0.10501173  0.15589693  0.00000000  1
  O  O15  1  0.23850856  0.85765207  0.00000000  1
  O  O16  1  0.39824768  0.40288076  0.50000000  1
  O  O17  1  0.43124883  0.14551775  0.00000000  1
  O  O18  1  0.43168358  0.65771724  0.00000000  1
  O  O19  1  0.60255812  0.59321890  0.50000000  1
  O  O20  1  0.72933559  0.90140903  0.50000000  1
  O  O21  1  0.76588385  0.15429180  0.00000000  1
  O  O22  1  0.77254284  0.64558732  0.00000000  1
  O  O23  1  0.93635518  0.09586994  0.50000000  1
  F  F24  1  0.10326531  0.65738101  0.00000000  1
  F  F25  1  0.23174412  0.35041887  0.00000000  1
  F  F26  1  0.27010639  0.10380618  0.50000000  1
  F  F27  1  0.26438309  0.59622513  0.50000000  1
  F  F28  1  0.40203878  0.90464421  0.50000000  1
  F  F29  1  0.56603734  0.33952199  0.00000000  1
  F  F30  1  0.56243761  0.85091391  0.00000000  1
  F  F31  1  0.59882952  0.09744858  0.50000000  1
  F  F32  1  0.73191994  0.39946808  0.50000000  1
  F  F33  1  0.89762216  0.35399884  0.00000000  1
  F  F34  1  0.89777590  0.84136881  0.00000000  1
  F  F35  1  0.93888938  0.60115220  0.50000000  1
