# generated using pymatgen
data_FeOF
_symmetry_space_group_name_H-M   'P 1'
_cell_length_a   14.28154761
_cell_length_b   14.39864244
_cell_length_c   3.09524248
_cell_angle_alpha   90.00000000
_cell_angle_beta   90.00000000
_cell_angle_gamma   90.34178707
_symmetry_Int_Tables_number   1
_chemical_formula_structural   FeOF
_chemical_formula_sum   'Fe18 O18 F18'
_cell_volume   636.47854551
_cell_formula_units_Z   18
loop_
 _symmetry_equiv_pos_site_id
 _symmetry_equiv_pos_as_xyz
  1  'x, y, z'
loop_
 _atom_site_type_symbol
 _atom_site_label
 _atom_site_symmetry_multiplicity
 _atom_site_fract_x
 _atom_site_fract_y
 _atom_site_fract_z
 _atom_site_occupancy
  Fe  Fe0  1  0.01400547  0.00065220  0.00000000  1
  Fe  Fe1  1  0.00579313  0.33770905  0.00000000  1
  Fe  Fe2  1  0.01305519  0.66515251  0.00000000  1
  Fe  Fe3  1  0.17349016  0.14527782  0.50000000  1
  Fe  Fe4  1  0.15413078  0.49897694  0.50000000  1
  Fe  Fe5  1  0.15280141  0.83278979  0.50000000  1
  Fe  Fe6  1  0.34095232  0.00449779  0.00000000  1
  Fe  Fe7  1  0.34592960  0.33115610  0.00000000  1
  Fe  Fe8  1  0.34832653  0.66802288  0.00000000  1
  Fe  Fe9  1  0.48543403  0.49951383  0.50000000  1
  Fe  Fe10  1  0.48664690  0.16586469  0.50000000  1
  Fe  Fe11  1  0.48183677  0.83848666  0.50000000  1
  Fe  Fe12  1  0.67847980  0.99771318  0.00000000  1
  Fe  Fe13  1  0.67982733  0.33108101  0.00000000  1
  Fe  Fe14  1  0.67688881  0.66850802  0.00000000  1
  Fe  Fe15  1  0.81910641  0.16420400  0.50000000  1
  Fe  Fe16  1  0.81450382  0.50288452  0.50000000  1
  Fe  Fe17  1  0.81989795  0.83344349  0.50000000  1
  O  O18  1  0.06454320  0.59924019  0.50000000  1
  O  O19  1  0.06447103  0.93639726  0.50000000  1
  O  O20  1  0.10025941  0.10570240  0.00000000  1
  O  O21  1  0.10000997  0.43177493  0.00000000  1
  O  O22  1  0.10062035  0.76764460  0.00000000  1
  O  O23  1  0.27206259  0.06142332  0.50000000  1
  O  O24  1  0.39718291  0.26960965  0.50000000  1
  O  O25  1  0.39743495  0.60236649  0.50000000  1
  O  O26  1  0.39690314  0.93675698  0.50000000  1
  O  O27  1  0.44050556  0.10301281  0.00000000  1
  O  O28  1  0.43523623  0.43559272  0.00000000  1
  O  O29  1  0.43538489  0.77000904  0.00000000  1
  O  O30  1  0.73407800  0.26945584  0.50000000  1
  O  O31  1  0.72862056  0.60474073  0.50000000  1
  O  O32  1  0.73202220  0.93587335  0.50000000  1
  O  O33  1  0.76908501  0.10209183  0.00000000  1
  O  O34  1  0.76944026  0.43549067  0.00000000  1
  O  O35  1  0.76898111  0.76915540  0.00000000  1
  F  F36  1  0.06249477  0.26989683  0.50000000  1
  F  F37  1  0.22975010  0.23515687  0.00000000  1
  F  F38  1  0.22966357  0.56289534  0.00000000  1
  F  F39  1  0.22984266  0.89331043  0.00000000  1
  F  F40  1  0.26801034  0.72917647  0.50000000  1
  F  F41  1  0.26660593  0.39998545  0.50000000  1
  F  F42  1  0.56753349  0.23495222  0.00000000  1
  F  F43  1  0.56488592  0.56566437  0.00000000  1
  F  F44  1  0.56600103  0.90047487  0.00000000  1
  F  F45  1  0.60467818  0.06506761  0.50000000  1
  F  F46  1  0.60357142  0.39814031  0.50000000  1
  F  F47  1  0.60208955  0.73149618  0.50000000  1
  F  F48  1  0.90370941  0.23497412  0.00000000  1
  F  F49  1  0.89807813  0.56476370  0.00000000  1
  F  F50  1  0.89879296  0.89912389  0.00000000  1
  F  F51  1  0.93478212  0.06654637  0.50000000  1
  F  F52  1  0.93572120  0.39654152  0.50000000  1
  F  F53  1  0.93584145  0.72956274  0.50000000  1
