# generated using pymatgen
data_FeOF
_symmetry_space_group_name_H-M   'P 1'
_cell_length_a   14.26229525
_cell_length_b   9.55447016
_cell_length_c   3.08760497
_cell_angle_alpha   90.00000000
_cell_angle_beta   90.00000000
_cell_angle_gamma   90.31775775
_symmetry_Int_Tables_number   1
_chemical_formula_structural   FeOF
_chemical_formula_sum   'Fe12 O12 F12'
_cell_volume   420.73736578
_cell_formula_units_Z   12
loop_
 _symmetry_equiv_pos_site_id
 _symmetry_equiv_pos_as_xyz
  1  'x, y, z'
loop_
 _atom_site_type_symbol
 _atom_site_label
 _atom_site_symmetry_multiplicity
 _atom_site_fract_x
 _atom_site_fract_y
 _atom_site_fract_z
 _atom_site_occupancy
  Fe  Fe0  1  0.01426667  0.99898144  0.00000000  1
  Fe  Fe1  1  0.00297221  0.50024866  0.00000000  1
  Fe  Fe2  1  0.17217081  0.21902989  0.50000000  1
  Fe  Fe3  1  0.15129497  0.74327207  0.50000000  1
  Fe  Fe4  1  0.34101306  0.00547319  0.00000000  1
  Fe  Fe5  1  0.34367336  0.49711979  0.00000000  1
  Fe  Fe6  1  0.47999825  0.74957510  0.50000000  1
  Fe  Fe7  1  0.48413238  0.25024014  0.50000000  1
  Fe  Fe8  1  0.67317586  0.99412897  0.00000000  1
  Fe  Fe9  1  0.67732473  0.49671605  0.00000000  1
  Fe  Fe10  1  0.84008710  0.27785245  0.50000000  1
  Fe  Fe11  1  0.81724683  0.75087494  0.50000000  1
  O  O12  1  0.06196804  0.89984435  0.50000000  1
  O  O13  1  0.09843743  0.15812961  0.00000000  1
  O  O14  1  0.09760958  0.64389667  0.00000000  1
  O  O15  1  0.27062450  0.09174950  0.50000000  1
  O  O16  1  0.39567212  0.40515419  0.50000000  1
  O  O17  1  0.39745200  0.90222287  0.50000000  1
  O  O18  1  0.44352006  0.15235038  0.00000000  1
  O  O19  1  0.43424896  0.65100678  0.00000000  1
  O  O20  1  0.73152548  0.40054841  0.50000000  1
  O  O21  1  0.73211429  0.91182608  0.50000000  1
  O  O22  1  0.76766703  0.65592980  0.00000000  1
  O  O23  1  0.90490662  0.35446384  0.00000000  1
  F  F24  1  0.06716011  0.40558344  0.50000000  1
  F  F25  1  0.22995115  0.35097395  0.00000000  1
  F  F26  1  0.22699111  0.83373162  0.00000000  1
  F  F27  1  0.26405454  0.59526197  0.50000000  1
  F  F28  1  0.56712070  0.35156777  0.00000000  1
  F  F29  1  0.56693518  0.85166005  0.00000000  1
  F  F30  1  0.60849273  0.10193087  0.50000000  1
  F  F31  1  0.60210734  0.59648647  0.50000000  1
  F  F32  1  0.77142079  0.15761812  0.00000000  1
  F  F33  1  0.89631199  0.84793507  0.00000000  1
  F  F34  1  0.93076911  0.09650576  0.50000000  1
  F  F35  1  0.93558389  0.60010472  0.50000000  1
