# generated using pymatgen
data_Fe2OF3
_symmetry_space_group_name_H-M   'P 1'
_cell_length_a   4.86401734
_cell_length_b   4.86401734
_cell_length_c   12.40846342
_cell_angle_alpha   90.00000000
_cell_angle_beta   90.00000000
_cell_angle_gamma   91.27105207
_symmetry_Int_Tables_number   1
_chemical_formula_structural   Fe2OF3
_chemical_formula_sum   'Fe8 O4 F12'
_cell_volume   293.49544176
_cell_formula_units_Z   4
loop_
 _symmetry_equiv_pos_site_id
 _symmetry_equiv_pos_as_xyz
  1  'x, y, z'
loop_
 _atom_site_type_symbol
 _atom_site_label
 _atom_site_symmetry_multiplicity
 _atom_site_fract_x
 _atom_site_fract_y
 _atom_site_fract_z
 _atom_site_occupancy
  Fe  Fe0  1  0.97196202  0.97196202  0.00000000  1
  Fe  Fe1  1  0.02409548  0.02409548  0.25035291  1
  Fe  Fe2  1  0.01025766  0.01025766  0.50000000  1
  Fe  Fe3  1  0.02409548  0.02409548  0.74964709  1
  Fe  Fe4  1  0.47458871  0.47458871  0.62492295  1
  Fe  Fe5  1  0.50019355  0.50019355  0.12434981  1
  Fe  Fe6  1  0.50019355  0.50019355  0.87565019  1
  Fe  Fe7  1  0.47458871  0.47458871  0.37507705  1
  O  O8  1  0.31230591  0.31230591  0.50000000  1
  O  O9  1  0.32084047  0.32084047  0.24644025  1
  O  O10  1  0.32084047  0.32084047  0.75355975  1
  O  O11  1  0.66884917  0.66884917  0.00000000  1
  F  F12  1  0.20161847  0.79326818  0.12418337  1
  F  F13  1  0.21119947  0.79468904  0.37585455  1
  F  F14  1  0.21119947  0.79468904  0.62414545  1
  F  F15  1  0.20161847  0.79326818  0.87581663  1
  F  F16  1  0.29290255  0.29290255  0.00000000  1
  F  F17  1  0.70513925  0.70513925  0.25120683  1
  F  F18  1  0.69245746  0.69245746  0.50000000  1
  F  F19  1  0.70513925  0.70513925  0.74879317  1
  F  F20  1  0.79468904  0.21119947  0.37585455  1
  F  F21  1  0.79468904  0.21119947  0.62414545  1
  F  F22  1  0.79326818  0.20161847  0.12418337  1
  F  F23  1  0.79326818  0.20161847  0.87581663  1
