# generated using pymatgen
data_LiMnF3
_symmetry_space_group_name_H-M   'P 1'
_cell_length_a   7.00079964
_cell_length_b   8.05082168
_cell_length_c   21.51586594
_cell_angle_alpha   97.01785348
_cell_angle_beta   82.39544826
_cell_angle_gamma   91.26307563
_symmetry_Int_Tables_number   1
_chemical_formula_structural   LiMnF3
_chemical_formula_sum   'Li18 Mn18 F54'
_cell_volume   1192.98920113
_cell_formula_units_Z   18
loop_
 _symmetry_equiv_pos_site_id
 _symmetry_equiv_pos_as_xyz
  1  'x, y, z'
loop_
 _atom_site_type_symbol
 _atom_site_label
 _atom_site_symmetry_multiplicity
 _atom_site_fract_x
 _atom_site_fract_y
 _atom_site_fract_z
 _atom_site_occupancy
  Li  Li0  1  0.25327676  0.70328273  0.13430558  1
  Li  Li1  1  0.10230953  0.29330873  0.70441169  1
  Li  Li2  1  0.33990308  0.39818892  0.34842941  1
  Li  Li3  1  0.25196330  0.30924688  0.55381918  1
  Li  Li4  1  0.17313644  0.99602690  0.91250436  1
  Li  Li5  1  0.46308094  0.43106537  0.20287089  1
  Li  Li6  1  0.62133124  0.28102014  0.01810239  1
  Li  Li7  1  0.30328232  0.02055040  0.76794959  1
  Li  Li8  1  0.48662340  0.86550627  0.57861162  1
  Li  Li9  1  0.51337660  0.13449373  0.42138838  1
  Li  Li10  1  0.69671768  0.97944960  0.23205041  1
  Li  Li11  1  0.37866876  0.71897986  0.98189761  1
  Li  Li12  1  0.53691906  0.56893463  0.79712911  1
  Li  Li13  1  0.82686356  0.00397310  0.08749564  1
  Li  Li14  1  0.74803670  0.69075312  0.44618082  1
  Li  Li15  1  0.66009692  0.60181108  0.65157059  1
  Li  Li16  1  0.89769047  0.70669127  0.29558831  1
  Li  Li17  1  0.74672324  0.29671727  0.86569442  1
  Mn  Mn18  1  0.10759871  0.35203569  0.03305385  1
  Mn  Mn19  1  0.05979277  0.00980341  0.41686443  1
  Mn  Mn20  1  0.19849374  0.04724809  0.25946341  1
  Mn  Mn21  1  0.00925869  0.66970542  0.81234718  1
  Mn  Mn22  1  0.23576159  0.69261364  0.49161983  1
  Mn  Mn23  1  0.39695598  0.03839134  0.09719017  1
  Mn  Mn24  1  0.15010184  0.67648186  0.65243750  1
  Mn  Mn25  1  0.42991043  0.75689245  0.33607026  1
  Mn  Mn26  1  0.24465330  0.35961366  0.86481900  1
  Mn  Mn27  1  0.75534670  0.64038634  0.13518100  1
  Mn  Mn28  1  0.57008957  0.24310755  0.66392974  1
  Mn  Mn29  1  0.84989816  0.32351814  0.34756250  1
  Mn  Mn30  1  0.60304402  0.96160866  0.90280983  1
  Mn  Mn31  1  0.76423841  0.30738636  0.50838017  1
  Mn  Mn32  1  0.99074131  0.33029458  0.18765282  1
  Mn  Mn33  1  0.80150626  0.95275191  0.74053659  1
  Mn  Mn34  1  0.94020723  0.99019659  0.58313557  1
  Mn  Mn35  1  0.89240129  0.64796431  0.96694615  1
  F  F36  1  0.02198725  0.16897615  0.09961791  1
  F  F37  1  0.05853400  0.52901161  0.12736798  1
  F  F38  1  0.09600557  0.86381571  0.32662942  1
  F  F39  1  0.18988602  0.92533399  0.17368861  1
  F  F40  1  0.03649725  0.17116476  0.51585868  1
  F  F41  1  0.13889100  0.21591229  0.35510614  1
  F  F42  1  0.36994452  0.78849768  0.06496673  1
  F  F43  1  0.03438143  0.52188641  0.71799516  1
  F  F44  1  0.27100140  0.25341630  0.20537882  1
  F  F45  1  0.14646578  0.53109627  0.56002409  1
  F  F46  1  0.10356764  0.85841663  0.73868391  1
  F  F47  1  0.36698032  0.28841371  0.06287959  1
  F  F48  1  0.25826357  0.60037577  0.40065512  1
  F  F49  1  0.20824700  0.87966564  0.57688674  1
  F  F50  1  0.34137167  0.94644980  0.42238718  1
  F  F51  1  0.46449752  0.61633199  0.16026555  1
  F  F52  1  0.46054425  0.97242995  0.28834482  1
  F  F53  1  0.43197577  0.52903502  0.28604916  1
  F  F54  1  0.11869413  0.22360897  0.93949991  1
  F  F55  1  0.19713674  0.23482894  0.77448311  1
  F  F56  1  0.29714506  0.25931583  0.63324383  1
  F  F57  1  0.18204975  0.55038563  0.97074011  1
  F  F58  1  0.27776672  0.60976820  0.82784231  1
  F  F59  1  0.62107724  0.98531842  0.15453536  1
  F  F60  1  0.47713833  0.27697066  0.49818293  1
  F  F61  1  0.34160606  0.93101583  0.96135789  1
  F  F62  1  0.55893735  0.29308103  0.36432353  1
  F  F63  1  0.44106265  0.70691897  0.63567647  1
  F  F64  1  0.65839394  0.06898417  0.03864211  1
  F  F65  1  0.52286167  0.72302934  0.50181707  1
  F  F66  1  0.37892276  0.01468158  0.84546464  1
  F  F67  1  0.72223328  0.39023180  0.17215769  1
  F  F68  1  0.81795025  0.44961437  0.02925989  1
  F  F69  1  0.70285494  0.74068417  0.36675617  1
  F  F70  1  0.80286326  0.76517106  0.22551689  1
  F  F71  1  0.88130587  0.77639103  0.06050009  1
  F  F72  1  0.56802423  0.47096498  0.71395084  1
  F  F73  1  0.53945575  0.02757005  0.71165518  1
  F  F74  1  0.53550248  0.38366801  0.83973445  1
  F  F75  1  0.65862833  0.05355020  0.57761282  1
  F  F76  1  0.79175300  0.12033436  0.42311326  1
  F  F77  1  0.74173643  0.39962423  0.59934488  1
  F  F78  1  0.63301968  0.71158629  0.93712041  1
  F  F79  1  0.89643236  0.14158337  0.26131609  1
  F  F80  1  0.85353422  0.46890373  0.43997591  1
  F  F81  1  0.72899860  0.74658370  0.79462118  1
  F  F82  1  0.96561857  0.47811359  0.28200484  1
  F  F83  1  0.63005548  0.21150232  0.93503327  1
  F  F84  1  0.86110900  0.78408771  0.64489386  1
  F  F85  1  0.96350275  0.82883524  0.48414132  1
  F  F86  1  0.81011398  0.07466601  0.82631139  1
  F  F87  1  0.90399443  0.13618429  0.67337058  1
  F  F88  1  0.94146600  0.47098839  0.87263202  1
  F  F89  1  0.97801275  0.83102385  0.90038209  1
