# generated using pymatgen
data_FeOF
_symmetry_space_group_name_H-M   'P 1'
_cell_length_a   9.46413633
_cell_length_b   14.21879778
_cell_length_c   3.11168410
_cell_angle_alpha   90.00000000
_cell_angle_beta   90.00000000
_cell_angle_gamma   89.94056945
_symmetry_Int_Tables_number   1
_chemical_formula_structural   FeOF
_chemical_formula_sum   'Fe12 O12 F12'
_cell_volume   418.73487393
_cell_formula_units_Z   12
loop_
 _symmetry_equiv_pos_site_id
 _symmetry_equiv_pos_as_xyz
  1  'x, y, z'
loop_
 _atom_site_type_symbol
 _atom_site_label
 _atom_site_symmetry_multiplicity
 _atom_site_fract_x
 _atom_site_fract_y
 _atom_site_fract_z
 _atom_site_occupancy
  Fe  Fe0  1  0.01509531  0.99872347  0.00000000  1
  Fe  Fe1  1  0.02633448  0.32605707  0.00000000  1
  Fe  Fe2  1  0.99994390  0.67451119  0.00000000  1
  Fe  Fe3  1  0.23535036  0.15935020  0.50000000  1
  Fe  Fe4  1  0.21841320  0.50406964  0.50000000  1
  Fe  Fe5  1  0.25603391  0.85628655  0.50000000  1
  Fe  Fe6  1  0.51301232  0.32990181  0.00000000  1
  Fe  Fe7  1  0.52240969  0.98818091  0.00000000  1
  Fe  Fe8  1  0.50441378  0.67482774  0.00000000  1
  Fe  Fe9  1  0.72622686  0.16180021  0.50000000  1
  Fe  Fe10  1  0.74093067  0.48768356  0.50000000  1
  Fe  Fe11  1  0.74760377  0.82509181  0.50000000  1
  O  O12  1  0.10223246  0.26614996  0.50000000  1
  O  O13  1  0.09441056  0.60770746  0.50000000  1
  O  O14  1  0.09056983  0.93461109  0.50000000  1
  O  O15  1  0.15296332  0.10021813  0.00000000  1
  O  O16  1  0.14822439  0.43714347  0.00000000  1
  O  O17  1  0.35500235  0.90099083  0.00000000  1
  O  O18  1  0.59581925  0.26990391  0.50000000  1
  O  O19  1  0.60796278  0.92947866  0.50000000  1
  O  O20  1  0.65144589  0.09965030  0.00000000  1
  O  O21  1  0.64951123  0.43727139  0.00000000  1
  O  O22  1  0.64688848  0.76271386  0.00000000  1
  O  O23  1  0.90034794  0.73497693  0.50000000  1
  F  F24  1  0.16156746  0.77261656  0.00000000  1
  F  F25  1  0.34807625  0.23249819  0.00000000  1
  F  F26  1  0.35445244  0.56970383  0.00000000  1
  F  F27  1  0.40409651  0.06816174  0.50000000  1
  F  F28  1  0.40043619  0.40028643  0.50000000  1
  F  F29  1  0.39423075  0.72815847  0.50000000  1
  F  F30  1  0.59462553  0.60104865  0.50000000  1
  F  F31  1  0.84848639  0.23283957  0.00000000  1
  F  F32  1  0.84774085  0.90146350  0.00000000  1
  F  F33  1  0.84114193  0.56203087  0.00000000  1
  F  F34  1  0.90128635  0.06713548  0.50000000  1
  F  F35  1  0.90271262  0.39675756  0.50000000  1
