# generated using pymatgen
data_Mn8O13F3
_symmetry_space_group_name_H-M   'P 1'
_cell_length_a   7.06395754
_cell_length_b   7.13021594
_cell_length_c   4.99142638
_cell_angle_alpha   89.78267290
_cell_angle_beta   89.86432158
_cell_angle_gamma   101.53322203
_symmetry_Int_Tables_number   1
_chemical_formula_structural   Mn8O13F3
_chemical_formula_sum   'Mn8 O13 F3'
_cell_volume   246.32670393
_cell_formula_units_Z   1
loop_
 _symmetry_equiv_pos_site_id
 _symmetry_equiv_pos_as_xyz
  1  'x, y, z'
loop_
 _atom_site_type_symbol
 _atom_site_label
 _atom_site_symmetry_multiplicity
 _atom_site_fract_x
 _atom_site_fract_y
 _atom_site_fract_z
 _atom_site_occupancy
  Mn  Mn0  1  0.42933695  0.06626188  0.27491028  1
  Mn  Mn1  1  0.07920756  0.41518593  0.74280943  1
  Mn  Mn2  1  0.93079514  0.07701544  0.24487618  1
  Mn  Mn3  1  0.57894012  0.43262840  0.73114462  1
  Mn  Mn4  1  0.42034955  0.58544258  0.24781123  1
  Mn  Mn5  1  0.08834715  0.93114952  0.76451008  1
  Mn  Mn6  1  0.56487078  0.92726431  0.77278221  1
  Mn  Mn7  1  0.92014353  0.56660401  0.22499704  1
  O  O8  1  0.05810815  0.17053077  0.92091725  1
  O  O9  1  0.17273040  0.06272610  0.43071737  1
  O  O10  1  0.67137550  0.05916645  0.09339245  1
  O  O11  1  0.16977713  0.55936176  0.06322741  1
  O  O12  1  0.56124172  0.17063812  0.59212160  1
  O  O13  1  0.32894114  0.44070578  0.56973047  1
  O  O14  1  0.55886522  0.67081554  0.91842376  1
  O  O15  1  0.67270164  0.56008583  0.40409414  1
  O  O16  1  0.33232683  0.93802674  0.94757735  1
  O  O17  1  0.43710603  0.83366043  0.44539918  1
  O  O18  1  0.93985262  0.32901476  0.41068785  1
  O  O19  1  0.82938519  0.44209794  0.90221326  1
  O  O20  1  0.94028879  0.82993656  0.07611298  1
  F  F21  1  0.05728944  0.68021581  0.56272086  1
  F  F22  1  0.43954779  0.31493785  0.07412873  1
  F  F23  1  0.81847263  0.93652649  0.58469426  1
