# generated using pymatgen
data_Ni3OF5
_symmetry_space_group_name_H-M   'P 1'
_cell_length_a   4.68969758
_cell_length_b   7.76212772
_cell_length_c   5.62289270
_cell_angle_alpha   93.75374570
_cell_angle_beta   90.00101765
_cell_angle_gamma   90.00481755
_symmetry_Int_Tables_number   1
_chemical_formula_structural   Ni3OF5
_chemical_formula_sum   'Ni6 O2 F10'
_cell_volume   204.24559524
_cell_formula_units_Z   2
loop_
 _symmetry_equiv_pos_site_id
 _symmetry_equiv_pos_as_xyz
  1  'x, y, z'
loop_
 _atom_site_type_symbol
 _atom_site_label
 _atom_site_symmetry_multiplicity
 _atom_site_fract_x
 _atom_site_fract_y
 _atom_site_fract_z
 _atom_site_occupancy
  Ni  Ni0  1  0.50332616  -0.00030869  0.50776464  1
  Ni  Ni1  1  0.49623923  0.66930547  0.16505691  1
  Ni  Ni2  1  0.51795711  0.33041521  0.82829776  1
  Ni  Ni3  1  0.99392731  0.65955281  0.66882494  1
  Ni  Ni4  1  0.99416665  0.33519790  0.33868050  1
  Ni  Ni5  1  0.99126244  0.00456817  0.99398711  1
  O  O6  1  0.80541440  0.43282591  0.63016073  1
  O  O7  1  0.69687545  0.10170687  0.79606926  1
  F  F8  1  0.80417789  0.76745959  0.96582728  1
  F  F9  1  0.80244616  0.10124657  0.29844625  1
  F  F10  1  0.69738701  0.76756416  0.46381593  1
  F  F11  1  0.69660065  0.43586183  0.13149067  1
  F  F12  1  0.30689399  0.56198610  0.86722692  1
  F  F13  1  0.30055442  0.23188830  0.53566605  1
  F  F14  1  0.30192929  0.90387868  0.20220575  1
  F  F15  1  0.19793488  0.23599048  0.03559411  1
  F  F16  1  0.19369458  0.89432931  0.70229105  1
  F  F17  1  0.19921137  0.56653034  0.36859414  1
