# generated using pymatgen
data_Li3Fe3CoO8
_symmetry_space_group_name_H-M   'P 1'
_cell_length_a   5.04062000
_cell_length_b   5.85460379
_cell_length_c   5.91662174
_cell_angle_alpha   60.33317098
_cell_angle_beta   73.96532100
_cell_angle_gamma   90.00081834
_symmetry_Int_Tables_number   1
_chemical_formula_structural   Li3Fe3CoO8
_chemical_formula_sum   'Li3 Fe3 Co1 O8'
_cell_volume   143.84671228
_cell_formula_units_Z   1
loop_
 _symmetry_equiv_pos_site_id
 _symmetry_equiv_pos_as_xyz
  1  'x, y, z'
loop_
 _atom_site_type_symbol
 _atom_site_label
 _atom_site_symmetry_multiplicity
 _atom_site_fract_x
 _atom_site_fract_y
 _atom_site_fract_z
 _atom_site_occupancy
  Li  Li0  1  0.49197651  0.24759588  0.00465910  1
  Li  Li1  1  0.99689949  0.98936422  0.99919392  1
  Li  Li2  1  0.99690669  0.51150110  0.99909493  1
  Fe  Fe3  1  0.50021047  0.24345709  0.50182406  1
  Fe  Fe4  1  0.50020175  0.75466422  0.50191380  1
  Fe  Fe5  1  0.00509882  0.50182256  0.49659224  1
  Co  Co6  1  0.99570833  0.99873503  0.50251577  1
  O  O7  1  0.77837836  0.15202056  0.71273036  1
  O  O8  1  0.77834405  0.63521250  0.71273008  1
  O  O9  1  0.25070157  0.38944114  0.72092490  1
  O  O10  1  0.24224210  0.89001190  0.71981853  1
  O  O11  1  0.74434841  0.11359160  0.27290279  1
  O  O12  1  0.76343727  0.60822780  0.28373005  1
  O  O13  1  0.22187649  0.34771983  0.28830242  1
  O  O14  1  0.22188668  0.86401657  0.28834505  1
