# generated using pymatgen
data_Li4Ti3Mn2Co3O16
_symmetry_space_group_name_H-M   'P 1'
_cell_length_a   5.77079855
_cell_length_b   5.81456582
_cell_length_c   9.50576530
_cell_angle_alpha   90.01999872
_cell_angle_beta   90.67395840
_cell_angle_gamma   120.25100326
_symmetry_Int_Tables_number   1
_chemical_formula_structural   Li4Ti3Mn2Co3O16
_chemical_formula_sum   'Li4 Ti3 Mn2 Co3 O16'
_cell_volume   275.50240984
_cell_formula_units_Z   1
loop_
 _symmetry_equiv_pos_site_id
 _symmetry_equiv_pos_as_xyz
  1  'x, y, z'
loop_
 _atom_site_type_symbol
 _atom_site_label
 _atom_site_symmetry_multiplicity
 _atom_site_fract_x
 _atom_site_fract_y
 _atom_site_fract_z
 _atom_site_occupancy
  Li  Li0  1  0.34569012  0.67299969  0.88783638  1
  Li  Li1  1  0.96394137  0.98180903  0.99012171  1
  Li  Li2  1  0.98237084  0.99109315  0.49990194  1
  Li  Li3  1  0.67460995  0.33733449  0.40205924  1
  Ti  Ti4  1  0.16504591  0.83246918  0.21409571  1
  Ti  Ti5  1  0.16481725  0.33244543  0.21407918  1
  Ti  Ti6  1  0.35092669  0.17578766  0.71534633  1
  Mn  Mn7  1  0.33596812  0.66800758  0.49095899  1
  Mn  Mn8  1  0.68005576  0.34002226  0.98224712  1
  Co  Co9  1  0.64825377  0.82400960  0.21729901  1
  Co  Co10  1  0.83613551  0.65997425  0.70981207  1
  Co  Co11  1  0.83611678  0.17626036  0.70982114  1
  O  O12  1  0.16969518  0.83657835  0.59681774  1
  O  O13  1  0.04078675  0.52039936  0.34414382  1
  O  O14  1  0.31976489  0.65979063  0.10277177  1
  O  O15  1  0.98515005  0.99251847  0.31387079  1
  O  O16  1  0.00257318  0.00137965  0.80363461  1
  O  O17  1  0.16965421  0.33316785  0.59678037  1
  O  O18  1  0.48195876  0.95945812  0.34505962  1
  O  O19  1  0.48190124  0.52241799  0.34506073  1
  O  O20  1  0.31647271  0.15815493  0.10778396  1
  O  O21  1  0.66649608  0.83326968  0.60095158  1
  O  O22  1  0.53520094  0.48944366  0.84018567  1
  O  O23  1  0.53524285  0.04612018  0.84026453  1
  O  O24  1  0.67197140  0.33597051  0.60306048  1
  O  O25  1  0.82780566  0.66771073  0.10606039  1
  O  O26  1  0.98362380  0.49194843  0.82171768  1
  O  O27  1  0.82776921  0.15975881  0.10609746  1
