# generated using pymatgen
data_Li8Mn(O2F)2
_symmetry_space_group_name_H-M   'P 1'
_cell_length_a   5.57887769
_cell_length_b   11.08929163
_cell_length_c   5.56749519
_cell_angle_alpha   103.84059795
_cell_angle_beta   60.01212737
_cell_angle_gamma   89.76800502
_symmetry_Int_Tables_number   1
_chemical_formula_structural   Li8Mn(O2F)2
_chemical_formula_sum   'Li16 Mn2 O8 F4'
_cell_volume   286.51981266
_cell_formula_units_Z   2
loop_
 _symmetry_equiv_pos_site_id
 _symmetry_equiv_pos_as_xyz
  1  'x, y, z'
loop_
 _atom_site_type_symbol
 _atom_site_label
 _atom_site_symmetry_multiplicity
 _atom_site_fract_x
 _atom_site_fract_y
 _atom_site_fract_z
 _atom_site_occupancy
  Li  Li0  1  0.11181065  0.67651980  0.11168906  1
  Li  Li1  1  0.20596337  0.31375443  0.22244588  1
  Li  Li2  1  0.06702622  0.81457609  0.52085638  1
  Li  Li3  1  0.27221500  0.00825464  0.31022442  1
  Li  Li4  1  0.18687180  0.48705855  0.57617012  1
  Li  Li5  1  0.59066681  0.18121080  0.09843953  1
  Li  Li6  1  0.42595720  0.67057619  0.48443242  1
  Li  Li7  1  0.27600586  0.16970002  0.77763257  1
  Li  Li8  1  0.72399414  0.83029998  0.22236743  1
  Li  Li9  1  0.57404280  0.32942381  0.51556758  1
  Li  Li10  1  0.40933319  0.81878920  0.90156047  1
  Li  Li11  1  0.72778500  0.99174536  0.68977558  1
  Li  Li12  1  0.81312820  0.51294145  0.42382988  1
  Li  Li13  1  0.93297378  0.18542391  0.47914362  1
  Li  Li14  1  0.79403663  0.68624557  0.77755412  1
  Li  Li15  1  0.88818935  0.32348020  0.88831094  1
  Mn  Mn16  1  0.00000000  0.00000000  0.00000000  1
  Mn  Mn17  1  0.50000000  0.50000000  0.00000000  1
  O  O18  1  0.03979355  0.88094557  0.24655671  1
  O  O19  1  0.26831439  0.12405749  0.09004369  1
  O  O20  1  0.13339088  0.61989829  0.40666132  1
  O  O21  1  0.52938142  0.37652337  0.23434623  1
  O  O22  1  0.47061858  0.62347663  0.76565377  1
  O  O23  1  0.86660912  0.38010171  0.59333868  1
  O  O24  1  0.73168561  0.87594251  0.90995631  1
  O  O25  1  0.96020645  0.11905443  0.75344329  1
  F  F26  1  0.38281081  0.85542542  0.57759069  1
  F  F27  1  0.22125187  0.35742821  0.89123135  1
  F  F28  1  0.77874813  0.64257179  0.10876865  1
  F  F29  1  0.61718919  0.14457458  0.42240931  1
