# generated using pymatgen
data_LiCo5O8
_symmetry_space_group_name_H-M   'P 1'
_cell_length_a   8.11380911
_cell_length_b   8.11380911
_cell_length_c   8.11380911
_cell_angle_alpha   90.00000000
_cell_angle_beta   90.00000000
_cell_angle_gamma   90.00000000
_symmetry_Int_Tables_number   1
_chemical_formula_structural   LiCo5O8
_chemical_formula_sum   'Li4 Co20 O32'
_cell_volume   534.16368356
_cell_formula_units_Z   4
loop_
 _symmetry_equiv_pos_site_id
 _symmetry_equiv_pos_as_xyz
  1  'x, y, z'
loop_
 _atom_site_type_symbol
 _atom_site_label
 _atom_site_symmetry_multiplicity
 _atom_site_fract_x
 _atom_site_fract_y
 _atom_site_fract_z
 _atom_site_occupancy
  Li  Li0  1  0.12500000  0.87500000  0.37500000  1
  Li  Li1  1  0.37500000  0.12500000  0.87500000  1
  Li  Li2  1  0.62500000  0.62500000  0.62500000  1
  Li  Li3  1  0.87500000  0.37500000  0.12500000  1
  Co  Co4  1  0.00008804  0.00008804  0.00008804  1
  Co  Co5  1  0.99991196  0.50008804  0.49991196  1
  Co  Co6  1  0.12536647  0.12463353  0.62500000  1
  Co  Co7  1  0.12463353  0.62500000  0.12536647  1
  Co  Co8  1  0.12500000  0.37463353  0.87536647  1
  Co  Co9  1  0.24991196  0.24991196  0.24991196  1
  Co  Co10  1  0.25008804  0.75008804  0.74991196  1
  Co  Co11  1  0.37536647  0.37500000  0.62536647  1
  Co  Co12  1  0.37500000  0.62536647  0.37536647  1
  Co  Co13  1  0.37463353  0.87536647  0.12500000  1
  Co  Co14  1  0.49991196  0.99991196  0.50008804  1
  Co  Co15  1  0.50008804  0.49991196  0.99991196  1
  Co  Co16  1  0.62500000  0.12536647  0.12463353  1
  Co  Co17  1  0.62536647  0.37536647  0.37500000  1
  Co  Co18  1  0.62463353  0.87500000  0.87463353  1
  Co  Co19  1  0.74991196  0.25008804  0.75008804  1
  Co  Co20  1  0.75008804  0.74991196  0.25008804  1
  Co  Co21  1  0.87536647  0.12500000  0.37463353  1
  Co  Co22  1  0.87463353  0.62463353  0.87500000  1
  Co  Co23  1  0.87500000  0.87463353  0.62463353  1
  O  O24  1  0.12860498  0.39099455  0.10676422  1
  O  O25  1  0.13801271  0.36198729  0.63801271  1
  O  O26  1  0.14323578  0.85900545  0.12139502  1
  O  O27  1  0.10676422  0.12860498  0.39099455  1
  O  O28  1  0.10900545  0.89323578  0.62860498  1
  O  O29  1  0.12139502  0.14323578  0.85900545  1
  O  O30  1  0.14099455  0.62139502  0.35676422  1
  O  O31  1  0.11198729  0.61198729  0.88801271  1
  O  O32  1  0.39099455  0.10676422  0.12860498  1
  O  O33  1  0.38801271  0.38801271  0.38801271  1
  O  O34  1  0.35676422  0.14099455  0.62139502  1
  O  O35  1  0.35900545  0.37860498  0.85676422  1
  O  O36  1  0.36198729  0.63801271  0.13801271  1
  O  O37  1  0.37860498  0.85676422  0.35900545  1
  O  O38  1  0.37139502  0.60900545  0.60676422  1
  O  O39  1  0.39323578  0.87139502  0.89099455  1
  O  O40  1  0.63801271  0.13801271  0.36198729  1
  O  O41  1  0.62139502  0.35676422  0.14099455  1
  O  O42  1  0.60676422  0.37139502  0.60900545  1
  O  O43  1  0.60900545  0.60676422  0.37139502  1
  O  O44  1  0.62860498  0.10900545  0.89323578  1
  O  O45  1  0.64323578  0.64099455  0.87860498  1
  O  O46  1  0.61198729  0.88801271  0.11198729  1
  O  O47  1  0.64099455  0.87860498  0.64323578  1
  O  O48  1  0.85900545  0.12139502  0.14323578  1
  O  O49  1  0.88801271  0.11198729  0.61198729  1
  O  O50  1  0.85676422  0.35900545  0.37860498  1
  O  O51  1  0.89323578  0.62860498  0.10900545  1
  O  O52  1  0.87860498  0.64323578  0.64099455  1
  O  O53  1  0.89099455  0.39323578  0.87139502  1
  O  O54  1  0.87139502  0.89099455  0.39323578  1
  O  O55  1  0.86198729  0.86198729  0.86198729  1
