# generated using pymatgen
data_Co3OF5
_symmetry_space_group_name_H-M   'P 1'
_cell_length_a   7.26380181
_cell_length_b   5.64159600
_cell_length_c   5.64159600
_cell_angle_alpha   73.91719987
_cell_angle_beta   74.24865690
_cell_angle_gamma   74.24865690
_symmetry_Int_Tables_number   1
_chemical_formula_structural   Co3OF5
_chemical_formula_sum   'Co6 O2 F10'
_cell_volume   208.92942953
_cell_formula_units_Z   2
loop_
 _symmetry_equiv_pos_site_id
 _symmetry_equiv_pos_as_xyz
  1  'x, y, z'
loop_
 _atom_site_type_symbol
 _atom_site_label
 _atom_site_symmetry_multiplicity
 _atom_site_fract_x
 _atom_site_fract_y
 _atom_site_fract_z
 _atom_site_occupancy
  Co  Co0  1  0.84518755  0.67306864  0.67306864  1
  Co  Co1  1  0.31262591  0.65207779  0.65207779  1
  Co  Co2  1  0.66375518  0.33945041  0.33945041  1
  Co  Co3  1  0.17763434  0.33828933  0.33828933  1
  Co  Co4  1  0.49681974  0.99836930  0.99836930  1
  Co  Co5  1  0.99586920  0.99130644  0.99130644  1
  O  O6  1  0.36955520  0.44114438  0.44114438  1
  O  O7  1  0.02742678  0.76284040  0.76284040  1
  F  F8  1  0.33106929  0.36078803  0.97043603  1
  F  F9  1  0.67208747  0.03001385  0.63983296  1
  F  F10  1  0.64069818  0.57808289  0.57808289  1
  F  F11  1  0.29941210  0.88468786  0.88468786  1
  F  F12  1  0.96774648  0.23190594  0.23190594  1
  F  F13  1  0.70015586  0.10438992  0.10438992  1
  F  F14  1  0.33106929  0.97043603  0.36078803  1
  F  F15  1  0.67208747  0.63983296  0.03001385  1
  F  F16  1  0.99839949  0.30628214  0.69703268  1
  F  F17  1  0.99839949  0.69703268  0.30628214  1
