# generated using pymatgen
data_LiP4WO12
_symmetry_space_group_name_H-M   'P 1'
_cell_length_a   11.96616784
_cell_length_b   8.31846566
_cell_length_c   11.89176046
_cell_angle_alpha   90.00000000
_cell_angle_beta   114.40016618
_cell_angle_gamma   90.00000000
_symmetry_Int_Tables_number   1
_chemical_formula_structural   LiP4WO12
_chemical_formula_sum   'Li4 P16 W4 O48'
_cell_volume   1077.98183850
_cell_formula_units_Z   4
loop_
 _symmetry_equiv_pos_site_id
 _symmetry_equiv_pos_as_xyz
  1  'x, y, z'
loop_
 _atom_site_type_symbol
 _atom_site_label
 _atom_site_symmetry_multiplicity
 _atom_site_fract_x
 _atom_site_fract_y
 _atom_site_fract_z
 _atom_site_occupancy
  Li  Li0  1  0.35323818  0.93615545  0.93997195  1
  Li  Li1  1  0.14676182  0.43615545  0.56002805  1
  Li  Li2  1  0.85323818  0.56384455  0.43997195  1
  Li  Li3  1  0.64676182  0.06384455  0.06002805  1
  P  P4  1  0.19000100  0.36805106  0.97579312  1
  P  P5  1  0.12389284  0.56809459  0.74844381  1
  P  P6  1  0.05145739  0.16967060  0.33994772  1
  P  P7  1  0.37610716  0.06809459  0.75155619  1
  P  P8  1  0.24802606  0.02290342  0.28149157  1
  P  P9  1  0.30999900  0.86805106  0.52420688  1
  P  P10  1  0.25197394  0.52290342  0.21850843  1
  P  P11  1  0.55145739  0.33032940  0.83994772  1
  P  P12  1  0.44854261  0.66967060  0.16005228  1
  P  P13  1  0.74802606  0.47709658  0.78149157  1
  P  P14  1  0.69000100  0.13194894  0.47579312  1
  P  P15  1  0.75197394  0.97709658  0.71850843  1
  P  P16  1  0.62389284  0.93190541  0.24844381  1
  P  P17  1  0.94854261  0.83032940  0.66005228  1
  P  P18  1  0.87610716  0.43190541  0.25155619  1
  P  P19  1  0.80999900  0.63194894  0.02420688  1
  W  W20  1  0.95033041  0.23281016  0.71919778  1
  W  W21  1  0.04966959  0.76718984  0.28080222  1
  W  W22  1  0.54966959  0.73281016  0.78080222  1
  W  W23  1  0.45033041  0.26718984  0.21919778  1
  O  O24  1  0.08420121  0.25921159  0.90644617  1
  O  O25  1  0.03775528  0.70718271  0.76640652  1
  O  O26  1  0.01003069  0.99299358  0.68874258  1
  O  O27  1  0.04757348  0.42636156  0.67126867  1
  O  O28  1  0.19316421  0.51699083  0.89143183  1
  O  O29  1  0.08787795  0.24683506  0.46258169  1
  O  O30  1  0.28922597  0.12576135  0.80289638  1
  O  O31  1  0.18418731  0.79496958  0.46766347  1
  O  O32  1  0.21077403  0.62576135  0.69710362  1
  O  O33  1  0.16763162  0.57474947  0.27539242  1
  O  O34  1  0.15598278  0.89902240  0.20667632  1
  O  O35  1  0.17335849  0.16867000  0.30768885  1
  O  O36  1  0.16167609  0.45558479  0.08265388  1
  O  O37  1  0.30683579  0.01699083  0.60856817  1
  O  O38  1  0.45242652  0.92636156  0.82873133  1
  O  O39  1  0.48996931  0.49299358  0.81125742  1
  O  O40  1  0.33832391  0.95558479  0.41734612  1
  O  O41  1  0.46224472  0.20718271  0.73359348  1
  O  O42  1  0.41579879  0.75921159  0.59355383  1
  O  O43  1  0.32664151  0.66867000  0.19231115  1
  O  O44  1  0.34401722  0.39902240  0.29332368  1
  O  O45  1  0.33236838  0.07474947  0.22460758  1
  O  O46  1  0.58787795  0.25316494  0.96258169  1
  O  O47  1  0.31581269  0.29496958  0.03233653  1
  O  O48  1  0.68418731  0.70503042  0.96766347  1
  O  O49  1  0.41212205  0.74683506  0.03741831  1
  O  O50  1  0.66763162  0.92525053  0.77539242  1
  O  O51  1  0.65598278  0.60097760  0.70667632  1
  O  O52  1  0.67335849  0.33133000  0.80768885  1
  O  O53  1  0.58420121  0.24078841  0.40644617  1
  O  O54  1  0.53775528  0.79281729  0.26640652  1
  O  O55  1  0.66167609  0.04441521  0.58265388  1
  O  O56  1  0.51003069  0.50700642  0.18874258  1
  O  O57  1  0.54757348  0.07363844  0.17126867  1
  O  O58  1  0.69316421  0.98300917  0.39143183  1
  O  O59  1  0.83832391  0.54441521  0.91734612  1
  O  O60  1  0.82664151  0.83133000  0.69231115  1
  O  O61  1  0.84401722  0.10097760  0.79332368  1
  O  O62  1  0.83236838  0.42525053  0.72460758  1
  O  O63  1  0.78922597  0.37423865  0.30289638  1
  O  O64  1  0.81581269  0.20503042  0.53233653  1
  O  O65  1  0.71077403  0.87423865  0.19710362  1
  O  O66  1  0.91212205  0.75316494  0.53741831  1
  O  O67  1  0.80683579  0.48300917  0.10856817  1
  O  O68  1  0.95242652  0.57363844  0.32873133  1
  O  O69  1  0.98996931  0.00700642  0.31125742  1
  O  O70  1  0.96224472  0.29281729  0.23359348  1
  O  O71  1  0.91579879  0.74078841  0.09355383  1
