# generated using pymatgen
data_FeOF
_symmetry_space_group_name_H-M   'P 1'
_cell_length_a   14.19952640
_cell_length_b   9.48013024
_cell_length_c   3.09471521
_cell_angle_alpha   90.00000000
_cell_angle_beta   90.00000000
_cell_angle_gamma   90.31081009
_symmetry_Int_Tables_number   1
_chemical_formula_structural   FeOF
_chemical_formula_sum   'Fe12 O12 F12'
_cell_volume   416.58388225
_cell_formula_units_Z   12
loop_
 _symmetry_equiv_pos_site_id
 _symmetry_equiv_pos_as_xyz
  1  'x, y, z'
loop_
 _atom_site_type_symbol
 _atom_site_label
 _atom_site_symmetry_multiplicity
 _atom_site_fract_x
 _atom_site_fract_y
 _atom_site_fract_z
 _atom_site_occupancy
  Fe  Fe0  1  0.00849686  0.99251091  0.00000000  1
  Fe  Fe1  1  0.00445633  0.50386679  0.00000000  1
  Fe  Fe2  1  0.16908988  0.21487235  0.50000000  1
  Fe  Fe3  1  0.15279995  0.74684053  0.50000000  1
  Fe  Fe4  1  0.33674585  0.99924399  0.00000000  1
  Fe  Fe5  1  0.34446381  0.49468058  0.00000000  1
  Fe  Fe6  1  0.48296925  0.75052004  0.50000000  1
  Fe  Fe7  1  0.50360637  0.27531019  0.50000000  1
  Fe  Fe8  1  0.67551480  0.99689420  0.00000000  1
  Fe  Fe9  1  0.67196893  0.48760470  0.00000000  1
  Fe  Fe10  1  0.81872044  0.24596426  0.50000000  1
  Fe  Fe11  1  0.83550538  0.78155441  0.50000000  1
  O  O12  1  0.06777698  0.90133556  0.50000000  1
  O  O13  1  0.09819456  0.15252592  0.00000000  1
  O  O14  1  0.09705173  0.64420673  0.00000000  1
  O  O15  1  0.27252569  0.09287646  0.50000000  1
  O  O16  1  0.39355064  0.39692040  0.50000000  1
  O  O17  1  0.39838912  0.90520351  0.50000000  1
  O  O18  1  0.43377548  0.65052093  0.00000000  1
  O  O19  1  0.56774570  0.35341733  0.00000000  1
  O  O20  1  0.73837513  0.41099783  0.50000000  1
  O  O21  1  0.72726015  0.90208258  0.50000000  1
  O  O22  1  0.76657932  0.15449315  0.00000000  1
  O  O23  1  0.90126525  0.85170638  0.00000000  1
  F  F24  1  0.06189686  0.40060376  0.50000000  1
  F  F25  1  0.22621490  0.35026206  0.00000000  1
  F  F26  1  0.23020496  0.83511398  0.00000000  1
  F  F27  1  0.26397400  0.59649829  0.50000000  1
  F  F28  1  0.44211646  0.15551330  0.00000000  1
  F  F29  1  0.56408765  0.85044597  0.00000000  1
  F  F30  1  0.59808188  0.09654265  0.50000000  1
  F  F31  1  0.60639451  0.60595569  0.50000000  1
  F  F32  1  0.77167754  0.65713920  0.00000000  1
  F  F33  1  0.90424705  0.35048380  0.00000000  1
  F  F34  1  0.93317499  0.10515494  0.50000000  1
  F  F35  1  0.93110460  0.59013663  0.50000000  1
