# generated using pymatgen
data_LiCoSiO4
_symmetry_space_group_name_H-M   'P 1'
_cell_length_a   5.07209567
_cell_length_b   5.43438175
_cell_length_c   6.34933761
_cell_angle_alpha   89.99070018
_cell_angle_beta   91.43177483
_cell_angle_gamma   89.99710862
_symmetry_Int_Tables_number   1
_chemical_formula_structural   LiCoSiO4
_chemical_formula_sum   'Li2 Co2 Si2 O8'
_cell_volume   174.95661974
_cell_formula_units_Z   2
loop_
 _symmetry_equiv_pos_site_id
 _symmetry_equiv_pos_as_xyz
  1  'x, y, z'
loop_
 _atom_site_type_symbol
 _atom_site_label
 _atom_site_symmetry_multiplicity
 _atom_site_fract_x
 _atom_site_fract_y
 _atom_site_fract_z
 _atom_site_occupancy
  Li  Li0  1  0.00386013  0.65650011  0.26521167  1
  Li  Li1  1  0.50376160  0.34355521  0.76524498  1
  Co  Co2  1  0.00208733  0.18087167  0.00950651  1
  Co  Co3  1  0.50218968  0.81904331  0.50943022  1
  Si  Si4  1  0.00930378  0.68020405  0.76309222  1
  Si  Si5  1  0.50932557  0.31973941  0.26293308  1
  O  O6  1  0.33015747  0.67148026  0.73133797  1
  O  O7  1  0.36966255  0.21984941  0.04284528  1
  O  O8  1  0.44969764  0.15246103  0.47376303  1
  O  O9  1  0.39342088  0.59905639  0.30120947  1
  O  O10  1  0.83003595  0.32854650  0.23133161  1
  O  O11  1  0.86970343  0.78023102  0.54268506  1
  O  O12  1  0.94966884  0.84745564  0.97358189  1
  O  O13  1  0.89333414  0.40101499  0.80114902  1
