# generated using pymatgen
data_Li2VP3O10
_symmetry_space_group_name_H-M   'P 1'
_cell_length_a   8.01799800
_cell_length_b   8.01799800
_cell_length_c   9.71503275
_cell_angle_alpha   57.47247125
_cell_angle_beta   122.52752875
_cell_angle_gamma   126.80293713
_symmetry_Int_Tables_number   1
_chemical_formula_structural   Li2VP3O10
_chemical_formula_sum   'Li4 V2 P6 O20'
_cell_volume   399.56383778
_cell_formula_units_Z   2
loop_
 _symmetry_equiv_pos_site_id
 _symmetry_equiv_pos_as_xyz
  1  'x, y, z'
loop_
 _atom_site_type_symbol
 _atom_site_label
 _atom_site_symmetry_multiplicity
 _atom_site_fract_x
 _atom_site_fract_y
 _atom_site_fract_z
 _atom_site_occupancy
  Li  Li0  1  0.28452336  0.74421873  0.96267568  1
  Li  Li1  1  0.25578127  0.71547664  0.46267568  1
  Li  Li2  1  0.74421873  0.28452336  0.53732432  1
  Li  Li3  1  0.71547664  0.25578127  0.03732432  1
  V  V4  1  0.66587637  0.66587637  0.75000000  1
  V  V5  1  0.33412363  0.33412363  0.25000000  1
  P  P6  1  0.19732219  0.44050496  0.81403073  1
  P  P7  1  0.55949504  0.80267781  0.31403073  1
  P  P8  1  0.04913665  0.04913665  0.75000000  1
  P  P9  1  0.95086335  0.95086335  0.25000000  1
  P  P10  1  0.44050496  0.19732219  0.68596927  1
  P  P11  1  0.80267781  0.55949504  0.18596927  1
  O  O12  1  0.02677655  0.81467841  0.84667531  1
  O  O13  1  0.18532159  0.97322345  0.34667531  1
  O  O14  1  0.44790239  0.98349195  0.81097019  1
  O  O15  1  0.27697762  0.46989059  0.98478448  1
  O  O16  1  0.37493151  0.60585927  0.72090035  1
  O  O17  1  0.01650805  0.55209761  0.31097019  1
  O  O18  1  0.17865674  0.19194484  0.87364385  1
  O  O19  1  0.53010941  0.72302238  0.48478448  1
  O  O20  1  0.39414073  0.62506849  0.22090035  1
  O  O21  1  0.19194484  0.17865674  0.62635615  1
  O  O22  1  0.80805516  0.82134326  0.37364385  1
  O  O23  1  0.60585927  0.37493151  0.77909965  1
  O  O24  1  0.46989059  0.27697762  0.51521552  1
  O  O25  1  0.82134326  0.80805516  0.12635615  1
  O  O26  1  0.98349195  0.44790239  0.68902981  1
  O  O27  1  0.62506849  0.39414073  0.27909965  1
  O  O28  1  0.72302238  0.53010941  0.01521552  1
  O  O29  1  0.55209761  0.01650805  0.18902981  1
  O  O30  1  0.81467841  0.02677655  0.65332469  1
  O  O31  1  0.97322345  0.18532159  0.15332469  1
