# generated using pymatgen
data_LiFePO4
_symmetry_space_group_name_H-M   'P 1'
_cell_length_a   5.50652015
_cell_length_b   6.34265030
_cell_length_c   5.50652015
_cell_angle_alpha   76.30138383
_cell_angle_beta   62.97025357
_cell_angle_gamma   103.69861617
_symmetry_Int_Tables_number   1
_chemical_formula_structural   LiFePO4
_chemical_formula_sum   'Li2 Fe2 P2 O8'
_cell_volume   152.69042890
_cell_formula_units_Z   2
loop_
 _symmetry_equiv_pos_site_id
 _symmetry_equiv_pos_as_xyz
  1  'x, y, z'
loop_
 _atom_site_type_symbol
 _atom_site_label
 _atom_site_symmetry_multiplicity
 _atom_site_fract_x
 _atom_site_fract_y
 _atom_site_fract_z
 _atom_site_occupancy
  Li  Li0  1  0.43656942  0.25000000  0.43656942  1
  Li  Li1  1  0.18656942  0.75000000  0.18656942  1
  Fe  Fe2  1  0.80711650  0.25000000  0.80711650  1
  Fe  Fe3  1  0.55711650  0.75000000  0.55711650  1
  P  P4  1  0.12922673  0.25000000  0.12922673  1
  P  P5  1  0.87922673  0.75000000  0.87922673  1
  O  O6  1  0.80133123  0.09081109  0.24727858  1
  O  O7  1  0.32219380  0.10773124  0.13128273  1
  O  O8  1  0.73901496  0.60773124  0.21446256  1
  O  O9  1  0.83808967  0.59081109  0.71052114  1
  O  O10  1  0.13128273  0.39226876  0.32219380  1
  O  O11  1  0.24727858  0.40918891  0.80133123  1
  O  O12  1  0.71052114  0.90918891  0.83808967  1
  O  O13  1  0.21446256  0.89226876  0.73901496  1
