# generated using pymatgen
data_LiFe(PO3)3
_symmetry_space_group_name_H-M   'P 1'
_cell_length_a   5.20853749
_cell_length_b   12.08291666
_cell_length_c   12.53166860
_cell_angle_alpha   90.00000000
_cell_angle_beta   90.00000000
_cell_angle_gamma   90.00000000
_symmetry_Int_Tables_number   1
_chemical_formula_structural   LiFe(PO3)3
_chemical_formula_sum   'Li4 Fe4 P12 O36'
_cell_volume   788.67209710
_cell_formula_units_Z   4
loop_
 _symmetry_equiv_pos_site_id
 _symmetry_equiv_pos_as_xyz
  1  'x, y, z'
loop_
 _atom_site_type_symbol
 _atom_site_label
 _atom_site_symmetry_multiplicity
 _atom_site_fract_x
 _atom_site_fract_y
 _atom_site_fract_z
 _atom_site_occupancy
  Li  Li0  1  0.05067747  0.09828522  0.25000000  1
  Li  Li1  1  0.05067747  0.40171478  0.75000000  1
  Li  Li2  1  0.94932253  0.59828522  0.25000000  1
  Li  Li3  1  0.94932253  0.90171478  0.75000000  1
  Fe  Fe4  1  0.00000000  0.00000000  0.00000000  1
  Fe  Fe5  1  0.00000000  0.50000000  0.00000000  1
  Fe  Fe6  1  0.00000000  0.00000000  0.50000000  1
  Fe  Fe7  1  0.00000000  0.50000000  0.50000000  1
  P  P8  1  0.22713082  0.75000000  0.00000000  1
  P  P9  1  0.22713082  0.75000000  0.50000000  1
  P  P10  1  0.49735089  0.07640881  0.63427782  1
  P  P11  1  0.49735089  0.42359119  0.13427782  1
  P  P12  1  0.49735089  0.07640881  0.86572218  1
  P  P13  1  0.49735089  0.42359119  0.36572218  1
  P  P14  1  0.50264911  0.57640881  0.63427782  1
  P  P15  1  0.50264911  0.92359119  0.13427782  1
  P  P16  1  0.50264911  0.92359119  0.36572218  1
  P  P17  1  0.50264911  0.57640881  0.86572218  1
  P  P18  1  0.77286918  0.25000000  0.00000000  1
  P  P19  1  0.77286918  0.25000000  0.50000000  1
  O  O20  1  0.08400626  0.67052242  0.07113525  1
  O  O21  1  0.08400626  0.67052242  0.42886475  1
  O  O22  1  0.08400626  0.82947758  0.57113525  1
  O  O23  1  0.08400626  0.82947758  0.92886475  1
  O  O24  1  0.21414800  0.44613829  0.12603102  1
  O  O25  1  0.21414800  0.05386171  0.62603102  1
  O  O26  1  0.21414800  0.44613829  0.37396898  1
  O  O27  1  0.21414800  0.05386171  0.87396898  1
  O  O28  1  0.31598185  0.01723702  0.38687109  1
  O  O29  1  0.31598185  0.01723702  0.11312891  1
  O  O30  1  0.31598185  0.48276298  0.88687109  1
  O  O31  1  0.31598185  0.48276298  0.61312891  1
  O  O32  1  0.44554809  0.87291056  0.25000000  1
  O  O33  1  0.44554809  0.62708944  0.75000000  1
  O  O34  1  0.43956253  0.68378692  0.56770725  1
  O  O35  1  0.43956253  0.81621308  0.06770725  1
  O  O36  1  0.43956253  0.68378692  0.93229275  1
  O  O37  1  0.43956253  0.81621308  0.43229275  1
  O  O38  1  0.56043747  0.18378692  0.56770725  1
  O  O39  1  0.56043747  0.31621308  0.06770725  1
  O  O40  1  0.56043747  0.31621308  0.43229275  1
  O  O41  1  0.56043747  0.18378692  0.93229275  1
  O  O42  1  0.55445191  0.12708944  0.75000000  1
  O  O43  1  0.55445191  0.37291056  0.25000000  1
  O  O44  1  0.68401815  0.51723702  0.38687109  1
  O  O45  1  0.68401815  0.98276298  0.61312891  1
  O  O46  1  0.68401815  0.51723702  0.11312891  1
  O  O47  1  0.68401815  0.98276298  0.88687109  1
  O  O48  1  0.78585200  0.55386171  0.87396898  1
  O  O49  1  0.78585200  0.55386171  0.62603102  1
  O  O50  1  0.78585200  0.94613829  0.37396898  1
  O  O51  1  0.78585200  0.94613829  0.12603102  1
  O  O52  1  0.91599374  0.17052242  0.42886475  1
  O  O53  1  0.91599374  0.32947758  0.57113525  1
  O  O54  1  0.91599374  0.17052242  0.07113525  1
  O  O55  1  0.91599374  0.32947758  0.92886475  1
