# generated using pymatgen
data_Li2P2WO8
_symmetry_space_group_name_H-M   'P 1'
_cell_length_a   5.97859144
_cell_length_b   4.86432491
_cell_length_c   10.46845504
_cell_angle_alpha   90.00000000
_cell_angle_beta   89.96085126
_cell_angle_gamma   90.00000000
_symmetry_Int_Tables_number   1
_chemical_formula_structural   Li2P2WO8
_chemical_formula_sum   'Li4 P4 W2 O16'
_cell_volume   304.44156297
_cell_formula_units_Z   2
loop_
 _symmetry_equiv_pos_site_id
 _symmetry_equiv_pos_as_xyz
  1  'x, y, z'
loop_
 _atom_site_type_symbol
 _atom_site_label
 _atom_site_symmetry_multiplicity
 _atom_site_fract_x
 _atom_site_fract_y
 _atom_site_fract_z
 _atom_site_occupancy
  Li  Li0  1  0.56563862  0.48910102  0.50815814  1
  Li  Li1  1  0.56563862  0.01089898  0.00815814  1
  Li  Li2  1  0.75147339  0.02272047  0.71944209  1
  Li  Li3  1  0.75147339  0.47727953  0.21944209  1
  P  P4  1  0.24556855  0.09085025  0.59634896  1
  P  P5  1  0.24556855  0.40914975  0.09634896  1
  P  P6  1  0.74255380  0.55585116  0.90605709  1
  P  P7  1  0.74255380  0.94414884  0.40605709  1
  W  W8  1  0.24326545  0.52311197  0.77695763  1
  W  W9  1  0.24326545  0.97688803  0.27695763  1
  O  O10  1  0.05142596  0.22153558  0.67632294  1
  O  O11  1  0.05142596  0.27846442  0.17632294  1
  O  O12  1  0.24033780  0.32193931  0.95548359  1
  O  O13  1  0.24033780  0.17806069  0.45548359  1
  O  O14  1  0.25794633  0.77726110  0.61014473  1
  O  O15  1  0.25794633  0.72273890  0.11014473  1
  O  O16  1  0.44774850  0.25298600  0.66049713  1
  O  O17  1  0.44774850  0.24701400  0.16049713  1
  O  O18  1  0.53575435  0.70189598  0.83174710  1
  O  O19  1  0.53575435  0.79810402  0.33174710  1
  O  O20  1  0.72987694  0.24721010  0.89023933  1
  O  O21  1  0.72987694  0.25278990  0.39023933  1
  O  O22  1  0.74101213  0.83005359  0.54125481  1
  O  O23  1  0.74101213  0.66994641  0.04125481  1
  O  O24  1  0.94740017  0.68381414  0.82734546  1
  O  O25  1  0.94740017  0.81618586  0.32734546  1
