# generated using pymatgen
data_LiCoSiO4
_symmetry_space_group_name_H-M   'P 1'
_cell_length_a   10.23458555
_cell_length_b   13.24516998
_cell_length_c   5.11003757
_cell_angle_alpha   90.00000000
_cell_angle_beta   90.00000000
_cell_angle_gamma   90.00000000
_symmetry_Int_Tables_number   1
_chemical_formula_structural   LiCoSiO4
_chemical_formula_sum   'Li8 Co8 Si8 O32'
_cell_volume   692.71069015
_cell_formula_units_Z   8
loop_
 _symmetry_equiv_pos_site_id
 _symmetry_equiv_pos_as_xyz
  1  'x, y, z'
loop_
 _atom_site_type_symbol
 _atom_site_label
 _atom_site_symmetry_multiplicity
 _atom_site_fract_x
 _atom_site_fract_y
 _atom_site_fract_z
 _atom_site_occupancy
  Li  Li0  1  0.03846310  0.75365021  0.06085489  1
  Li  Li1  1  0.21355699  0.00092044  0.55952101  1
  Li  Li2  1  0.28644301  0.50092044  0.55952101  1
  Li  Li3  1  0.46153690  0.25365021  0.06085489  1
  Li  Li4  1  0.53846310  0.75365021  0.93914511  1
  Li  Li5  1  0.71355699  0.00092044  0.44047899  1
  Li  Li6  1  0.78644301  0.50092044  0.44047899  1
  Li  Li7  1  0.96153690  0.25365021  0.93914511  1
  Co  Co8  1  0.03359694  0.50238840  0.91780025  1
  Co  Co9  1  0.21376717  0.75007980  0.55745912  1
  Co  Co10  1  0.28623283  0.25007980  0.55745912  1
  Co  Co11  1  0.46640306  0.00238840  0.91780025  1
  Co  Co12  1  0.53359694  0.50238840  0.08219975  1
  Co  Co13  1  0.71376717  0.75007980  0.44254088  1
  Co  Co14  1  0.78623283  0.25007980  0.44254088  1
  Co  Co15  1  0.96640306  0.00238840  0.08219975  1
  Si  Si16  1  0.03386177  0.37623115  0.43494498  1
  Si  Si17  1  0.21760223  0.12707241  0.05528019  1
  Si  Si18  1  0.28239777  0.62707241  0.05528019  1
  Si  Si19  1  0.46613823  0.87623115  0.43494498  1
  Si  Si20  1  0.53386177  0.37623115  0.56505502  1
  Si  Si21  1  0.71760223  0.12707241  0.94471981  1
  Si  Si22  1  0.78239777  0.62707241  0.94471981  1
  Si  Si23  1  0.96613823  0.87623115  0.56505502  1
  O  O24  1  0.99276684  0.88560259  0.88120384  1
  O  O25  1  0.97404728  0.47782016  0.57609779  1
  O  O26  1  0.04187602  0.77631192  0.44984555  1
  O  O27  1  0.05938116  0.12059762  0.00112119  1
  O  O28  1  0.19028741  0.36788418  0.50354227  1
  O  O29  1  0.21358472  0.52701323  0.92354217  1
  O  O30  1  0.28115917  0.22777428  0.91824459  1
  O  O31  1  0.24815625  0.13225360  0.37127205  1
  O  O32  1  0.25184375  0.63225360  0.37127205  1
  O  O33  1  0.21884083  0.72777428  0.91824459  1
  O  O34  1  0.28641528  0.02701323  0.92354217  1
  O  O35  1  0.30971259  0.86788418  0.50354227  1
  O  O36  1  0.44061884  0.62059762  0.00112119  1
  O  O37  1  0.45812398  0.27631192  0.44984555  1
  O  O38  1  0.52595272  0.97782016  0.57609779  1
  O  O39  1  0.50723316  0.38560259  0.88120384  1
  O  O40  1  0.49276684  0.88560259  0.11879616  1
  O  O41  1  0.47404728  0.47782016  0.42390221  1
  O  O42  1  0.54187602  0.77631192  0.55015445  1
  O  O43  1  0.55938116  0.12059762  0.99887881  1
  O  O44  1  0.69028741  0.36788418  0.49645773  1
  O  O45  1  0.71358472  0.52701323  0.07645783  1
  O  O46  1  0.78115917  0.22777428  0.08175541  1
  O  O47  1  0.74815625  0.13225360  0.62872795  1
  O  O48  1  0.75184375  0.63225360  0.62872795  1
  O  O49  1  0.71884083  0.72777428  0.08175541  1
  O  O50  1  0.78641528  0.02701323  0.07645783  1
  O  O51  1  0.80971259  0.86788418  0.49645773  1
  O  O52  1  0.94061884  0.62059762  0.99887881  1
  O  O53  1  0.95812398  0.27631192  0.55015445  1
  O  O54  1  0.02595272  0.97782016  0.42390221  1
  O  O55  1  0.00723316  0.38560259  0.11879616  1
