# generated using pymatgen
data_LiV(PO3)4
_symmetry_space_group_name_H-M   'P 1'
_cell_length_a   14.34867718
_cell_length_b   8.87910274
_cell_length_c   7.14700726
_cell_angle_alpha   90.00000000
_cell_angle_beta   91.48023272
_cell_angle_gamma   90.00000000
_symmetry_Int_Tables_number   1
_chemical_formula_structural   LiV(PO3)4
_chemical_formula_sum   'Li4 V4 P16 O48'
_cell_volume   910.24901914
_cell_formula_units_Z   4
loop_
 _symmetry_equiv_pos_site_id
 _symmetry_equiv_pos_as_xyz
  1  'x, y, z'
loop_
 _atom_site_type_symbol
 _atom_site_label
 _atom_site_symmetry_multiplicity
 _atom_site_fract_x
 _atom_site_fract_y
 _atom_site_fract_z
 _atom_site_occupancy
  Li  Li0  1  0.11988108  0.53343558  0.52686173  1
  Li  Li1  1  0.38011892  0.03343558  0.97313827  1
  Li  Li2  1  0.61988108  0.96656442  0.02686173  1
  Li  Li3  1  0.88011892  0.46656442  0.47313827  1
  V  V4  1  0.15763693  0.74937477  0.00391313  1
  V  V5  1  0.34236307  0.24937477  0.49608687  1
  V  V6  1  0.65763693  0.75062523  0.50391313  1
  V  V7  1  0.84236307  0.25062523  0.99608687  1
  P  P8  1  0.04133763  0.25592897  0.25564124  1
  P  P9  1  0.05887489  0.33079908  0.86348195  1
  P  P10  1  0.18074472  0.07598826  0.75615441  1
  P  P11  1  0.17654082  0.00408575  0.35819319  1
  P  P12  1  0.31925528  0.57598826  0.74384559  1
  P  P13  1  0.32345918  0.50408575  0.14180681  1
  P  P14  1  0.44112511  0.83079908  0.63651805  1
  P  P15  1  0.45866237  0.75592897  0.24435876  1
  P  P16  1  0.54133763  0.24407103  0.75564124  1
  P  P17  1  0.55887489  0.16920092  0.36348195  1
  P  P18  1  0.67654082  0.49591425  0.85819319  1
  P  P19  1  0.68074472  0.42401174  0.25615441  1
  P  P20  1  0.82345918  0.99591425  0.64180681  1
  P  P21  1  0.81925528  0.92401174  0.24384559  1
  P  P22  1  0.94112511  0.66920092  0.13651805  1
  P  P23  1  0.95866237  0.74407103  0.74435876  1
  O  O24  1  0.04662488  0.66226845  0.14381483  1
  O  O25  1  0.05892078  0.77674097  0.79980383  1
  O  O26  1  0.06042803  0.35639491  0.41777409  1
  O  O27  1  0.08427082  0.16579400  0.77990247  1
  O  O28  1  0.08488503  0.09029221  0.28524048  1
  O  O29  1  0.09687052  0.31638018  0.07783812  1
  O  O30  1  0.11086241  0.45684027  0.77975720  1
  O  O31  1  0.15581099  0.97465979  0.57564986  1
  O  O32  1  0.17573606  0.85385084  0.26493720  1
  O  O33  1  0.19766273  0.97312566  0.92185885  1
  O  O34  1  0.24289035  0.68772178  0.78309502  1
  O  O35  1  0.23731577  0.59968550  0.15537038  1
  O  O36  1  0.25710965  0.18772178  0.71690498  1
  O  O37  1  0.26268423  0.09968550  0.34462962  1
  O  O38  1  0.30233727  0.47312566  0.57814115  1
  O  O39  1  0.34418901  0.47465979  0.92435014  1
  O  O40  1  0.32426394  0.35385084  0.23506280  1
  O  O41  1  0.38913759  0.95684027  0.72024280  1
  O  O42  1  0.40312948  0.81638018  0.42216188  1
  O  O43  1  0.41572918  0.66579400  0.72009753  1
  O  O44  1  0.41511497  0.59029221  0.21475952  1
  O  O45  1  0.43957197  0.85639491  0.08222591  1
  O  O46  1  0.44107922  0.27674097  0.70019617  1
  O  O47  1  0.45337512  0.16226845  0.35618517  1
  O  O48  1  0.54662488  0.83773155  0.64381483  1
  O  O49  1  0.55892078  0.72325903  0.29980383  1
  O  O50  1  0.56042803  0.14360509  0.91777409  1
  O  O51  1  0.58488503  0.40970779  0.78524048  1
  O  O52  1  0.58427082  0.33420600  0.27990247  1
  O  O53  1  0.59687052  0.18361982  0.57783812  1
  O  O54  1  0.61086241  0.04315973  0.27975720  1
  O  O55  1  0.67573606  0.64614916  0.76493720  1
  O  O56  1  0.65581099  0.52534021  0.07564986  1
  O  O57  1  0.69766273  0.52687434  0.42185885  1
  O  O58  1  0.73731577  0.90031450  0.65537038  1
  O  O59  1  0.74289035  0.81227822  0.28309502  1
  O  O60  1  0.76268423  0.40031450  0.84462962  1
  O  O61  1  0.75710965  0.31227822  0.21690498  1
  O  O62  1  0.80233727  0.02687434  0.07814115  1
  O  O63  1  0.82426394  0.14614916  0.73506280  1
  O  O64  1  0.84418901  0.02534021  0.42435014  1
  O  O65  1  0.88913759  0.54315973  0.22024280  1
  O  O66  1  0.90312948  0.68361982  0.92216188  1
  O  O67  1  0.91511497  0.90970779  0.71475952  1
  O  O68  1  0.91572918  0.83420600  0.22009753  1
  O  O69  1  0.93957197  0.64360509  0.58222591  1
  O  O70  1  0.94107922  0.22325903  0.20019617  1
  O  O71  1  0.95337512  0.33773155  0.85618517  1
