# generated using pymatgen
data_Li3Fe3O8
_symmetry_space_group_name_H-M   'P 1'
_cell_length_a   5.89888243
_cell_length_b   5.86378654
_cell_length_c   5.86030152
_cell_angle_alpha   59.98234673
_cell_angle_beta   89.91964040
_cell_angle_gamma   60.15649504
_symmetry_Int_Tables_number   1
_chemical_formula_structural   Li3Fe3O8
_chemical_formula_sum   'Li3 Fe3 O8'
_cell_volume   143.73471408
_cell_formula_units_Z   1
loop_
 _symmetry_equiv_pos_site_id
 _symmetry_equiv_pos_as_xyz
  1  'x, y, z'
loop_
 _atom_site_type_symbol
 _atom_site_label
 _atom_site_symmetry_multiplicity
 _atom_site_fract_x
 _atom_site_fract_y
 _atom_site_fract_z
 _atom_site_occupancy
  Li  Li0  1  0.99914866  0.00051135  0.99981915  1
  Li  Li1  1  0.14499122  0.23658061  0.38209099  1
  Li  Li2  1  0.85290036  0.76462382  0.61729349  1
  Fe  Fe3  1  0.49909869  0.00058218  0.99985289  1
  Fe  Fe4  1  0.49908231  0.50057525  0.49986478  1
  Fe  Fe5  1  0.49911174  0.50051200  0.99977349  1
  O  O6  1  0.29062702  0.95686819  0.24784124  1
  O  O7  1  0.29044152  0.95703928  0.79545032  1
  O  O8  1  0.28997758  0.50480731  0.24780194  1
  O  O9  1  0.26686167  0.48903618  0.75441350  1
  O  O10  1  0.70767379  0.04411699  0.75179759  1
  O  O11  1  0.70765121  0.04422407  0.20401853  1
  O  O12  1  0.70810599  0.49625044  0.75186398  1
  O  O13  1  0.73134125  0.51202632  0.24520013  1
