# generated using pymatgen
data_Li3Mn2P2O8F3
_symmetry_space_group_name_H-M   'P 1'
_cell_length_a   9.06655473
_cell_length_b   9.13516309
_cell_length_c   10.36009446
_cell_angle_alpha   90.00000000
_cell_angle_beta   90.00000000
_cell_angle_gamma   90.00000000
_symmetry_Int_Tables_number   1
_chemical_formula_structural   Li3Mn2P2O8F3
_chemical_formula_sum   'Li12 Mn8 P8 O32 F12'
_cell_volume   858.06918903
_cell_formula_units_Z   4
loop_
 _symmetry_equiv_pos_site_id
 _symmetry_equiv_pos_as_xyz
  1  'x, y, z'
loop_
 _atom_site_type_symbol
 _atom_site_label
 _atom_site_symmetry_multiplicity
 _atom_site_fract_x
 _atom_site_fract_y
 _atom_site_fract_z
 _atom_site_occupancy
  Li  Li0  1  0.00957294  0.28530625  0.50000000  1
  Li  Li1  1  0.05409824  0.81187545  0.00000000  1
  Li  Li2  1  0.23800066  0.49807987  0.00000000  1
  Li  Li3  1  0.26199934  0.99807987  0.50000000  1
  Li  Li4  1  0.44590176  0.31187545  0.50000000  1
  Li  Li5  1  0.49042706  0.78530625  0.00000000  1
  Li  Li6  1  0.50957294  0.21469375  0.00000000  1
  Li  Li7  1  0.55409824  0.68812455  0.50000000  1
  Li  Li8  1  0.73800066  0.00192013  0.50000000  1
  Li  Li9  1  0.76199934  0.50192013  0.00000000  1
  Li  Li10  1  0.94590176  0.18812455  0.00000000  1
  Li  Li11  1  0.99042706  0.71469375  0.50000000  1
  Mn  Mn12  1  0.24976466  0.24932856  0.19002755  1
  Mn  Mn13  1  0.24976466  0.24932856  0.80997245  1
  Mn  Mn14  1  0.25023534  0.74932856  0.30997245  1
  Mn  Mn15  1  0.25023534  0.74932856  0.69002755  1
  Mn  Mn16  1  0.74976466  0.25067144  0.30997245  1
  Mn  Mn17  1  0.74976466  0.25067144  0.69002755  1
  Mn  Mn18  1  0.75023534  0.75067144  0.19002755  1
  Mn  Mn19  1  0.75023534  0.75067144  0.80997245  1
  P  P20  1  0.00000000  0.00000000  0.25437750  1
  P  P21  1  0.00000000  0.00000000  0.74562250  1
  P  P22  1  0.00000000  0.50000000  0.74985534  1
  P  P23  1  0.00000000  0.50000000  0.25014466  1
  P  P24  1  0.50000000  0.50000000  0.24562250  1
  P  P25  1  0.50000000  0.00000000  0.24985534  1
  P  P26  1  0.50000000  0.00000000  0.75014466  1
  P  P27  1  0.50000000  0.50000000  0.75437750  1
  O  O28  1  0.08091873  0.60694100  0.34196377  1
  O  O29  1  0.08091873  0.60694100  0.65803623  1
  O  O30  1  0.08289034  0.10391800  0.16094725  1
  O  O31  1  0.08289034  0.10391800  0.83905275  1
  O  O32  1  0.10122104  0.91316424  0.34701333  1
  O  O33  1  0.10122104  0.91316424  0.65298667  1
  O  O34  1  0.10487701  0.41690721  0.15807826  1
  O  O35  1  0.10487701  0.41690721  0.84192174  1
  O  O36  1  0.39512299  0.91690721  0.34192174  1
  O  O37  1  0.39512299  0.91690721  0.65807826  1
  O  O38  1  0.39877896  0.41316424  0.84701333  1
  O  O39  1  0.39877896  0.41316424  0.15298667  1
  O  O40  1  0.41710966  0.60391800  0.33905275  1
  O  O41  1  0.41710966  0.60391800  0.66094725  1
  O  O42  1  0.41908127  0.10694100  0.15803623  1
  O  O43  1  0.41908127  0.10694100  0.84196377  1
  O  O44  1  0.58091873  0.89305900  0.84196377  1
  O  O45  1  0.58091873  0.89305900  0.15803623  1
  O  O46  1  0.58289034  0.39608200  0.33905275  1
  O  O47  1  0.58289034  0.39608200  0.66094725  1
  O  O48  1  0.60122104  0.58683576  0.15298667  1
  O  O49  1  0.60122104  0.58683576  0.84701333  1
  O  O50  1  0.60487701  0.08309279  0.34192174  1
  O  O51  1  0.60487701  0.08309279  0.65807826  1
  O  O52  1  0.89512299  0.58309279  0.84192174  1
  O  O53  1  0.89512299  0.58309279  0.15807826  1
  O  O54  1  0.89877896  0.08683576  0.34701333  1
  O  O55  1  0.89877896  0.08683576  0.65298667  1
  O  O56  1  0.91710966  0.89608200  0.16094725  1
  O  O57  1  0.91710966  0.89608200  0.83905275  1
  O  O58  1  0.91908127  0.39305900  0.34196377  1
  O  O59  1  0.91908127  0.39305900  0.65803623  1
  F  F60  1  0.25841440  0.23722180  0.37839254  1
  F  F61  1  0.25841440  0.23722180  0.62160746  1
  F  F62  1  0.24916929  0.25248499  0.00000000  1
  F  F63  1  0.25083071  0.75248499  0.50000000  1
  F  F64  1  0.24158560  0.73722180  0.12160746  1
  F  F65  1  0.24158560  0.73722180  0.87839254  1
  F  F66  1  0.75841440  0.26277820  0.12160746  1
  F  F67  1  0.75841440  0.26277820  0.87839254  1
  F  F68  1  0.74916929  0.24751501  0.50000000  1
  F  F69  1  0.75083071  0.74751501  0.00000000  1
  F  F70  1  0.74158560  0.76277820  0.37839254  1
  F  F71  1  0.74158560  0.76277820  0.62160746  1
