# generated using pymatgen
data_LiCoSiO4
_symmetry_space_group_name_H-M   'P 1'
_cell_length_a   10.21425805
_cell_length_b   13.38401400
_cell_length_c   5.09209752
_cell_angle_alpha   90.00000000
_cell_angle_beta   90.00000000
_cell_angle_gamma   90.00000000
_symmetry_Int_Tables_number   1
_chemical_formula_structural   LiCoSiO4
_chemical_formula_sum   'Li8 Co8 Si8 O32'
_cell_volume   696.12931054
_cell_formula_units_Z   8
loop_
 _symmetry_equiv_pos_site_id
 _symmetry_equiv_pos_as_xyz
  1  'x, y, z'
loop_
 _atom_site_type_symbol
 _atom_site_label
 _atom_site_symmetry_multiplicity
 _atom_site_fract_x
 _atom_site_fract_y
 _atom_site_fract_z
 _atom_site_occupancy
  Li  Li0  1  0.03365422  0.50288979  0.91388971  1
  Li  Li1  1  0.21515140  0.74974706  0.55746363  1
  Li  Li2  1  0.28484860  0.24974706  0.55746363  1
  Li  Li3  1  0.46634578  0.00288979  0.91388971  1
  Li  Li4  1  0.53365422  0.50288979  0.08611029  1
  Li  Li5  1  0.71515140  0.74974706  0.44253637  1
  Li  Li6  1  0.78484860  0.24974706  0.44253637  1
  Li  Li7  1  0.96634578  0.00288979  0.08611029  1
  Co  Co8  1  0.03930976  0.75283250  0.06656992  1
  Co  Co9  1  0.21382393  0.00017366  0.55597523  1
  Co  Co10  1  0.28617607  0.50017366  0.55597523  1
  Co  Co11  1  0.46069024  0.25283250  0.06656992  1
  Co  Co12  1  0.53930976  0.75283250  0.93343008  1
  Co  Co13  1  0.71382393  0.00017366  0.44402477  1
  Co  Co14  1  0.78617607  0.50017366  0.44402477  1
  Co  Co15  1  0.96069024  0.25283250  0.93343008  1
  Si  Si16  1  0.03389630  0.37506537  0.43164881  1
  Si  Si17  1  0.21416250  0.12869619  0.05357077  1
  Si  Si18  1  0.28583750  0.62869619  0.05357077  1
  Si  Si19  1  0.46610370  0.87506537  0.43164881  1
  Si  Si20  1  0.53389630  0.37506537  0.56835119  1
  Si  Si21  1  0.71416250  0.12869619  0.94642923  1
  Si  Si22  1  0.78583750  0.62869619  0.94642923  1
  Si  Si23  1  0.96610370  0.87506537  0.56835119  1
  O  O24  1  0.99398926  0.86990278  0.88678930  1
  O  O25  1  0.95905974  0.47441290  0.55064307  1
  O  O26  1  0.03171735  0.77599544  0.42862263  1
  O  O27  1  0.05591823  0.13586228  0.99458859  1
  O  O28  1  0.19106032  0.38176173  0.49736445  1
  O  O29  1  0.22854440  0.53008575  0.89685782  1
  O  O30  1  0.28980729  0.22869640  0.94417603  1
  O  O31  1  0.24372772  0.11947816  0.36999534  1
  O  O32  1  0.25627228  0.61947816  0.36999534  1
  O  O33  1  0.21019271  0.72869640  0.94417603  1
  O  O34  1  0.27145560  0.03008575  0.89685782  1
  O  O35  1  0.30893968  0.88176173  0.49736445  1
  O  O36  1  0.44408177  0.63586228  0.99458859  1
  O  O37  1  0.46828265  0.27599544  0.42862263  1
  O  O38  1  0.54094026  0.97441290  0.55064307  1
  O  O39  1  0.50601074  0.36990278  0.88678930  1
  O  O40  1  0.49398926  0.86990278  0.11321070  1
  O  O41  1  0.45905974  0.47441290  0.44935693  1
  O  O42  1  0.53171735  0.77599544  0.57137737  1
  O  O43  1  0.55591823  0.13586228  0.00541141  1
  O  O44  1  0.69106032  0.38176173  0.50263555  1
  O  O45  1  0.72854440  0.53008575  0.10314218  1
  O  O46  1  0.78980729  0.22869640  0.05582397  1
  O  O47  1  0.74372772  0.11947816  0.63000466  1
  O  O48  1  0.75627228  0.61947816  0.63000466  1
  O  O49  1  0.71019271  0.72869640  0.05582397  1
  O  O50  1  0.77145560  0.03008575  0.10314218  1
  O  O51  1  0.80893968  0.88176173  0.50263555  1
  O  O52  1  0.94408177  0.63586228  0.00541141  1
  O  O53  1  0.96828265  0.27599544  0.57137737  1
  O  O54  1  0.04094026  0.97441290  0.44935693  1
  O  O55  1  0.00601074  0.36990278  0.11321070  1
