# generated using pymatgen
data_KV6O14
_symmetry_space_group_name_H-M   'P 1'
_cell_length_a   10.55717454
_cell_length_b   8.75436440
_cell_length_c   7.24884863
_cell_angle_alpha   78.19989776
_cell_angle_beta   89.82605412
_cell_angle_gamma   103.90286161
_symmetry_Int_Tables_number   1
_chemical_formula_structural   KV6O14
_chemical_formula_sum   'K2 V12 O28'
_cell_volume   635.61838529
_cell_formula_units_Z   2
loop_
 _symmetry_equiv_pos_site_id
 _symmetry_equiv_pos_as_xyz
  1  'x, y, z'
loop_
 _atom_site_type_symbol
 _atom_site_label
 _atom_site_symmetry_multiplicity
 _atom_site_fract_x
 _atom_site_fract_y
 _atom_site_fract_z
 _atom_site_occupancy
  K  K0  1  0.59368807  0.99943646  0.00235071  1
  K  K1  1  0.40631193  0.00056354  0.49764929  1
  V  V2  1  0.89773599  0.32527349  0.66670275  1
  V  V3  1  0.89657435  0.31713573  0.17258600  1
  V  V4  1  0.86452784  0.70280121  0.57394400  1
  V  V5  1  0.86186912  0.68610984  0.07761386  1
  V  V6  1  0.58076585  0.41881419  0.14390209  1
  V  V7  1  0.58958376  0.42926188  0.64313447  1
  V  V8  1  0.41923415  0.58118581  0.35609791  1
  V  V9  1  0.41041624  0.57073812  0.85686553  1
  V  V10  1  0.13813088  0.31389016  0.42238614  1
  V  V11  1  0.13547216  0.29719879  0.92605600  1
  V  V12  1  0.10342565  0.68286427  0.32741400  1
  V  V13  1  0.10226401  0.67472651  0.83329725  1
  O  O14  1  0.95097847  0.36661463  0.90051426  1
  O  O15  1  0.94785706  0.38060082  0.41222508  1
  O  O16  1  0.79044095  0.14418155  0.21277366  1
  O  O17  1  0.79304885  0.15168770  0.70955427  1
  O  O18  1  0.93085575  0.73682100  0.82677313  1
  O  O19  1  0.92813136  0.73297171  0.30482954  1
  O  O20  1  0.77441423  0.46908817  0.63491360  1
  O  O21  1  0.77782492  0.47665329  0.12896715  1
  O  O22  1  0.74386545  0.77915385  0.05300392  1
  O  O23  1  0.74220144  0.78709636  0.55607608  1
  O  O24  1  0.53618815  0.22187647  0.19193156  1
  O  O25  1  0.54285711  0.23324682  0.69263096  1
  O  O26  1  0.57806919  0.49849703  0.86983699  1
  O  O27  1  0.57775505  0.49439619  0.38259329  1
  O  O28  1  0.42193081  0.50150297  0.63016301  1
  O  O29  1  0.42224495  0.50560381  0.11740671  1
  O  O30  1  0.46381185  0.77812353  0.30806844  1
  O  O31  1  0.45714289  0.76675318  0.80736904  1
  O  O32  1  0.25613455  0.22084615  0.44699608  1
  O  O33  1  0.25779856  0.21290364  0.94392392  1
  O  O34  1  0.22217508  0.52334671  0.37103285  1
  O  O35  1  0.22558577  0.53091183  0.86508640  1
  O  O36  1  0.07186864  0.26702829  0.19517046  1
  O  O37  1  0.06914425  0.26317900  0.67322687  1
  O  O38  1  0.20695115  0.84831230  0.79044573  1
  O  O39  1  0.20955905  0.85581845  0.28722634  1
  O  O40  1  0.05214294  0.61939918  0.08777492  1
  O  O41  1  0.04902153  0.63338537  0.59948574  1
