# generated using pymatgen
data_Co3(OF2)2
_symmetry_space_group_name_H-M   'P 1'
_cell_length_a   7.51280305
_cell_length_b   5.62091648
_cell_length_c   5.62091648
_cell_angle_alpha   69.57735576
_cell_angle_beta   70.40577338
_cell_angle_gamma   70.40577338
_symmetry_Int_Tables_number   1
_chemical_formula_structural   Co3(OF2)2
_chemical_formula_sum   'Co6 O4 F8'
_cell_volume   203.05415279
_cell_formula_units_Z   2
loop_
 _symmetry_equiv_pos_site_id
 _symmetry_equiv_pos_as_xyz
  1  'x, y, z'
loop_
 _atom_site_type_symbol
 _atom_site_label
 _atom_site_symmetry_multiplicity
 _atom_site_fract_x
 _atom_site_fract_y
 _atom_site_fract_z
 _atom_site_occupancy
  Co  Co0  1  0.83904695  0.64514022  0.67472715  1
  Co  Co1  1  0.33604910  0.68679908  0.64720701  1
  Co  Co2  1  0.66395090  0.35279299  0.31320092  1
  Co  Co3  1  0.16095305  0.32527285  0.35485978  1
  Co  Co4  1  0.50000000  0.98193560  0.01806440  1
  Co  Co5  1  0.00000000  0.98891610  0.01108390  1
  O  O6  1  0.32538738  -0.00115627  0.35296980  1
  O  O7  1  0.67461262  0.64703020  0.00115627  1
  O  O8  1  0.00000000  0.27739067  0.72260933  1
  O  O9  1  0.00000000  0.68585798  0.31414202  1
  F  F10  1  0.33462228  0.37508322  0.96268498  1
  F  F11  1  0.66537772  0.03731502  0.62491678  1
  F  F12  1  0.63232852  0.57097773  0.55946010  1
  F  F13  1  0.30493224  0.90626899  0.90827320  1
  F  F14  1  0.96212681  0.22639327  0.23828535  1
  F  F15  1  0.36767148  0.44053990  0.42902227  1
  F  F16  1  0.03787319  0.76171465  0.77360673  1
  F  F17  1  0.69506776  0.09172680  0.09373101  1
