# generated using pymatgen
data_Mn(PO3)3
_symmetry_space_group_name_H-M   'P 1'
_cell_length_a   7.07174845
_cell_length_b   7.22859622
_cell_length_c   6.75623712
_cell_angle_alpha   99.06981354
_cell_angle_beta   88.21074658
_cell_angle_gamma   83.97820360
_symmetry_Int_Tables_number   1
_chemical_formula_structural   Mn(PO3)3
_chemical_formula_sum   'Mn2 P6 O18'
_cell_volume   338.76940181
_cell_formula_units_Z   2
loop_
 _symmetry_equiv_pos_site_id
 _symmetry_equiv_pos_as_xyz
  1  'x, y, z'
loop_
 _atom_site_type_symbol
 _atom_site_label
 _atom_site_symmetry_multiplicity
 _atom_site_fract_x
 _atom_site_fract_y
 _atom_site_fract_z
 _atom_site_occupancy
  Mn  Mn0  1  0.18039460  0.14933544  0.94228215  1
  Mn  Mn1  1  0.81960540  0.85066456  0.05771785  1
  P  P2  1  0.15812792  0.56062475  0.82701152  1
  P  P3  1  0.33043950  0.79627959  0.14695350  1
  P  P4  1  0.36485721  0.80172296  0.59810332  1
  P  P5  1  0.63514279  0.19827704  0.40189668  1
  P  P6  1  0.66956050  0.20372041  0.85304650  1
  P  P7  1  0.84187208  0.43937425  0.17298848  1
  O  O8  1  0.02834120  0.31341595  0.16365976  1
  O  O9  1  0.13899720  0.35184650  0.78250850  1
  O  O10  1  0.17470761  0.94956816  0.10954258  1
  O  O11  1  0.21844859  0.95987283  0.70034811  1
  O  O12  1  0.26563096  0.59920519  0.03316118  1
  O  O13  1  0.30046096  0.60489643  0.66026693  1
  O  O14  1  0.42981435  0.19231134  0.38189155  1
  O  O15  1  0.30124784  0.76085218  0.36846849  1
  O  O16  1  0.47233203  0.18788882  0.92307826  1
  O  O17  1  0.52766797  0.81211118  0.07692174  1
  O  O18  1  0.69875216  0.23914782  0.63153151  1
  O  O19  1  0.57018565  0.80768866  0.61810845  1
  O  O20  1  0.69953904  0.39510357  0.33973307  1
  O  O21  1  0.73436904  0.40079481  0.96683882  1
  O  O22  1  0.78155141  0.04012717  0.29965189  1
  O  O23  1  0.82529239  0.05043184  0.89045742  1
  O  O24  1  0.86100280  0.64815350  0.21749150  1
  O  O25  1  0.97165880  0.68658405  0.83634024  1
