# generated using pymatgen
data_V3OF11
_symmetry_space_group_name_H-M   'P 1'
_cell_length_a   5.44221252
_cell_length_b   5.27528547
_cell_length_c   14.59581887
_cell_angle_alpha   90.00000000
_cell_angle_beta   100.45075900
_cell_angle_gamma   90.00000000
_symmetry_Int_Tables_number   1
_chemical_formula_structural   V3OF11
_chemical_formula_sum   'V6 O2 F22'
_cell_volume   412.08334411
_cell_formula_units_Z   2
loop_
 _symmetry_equiv_pos_site_id
 _symmetry_equiv_pos_as_xyz
  1  'x, y, z'
loop_
 _atom_site_type_symbol
 _atom_site_label
 _atom_site_symmetry_multiplicity
 _atom_site_fract_x
 _atom_site_fract_y
 _atom_site_fract_z
 _atom_site_occupancy
  V  V0  1  0.00003608  0.99996768  0.00001152  1
  V  V1  1  0.16555454  0.50682555  0.32757035  1
  V  V2  1  0.33444546  0.00682555  0.67242965  1
  V  V3  1  0.49996392  0.49996768  0.99998848  1
  V  V4  1  0.66743553  0.00167411  0.33419446  1
  V  V5  1  0.83256447  0.50167411  0.66580554  1
  O  O6  1  0.37662116  0.08210397  0.78170638  1
  O  O7  1  0.12337884  0.58210397  0.21829362  1
  F  F8  1  0.02818678  0.20044707  0.64084659  1
  F  F9  1  0.19115632  0.29958222  0.97497222  1
  F  F10  1  0.14038709  0.70446255  0.69120840  1
  F  F11  1  0.04339710  0.08624098  0.11881441  1
  F  F12  1  0.20969489  0.41309386  0.45087544  1
  F  F13  1  0.29030511  0.91309386  0.54912456  1
  F  F14  1  0.45660290  0.58624098  0.88118559  1
  F  F15  1  0.35961291  0.20446255  0.30879160  1
  F  F16  1  0.52641365  0.29385224  0.64101647  1
  F  F17  1  0.69148666  0.20053434  0.97505486  1
  F  F18  1  0.30884368  0.79958222  0.02502778  1
  F  F19  1  0.47181322  0.70044707  0.35915341  1
  F  F20  1  0.63825464  0.79871527  0.69150741  1
  F  F21  1  0.54347150  0.41350168  0.11878073  1
  F  F22  1  0.71063994  0.08497140  0.45246256  1
  F  F23  1  0.87680310  0.41402610  0.78463701  1
  F  F24  1  0.62319690  0.91402610  0.21536299  1
  F  F25  1  0.78936006  0.58497140  0.54753744  1
  F  F26  1  0.95652850  0.91350168  0.88121927  1
  F  F27  1  0.86174536  0.29871527  0.30849259  1
  F  F28  1  0.80851334  0.70053434  0.02494514  1
  F  F29  1  0.97358635  0.79385224  0.35898353  1
