# generated using pymatgen
data_Li4VO4F
_symmetry_space_group_name_H-M   'P 1'
_cell_length_a   5.13342635
_cell_length_b   5.61691817
_cell_length_c   9.41238849
_cell_angle_alpha   90.00000000
_cell_angle_beta   90.00000000
_cell_angle_gamma   61.95429653
_symmetry_Int_Tables_number   1
_chemical_formula_structural   Li4VO4F
_chemical_formula_sum   'Li8 V2 O8 F2'
_cell_volume   239.52774611
_cell_formula_units_Z   2
loop_
 _symmetry_equiv_pos_site_id
 _symmetry_equiv_pos_as_xyz
  1  'x, y, z'
loop_
 _atom_site_type_symbol
 _atom_site_label
 _atom_site_symmetry_multiplicity
 _atom_site_fract_x
 _atom_site_fract_y
 _atom_site_fract_z
 _atom_site_occupancy
  Li  Li0  1  0.31224080  0.11753356  0.52245840  1
  Li  Li1  1  0.13678579  0.46443534  0.75127725  1
  Li  Li2  1  0.15626233  0.65152020  0.49592932  1
  Li  Li3  1  0.31124622  0.42989490  0.04222210  1
  Li  Li4  1  0.68875378  0.57010510  0.54222210  1
  Li  Li5  1  0.84373767  0.34847980  0.99592932  1
  Li  Li6  1  0.86321421  0.53556466  0.25127725  1
  Li  Li7  1  0.68775920  0.88246644  0.02245840  1
  V  V8  1  0.23923210  0.88502990  0.21797677  1
  V  V9  1  0.76076790  0.11497010  0.71797677  1
  O  O10  1  0.16853168  0.19771658  0.14575152  1
  O  O11  1  0.07280983  0.15309454  0.70073202  1
  O  O12  1  0.48481575  0.36388808  0.61289141  1
  O  O13  1  0.63244069  0.18161215  0.89497495  1
  O  O14  1  0.36755931  0.81838785  0.39497495  1
  O  O15  1  0.51518425  0.63611192  0.11289141  1
  O  O16  1  0.92719017  0.84690546  0.20073202  1
  O  O17  1  0.83146832  0.80228342  0.64575152  1
  F  F18  1  0.01928130  0.41820559  0.42752527  1
  F  F19  1  0.98071870  0.58179441  0.92752527  1
