# generated using pymatgen
data_Mn12O7F17
_symmetry_space_group_name_H-M   'P 1'
_cell_length_a   5.25262146
_cell_length_b   5.55749510
_cell_length_c   15.08342995
_cell_angle_alpha   96.78128228
_cell_angle_beta   89.65586124
_cell_angle_gamma   90.15717645
_symmetry_Int_Tables_number   1
_chemical_formula_structural   Mn12O7F17
_chemical_formula_sum   'Mn12 O7 F17'
_cell_volume   437.21757960
_cell_formula_units_Z   1
loop_
 _symmetry_equiv_pos_site_id
 _symmetry_equiv_pos_as_xyz
  1  'x, y, z'
loop_
 _atom_site_type_symbol
 _atom_site_label
 _atom_site_symmetry_multiplicity
 _atom_site_fract_x
 _atom_site_fract_y
 _atom_site_fract_z
 _atom_site_occupancy
  Mn  Mn0  1  0.10636166  0.04525478  0.99452956  1
  Mn  Mn1  1  0.98279805  0.38654211  0.17515103  1
  Mn  Mn2  1  0.99943501  0.88595889  0.33199131  1
  Mn  Mn3  1  0.97494470  0.42602136  0.50786803  1
  Mn  Mn4  1  0.02611039  0.89974247  0.66994651  1
  Mn  Mn5  1  0.04347503  0.50344398  0.83238764  1
  Mn  Mn6  1  0.49556101  0.03434732  0.16408361  1
  Mn  Mn7  1  0.43036264  0.49723935  0.00377181  1
  Mn  Mn8  1  0.47654883  0.58498054  0.66192908  1
  Mn  Mn9  1  0.49420314  0.08597608  0.50806960  1
  Mn  Mn10  1  0.48041366  0.54827365  0.32411749  1
  Mn  Mn11  1  0.52479447  0.06308870  0.83103050  1
  O  O12  1  0.23740002  0.27907716  0.92036529  1
  O  O13  1  0.29892393  0.81994212  0.74560155  1
  O  O14  1  0.27648607  0.27417161  0.08615887  1
  O  O15  1  0.16831381  0.60062912  0.25937860  1
  O  O16  1  0.17405999  0.64894140  0.58982570  1
  O  O17  1  0.65844480  0.38118064  0.57176807  1
  O  O18  1  0.66457533  0.34397829  0.23696660  1
  F  F19  1  0.15873643  0.10334317  0.24347401  1
  F  F20  1  0.14078792  0.78952548  0.07249152  1
  F  F21  1  0.16189980  0.14345815  0.57874162  1
  F  F22  1  0.32821153  0.83703453  0.41299041  1
  F  F23  1  0.39321021  0.77429802  0.92369663  1
  F  F24  1  0.35302256  0.33282393  0.74962854  1
  F  F25  1  0.28634676  0.34732740  0.42642051  1
  F  F26  1  0.72076756  0.37123387  0.91215617  1
  F  F27  1  0.62499508  0.69574666  0.08989628  1
  F  F28  1  0.79153595  0.61354833  0.40530960  1
  F  F29  1  0.78799491  0.63574683  0.73905542  1
  F  F30  1  0.82280645  0.12401985  0.42847252  1
  F  F31  1  0.79322168  0.18328799  0.07691301  1
  F  F32  1  0.86703281  0.13978864  0.75725925  1
  F  F33  1  0.69747234  0.88273767  0.59886859  1
  F  F34  1  0.90314471  0.86164712  0.90420931  1
  F  F35  1  0.65559978  0.85564479  0.26547677  1
