# generated using pymatgen
data_Li6Co3Ni5O16
_symmetry_space_group_name_H-M   'P 1'
_cell_length_a   5.72132905
_cell_length_b   5.73343370
_cell_length_c   9.25513608
_cell_angle_alpha   88.11243964
_cell_angle_beta   91.54672358
_cell_angle_gamma   121.64477017
_symmetry_Int_Tables_number   1
_chemical_formula_structural   Li6Co3Ni5O16
_chemical_formula_sum   'Li6 Co3 Ni5 O16'
_cell_volume   258.29854092
_cell_formula_units_Z   1
loop_
 _symmetry_equiv_pos_site_id
 _symmetry_equiv_pos_as_xyz
  1  'x, y, z'
loop_
 _atom_site_type_symbol
 _atom_site_label
 _atom_site_symmetry_multiplicity
 _atom_site_fract_x
 _atom_site_fract_y
 _atom_site_fract_z
 _atom_site_occupancy
  Li  Li0  1  0.83054208  0.16948421  0.55000461  1
  Li  Li1  1  0.82719506  0.66536317  0.55411392  1
  Li  Li2  1  0.33491693  0.17216772  0.55415699  1
  Li  Li3  1  0.66005928  0.82699389  0.04893416  1
  Li  Li4  1  0.17272443  0.34113908  0.04994296  1
  Li  Li5  1  0.16854500  0.83023667  0.05298222  1
  Co  Co6  1  0.83462840  0.16750543  0.28899164  1
  Co  Co7  1  0.66359628  0.83030159  0.78439160  1
  Co  Co8  1  0.16846193  0.33166175  0.78737161  1
  Ni  Ni9  1  0.66983598  0.33239538  0.01128403  1
  Ni  Ni10  1  0.83099597  0.66338794  0.28503105  1
  Ni  Ni11  1  0.33599474  0.16889335  0.28551378  1
  Ni  Ni12  1  0.32717215  0.67375961  0.51414214  1
  Ni  Ni13  1  0.16882077  0.82984141  0.78573707  1
  O  O14  1  0.85187683  0.15961131  0.89234006  1
  O  O15  1  0.97201256  0.47062240  0.15715137  1
  O  O16  1  0.52964201  0.02850369  0.15531277  1
  O  O17  1  0.67257688  0.32792300  0.39731258  1
  O  O18  1  0.84236640  0.68440933  0.90294148  1
  O  O19  1  0.52017558  0.48003290  0.16092298  1
  O  O20  1  0.67162833  0.85082427  0.40304055  1
  O  O21  1  0.31633449  0.15990110  0.90054631  1
  O  O22  1  0.47917055  0.51292521  0.66947511  1
  O  O23  1  0.14554680  0.32691828  0.40232354  1
  O  O24  1  0.48884998  0.96854458  0.66523818  1
  O  O25  1  0.34327183  0.65430611  0.90039705  1
  O  O26  1  0.03342298  0.51193356  0.66459125  1
  O  O27  1  0.15095670  0.84802668  0.40415636  1
  O  O28  1  0.99251310  0.00716175  0.18055019  1
  O  O29  1  0.99268598  0.00916361  0.67493347  1
