# generated using pymatgen
data_Na3VO3
_symmetry_space_group_name_H-M   'P 1'
_cell_length_a   5.95185296
_cell_length_b   12.75476529
_cell_length_c   5.93627665
_cell_angle_alpha   90.00000000
_cell_angle_beta   115.29287027
_cell_angle_gamma   90.00000000
_symmetry_Int_Tables_number   1
_chemical_formula_structural   Na3VO3
_chemical_formula_sum   'Na12 V4 O12'
_cell_volume   407.44822013
_cell_formula_units_Z   4
loop_
 _symmetry_equiv_pos_site_id
 _symmetry_equiv_pos_as_xyz
  1  'x, y, z'
loop_
 _atom_site_type_symbol
 _atom_site_label
 _atom_site_symmetry_multiplicity
 _atom_site_fract_x
 _atom_site_fract_y
 _atom_site_fract_z
 _atom_site_occupancy
  Na  Na0  1  0.14393841  0.22197126  0.69912045  1
  Na  Na1  1  0.24769883  0.48376298  0.78059243  1
  Na  Na2  1  0.25230117  0.98376298  0.71940757  1
  Na  Na3  1  0.35606159  0.72197126  0.80087955  1
  Na  Na4  1  0.28401146  0.59357437  0.35697491  1
  Na  Na5  1  0.21598854  0.09357437  0.14302509  1
  Na  Na6  1  0.78401146  0.90642563  0.85697491  1
  Na  Na7  1  0.71598854  0.40642563  0.64302509  1
  Na  Na8  1  0.64393841  0.27802874  0.19912045  1
  Na  Na9  1  0.74769883  0.01623702  0.28059243  1
  Na  Na10  1  0.75230117  0.51623702  0.21940757  1
  Na  Na11  1  0.85606159  0.77802874  0.30087955  1
  V  V12  1  0.17211189  0.33502836  0.25272846  1
  V  V13  1  0.32788811  0.83502836  0.24727154  1
  V  V14  1  0.67211189  0.16497164  0.75272846  1
  V  V15  1  0.82788811  0.66497164  0.74727154  1
  O  O16  1  0.00416191  0.37260127  0.45144942  1
  O  O17  1  0.11717600  0.93596363  0.30110369  1
  O  O18  1  0.07915393  0.72723257  0.04934410  1
  O  O19  1  0.50416191  0.12739873  0.95144942  1
  O  O20  1  0.42084607  0.22723257  0.45065590  1
  O  O21  1  0.61717600  0.56403637  0.80110369  1
  O  O22  1  0.38282400  0.43596363  0.19889631  1
  O  O23  1  0.57915393  0.77276743  0.54934410  1
  O  O24  1  0.49583809  0.87260127  0.04855058  1
  O  O25  1  0.92084607  0.27276743  0.95065590  1
  O  O26  1  0.88282400  0.06403637  0.69889631  1
  O  O27  1  0.99583809  0.62739873  0.54855058  1
