# generated using pymatgen
data_Mn3(O2F)2
_symmetry_space_group_name_H-M   'P 1'
_cell_length_a   7.60519769
_cell_length_b   5.51418895
_cell_length_c   5.51418895
_cell_angle_alpha   69.46959855
_cell_angle_beta   69.99804117
_cell_angle_gamma   69.99804117
_symmetry_Int_Tables_number   1
_chemical_formula_structural   Mn3(O2F)2
_chemical_formula_sum   'Mn6 O8 F4'
_cell_volume   196.90839966
_cell_formula_units_Z   2
loop_
 _symmetry_equiv_pos_site_id
 _symmetry_equiv_pos_as_xyz
  1  'x, y, z'
loop_
 _atom_site_type_symbol
 _atom_site_label
 _atom_site_symmetry_multiplicity
 _atom_site_fract_x
 _atom_site_fract_y
 _atom_site_fract_z
 _atom_site_occupancy
  Mn  Mn0  1  0.83855863  0.67053438  0.67053438  1
  Mn  Mn1  1  0.66666700  0.33333300  0.33333300  1
  Mn  Mn2  1  0.31955714  0.64914907  0.64914907  1
  Mn  Mn3  1  0.16666700  0.33333300  0.33333300  1
  Mn  Mn4  1  0.49477437  0.99613262  0.99613262  1
  Mn  Mn5  1  0.01377686  0.01751793  0.01751793  1
  O  O6  1  0.66666700  0.03139446  0.63527254  1
  O  O7  1  0.32301468  0.35391976  0.96596767  1
  O  O8  1  0.95531925  0.24363843  0.24363843  1
  O  O9  1  0.37801375  0.42302757  0.42302757  1
  O  O10  1  0.32301468  0.96596767  0.35391976  1
  O  O11  1  0.66666700  0.63527254  0.03139446  1
  O  O12  1  0.01031932  0.31274724  0.70069833  1
  O  O13  1  0.01031932  0.70069833  0.31274724  1
  F  F14  1  0.31033976  0.87034478  0.87034478  1
  F  F15  1  0.63484894  0.55166040  0.55166040  1
  F  F16  1  0.69848406  0.11500660  0.11500660  1
  F  F17  1  0.02299424  0.79632222  0.79632222  1
