# generated using pymatgen
data_Li3FeNi3O8
_symmetry_space_group_name_H-M   'P 1'
_cell_length_a   5.77578290
_cell_length_b   5.78132222
_cell_length_c   9.42853431
_cell_angle_alpha   89.73996144
_cell_angle_beta   89.92309378
_cell_angle_gamma   60.05036217
_symmetry_Int_Tables_number   1
_chemical_formula_structural   Li3FeNi3O8
_chemical_formula_sum   'Li6 Fe2 Ni6 O16'
_cell_volume   272.78991302
_cell_formula_units_Z   2
loop_
 _symmetry_equiv_pos_site_id
 _symmetry_equiv_pos_as_xyz
  1  'x, y, z'
loop_
 _atom_site_type_symbol
 _atom_site_label
 _atom_site_symmetry_multiplicity
 _atom_site_fract_x
 _atom_site_fract_y
 _atom_site_fract_z
 _atom_site_occupancy
  Li  Li0  1  0.16879692  0.16838541  0.44832329  1
  Li  Li1  1  0.16788324  0.66488028  0.44889209  1
  Li  Li2  1  0.66519932  0.16704278  0.44845737  1
  Li  Li3  1  0.33663062  0.83183412  0.94807111  1
  Li  Li4  1  0.83367400  0.33313583  0.94823755  1
  Li  Li5  1  0.83197994  0.83243488  0.94828153  1
  Fe  Fe6  1  0.33383841  0.33203486  0.98611891  1
  Fe  Fe7  1  0.66646282  0.66844308  0.48512197  1
  Ni  Ni8  1  0.16859418  0.16981173  0.71331361  1
  Ni  Ni9  1  0.16910920  0.66192306  0.71397871  1
  Ni  Ni10  1  0.66190437  0.16906574  0.71320797  1
  Ni  Ni11  1  0.33700829  0.83091003  0.21424854  1
  Ni  Ni12  1  0.83002591  0.33812322  0.21411070  1
  Ni  Ni13  1  0.83002537  0.83132428  0.21388713  1
  O  O14  1  0.99639495  0.99561792  0.31239900  1
  O  O15  1  0.99759929  0.00304234  0.81080822  1
  O  O16  1  0.16653368  0.16379388  0.08875457  1
  O  O17  1  0.03275455  0.48340394  0.85306855  1
  O  O18  1  0.16662779  0.66815038  0.08833173  1
  O  O19  1  0.33533197  0.33073936  0.60633391  1
  O  O20  1  0.48181613  0.03418293  0.85077769  1
  O  O21  1  0.48420813  0.48152174  0.85292265  1
  O  O22  1  0.33073314  0.83538216  0.58772938  1
  O  O23  1  0.67123959  0.16144646  0.08845333  1
  O  O24  1  0.51564633  0.51751985  0.35286780  1
  O  O25  1  0.66816959  0.67235972  0.10749130  1
  O  O26  1  0.51577585  0.96799127  0.35174846  1
  O  O27  1  0.83672418  0.32980303  0.58803133  1
  O  O28  1  0.96504834  0.52099221  0.35125872  1
  O  O29  1  0.83387189  0.83509454  0.58910390  1
