# generated using pymatgen
data_Mn12O7F17
_symmetry_space_group_name_H-M   'P 1'
_cell_length_a   4.79136106
_cell_length_b   5.81226787
_cell_length_c   15.86842614
_cell_angle_alpha   90.53907624
_cell_angle_beta   90.09421000
_cell_angle_gamma   85.84862202
_symmetry_Int_Tables_number   1
_chemical_formula_structural   Mn12O7F17
_chemical_formula_sum   'Mn12 O7 F17'
_cell_volume   440.73544603
_cell_formula_units_Z   1
loop_
 _symmetry_equiv_pos_site_id
 _symmetry_equiv_pos_as_xyz
  1  'x, y, z'
loop_
 _atom_site_type_symbol
 _atom_site_label
 _atom_site_symmetry_multiplicity
 _atom_site_fract_x
 _atom_site_fract_y
 _atom_site_fract_z
 _atom_site_occupancy
  Mn  Mn0  1  0.99456375  0.14868456  0.41697786  1
  Mn  Mn1  1  0.02575042  0.83699564  0.23721956  1
  Mn  Mn2  1  0.01403275  0.15262967  0.07623449  1
  Mn  Mn3  1  0.01943212  0.14986156  0.75326941  1
  Mn  Mn4  1  0.03850623  0.83453096  0.57988648  1
  Mn  Mn5  1  0.00770770  0.85074450  0.91279823  1
  Mn  Mn6  1  0.49483678  0.35626500  0.58719676  1
  Mn  Mn7  1  0.48498015  0.31081727  0.93036375  1
  Mn  Mn8  1  0.52055993  0.33390065  0.25847502  1
  Mn  Mn9  1  0.49936171  0.64923278  0.08275666  1
  Mn  Mn10  1  0.50526491  0.65498649  0.41816837  1
  Mn  Mn11  1  0.48295762  0.66876201  0.75120474  1
  O  O12  1  0.19459525  0.10391205  0.96888724  1
  O  O13  1  0.23750582  0.88897449  0.12707083  1
  O  O14  1  0.22708770  0.88274885  0.46957874  1
  O  O15  1  0.21886752  0.88574054  0.80576740  1
  O  O16  1  0.29163811  0.62502319  0.64349149  1
  O  O17  1  0.71560039  0.37988819  0.03323243  1
  O  O18  1  0.72419636  0.38453419  0.36935653  1
  F  F19  1  0.22107623  0.11534184  0.30606447  1
  F  F20  1  0.23925159  0.12495855  0.64270784  1
  F  F21  1  0.26348618  0.39669967  0.14977639  1
  F  F22  1  0.27297878  0.61784273  0.31261666  1
  F  F23  1  0.25387318  0.38490349  0.47623608  1
  F  F24  1  0.27202887  0.38550763  0.81436653  1
  F  F25  1  0.25611653  0.60626599  0.97909118  1
  F  F26  1  0.71470318  0.62210587  0.19328072  1
  F  F27  1  0.73018655  0.61377164  0.52546126  1
  F  F28  1  0.72500988  0.63398719  0.85742314  1
  F  F29  1  0.74317702  0.39118414  0.70092948  1
  F  F30  1  0.78738355  0.12383484  0.18391578  1
  F  F31  1  0.77409220  0.11181767  0.53133241  1
  F  F32  1  0.76274269  0.89235196  0.35322236  1
  F  F33  1  0.74997299  0.87243757  0.01550795  1
  F  F34  1  0.75012609  0.12098292  0.85122568  1
  F  F35  1  0.78634831  0.88777272  0.68490311  1
