# generated using pymatgen
data_Li3Fe8(BO3)8
_symmetry_space_group_name_H-M   'P 1'
_cell_length_a   5.25944485
_cell_length_b   9.17179300
_cell_length_c   10.08322597
_cell_angle_alpha   90.86854229
_cell_angle_beta   90.14126142
_cell_angle_gamma   89.34235095
_symmetry_Int_Tables_number   1
_chemical_formula_structural   Li3Fe8(BO3)8
_chemical_formula_sum   'Li3 Fe8 B8 O24'
_cell_volume   486.31089497
_cell_formula_units_Z   1
loop_
 _symmetry_equiv_pos_site_id
 _symmetry_equiv_pos_as_xyz
  1  'x, y, z'
loop_
 _atom_site_type_symbol
 _atom_site_label
 _atom_site_symmetry_multiplicity
 _atom_site_fract_x
 _atom_site_fract_y
 _atom_site_fract_z
 _atom_site_occupancy
  Li  Li0  1  0.81838702  0.83077836  0.15782249  1
  Li  Li1  1  0.66783576  0.67423210  0.88794460  1
  Li  Li2  1  0.33875827  0.32902004  0.64802355  1
  Fe  Fe3  1  0.83551308  0.15976745  0.63184701  1
  Fe  Fe4  1  0.81616466  0.49580639  0.13384636  1
  Fe  Fe5  1  0.69119887  0.00471798  0.87728048  1
  Fe  Fe6  1  0.66688790  0.33269623  0.37487256  1
  Fe  Fe7  1  0.33449995  0.66497225  0.62567511  1
  Fe  Fe8  1  0.32715416  0.00240891  0.12273363  1
  Fe  Fe9  1  0.17385552  0.84160093  0.38558485  1
  Fe  Fe10  1  0.16716951  0.50238351  0.88085925  1
  B  B11  1  0.83343326  0.49236481  0.63532995  1
  B  B12  1  0.83238565  0.16169890  0.13307482  1
  B  B13  1  0.66359920  0.00325431  0.37364629  1
  B  B14  1  0.67353259  0.34210170  0.86729525  1
  B  B15  1  0.33883310  0.00733893  0.62651829  1
  B  B16  1  0.32985078  0.67511697  0.12111526  1
  B  B17  1  0.16179274  0.50176736  0.38130170  1
  B  B18  1  0.17231582  0.82542017  0.88684364  1
  O  O19  1  0.90881479  0.48717580  0.34244649  1
  O  O20  1  0.91389346  0.82841675  0.89076380  1
  O  O21  1  0.79945918  0.21515871  0.82830775  1
  O  O22  1  0.74656304  0.13218445  0.43252474  1
  O  O23  1  0.82567342  0.88818008  0.35249007  1
  O  O24  1  0.80972156  0.46053561  0.91929557  1
  O  O25  1  0.69151085  0.61347402  0.65001182  1
  O  O26  1  0.69009407  0.03950515  0.09253348  1
  O  O27  1  0.72568392  0.36016166  0.58403751  1
  O  O28  1  0.70428257  0.28556588  0.17911671  1
  O  O29  1  0.59000743  0.67482818  0.11172778  1
  O  O30  1  0.59173032  0.00749115  0.66799416  1
  O  O31  1  0.41206528  0.99434581  0.32902411  1
  O  O32  1  0.41696860  0.35624810  0.85002590  1
  O  O33  1  0.30177233  0.69790557  0.84196616  1
  O  O34  1  0.24845888  0.64006220  0.41758374  1
  O  O35  1  0.32121252  0.38409663  0.39012076  1
  O  O36  1  0.32232392  0.94054878  0.93015891  1
  O  O37  1  0.18514135  0.55837440  0.07669457  1
  O  O38  1  0.19627482  0.13372619  0.63279377  1
  O  O39  1  0.23356772  0.87892764  0.57764266  1
  O  O40  1  0.19696558  0.80074179  0.17062607  1
  O  O41  1  0.08979859  0.15427664  0.12568028  1
  O  O42  1  0.08911198  0.48613752  0.67622213  1
