# generated using pymatgen
data_Li3Fe8(BO3)8
_symmetry_space_group_name_H-M   'P 1'
_cell_length_a   5.30589381
_cell_length_b   9.06074007
_cell_length_c   11.44022013
_cell_angle_alpha   113.96429128
_cell_angle_beta   77.45100130
_cell_angle_gamma   89.53194455
_symmetry_Int_Tables_number   1
_chemical_formula_structural   Li3Fe8(BO3)8
_chemical_formula_sum   'Li3 Fe8 B8 O24'
_cell_volume   487.70129230
_cell_formula_units_Z   1
loop_
 _symmetry_equiv_pos_site_id
 _symmetry_equiv_pos_as_xyz
  1  'x, y, z'
loop_
 _atom_site_type_symbol
 _atom_site_label
 _atom_site_symmetry_multiplicity
 _atom_site_fract_x
 _atom_site_fract_y
 _atom_site_fract_z
 _atom_site_occupancy
  Li  Li0  1  0.59532456  0.06192400  0.11902969  1
  Li  Li1  1  0.92372729  0.42782509  0.84195390  1
  Li  Li2  1  0.41738120  0.93589611  0.84513278  1
  Fe  Fe3  1  0.39906919  0.28167077  0.87326038  1
  Fe  Fe4  1  0.09660179  0.23236061  0.12002996  1
  Fe  Fe5  1  0.83908285  0.13868810  0.62130116  1
  Fe  Fe6  1  0.65794261  0.35450394  0.37000789  1
  Fe  Fe7  1  0.34255787  0.64059637  0.62202619  1
  Fe  Fe8  1  0.15235981  0.85023599  0.36744516  1
  Fe  Fe9  1  0.90646149  0.78059250  0.87379577  1
  Fe  Fe10  1  0.60380047  0.72043395  0.12094609  1
  B  B11  1  0.64979132  0.01364877  0.36442729  1
  B  B12  1  0.89877198  0.10405055  0.87177684  1
  B  B13  1  0.14343056  0.51900740  0.37438250  1
  B  B14  1  0.40044209  0.60733658  0.87180515  1
  B  B15  1  0.84720231  0.48024769  0.62545574  1
  B  B16  1  0.59775835  0.39261639  0.12210492  1
  B  B17  1  0.34649081  0.98090088  0.62341995  1
  B  B18  1  0.11294867  0.89148470  0.12096018  1
  O  O19  1  0.13643465  0.12045686  0.90419736  1
  O  O20  1  0.47150249  0.12035747  0.66056763  1
  O  O21  1  0.24568620  0.01197305  0.10656177  1
  O  O22  1  0.57005372  0.14229993  0.34457860  1
  O  O23  1  0.85896529  0.01856751  0.42201984  1
  O  O24  1  0.81142190  0.20765171  0.82082510  1
  O  O25  1  0.26076665  0.48270065  0.86922624  1
  O  O26  1  0.02702778  0.37658453  0.33407933  1
  O  O27  1  0.69753486  0.28915687  0.17077633  1
  O  O28  1  0.63806003  0.47624924  0.56850033  1
  O  O29  1  0.91983715  0.35228825  0.64856640  1
  O  O30  1  0.38313264  0.35180275  0.07295276  1
  O  O31  1  0.62836343  0.63198136  0.91977695  1
  O  O32  1  0.36418918  0.52023224  0.42518392  1
  O  O33  1  0.32061332  0.71692370  0.82412385  1
  O  O34  1  0.97255561  0.62027925  0.66549476  1
  O  O35  1  0.71901713  0.52505452  0.12107324  1
  O  O36  1  0.21794838  0.78667711  0.16702946  1
  O  O37  1  0.13860425  0.97671767  0.56537924  1
  O  O38  1  0.42114266  0.85300935  0.64672365  1
  O  O39  1  0.05393121  0.65484267  0.36793558  1
  O  O40  1  0.74499983  0.98993580  0.89178935  1
  O  O41  1  0.53220470  0.86893572  0.32393364  1
  O  O42  1  0.87015873  0.86253142  0.08803914  1
