# generated using pymatgen
data_Li3FeO2F
_symmetry_space_group_name_H-M   'P 1'
_cell_length_a   8.84445800
_cell_length_b   9.63971917
_cell_length_c   3.59653120
_cell_angle_alpha   90.00000000
_cell_angle_beta   90.00000000
_cell_angle_gamma   90.00000000
_symmetry_Int_Tables_number   1
_chemical_formula_structural   Li3FeO2F
_chemical_formula_sum   'Li12 Fe4 O8 F4'
_cell_volume   306.63338552
_cell_formula_units_Z   4
loop_
 _symmetry_equiv_pos_site_id
 _symmetry_equiv_pos_as_xyz
  1  'x, y, z'
loop_
 _atom_site_type_symbol
 _atom_site_label
 _atom_site_symmetry_multiplicity
 _atom_site_fract_x
 _atom_site_fract_y
 _atom_site_fract_z
 _atom_site_occupancy
  Li  Li0  1  0.09944345  0.34318171  0.50000000  1
  Li  Li1  1  0.14722210  0.57693202  0.00000000  1
  Li  Li2  1  0.16212838  0.17618825  0.00000000  1
  Li  Li3  1  0.33787162  0.67618825  0.50000000  1
  Li  Li4  1  0.35277790  0.07693202  0.50000000  1
  Li  Li5  1  0.40055655  0.84318171  0.00000000  1
  Li  Li6  1  0.59944345  0.15681829  0.00000000  1
  Li  Li7  1  0.64722210  0.92306798  0.50000000  1
  Li  Li8  1  0.66212838  0.32381175  0.50000000  1
  Li  Li9  1  0.83787162  0.82381175  0.00000000  1
  Li  Li10  1  0.85277790  0.42306798  0.00000000  1
  Li  Li11  1  0.90055655  0.65681829  0.50000000  1
  Fe  Fe12  1  0.11833904  0.90131517  0.50000000  1
  Fe  Fe13  1  0.38166096  0.40131517  0.00000000  1
  Fe  Fe14  1  0.61833904  0.59868483  0.00000000  1
  Fe  Fe15  1  0.88166096  0.09868483  0.50000000  1
  O  O16  1  0.10440755  0.11510973  0.50000000  1
  O  O17  1  0.16759162  0.37873586  0.00000000  1
  O  O18  1  0.33240838  0.87873586  0.50000000  1
  O  O19  1  0.39559245  0.61510973  0.00000000  1
  O  O20  1  0.60440755  0.38489027  0.00000000  1
  O  O21  1  0.66759162  0.12126414  0.50000000  1
  O  O22  1  0.83240838  0.62126414  0.00000000  1
  O  O23  1  0.89559245  0.88489027  0.50000000  1
  F  F24  1  0.11771861  0.64996480  0.50000000  1
  F  F25  1  0.38228139  0.14996480  0.00000000  1
  F  F26  1  0.61771861  0.85003520  0.00000000  1
  F  F27  1  0.88228139  0.35003520  0.50000000  1
