# generated using pymatgen
data_Li3Fe8(BO3)8
_symmetry_space_group_name_H-M   'P 1'
_cell_length_a   5.29724530
_cell_length_b   9.07614233
_cell_length_c   10.18732842
_cell_angle_alpha   89.94861340
_cell_angle_beta   90.85425616
_cell_angle_gamma   89.92641706
_symmetry_Int_Tables_number   1
_chemical_formula_structural   Li3Fe8(BO3)8
_chemical_formula_sum   'Li3 Fe8 B8 O24'
_cell_volume   489.73695461
_cell_formula_units_Z   1
loop_
 _symmetry_equiv_pos_site_id
 _symmetry_equiv_pos_as_xyz
  1  'x, y, z'
loop_
 _atom_site_type_symbol
 _atom_site_label
 _atom_site_symmetry_multiplicity
 _atom_site_fract_x
 _atom_site_fract_y
 _atom_site_fract_z
 _atom_site_occupancy
  Li  Li0  1  0.65208168  0.00042290  0.09508701  1
  Li  Li1  1  0.85160073  0.49156652  0.33725400  1
  Li  Li2  1  0.85277198  0.51551134  0.82792916  1
  Fe  Fe3  1  0.16007938  0.16934395  0.12220414  1
  Fe  Fe4  1  0.83886463  0.15570984  0.37715004  1
  Fe  Fe5  1  0.34034925  0.32666482  0.86719609  1
  Fe  Fe6  1  0.64500689  0.33644601  0.61729472  1
  Fe  Fe7  1  0.34154201  0.67421301  0.36939072  1
  Fe  Fe8  1  0.16544514  0.82967890  0.62929136  1
  Fe  Fe9  1  0.65250415  0.65881497  0.11411632  1
  Fe  Fe10  1  0.83473938  0.84957018  0.86681015  1
  B  B11  1  0.15505022  0.16128485  0.62461567  1
  B  B12  1  0.33142240  0.33762604  0.36490942  1
  B  B13  1  0.82167954  0.18071848  0.88375763  1
  B  B14  1  0.66713167  0.32204349  0.12880551  1
  B  B15  1  0.34377184  0.65619134  0.86651083  1
  B  B16  1  0.67161868  0.67526586  0.62069538  1
  B  B17  1  0.15403344  0.84174499  0.12640971  1
  B  B18  1  0.83698048  0.82452462  0.37196427  1
  O  O19  1  0.26245922  0.02655688  0.63071433  1
  O  O20  1  0.07308793  0.19592878  0.92886188  1
  O  O21  1  0.70060486  0.05165766  0.89658310  1
  O  O22  1  0.18995237  0.21527707  0.32149166  1
  O  O23  1  0.28281731  0.28279133  0.67704016  1
  O  O24  1  0.79344172  0.18900711  0.16645643  1
  O  O25  1  0.91865178  0.18469311  0.56380127  1
  O  O26  1  0.42839760  0.30307633  0.07107439  1
  O  O27  1  0.21945230  0.47292954  0.36932012  1
  O  O28  1  0.58544799  0.31845110  0.40092519  1
  O  O29  1  0.70678624  0.30974610  0.83565970  1
  O  O30  1  0.21653925  0.52318858  0.87066463  1
  O  O31  1  0.77217342  0.45356117  0.14979608  1
  O  O32  1  0.28624056  0.71965871  0.17557602  1
  O  O33  1  0.42722459  0.69412831  0.56629548  1
  O  O34  1  0.76944748  0.53908335  0.63672174  1
  O  O35  1  0.59806241  0.66355803  0.90441757  1
  O  O36  1  0.07899319  0.80904135  0.42470919  1
  O  O37  1  0.21299282  0.78030337  0.82336427  1
  O  O38  1  0.70674062  0.69561434  0.33730482  1
  O  O39  1  0.80377639  0.80149430  0.65831824  1
  O  O40  1  0.28462387  0.97470014  0.12132472  1
  O  O41  1  0.90551210  0.83318303  0.08491541  1
  O  O42  1  0.73449450  0.96065422  0.35186448  1
