# generated using pymatgen
data_Li7Fe8(BO3)8
_symmetry_space_group_name_H-M   'P 1'
_cell_length_a   5.25888064
_cell_length_b   9.00237578
_cell_length_c   10.23189407
_cell_angle_alpha   90.17037395
_cell_angle_beta   92.00774325
_cell_angle_gamma   90.04936532
_symmetry_Int_Tables_number   1
_chemical_formula_structural   Li7Fe8(BO3)8
_chemical_formula_sum   'Li7 Fe8 B8 O24'
_cell_volume   484.10288343
_cell_formula_units_Z   1
loop_
 _symmetry_equiv_pos_site_id
 _symmetry_equiv_pos_as_xyz
  1  'x, y, z'
loop_
 _atom_site_type_symbol
 _atom_site_label
 _atom_site_symmetry_multiplicity
 _atom_site_fract_x
 _atom_site_fract_y
 _atom_site_fract_z
 _atom_site_occupancy
  Li  Li0  1  0.33639692  0.01028824  0.83457352  1
  Li  Li1  1  0.65919822  0.00906024  0.08632951  1
  Li  Li2  1  0.14885551  0.49014399  0.57777606  1
  Li  Li3  1  0.15717485  0.50322512  0.08983224  1
  Li  Li4  1  0.83422624  0.50693294  0.84220919  1
  Li  Li5  1  0.33735933  0.98994686  0.33675505  1
  Li  Li6  1  0.66133867  0.99703900  0.58302466  1
  Fe  Fe7  1  0.16222758  0.16516845  0.11601042  1
  Fe  Fe8  1  0.84816635  0.17735396  0.36508458  1
  Fe  Fe9  1  0.34151166  0.33764887  0.86633367  1
  Fe  Fe10  1  0.66172842  0.33615917  0.61620477  1
  Fe  Fe11  1  0.33868735  0.64993383  0.36774361  1
  Fe  Fe12  1  0.16225459  0.83714746  0.61177641  1
  Fe  Fe13  1  0.66416770  0.67036694  0.12401299  1
  Fe  Fe14  1  0.84474928  0.83556675  0.86356899  1
  B  B15  1  0.16226575  0.16837101  0.62708768  1
  B  B16  1  0.33238815  0.32528551  0.37462065  1
  B  B17  1  0.83241825  0.16561402  0.87546519  1
  B  B18  1  0.65855894  0.34075799  0.11831780  1
  B  B19  1  0.33118871  0.67046212  0.88323930  1
  B  B20  1  0.66155373  0.66834655  0.62496144  1
  B  B21  1  0.17117659  0.82715716  0.12474345  1
  B  B22  1  0.83191663  0.83822864  0.36260133  1
  O  O23  1  0.31120521  0.03980735  0.63694866  1
  O  O24  1  0.09402855  0.15980129  0.90339767  1
  O  O25  1  0.68562615  0.03852480  0.89042461  1
  O  O26  1  0.21815337  0.19251208  0.32844118  1
  O  O27  1  0.27510724  0.30495557  0.65723720  1
  O  O28  1  0.77753695  0.20656213  0.14967213  1
  O  O29  1  0.90831990  0.15859610  0.58925858  1
  O  O30  1  0.40051951  0.34214781  0.08427080  1
  O  O31  1  0.18845022  0.45204463  0.38432878  1
  O  O32  1  0.58399377  0.32266129  0.41485277  1
  O  O33  1  0.71770607  0.29866295  0.83699051  1
  O  O34  1  0.18858310  0.54316561  0.88786482  1
  O  O35  1  0.79834482  0.47171985  0.11705489  1
  O  O36  1  0.29195852  0.69072882  0.14869653  1
  O  O37  1  0.40766086  0.66170636  0.58180544  1
  O  O38  1  0.80467350  0.54127193  0.64439453  1
  O  O39  1  0.59247976  0.67051805  0.92755469  1
  O  O40  1  0.09025023  0.83134843  0.39734541  1
  O  O41  1  0.22482803  0.80175338  0.83642844  1
  O  O42  1  0.70276797  0.71130424  0.30789939  1
  O  O43  1  0.77616395  0.80579068  0.65406006  1
  O  O44  1  0.30589000  0.95726809  0.13437822  1
  O  O45  1  0.91123996  0.82757412  0.08906929  1
  O  O46  1  0.68909091  0.96252261  0.38522888  1
