# generated using pymatgen
data_Li2CrPO4F
_symmetry_space_group_name_H-M   'P 1'
_cell_length_a   5.33807465
_cell_length_b   5.48737500
_cell_length_c   7.87732624
_cell_angle_alpha   70.12437206
_cell_angle_beta   71.94585702
_cell_angle_gamma   94.87197826
_symmetry_Int_Tables_number   1
_chemical_formula_structural   Li2CrPO4F
_chemical_formula_sum   'Li4 Cr2 P2 O8 F2'
_cell_volume   201.58732652
_cell_formula_units_Z   2
loop_
 _symmetry_equiv_pos_site_id
 _symmetry_equiv_pos_as_xyz
  1  'x, y, z'
loop_
 _atom_site_type_symbol
 _atom_site_label
 _atom_site_symmetry_multiplicity
 _atom_site_fract_x
 _atom_site_fract_y
 _atom_site_fract_z
 _atom_site_occupancy
  Li  Li0  1  0.23542150  0.57624335  0.85474676  1
  Li  Li1  1  0.50504244  0.07116816  0.51193977  1
  Li  Li2  1  0.70040007  0.68497456  0.38470936  1
  Li  Li3  1  0.71349970  0.37753350  0.12916360  1
  Cr  Cr4  1  0.00933900  0.00003173  0.98742758  1
  Cr  Cr5  1  0.00886534  0.00083917  0.50283004  1
  P  P6  1  0.32768292  0.62909779  0.24276406  1
  P  P7  1  0.67227748  0.36869617  0.75817198  1
  O  O8  1  0.12312939  0.65647537  0.13584798  1
  O  O9  1  0.26876353  0.76245416  0.38954530  1
  O  O10  1  0.32562653  0.32766371  0.34466073  1
  O  O11  1  0.62841063  0.73656459  0.10201362  1
  O  O12  1  0.37972698  0.25473477  0.90548876  1
  O  O13  1  0.68549176  0.66997880  0.64809290  1
  O  O14  1  0.74155509  0.24293120  0.60547679  1
  O  O15  1  0.87054366  0.34049966  0.87107787  1
  F  F16  1  0.18935513  0.90389550  0.72550989  1
  F  F17  1  0.79602285  0.07320680  0.28849402  1
