# generated using pymatgen
data_Li3V2(O2F)2
_symmetry_space_group_name_H-M   'P 1'
_cell_length_a   6.01128091
_cell_length_b   5.96338833
_cell_length_c   8.06848577
_cell_angle_alpha   103.09762515
_cell_angle_beta   66.72138220
_cell_angle_gamma   121.13188429
_symmetry_Int_Tables_number   1
_chemical_formula_structural   Li3V2(O2F)2
_chemical_formula_sum   'Li6 V4 O8 F4'
_cell_volume   227.33408786
_cell_formula_units_Z   2
loop_
 _symmetry_equiv_pos_site_id
 _symmetry_equiv_pos_as_xyz
  1  'x, y, z'
loop_
 _atom_site_type_symbol
 _atom_site_label
 _atom_site_symmetry_multiplicity
 _atom_site_fract_x
 _atom_site_fract_y
 _atom_site_fract_z
 _atom_site_occupancy
  Li  Li0  1  0.14359616  0.63886638  0.37482293  1
  Li  Li1  1  0.34294837  0.83504308  0.65099654  1
  Li  Li2  1  0.32566150  0.33290093  0.61905725  1
  Li  Li3  1  0.65705163  0.66495692  0.34900346  1
  Li  Li4  1  0.85640384  0.86113362  0.62517707  1
  Li  Li5  1  0.67433850  0.16709907  0.38094275  1
  V  V6  1  0.99843172  0.49618043  0.99009533  1
  V  V7  1  0.00156828  0.00381957  0.00990467  1
  V  V8  1  0.49865624  0.49870000  0.99603568  1
  V  V9  1  0.50134376  0.00130000  0.00396432  1
  O  O10  1  0.08232462  0.82322149  0.13975565  1
  O  O11  1  0.07491243  0.33563101  0.14467531  1
  O  O12  1  0.59961007  0.84308384  0.14572882  1
  O  O13  1  0.61073296  0.35349971  0.13544186  1
  O  O14  1  0.40038993  0.65691616  0.85427118  1
  O  O15  1  0.38926704  0.14650029  0.86455814  1
  O  O16  1  0.91767538  0.67677851  0.86024435  1
  O  O17  1  0.92508757  0.16436899  0.85532469  1
  F  F18  1  0.27315869  0.52396815  0.49757096  1
  F  F19  1  0.25549245  0.98872372  0.51250452  1
  F  F20  1  0.74450755  0.51127628  0.48749548  1
  F  F21  1  0.72684131  0.97603185  0.50242904  1
