# generated using pymatgen
data_LiCoCuO4
_symmetry_space_group_name_H-M   'P 1'
_cell_length_a   5.23089526
_cell_length_b   10.08758379
_cell_length_c   9.68321380
_cell_angle_alpha   16.27776912
_cell_angle_beta   28.42042761
_cell_angle_gamma   32.41108961
_symmetry_Int_Tables_number   1
_chemical_formula_structural   LiCoCuO4
_chemical_formula_sum   'Li1 Co1 Cu1 O4'
_cell_volume   68.16275497
_cell_formula_units_Z   1
loop_
 _symmetry_equiv_pos_site_id
 _symmetry_equiv_pos_as_xyz
  1  'x, y, z'
loop_
 _atom_site_type_symbol
 _atom_site_label
 _atom_site_symmetry_multiplicity
 _atom_site_fract_x
 _atom_site_fract_y
 _atom_site_fract_z
 _atom_site_occupancy
  Li  Li0  1  0.00000000  0.50000000  0.00000000  1
  Co  Co1  1  0.50000000  0.50000000  0.50000000  1
  Cu  Cu2  1  0.50000000  0.00000000  0.50000000  1
  O  O3  1  0.25383164  1.00000000  0.23484850  1
  O  O4  1  0.19788996  0.50000000  0.24712208  1
  O  O5  1  0.74616836  0.00000000  0.76515150  1
  O  O6  1  0.80211004  0.50000000  0.75287792  1
