# generated using pymatgen
data_Li2MnF5
_symmetry_space_group_name_H-M   'P 1'
_cell_length_a   13.99243714
_cell_length_b   14.39201063
_cell_length_c   5.41666416
_cell_angle_alpha   90.00000000
_cell_angle_beta   90.00000000
_cell_angle_gamma   87.25997521
_symmetry_Int_Tables_number   1
_chemical_formula_structural   Li2MnF5
_chemical_formula_sum   'Li24 Mn12 F60'
_cell_volume   1089.55696865
_cell_formula_units_Z   12
loop_
 _symmetry_equiv_pos_site_id
 _symmetry_equiv_pos_as_xyz
  1  'x, y, z'
loop_
 _atom_site_type_symbol
 _atom_site_label
 _atom_site_symmetry_multiplicity
 _atom_site_fract_x
 _atom_site_fract_y
 _atom_site_fract_z
 _atom_site_occupancy
  Li  Li0  1  0.03004831  0.58640682  0.72856124  1
  Li  Li1  1  0.03004831  0.08640682  0.77143876  1
  Li  Li2  1  0.08483994  0.71511341  0.34335034  1
  Li  Li3  1  0.08483994  0.21511341  0.15664966  1
  Li  Li4  1  0.23752382  0.61672003  0.74476634  1
  Li  Li5  1  0.23752382  0.11672003  0.75523366  1
  Li  Li6  1  0.30270412  0.74740829  0.21248851  1
  Li  Li7  1  0.30270412  0.24740829  0.28751149  1
  Li  Li8  1  0.36025854  0.92841055  0.71609748  1
  Li  Li9  1  0.36025854  0.42841055  0.78390252  1
  Li  Li10  1  0.43377746  0.54799531  0.30259477  1
  Li  Li11  1  0.43377746  0.04799531  0.19740523  1
  Li  Li12  1  0.56622254  0.95200469  0.80259477  1
  Li  Li13  1  0.56622254  0.45200469  0.69740523  1
  Li  Li14  1  0.63974146  0.57158945  0.21609748  1
  Li  Li15  1  0.63974146  0.07158945  0.28390252  1
  Li  Li16  1  0.69729588  0.75259171  0.71248851  1
  Li  Li17  1  0.69729588  0.25259171  0.78751149  1
  Li  Li18  1  0.76247618  0.88327997  0.24476634  1
  Li  Li19  1  0.76247618  0.38327997  0.25523366  1
  Li  Li20  1  0.91516006  0.78488659  0.84335034  1
  Li  Li21  1  0.91516006  0.28488659  0.65664966  1
  Li  Li22  1  0.96995169  0.91359318  0.22856124  1
  Li  Li23  1  0.96995169  0.41359318  0.27143876  1
  Mn  Mn24  1  0.13655360  0.83486441  0.75400283  1
  Mn  Mn25  1  0.13655360  0.33486441  0.74599717  1
  Mn  Mn26  1  0.20495743  0.00953805  0.25902643  1
  Mn  Mn27  1  0.20495743  0.50953805  0.24097357  1
  Mn  Mn28  1  0.46165760  0.66510403  0.75315991  1
  Mn  Mn29  1  0.46165760  0.16510403  0.74684009  1
  Mn  Mn30  1  0.53834240  0.83489597  0.25315991  1
  Mn  Mn31  1  0.53834240  0.33489597  0.24684009  1
  Mn  Mn32  1  0.79504257  0.49046195  0.75902643  1
  Mn  Mn33  1  0.79504257  0.99046195  0.74097357  1
  Mn  Mn34  1  0.86344640  0.66513559  0.25400283  1
  Mn  Mn35  1  0.86344640  0.16513559  0.24599717  1
  F  F36  1  0.04563414  0.84808777  0.49331216  1
  F  F37  1  0.03368684  0.82804397  0.97713437  1
  F  F38  1  0.04563414  0.34808777  0.00668784  1
  F  F39  1  0.03368684  0.32804397  0.52286563  1
  F  F40  1  0.12836858  0.69190034  0.69765437  1
  F  F41  1  0.12836858  0.19190034  0.80234563  1
  F  F42  1  0.08580391  0.50314251  0.39628599  1
  F  F43  1  0.08580391  0.00314251  0.10371401  1
  F  F44  1  0.14345265  0.51840900  0.92720339  1
  F  F45  1  0.14345265  0.01840900  0.57279661  1
  F  F46  1  0.21910756  0.83403616  0.01980323  1
  F  F47  1  0.21910756  0.33403616  0.48019677  1
  F  F48  1  0.23781952  0.84540507  0.53256803  1
  F  F49  1  0.23781952  0.34540507  0.96743197  1
  F  F50  1  0.20181003  0.65397013  0.25100873  1
  F  F51  1  0.20181003  0.15397013  0.24899127  1
  F  F52  1  0.26760999  0.50805759  0.54996933  1
  F  F53  1  0.32800777  0.49990395  0.09732912  1
  F  F54  1  0.26760999  0.00805759  0.95003067  1
  F  F55  1  0.32800777  0.99990395  0.40267088  1
  F  F56  1  0.34081206  0.67603769  0.90391635  1
  F  F57  1  0.39765680  0.68704212  0.44935285  1
  F  F58  1  0.34081206  0.17603769  0.59608365  1
  F  F59  1  0.39765680  0.18704212  0.05064715  1
  F  F60  1  0.44748753  0.52504557  0.68047316  1
  F  F61  1  0.42158350  0.83205695  0.08861782  1
  F  F62  1  0.44748753  0.02504557  0.81952684  1
  F  F63  1  0.42158350  0.33205695  0.41138218  1
  F  F64  1  0.48038160  0.86330958  0.56156731  1
  F  F65  1  0.48038160  0.36330958  0.93843269  1
  F  F66  1  0.51961840  0.63669042  0.06156731  1
  F  F67  1  0.51961840  0.13669042  0.43843269  1
  F  F68  1  0.57841650  0.66794305  0.58861782  1
  F  F69  1  0.55251247  0.97495443  0.18047316  1
  F  F70  1  0.57841650  0.16794305  0.91138218  1
  F  F71  1  0.55251247  0.47495443  0.31952684  1
  F  F72  1  0.60234320  0.81295788  0.94935285  1
  F  F73  1  0.65918794  0.82396231  0.40391635  1
  F  F74  1  0.60234320  0.31295788  0.55064715  1
  F  F75  1  0.65918794  0.32396231  0.09608365  1
  F  F76  1  0.67199223  0.00009605  0.59732912  1
  F  F77  1  0.73239001  0.99194241  0.04996933  1
  F  F78  1  0.67199223  0.50009605  0.90267088  1
  F  F79  1  0.73239001  0.49194241  0.45003067  1
  F  F80  1  0.79818997  0.84602987  0.75100873  1
  F  F81  1  0.79818997  0.34602987  0.74899127  1
  F  F82  1  0.76218048  0.65459493  0.03256803  1
  F  F83  1  0.76218048  0.15459493  0.46743197  1
  F  F84  1  0.78089244  0.66596384  0.51980323  1
  F  F85  1  0.78089244  0.16596384  0.98019677  1
  F  F86  1  0.85654735  0.98159100  0.42720339  1
  F  F87  1  0.85654735  0.48159100  0.07279661  1
  F  F88  1  0.91419609  0.99685749  0.89628599  1
  F  F89  1  0.91419609  0.49685749  0.60371401  1
  F  F90  1  0.87163142  0.80809966  0.19765437  1
  F  F91  1  0.87163142  0.30809966  0.30234563  1
  F  F92  1  0.96631316  0.67195603  0.47713437  1
  F  F93  1  0.95436586  0.65191223  0.99331216  1
  F  F94  1  0.96631316  0.17195603  0.02286563  1
  F  F95  1  0.95436586  0.15191223  0.50668784  1
