# generated using pymatgen
data_Li7VO5F
_symmetry_space_group_name_H-M   'P 1'
_cell_length_a   5.55790409
_cell_length_b   6.07376141
_cell_length_c   5.37102552
_cell_angle_alpha   118.48532363
_cell_angle_beta   122.51103427
_cell_angle_gamma   59.92948336
_symmetry_Int_Tables_number   1
_chemical_formula_structural   Li7VO5F
_chemical_formula_sum   'Li7 V1 O5 F1'
_cell_volume   126.85116300
_cell_formula_units_Z   1
loop_
 _symmetry_equiv_pos_site_id
 _symmetry_equiv_pos_as_xyz
  1  'x, y, z'
loop_
 _atom_site_type_symbol
 _atom_site_label
 _atom_site_symmetry_multiplicity
 _atom_site_fract_x
 _atom_site_fract_y
 _atom_site_fract_z
 _atom_site_occupancy
  Li  Li0  1  0.25295449  0.38365079  0.53361505  1
  Li  Li1  1  0.10671768  0.63259695  0.22934576  1
  Li  Li2  1  0.66864852  0.00924889  0.33559398  1
  Li  Li3  1  0.30190076  0.98106912  0.65512269  1
  Li  Li4  1  0.52373478  0.36316476  0.09286958  1
  Li  Li5  1  0.84739499  0.36992935  0.75228433  1
  Li  Li6  1  0.76313827  0.65785368  0.50707060  1
  V  V7  1  0.04184562  0.01008710  0.00850325  1
  O  O8  1  0.07468416  0.77257646  0.60369850  1
  O  O9  1  0.24252204  0.23496971  0.08755280  1
  O  O10  1  0.64800032  0.18859962  0.76423125  1
  O  O11  1  0.35122559  0.76430293  0.22336773  1
  O  O12  1  0.92577639  0.25240067  0.39220019  1
  F  F13  1  0.75388640  0.74538098  0.89994530  1
