# generated using pymatgen
data_Li2VO2F
_symmetry_space_group_name_H-M   'P 1'
_cell_length_a   5.87411117
_cell_length_b   5.15687322
_cell_length_c   4.21309475
_cell_angle_alpha   114.11021172
_cell_angle_beta   90.00000000
_cell_angle_gamma   107.71798021
_symmetry_Int_Tables_number   1
_chemical_formula_structural   Li2VO2F
_chemical_formula_sum   'Li4 V2 O4 F2'
_cell_volume   109.82390558
_cell_formula_units_Z   2
loop_
 _symmetry_equiv_pos_site_id
 _symmetry_equiv_pos_as_xyz
  1  'x, y, z'
loop_
 _atom_site_type_symbol
 _atom_site_label
 _atom_site_symmetry_multiplicity
 _atom_site_fract_x
 _atom_site_fract_y
 _atom_site_fract_z
 _atom_site_occupancy
  Li  Li0  1  0.50161147  0.00069567  0.00034833  1
  Li  Li1  1  0.16505553  0.66597033  0.33298567  1
  Li  Li2  1  0.83333300  0.33333300  0.66666700  1
  Li  Li3  1  0.33333300  0.33333300  0.66666700  1
  V  V4  1  0.66853055  0.63732801  0.31866400  1
  V  V5  1  0.99813645  0.02933799  0.01466900  1
  O  O6  1  0.83333300  0.33333300  0.16666700  1
  O  O7  1  0.33333300  0.33333300  0.16666700  1
  O  O8  1  0.68511991  0.68109431  0.84054666  1
  O  O9  1  0.98154609  0.98557269  0.49278634  1
  F  F10  1  0.49865246  0.97408915  0.48704508  1
  F  F11  1  0.16801454  0.69257685  0.84628892  1
