# generated using pymatgen
data_Li4Ni8O9F7
_symmetry_space_group_name_H-M   'P 1'
_cell_length_a   5.94522402
_cell_length_b   5.91144801
_cell_length_c   10.44735770
_cell_angle_alpha   107.34483338
_cell_angle_beta   72.60910923
_cell_angle_gamma   123.29262285
_symmetry_Int_Tables_number   1
_chemical_formula_structural   Li4Ni8O9F7
_chemical_formula_sum   'Li4 Ni8 O9 F7'
_cell_volume   288.71501115
_cell_formula_units_Z   1
loop_
 _symmetry_equiv_pos_site_id
 _symmetry_equiv_pos_as_xyz
  1  'x, y, z'
loop_
 _atom_site_type_symbol
 _atom_site_label
 _atom_site_symmetry_multiplicity
 _atom_site_fract_x
 _atom_site_fract_y
 _atom_site_fract_z
 _atom_site_occupancy
  Li  Li0  1  0.81857382  0.71801915  0.05499713  1
  Li  Li1  1  0.69710510  0.79118489  0.44994693  1
  Li  Li2  1  0.29277221  0.20681292  0.55029918  1
  Li  Li3  1  0.20194368  0.29224675  0.94972320  1
  Ni  Ni4  1  0.24481066  0.75087741  0.24412803  1
  Ni  Ni5  1  0.25030037  0.24173016  0.24742435  1
  Ni  Ni6  1  0.99743961  0.49877526  0.49910438  1
  Ni  Ni7  1  0.49291057  0.00102873  0.00277597  1
  Ni  Ni8  1  0.24810969  0.74903520  0.74996585  1
  Ni  Ni9  1  0.75081374  0.24896476  0.24875276  1
  Ni  Ni10  1  0.74697628  0.74915090  0.75047158  1
  Ni  Ni11  1  0.74845219  0.24927705  0.75010501  1
  O  O12  1  0.14767977  0.90757805  0.13140975  1
  O  O13  1  0.11674556  0.37429749  0.15604185  1
  O  O14  1  0.59497561  0.90302118  0.13702468  1
  O  O15  1  0.61094866  0.88348624  0.65450179  1
  O  O16  1  0.90736074  0.59442399  0.36148870  1
  O  O17  1  0.09127315  0.40487416  0.63541074  1
  O  O18  1  0.38531844  0.12214355  0.34299586  1
  O  O19  1  0.40441344  0.09505666  0.86337041  1
  O  O20  1  0.88554079  0.61569857  0.84523983  1
  F  F21  1  0.11273342  0.87570354  0.61827652  1
  F  F22  1  0.63278849  0.38612314  0.12394385  1
  F  F23  1  0.36979023  0.59856344  0.37411147  1
  F  F24  1  0.62187711  0.38320445  0.61913775  1
  F  F25  1  0.38066733  0.62117683  0.87904155  1
  F  F26  1  0.87771945  0.12167766  0.37985458  1
  F  F27  1  0.86995686  0.11586485  0.88045530  1
