# generated using pymatgen
data_Li9Cr5O12
_symmetry_space_group_name_H-M   'P 1'
_cell_length_a   5.25493528
_cell_length_b   5.25501745
_cell_length_c   9.98617563
_cell_angle_alpha   91.31345263
_cell_angle_beta   88.68580545
_cell_angle_gamma   58.63008370
_symmetry_Int_Tables_number   1
_chemical_formula_structural   Li9Cr5O12
_chemical_formula_sum   'Li9 Cr5 O12'
_cell_volume   235.19737760
_cell_formula_units_Z   1
loop_
 _symmetry_equiv_pos_site_id
 _symmetry_equiv_pos_as_xyz
  1  'x, y, z'
loop_
 _atom_site_type_symbol
 _atom_site_label
 _atom_site_symmetry_multiplicity
 _atom_site_fract_x
 _atom_site_fract_y
 _atom_site_fract_z
 _atom_site_occupancy
  Li  Li0  1  0.79604734  0.20393805  0.26793970  1
  Li  Li1  1  0.72329567  0.27670159  0.80378195  1
  Li  Li2  1  0.33679178  0.17495243  0.75816061  1
  Li  Li3  1  0.82503330  0.66319655  0.75815690  1
  Li  Li4  1  0.00000213  0.00000569  0.99999528  1
  Li  Li5  1  0.17498144  0.33678348  0.24184167  1
  Li  Li6  1  0.66321366  0.82501769  0.24184467  1
  Li  Li7  1  0.27671089  0.72329380  0.19621549  1
  Li  Li8  1  0.20395411  0.79604024  0.73205483  1
  Cr  Cr9  1  0.16582447  0.16580600  0.49999450  1
  Cr  Cr10  1  0.49999861  0.50000505  0.49999225  1
  Cr  Cr11  1  0.83416189  0.83417536  0.49999823  1
  Cr  Cr12  1  0.33367612  0.33370806  0.99999680  1
  Cr  Cr13  1  0.66632367  0.66634583  0.00000512  1
  O  O14  1  0.83071772  0.16925857  0.60619214  1
  O  O15  1  0.34068116  0.00936640  0.11759119  1
  O  O16  1  0.99065082  0.65932632  0.11758965  1
  O  O17  1  0.84156788  0.48934367  0.39163302  1
  O  O18  1  0.51064826  0.15841014  0.39163468  1
  O  O19  1  0.62377140  0.37623872  0.11407373  1
  O  O20  1  0.37622787  0.62379377  0.88592299  1
  O  O21  1  0.48934188  0.84157933  0.60836103  1
  O  O22  1  0.15841815  0.51065080  0.60836051  1
  O  O23  1  0.00935142  0.34068863  0.88241147  1
  O  O24  1  0.65932599  0.99064861  0.88241028  1
  O  O25  1  0.16926440  0.83073124  0.39380129  1
