# generated using pymatgen
data_Li2V(OF)2
_symmetry_space_group_name_H-M   'P 1'
_cell_length_a   5.86385658
_cell_length_b   5.86385658
_cell_length_c   5.95409263
_cell_angle_alpha   60.50007170
_cell_angle_beta   90.00000000
_cell_angle_gamma   120.00000004
_symmetry_Int_Tables_number   1
_chemical_formula_structural   Li2V(OF)2
_chemical_formula_sum   'Li4 V2 O4 F4'
_cell_volume   145.85082633
_cell_formula_units_Z   2
loop_
 _symmetry_equiv_pos_site_id
 _symmetry_equiv_pos_as_xyz
  1  'x, y, z'
loop_
 _atom_site_type_symbol
 _atom_site_label
 _atom_site_symmetry_multiplicity
 _atom_site_fract_x
 _atom_site_fract_y
 _atom_site_fract_z
 _atom_site_occupancy
  Li  Li0  1  0.61546386  0.23092672  0.63186243  1
  Li  Li1  1  0.25581272  0.51162444  0.23256285  1
  Li  Li2  1  0.61546386  0.75267471  0.63186243  1
  Li  Li3  1  0.13721084  0.75267471  0.63186243  1
  V  V4  1  0.62978826  0.25957551  0.11063623  1
  V  V5  1  0.99624940  0.99249980  0.01125080  1
  O  O6  1  0.86746915  0.23767233  0.89485853  1
  O  O7  1  0.88163898  0.76327895  0.35508207  1
  O  O8  1  0.37020318  0.23767233  0.89485853  1
  O  O9  1  0.86746915  0.73493829  0.89485853  1
  F  F10  1  0.85142822  0.24049181  0.37044560  1
  F  F11  1  0.38906359  0.24049181  0.37044560  1
  F  F12  1  0.38906359  0.77812618  0.37044560  1
  F  F13  1  0.38367621  0.76735342  0.84897037  1
