# generated using pymatgen
data_LiFe4(BO3)4
_symmetry_space_group_name_H-M   'P 1'
_cell_length_a   5.33777482
_cell_length_b   9.03990491
_cell_length_c   10.13065122
_cell_angle_alpha   89.76678293
_cell_angle_beta   90.55569012
_cell_angle_gamma   90.41353395
_symmetry_Int_Tables_number   1
_chemical_formula_structural   LiFe4(BO3)4
_chemical_formula_sum   'Li2 Fe8 B8 O24'
_cell_volume   488.79444411
_cell_formula_units_Z   2
loop_
 _symmetry_equiv_pos_site_id
 _symmetry_equiv_pos_as_xyz
  1  'x, y, z'
loop_
 _atom_site_type_symbol
 _atom_site_label
 _atom_site_symmetry_multiplicity
 _atom_site_fract_x
 _atom_site_fract_y
 _atom_site_fract_z
 _atom_site_occupancy
  Li  Li0  1  0.65027957  0.99744102  0.10449147  1
  Li  Li1  1  0.85035563  0.48822796  0.34602284  1
  Fe  Fe2  1  0.15845995  0.17439802  0.12331427  1
  Fe  Fe3  1  0.83990044  0.15186604  0.37446145  1
  Fe  Fe4  1  0.33840924  0.33326441  0.86667578  1
  Fe  Fe5  1  0.65802291  0.33365703  0.61917470  1
  Fe  Fe6  1  0.34075896  0.67486521  0.37274016  1
  Fe  Fe7  1  0.16104074  0.83436068  0.62496042  1
  Fe  Fe8  1  0.65047195  0.65669843  0.11971270  1
  Fe  Fe9  1  0.84335987  0.83251692  0.87296999  1
  B  B10  1  0.15942239  0.17085480  0.62404058  1
  B  B11  1  0.33758798  0.34122541  0.36856168  1
  B  B12  1  0.82770335  0.16954154  0.87519233  1
  B  B13  1  0.66613574  0.32034868  0.12385663  1
  B  B14  1  0.33729125  0.66926981  0.86946175  1
  B  B15  1  0.66831906  0.67128788  0.62222201  1
  B  B16  1  0.16072407  0.84160407  0.12515229  1
  B  B17  1  0.83102954  0.81905518  0.37091145  1
  O  O18  1  0.25468780  0.03254873  0.62944980  1
  O  O19  1  0.06990979  0.19991984  0.92165012  1
  O  O20  1  0.72967060  0.03046687  0.88863745  1
  O  O21  1  0.20740651  0.22102703  0.31537399  1
  O  O22  1  0.30259716  0.29355842  0.66630401  1
  O  O23  1  0.79514527  0.18931569  0.15419238  1
  O  O24  1  0.91908202  0.19572519  0.57603178  1
  O  O25  1  0.43026800  0.30370812  0.06218186  1
  O  O26  1  0.21897058  0.47618460  0.37275696  1
  O  O27  1  0.58239484  0.32516618  0.41748265  1
  O  O28  1  0.69023158  0.28587391  0.82053203  1
  O  O29  1  0.24170649  0.53060573  0.86438840  1
  O  O30  1  0.76010654  0.45330179  0.15712259  1
  O  O31  1  0.28651121  0.72181671  0.17983671  1
  O  O32  1  0.42869142  0.70152998  0.57219275  1
  O  O33  1  0.76129742  0.53282619  0.61827851  1
  O  O34  1  0.57816727  0.69539594  0.91843069  1
  O  O35  1  0.06972757  0.80343603  0.43069296  1
  O  O36  1  0.19718472  0.79171570  0.82653977  1
  O  O37  1  0.70463093  0.68574002  0.33880256  1
  O  O38  1  0.80756363  0.79113513  0.67333403  1
  O  O39  1  0.27976772  0.97700453  0.11873704  1
  O  O40  1  0.91518941  0.82414122  0.07531003  1
  O  O41  1  0.72970192  0.94984538  0.34388944  1
