# generated using pymatgen
data_Li3Fe8(BO3)8
_symmetry_space_group_name_H-M   'P 1'
_cell_length_a   5.29401892
_cell_length_b   9.10230234
_cell_length_c   11.43696460
_cell_angle_alpha   113.93172610
_cell_angle_beta   76.89586510
_cell_angle_gamma   89.75782875
_symmetry_Int_Tables_number   1
_chemical_formula_structural   Li3Fe8(BO3)8
_chemical_formula_sum   'Li3 Fe8 B8 O24'
_cell_volume   487.75109054
_cell_formula_units_Z   1
loop_
 _symmetry_equiv_pos_site_id
 _symmetry_equiv_pos_as_xyz
  1  'x, y, z'
loop_
 _atom_site_type_symbol
 _atom_site_label
 _atom_site_symmetry_multiplicity
 _atom_site_fract_x
 _atom_site_fract_y
 _atom_site_fract_z
 _atom_site_occupancy
  Li  Li0  1  0.18809979  0.15997295  0.33412055  1
  Li  Li1  1  0.92508258  0.43260853  0.84033940  1
  Li  Li2  1  0.42672659  0.93057091  0.83667700  1
  Fe  Fe3  1  0.39950010  0.28383414  0.87411857  1
  Fe  Fe4  1  0.09451093  0.23068814  0.11894276  1
  Fe  Fe5  1  0.83859685  0.14054948  0.62245723  1
  Fe  Fe6  1  0.65473639  0.35315077  0.37351507  1
  Fe  Fe7  1  0.34346800  0.63985227  0.62145074  1
  Fe  Fe8  1  0.15354744  0.84136111  0.36891149  1
  Fe  Fe9  1  0.90084660  0.78383231  0.87563567  1
  Fe  Fe10  1  0.60508579  0.72267107  0.11865730  1
  B  B11  1  0.63952592  0.01405342  0.37019376  1
  B  B12  1  0.89794404  0.10559905  0.87117106  1
  B  B13  1  0.15137258  0.51479884  0.37170166  1
  B  B14  1  0.39706592  0.60873755  0.87211361  1
  B  B15  1  0.84715076  0.48261562  0.62820679  1
  B  B16  1  0.60413958  0.39073480  0.11914405  1
  B  B17  1  0.34433772  0.97971211  0.62288558  1
  B  B18  1  0.09715853  0.89467530  0.12925921  1
  O  O19  1  0.12703306  0.12920958  0.91721181  1
  O  O20  1  0.47134970  0.11851385  0.66088399  1
  O  O21  1  0.18218309  0.04130583  0.14364955  1
  O  O22  1  0.51908687  0.14476477  0.37039720  1
  O  O23  1  0.87740701  0.02449689  0.41262729  1
  O  O24  1  0.81820257  0.21442749  0.82300924  1
  O  O25  1  0.26254625  0.48066182  0.86750846  1
  O  O26  1  0.06214345  0.36071049  0.32318766  1
  O  O27  1  0.72518390  0.29348665  0.16235532  1
  O  O28  1  0.63489749  0.48307827  0.57798495  1
  O  O29  1  0.93116762  0.34758042  0.64102657  1
  O  O30  1  0.37972421  0.34471709  0.07587202  1
  O  O31  1  0.62628058  0.63091144  0.91822662  1
  O  O32  1  0.35999789  0.52934635  0.42932527  1
  O  O33  1  0.31419880  0.72175493  0.83001080  1
  O  O34  1  0.97577573  0.61969064  0.66976205  1
  O  O35  1  0.70942517  0.52459196  0.11352002  1
  O  O36  1  0.22498519  0.79504159  0.17023546  1
  O  O37  1  0.13526810  0.97586351  0.56521686  1
  O  O38  1  0.41635505  0.85387728  0.64752213  1
  O  O39  1  0.04350980  0.64448786  0.36207537  1
  O  O40  1  0.75875675  0.98116955  0.87041958  1
  O  O41  1  0.53846252  0.86328693  0.32760423  1
  O  O42  1  0.88411106  0.84426345  0.07906905  1
