# generated using pymatgen
data_Li4Cr3Co2Sb3O16
_symmetry_space_group_name_H-M   'P 1'
_cell_length_a   6.09568804
_cell_length_b   6.12920914
_cell_length_c   9.85675970
_cell_angle_alpha   90.00413215
_cell_angle_beta   89.65919542
_cell_angle_gamma   120.17729619
_symmetry_Int_Tables_number   1
_chemical_formula_structural   Li4Cr3Co2Sb3O16
_chemical_formula_sum   'Li4 Cr3 Co2 Sb3 O16'
_cell_volume   318.34875187
_cell_formula_units_Z   1
loop_
 _symmetry_equiv_pos_site_id
 _symmetry_equiv_pos_as_xyz
  1  'x, y, z'
loop_
 _atom_site_type_symbol
 _atom_site_label
 _atom_site_symmetry_multiplicity
 _atom_site_fract_x
 _atom_site_fract_y
 _atom_site_fract_z
 _atom_site_occupancy
  Li  Li0  1  0.34164413  0.67081402  0.90012782  1
  Li  Li1  1  0.01952838  0.00976206  0.00567215  1
  Li  Li2  1  0.02254320  0.01128464  0.49059254  1
  Li  Li3  1  0.67186081  0.33594124  0.37288862  1
  Cr  Cr4  1  0.16779379  0.83065457  0.21516680  1
  Cr  Cr5  1  0.16777602  0.33719014  0.21519350  1
  Cr  Cr6  1  0.33579211  0.16788459  0.71584013  1
  Co  Co7  1  0.30736552  0.65377059  0.47594291  1
  Co  Co8  1  0.65399141  0.32700448  0.01791644  1
  Sb  Sb9  1  0.65931599  0.82969301  0.21524446  1
  Sb  Sb10  1  0.82988021  0.66224633  0.71571002  1
  Sb  Sb11  1  0.82983441  0.16756710  0.71572460  1
  O  O12  1  0.14873001  0.83805213  0.60627639  1
  O  O13  1  0.03445345  0.51728644  0.33118410  1
  O  O14  1  0.33430454  0.66714762  0.10531000  1
  O  O15  1  0.99677535  0.99842064  0.31150256  1
  O  O16  1  -0.00057605  -0.00032912  0.81971479  1
  O  O17  1  0.14864633  0.31048331  0.60632759  1
  O  O18  1  0.48543482  0.96628485  0.33436608  1
  O  O19  1  0.48535484  0.51939306  0.33454204  1
  O  O20  1  0.31819625  0.15914277  0.10614474  1
  O  O21  1  0.68855757  0.84424754  0.60266816  1
  O  O22  1  0.51928849  0.48740832  0.82820067  1
  O  O23  1  0.51928403  0.03184699  0.82820578  1
  O  O24  1  0.66609960  0.33304098  0.60304643  1
  O  O25  1  0.83724133  0.68537408  0.10175366  1
  O  O26  1  0.97358194  0.48678041  0.83085402  1
  O  O27  1  0.83729952  0.15190621  0.10172199  1
