# generated using pymatgen
data_Li3VO3F
_symmetry_space_group_name_H-M   'P 1'
_cell_length_a   7.78838031
_cell_length_b   7.77289074
_cell_length_c   5.16206493
_cell_angle_alpha   76.89525242
_cell_angle_beta   102.90545232
_cell_angle_gamma   82.11781485
_symmetry_Int_Tables_number   1
_chemical_formula_structural   Li3VO3F
_chemical_formula_sum   'Li12 V4 O12 F4'
_cell_volume   290.81441903
_cell_formula_units_Z   4
loop_
 _symmetry_equiv_pos_site_id
 _symmetry_equiv_pos_as_xyz
  1  'x, y, z'
loop_
 _atom_site_type_symbol
 _atom_site_label
 _atom_site_symmetry_multiplicity
 _atom_site_fract_x
 _atom_site_fract_y
 _atom_site_fract_z
 _atom_site_occupancy
  Li  Li0  1  0.13289412  0.62991588  0.50287593  1
  Li  Li1  1  0.38354329  0.87355820  0.53463812  1
  Li  Li2  1  0.00000000  0.50000000  0.00000000  1
  Li  Li3  1  0.50000000  0.50000000  0.50000000  1
  Li  Li4  1  0.00000000  0.00000000  0.50000000  1
  Li  Li5  1  0.24790054  0.26525059  0.48546571  1
  Li  Li6  1  0.75209946  0.73474941  0.51453429  1
  Li  Li7  1  0.38438730  0.38378361  0.01015140  1
  Li  Li8  1  0.61561270  0.61621639  0.98984860  1
  Li  Li9  1  0.61645671  0.12644180  0.46536188  1
  Li  Li10  1  0.86710588  0.37008412  0.49712407  1
  Li  Li11  1  0.50000000  0.00000000  0.00000000  1
  V  V12  1  0.24087761  0.73015538  0.98835722  1
  V  V13  1  0.14527216  0.11159177  0.02695992  1
  V  V14  1  0.85472784  0.88840823  0.97304008  1
  V  V15  1  0.75912239  0.26984462  0.01164278  1
  O  O16  1  0.00052237  0.75200385  0.77099718  1
  O  O17  1  0.24810682  0.98477218  0.79513121  1
  O  O18  1  0.10976779  0.87954250  0.21802572  1
  O  O19  1  0.36264112  0.63871570  0.76287561  1
  O  O20  1  0.64779847  0.87367267  0.76077530  1
  O  O21  1  0.24887287  0.52312033  0.23996329  1
  O  O22  1  0.75112713  0.47687967  0.76003671  1
  O  O23  1  0.35220153  0.12632733  0.23922470  1
  O  O24  1  0.63735888  0.36128430  0.23712439  1
  O  O25  1  0.89023221  0.12045750  0.78197428  1
  O  O26  1  0.75189318  0.01522782  0.20486879  1
  O  O27  1  -0.00052237  0.24799615  0.22900282  1
  F  F28  1  0.12555731  0.36057077  0.74893854  1
  F  F29  1  0.50157317  0.74594286  0.25469650  1
  F  F30  1  0.49842683  0.25405714  0.74530350  1
  F  F31  1  0.87444269  0.63942923  0.25106146  1
