# generated using pymatgen
data_Li2V4P4O15
_symmetry_space_group_name_H-M   'P 1'
_cell_length_a   8.88048186
_cell_length_b   8.88048186
_cell_length_c   18.31732335
_cell_angle_alpha   83.37944352
_cell_angle_beta   96.62055648
_cell_angle_gamma   74.64602386
_symmetry_Int_Tables_number   1
_chemical_formula_structural   Li2V4P4O15
_chemical_formula_sum   'Li8 V16 P16 O60'
_cell_volume   1367.58267727
_cell_formula_units_Z   4
loop_
 _symmetry_equiv_pos_site_id
 _symmetry_equiv_pos_as_xyz
  1  'x, y, z'
loop_
 _atom_site_type_symbol
 _atom_site_label
 _atom_site_symmetry_multiplicity
 _atom_site_fract_x
 _atom_site_fract_y
 _atom_site_fract_z
 _atom_site_occupancy
  Li  Li0  1  0.53722294  0.01949035  0.74211088  1
  Li  Li1  1  0.65738687  0.44382110  0.92817068  1
  Li  Li2  1  0.44382110  0.65738687  0.57182932  1
  Li  Li3  1  0.98050965  0.46277706  0.24211088  1
  Li  Li4  1  0.01949035  0.53722294  0.75788912  1
  Li  Li5  1  0.55617890  0.34261313  0.42817068  1
  Li  Li6  1  0.34261313  0.55617890  0.07182932  1
  Li  Li7  1  0.46277706  0.98050965  0.25788912  1
  V  V8  1  0.04507546  0.85758899  0.57030019  1
  V  V9  1  0.09336997  0.27467648  0.93583877  1
  V  V10  1  0.00000000  0.50000000  0.50000000  1
  V  V11  1  0.14241101  0.95492454  0.07030019  1
  V  V12  1  0.18733971  0.18733971  0.75000000  1
  V  V13  1  0.45620399  0.45620399  0.75000000  1
  V  V14  1  0.95519023  0.95519023  0.75000000  1
  V  V15  1  0.72532352  0.90663003  0.43583877  1
  V  V16  1  0.27467648  0.09336997  0.56416123  1
  V  V17  1  0.04480977  0.04480977  0.25000000  1
  V  V18  1  0.54379601  0.54379601  0.25000000  1
  V  V19  1  0.81266029  0.81266029  0.25000000  1
  V  V20  1  0.85758899  0.04507546  0.92969981  1
  V  V21  1  0.90663003  0.72532352  0.06416123  1
  V  V22  1  0.95492454  0.14241101  0.42969981  1
  V  V23  1  0.50000000  0.00000000  0.00000000  1
  P  P24  1  0.22441417  0.90495020  0.89914478  1
  P  P25  1  0.02116760  0.68697253  0.89783867  1
  P  P26  1  0.29789469  0.84313265  0.68116541  1
  P  P27  1  0.09504980  0.77558583  0.39914478  1
  P  P28  1  0.31302747  0.97883240  0.39783867  1
  P  P29  1  0.23279987  0.46356018  0.62049470  1
  P  P30  1  0.15686735  0.70210531  0.18116541  1
  P  P31  1  0.46356018  0.23279987  0.87950530  1
  P  P32  1  0.53643982  0.76720013  0.12049470  1
  P  P33  1  0.84313265  0.29789469  0.81883459  1
  P  P34  1  0.76720013  0.53643982  0.37950530  1
  P  P35  1  0.68697253  0.02116760  0.60216133  1
  P  P36  1  0.90495020  0.22441417  0.60085522  1
  P  P37  1  0.70210531  0.15686735  0.31883459  1
  P  P38  1  0.97883240  0.31302747  0.10216133  1
  P  P39  1  0.77558583  0.09504980  0.10085522  1
  O  O40  1  0.16733590  0.97442139  0.81675172  1
  O  O41  1  0.12620735  0.83487602  0.68724054  1
  O  O42  1  0.18810879  0.73654555  0.91425893  1
  O  O43  1  0.39878442  0.87482455  0.92376731  1
  O  O44  1  0.06813452  0.51538581  0.92940432  1
  O  O45  1  0.02557861  0.83266410  0.31675172  1
  O  O46  1  0.30192762  0.84033920  0.59396450  1
  O  O47  1  0.10196557  0.61336776  0.58133299  1
  O  O48  1  0.01009899  0.32377049  0.81000758  1
  O  O49  1  0.16512398  0.87379265  0.18724054  1
  O  O50  1  0.42460290  0.70963914  0.73045811  1
  O  O51  1  0.26345445  0.81189121  0.41425893  1
  O  O52  1  0.12517545  0.60121558  0.42376731  1
  O  O53  1  0.48461319  0.93186548  0.42940432  1
  O  O54  1  0.20136346  0.42406516  0.70228302  1
  O  O55  1  0.72433103  0.96912532  0.68695816  1
  O  O56  1  0.11661577  0.01289538  0.94754757  1
  O  O57  1  0.90287563  0.78977305  0.94113522  1
  O  O58  1  0.33933588  0.21437252  0.93002102  1
  O  O59  1  0.15966080  0.69807238  0.09396450  1
  O  O60  1  0.48293836  0.40198490  0.87195746  1
  O  O61  1  0.38663224  0.89803443  0.08133299  1
  O  O62  1  0.40198490  0.48293836  0.62804254  1
  O  O63  1  0.21437252  0.33933588  0.56997898  1
  O  O64  1  0.78977305  0.90287563  0.55886478  1
  O  O65  1  0.01289538  0.11661577  0.55245243  1
  O  O66  1  0.67622951  0.98990101  0.31000758  1
  O  O67  1  0.29036086  0.57539710  0.23045811  1
  O  O68  1  0.96912532  0.72433103  0.81304184  1
  O  O69  1  0.42406516  0.20136346  0.79771698  1
  O  O70  1  0.57593484  0.79863654  0.20228302  1
  O  O71  1  0.03087468  0.27566897  0.18695816  1
  O  O72  1  0.70963914  0.42460290  0.76954189  1
  O  O73  1  0.32377049  0.01009899  0.68999242  1
  O  O74  1  0.98710462  0.88338423  0.44754757  1
  O  O75  1  0.21022695  0.09712437  0.44113522  1
  O  O76  1  0.78562748  0.66066412  0.43002102  1
  O  O77  1  0.59801510  0.51706164  0.37195746  1
  O  O78  1  0.61336776  0.10196557  0.91866701  1
  O  O79  1  0.51706164  0.59801510  0.12804254  1
  O  O80  1  0.84033920  0.30192762  0.90603550  1
  O  O81  1  0.66066412  0.78562748  0.06997898  1
  O  O82  1  0.09712437  0.21022695  0.05886478  1
  O  O83  1  0.88338423  0.98710462  0.05245243  1
  O  O84  1  0.27566897  0.03087468  0.31304184  1
  O  O85  1  0.79863654  0.57593484  0.29771698  1
  O  O86  1  0.51538581  0.06813452  0.57059568  1
  O  O87  1  0.87482455  0.39878442  0.57623269  1
  O  O88  1  0.73654555  0.18810879  0.58574107  1
  O  O89  1  0.57539710  0.29036086  0.26954189  1
  O  O90  1  0.83487602  0.12620735  0.81275946  1
  O  O91  1  0.98990101  0.67622951  0.18999242  1
  O  O92  1  0.89803443  0.38663224  0.41866701  1
  O  O93  1  0.69807238  0.15966080  0.40603550  1
  O  O94  1  0.97442139  0.16733590  0.68324828  1
  O  O95  1  0.93186548  0.48461319  0.07059568  1
  O  O96  1  0.60121558  0.12517545  0.07623269  1
  O  O97  1  0.81189121  0.26345445  0.08574107  1
  O  O98  1  0.87379265  0.16512398  0.31275946  1
  O  O99  1  0.83266410  0.02557861  0.18324828  1
