# generated using pymatgen
data_LiVF4
_symmetry_space_group_name_H-M   'P 1'
_cell_length_a   7.85421712
_cell_length_b   8.61115261
_cell_length_c   10.25190477
_cell_angle_alpha   89.98602110
_cell_angle_beta   90.01047829
_cell_angle_gamma   90.00286434
_symmetry_Int_Tables_number   1
_chemical_formula_structural   LiVF4
_chemical_formula_sum   'Li8 V8 F32'
_cell_volume   693.37588209
_cell_formula_units_Z   8
loop_
 _symmetry_equiv_pos_site_id
 _symmetry_equiv_pos_as_xyz
  1  'x, y, z'
loop_
 _atom_site_type_symbol
 _atom_site_label
 _atom_site_symmetry_multiplicity
 _atom_site_fract_x
 _atom_site_fract_y
 _atom_site_fract_z
 _atom_site_occupancy
  Li  Li0  1  0.20877791  0.25000093  0.55196825  1
  Li  Li1  1  0.24385173  0.24986241  0.95260225  1
  Li  Li2  1  0.25616936  0.75004082  0.45253471  1
  Li  Li3  1  0.29120077  0.75006520  0.05200025  1
  Li  Li4  1  0.70884429  0.24990425  0.94803392  1
  Li  Li5  1  0.74386381  0.25008911  0.54742113  1
  Li  Li6  1  0.75617671  0.75001796  0.04743634  1
  Li  Li7  1  0.79121930  0.74995403  0.44799557  1
  V  V8  1  0.13916621  0.06062419  0.24887446  1
  V  V9  1  0.13917651  0.43939987  0.24895470  1
  V  V10  1  0.36086058  0.56046082  0.74900929  1
  V  V11  1  0.36080192  0.93927868  0.74885440  1
  V  V12  1  0.63911132  0.06055974  0.25100187  1
  V  V13  1  0.63919535  0.43937861  0.25109713  1
  V  V14  1  0.86080439  0.56064209  0.75115267  1
  V  V15  1  0.86086963  0.93945808  0.75103170  1
  F  F16  1  0.10961704  0.56719567  0.76349884  1
  F  F17  1  0.11079212  0.93250581  0.76351949  1
  F  F18  1  0.13354506  0.25007025  0.37357900  1
  F  F19  1  0.12713181  0.58713448  0.38779290  1
  F  F20  1  0.12705597  0.91276699  0.38790781  1
  F  F21  1  0.14807751  0.25011568  0.12280244  1
  F  F22  1  0.15999022  0.58370660  0.11065832  1
  F  F23  1  0.15996957  0.91626059  0.11052368  1
  F  F24  1  0.34006533  0.08415958  0.61053509  1
  F  F25  1  0.34004245  0.41672794  0.61055590  1
  F  F26  1  0.35185134  0.74965996  0.62290527  1
  F  F27  1  0.37298679  0.08753781  0.88779983  1
  F  F28  1  0.37286267  0.41319840  0.88787665  1
  F  F29  1  0.36655584  0.74953153  0.87359283  1
  F  F30  1  0.38958295  0.06740774  0.26346798  1
  F  F31  1  0.38991568  0.43255737  0.26353180  1
  F  F32  1  0.61076283  0.56733698  0.73649317  1
  F  F33  1  0.60962672  0.93269660  0.73649141  1
  F  F34  1  0.63345479  0.24977225  0.12643786  1
  F  F35  1  0.62701676  0.58724865  0.11222477  1
  F  F36  1  0.62717901  0.91301564  0.11212958  1
  F  F37  1  0.64806011  0.24998964  0.37708733  1
  F  F38  1  0.65988567  0.58386758  0.38938018  1
  F  F39  1  0.65993999  0.91651679  0.38943589  1
  F  F40  1  0.84019154  0.08337705  0.88932972  1
  F  F41  1  0.83995819  0.41600749  0.88955977  1
  F  F42  1  0.85188963  0.75034839  0.87712590  1
  F  F43  1  0.87287540  0.08681299  0.61220737  1
  F  F44  1  0.87291268  0.41249501  0.61209619  1
  F  F45  1  0.86644674  0.75032599  0.62643964  1
  F  F46  1  0.88997827  0.06737312  0.23651239  1
  F  F47  1  0.88968950  0.43254262  0.23653235  1
