# generated using pymatgen
data_LiV2O4
_symmetry_space_group_name_H-M   'P 1'
_cell_length_a   5.31283287
_cell_length_b   5.19468368
_cell_length_c   5.95392563
_cell_angle_alpha   89.97345675
_cell_angle_beta   89.99414275
_cell_angle_gamma   90.70025629
_symmetry_Int_Tables_number   1
_chemical_formula_structural   LiV2O4
_chemical_formula_sum   'Li2 V4 O8'
_cell_volume   164.30704344
_cell_formula_units_Z   2
loop_
 _symmetry_equiv_pos_site_id
 _symmetry_equiv_pos_as_xyz
  1  'x, y, z'
loop_
 _atom_site_type_symbol
 _atom_site_label
 _atom_site_symmetry_multiplicity
 _atom_site_fract_x
 _atom_site_fract_y
 _atom_site_fract_z
 _atom_site_occupancy
  Li  Li0  1  0.56101108  0.18997849  0.24986874  1
  Li  Li1  1  0.43900176  0.80995676  0.75010289  1
  V  V2  1  -0.00001092  0.00000578  0.00004758  1
  V  V3  1  0.01950003  0.51168420  0.24992079  1
  V  V4  1  -0.00001749  -0.00002067  0.49989189  1
  V  V5  1  0.98042442  0.48829588  0.75005815  1
  O  O6  1  0.19258571  0.67923882  0.98625218  1
  O  O7  1  0.80739511  0.32076917  0.01368627  1
  O  O8  1  0.20140240  0.16290298  0.24994981  1
  O  O9  1  0.80463793  0.85869048  0.24973993  1
  O  O10  1  0.19254523  0.67955563  0.51378010  1
  O  O11  1  0.80745906  0.32046134  0.48623937  1
  O  O12  1  0.19549317  0.14133308  0.75022132  1
  O  O13  1  0.79857350  0.83714805  0.75000797  1
