# generated using pymatgen
data_LiVOF2
_symmetry_space_group_name_H-M   'P 1'
_cell_length_a   10.47189241
_cell_length_b   8.95649159
_cell_length_c   5.39460242
_cell_angle_alpha   89.98635702
_cell_angle_beta   112.06037198
_cell_angle_gamma   90.07872790
_symmetry_Int_Tables_number   1
_chemical_formula_structural   LiVOF2
_chemical_formula_sum   'Li8 V8 O8 F16'
_cell_volume   468.92436641
_cell_formula_units_Z   8
loop_
 _symmetry_equiv_pos_site_id
 _symmetry_equiv_pos_as_xyz
  1  'x, y, z'
loop_
 _atom_site_type_symbol
 _atom_site_label
 _atom_site_symmetry_multiplicity
 _atom_site_fract_x
 _atom_site_fract_y
 _atom_site_fract_z
 _atom_site_occupancy
  Li  Li0  1  0.19494175  0.40787853  0.38529475  1
  Li  Li1  1  0.30441249  0.09520423  0.11782518  1
  Li  Li2  1  0.19539350  0.59005601  0.88709954  1
  Li  Li3  1  0.30387952  0.91648859  0.61649183  1
  Li  Li4  1  0.67880222  0.09208071  0.35634302  1
  Li  Li5  1  0.80959962  0.40817650  0.13782585  1
  Li  Li6  1  0.68036297  0.91572299  0.85651849  1
  Li  Li7  1  0.82191959  0.58691056  0.64665686  1
  V  V8  1  0.01278829  0.73690379  0.24718844  1
  V  V9  1  0.01348872  0.09502080  0.26069321  1
  V  V10  1  0.01478847  0.90379500  0.76238879  1
  V  V11  1  0.01259766  0.26125654  0.74645999  1
  V  V12  1  0.49032840  0.76258608  0.23724215  1
  V  V13  1  0.48734320  0.40129984  0.22823543  1
  V  V14  1  0.50115415  0.57445809  0.76405878  1
  V  V15  1  0.49110029  0.24370015  0.75885240  1
  O  O16  1  0.09676292  0.08514086  0.97389594  1
  O  O17  1  0.09744727  0.91331635  0.47407140  1
  O  O18  1  0.10181748  0.24766540  0.49854921  1
  O  O19  1  0.10374754  0.75158242  0.00242757  1
  O  O20  1  0.39161765  0.25033354  0.98793656  1
  O  O21  1  0.40277334  0.59093471  0.02450646  1
  O  O22  1  0.40321807  0.41648957  0.51140830  1
  O  O23  1  0.60701726  0.41952175  0.00758189  1
  F  F24  1  0.13053605  0.41381437  0.99929468  1
  F  F25  1  0.13505935  0.58786762  0.50193057  1
  F  F26  1  0.37360314  0.08419843  0.50140338  1
  F  F27  1  0.39846022  0.74866653  0.50934749  1
  F  F28  1  0.36957878  0.91213980  0.00577073  1
  F  F29  1  0.62867467  0.09053752  0.97964790  1
  F  F30  1  0.61572389  0.59478349  0.50305184  1
  F  F31  1  0.60924664  0.24729049  0.50549424  1
  F  F32  1  0.62696991  0.90676821  0.47584800  1
  F  F33  1  0.60353250  0.75477613  0.99251107  1
  F  F34  1  0.89059955  0.24676507  0.99489792  1
  F  F35  1  0.88334347  0.91225189  0.99447199  1
  F  F36  1  0.87204183  0.40829528  0.52705261  1
  F  F37  1  0.89099664  0.75085838  0.49694189  1
  F  F38  1  0.88353788  0.08447789  0.49524363  1
  F  F39  1  0.87079114  0.58998688  0.02753902  1
