# generated using pymatgen
data_LiFe4(BO3)4
_symmetry_space_group_name_H-M   'P 1'
_cell_length_a   5.22220296
_cell_length_b   9.22219999
_cell_length_c   11.38154196
_cell_angle_alpha   66.75958251
_cell_angle_beta   76.16722850
_cell_angle_gamma   89.05221254
_symmetry_Int_Tables_number   1
_chemical_formula_structural   LiFe4(BO3)4
_chemical_formula_sum   'Li2 Fe8 B8 O24'
_cell_volume   487.18974345
_cell_formula_units_Z   2
loop_
 _symmetry_equiv_pos_site_id
 _symmetry_equiv_pos_as_xyz
  1  'x, y, z'
loop_
 _atom_site_type_symbol
 _atom_site_label
 _atom_site_symmetry_multiplicity
 _atom_site_fract_x
 _atom_site_fract_y
 _atom_site_fract_z
 _atom_site_occupancy
  Li  Li0  1  0.97473861  0.96346690  0.40337733  1
  Li  Li1  1  0.51165555  0.50150076  0.65229469  1
  Fe  Fe2  1  0.97304997  0.64323011  0.37476496  1
  Fe  Fe3  1  0.72883625  0.06601331  0.87936478  1
  Fe  Fe4  1  0.51984506  0.85195355  0.63080211  1
  Fe  Fe5  1  0.77169363  0.43175972  0.12840572  1
  Fe  Fe6  1  0.23300832  0.57119211  0.87736060  1
  Fe  Fe7  1  0.47876907  0.15296534  0.37970481  1
  Fe  Fe8  1  0.02384358  0.34387328  0.62380246  1
  Fe  Fe9  1  0.26241849  0.93076043  0.13132564  1
  B  B10  1  0.97530749  0.30294708  0.38064113  1
  B  B11  1  0.74484350  0.39722486  0.87146424  1
  B  B12  1  0.52715902  0.19229485  0.62608998  1
  B  B13  1  0.75712806  0.10435060  0.13236642  1
  B  B14  1  0.47589481  0.81969981  0.37660508  1
  B  B15  1  0.22656040  0.89439121  0.88096266  1
  B  B16  1  0.02102657  0.67849559  0.62584696  1
  B  B17  1  0.27547924  0.60641327  0.12477774  1
  O  O18  1  0.97428930  0.92022276  0.87352590  1
  O  O19  1  0.87703331  0.28616996  0.82965751  1
  O  O20  1  0.87117503  0.46843710  0.93271940  1
  O  O21  1  0.90049395  0.81377225  0.60197204  1
  O  O22  1  0.92865376  0.55928488  0.59286240  1
  O  O23  1  0.75112470  0.16668913  0.67730883  1
  O  O24  1  0.75269157  0.33045788  0.32843268  1
  O  O25  1  0.50428628  0.43864322  0.84861681  1
  O  O26  1  0.36075477  0.78606013  0.83721045  1
  O  O27  1  0.56427613  0.93606224  0.41476280  1
  O  O28  1  0.60311477  0.68971980  0.39000164  1
  O  O29  1  0.36089049  0.97851290  0.93081032  1
  O  O30  1  0.62658107  0.02986338  0.07447816  1
  O  O31  1  0.38218984  0.31637465  0.63139782  1
  O  O32  1  0.46158528  0.09318055  0.57170797  1
  O  O33  1  0.61964043  0.21337247  0.17614048  1
  O  O34  1  0.52715920  0.57812726  0.13225998  1
  O  O35  1  0.24560834  0.65161397  0.67751848  1
  O  O36  1  0.24337460  0.84648811  0.33075146  1
  O  O37  1  0.04440835  0.40400736  0.43315932  1
  O  O38  1  0.11527223  0.17607351  0.37971324  1
  O  O39  1  0.14049544  0.52189804  0.07452550  1
  O  O40  1  0.14193151  0.71484995  0.16740927  1
  O  O41  1  0.00297802  0.07129076  0.14703124  1
