# generated using pymatgen
data_Li2NiO2F
_symmetry_space_group_name_H-M   'P 1'
_cell_length_a   4.98872774
_cell_length_b   5.02960870
_cell_length_c   9.57649527
_cell_angle_alpha   85.41148888
_cell_angle_beta   99.28288522
_cell_angle_gamma   119.73148823
_symmetry_Int_Tables_number   1
_chemical_formula_structural   Li2NiO2F
_chemical_formula_sum   'Li8 Ni4 O8 F4'
_cell_volume   205.92299279
_cell_formula_units_Z   4
loop_
 _symmetry_equiv_pos_site_id
 _symmetry_equiv_pos_as_xyz
  1  'x, y, z'
loop_
 _atom_site_type_symbol
 _atom_site_label
 _atom_site_symmetry_multiplicity
 _atom_site_fract_x
 _atom_site_fract_y
 _atom_site_fract_z
 _atom_site_occupancy
  Li  Li0  1  0.16479409  0.82416276  0.49642251  1
  Li  Li1  1  0.00256753  0.49201923  0.00352020  1
  Li  Li2  1  0.09024842  0.18049685  0.25000000  1
  Li  Li3  1  0.65936867  0.82416276  0.00357749  1
  Li  Li4  1  0.48945070  0.49201923  0.49647980  1
  Li  Li5  1  0.33426259  0.18017920  0.00748623  1
  Li  Li6  1  0.74841966  0.49684032  0.25000000  1
  Li  Li7  1  0.84591661  0.18017920  0.49251377  1
  Ni  Ni8  1  0.25169530  0.50338959  0.75000000  1
  Ni  Ni9  1  0.40058930  0.80117859  0.25000000  1
  Ni  Ni10  1  0.92131842  0.84263584  0.75000000  1
  Ni  Ni11  1  0.58683891  0.17367783  0.75000000  1
  O  O12  1  0.28750228  0.86426417  0.85669329  1
  O  O13  1  0.13716520  0.50771243  0.37222394  1
  O  O14  1  0.23509850  0.16267492  0.63710386  1
  O  O15  1  0.57676089  0.86426417  0.64330671  1
  O  O16  1  0.37054823  0.50771243  0.12777606  1
  O  O17  1  0.62923481  0.48891583  0.86231133  1
  O  O18  1  0.85968102  0.48891583  0.63768867  1
  O  O19  1  0.92757641  0.16267492  0.86289614  1
  F  F20  1  0.03691081  0.83335380  0.12224243  1
  F  F21  1  0.45897994  0.14760865  0.37161278  1
  F  F22  1  0.79644399  0.83335380  0.37775757  1
  F  F23  1  0.68862871  0.14760865  0.12838722  1
