# generated using pymatgen
data_Li3Fe3OF7
_symmetry_space_group_name_H-M   'P 1'
_cell_length_a   5.18893379
_cell_length_b   10.25965345
_cell_length_c   3.11863896
_cell_angle_alpha   90.00000000
_cell_angle_beta   90.00000000
_cell_angle_gamma   90.22927950
_symmetry_Int_Tables_number   1
_chemical_formula_structural   Li3Fe3OF7
_chemical_formula_sum   'Li3 Fe3 O1 F7'
_cell_volume   166.02460045
_cell_formula_units_Z   1
loop_
 _symmetry_equiv_pos_site_id
 _symmetry_equiv_pos_as_xyz
  1  'x, y, z'
loop_
 _atom_site_type_symbol
 _atom_site_label
 _atom_site_symmetry_multiplicity
 _atom_site_fract_x
 _atom_site_fract_y
 _atom_site_fract_z
 _atom_site_occupancy
  Li  Li0  1  0.38829735  0.04335737  0.75000000  1
  Li  Li1  1  0.47516314  0.35702798  0.75000000  1
  Li  Li2  1  0.94627994  0.44749863  0.25000000  1
  Fe  Fe3  1  0.02279927  0.87152842  0.75000000  1
  Fe  Fe4  1  0.52123433  0.63511704  0.25000000  1
  Fe  Fe5  1  0.96553519  0.13611598  0.25000000  1
  O  O6  1  0.18214175  0.97596129  0.25000000  1
  F  F7  1  0.21084986  0.21918622  0.75000000  1
  F  F8  1  0.30365873  0.46341140  0.25000000  1
  F  F9  1  0.32069873  0.71745884  0.75000000  1
  F  F10  1  0.73144988  0.29530776  0.25000000  1
  F  F11  1  0.74280227  0.52793494  0.75000000  1
  F  F12  1  0.74018566  0.04161277  0.75000000  1
  F  F13  1  0.82306489  0.76848135  0.25000000  1
