# generated using pymatgen
data_Li9Fe5O12
_symmetry_space_group_name_H-M   'P 1'
_cell_length_a   5.30325254
_cell_length_b   5.30290171
_cell_length_c   10.13804815
_cell_angle_alpha   91.31908646
_cell_angle_beta   88.71683845
_cell_angle_gamma   58.64548913
_symmetry_Int_Tables_number   1
_chemical_formula_structural   Li9Fe5O12
_chemical_formula_sum   'Li9 Fe5 O12'
_cell_volume   243.21061461
_cell_formula_units_Z   1
loop_
 _symmetry_equiv_pos_site_id
 _symmetry_equiv_pos_as_xyz
  1  'x, y, z'
loop_
 _atom_site_type_symbol
 _atom_site_label
 _atom_site_symmetry_multiplicity
 _atom_site_fract_x
 _atom_site_fract_y
 _atom_site_fract_z
 _atom_site_occupancy
  Li  Li0  1  0.20668454  0.79419227  0.73115209  1
  Li  Li1  1  0.27174799  0.72782906  0.19585092  1
  Li  Li2  1  0.18768724  0.33386355  0.24357762  1
  Li  Li3  1  0.66552041  0.81331595  0.24349301  1
  Li  Li4  1  0.00106835  0.99977583  0.99953993  1
  Li  Li5  1  0.33360919  0.18798544  0.75645931  1
  Li  Li6  1  0.81360823  0.66551675  0.75649255  1
  Li  Li7  1  0.72723420  0.27213730  0.80392651  1
  Li  Li8  1  0.79398921  0.20641755  0.26909898  1
  Fe  Fe9  1  0.83519081  0.83470398  0.50005660  1
  Fe  Fe10  1  0.49977388  0.50013775  0.49997361  1
  Fe  Fe11  1  0.16512286  0.16561207  0.49997127  1
  Fe  Fe12  1  0.33444459  0.33366024  0.00009363  1
  Fe  Fe13  1  0.66632100  0.66557355  0.00002795  1
  O  O14  1  0.16909292  0.82994333  0.39208868  1
  O  O15  1  0.65589242  0.99176847  0.88128240  1
  O  O16  1  0.00920665  0.34258901  0.88132000  1
  O  O17  1  0.48866870  0.84286249  0.60860386  1
  O  O18  1  0.15649729  0.51303796  0.60888457  1
  O  O19  1  0.38018493  0.61867188  0.88409567  1
  O  O20  1  0.61877020  0.38040106  0.11617179  1
  O  O21  1  0.84257961  0.48890387  0.39149226  1
  O  O22  1  0.51263349  0.15660178  0.39124039  1
  O  O23  1  0.99182786  0.65569283  0.11864805  1
  O  O24  1  0.34298324  0.00923787  0.11858440  1
  O  O25  1  0.82963520  0.16958913  0.60787296  1
