# generated using pymatgen
data_Li3TiMn3O8
_symmetry_space_group_name_H-M   'P 1'
_cell_length_a   5.87350010
_cell_length_b   6.04439795
_cell_length_c   9.67673654
_cell_angle_alpha   94.55448075
_cell_angle_beta   92.34902390
_cell_angle_gamma   59.02765164
_symmetry_Int_Tables_number   1
_chemical_formula_structural   Li3TiMn3O8
_chemical_formula_sum   'Li6 Ti2 Mn6 O16'
_cell_volume   293.62758713
_cell_formula_units_Z   2
loop_
 _symmetry_equiv_pos_site_id
 _symmetry_equiv_pos_as_xyz
  1  'x, y, z'
loop_
 _atom_site_type_symbol
 _atom_site_label
 _atom_site_symmetry_multiplicity
 _atom_site_fract_x
 _atom_site_fract_y
 _atom_site_fract_z
 _atom_site_occupancy
  Li  Li0  1  0.18429714  0.16785570  0.44841785  1
  Li  Li1  1  0.17687472  0.65204719  0.43770876  1
  Li  Li2  1  0.65179865  0.17644044  0.44158524  1
  Li  Li3  1  0.34818182  0.82786980  0.94156850  1
  Li  Li4  1  0.81577071  0.35144917  0.94835042  1
  Li  Li5  1  0.82331460  0.82891972  0.93770529  1
  Ti  Ti6  1  0.31921843  0.32577478  0.99760191  1
  Ti  Ti7  1  0.68059265  0.64544341  0.49752221  1
  Mn  Mn8  1  0.16960657  0.16996755  0.71877691  1
  Mn  Mn9  1  0.17233955  0.65915737  0.71277537  1
  Mn  Mn10  1  0.66725962  0.16426048  0.71294704  1
  Mn  Mn11  1  0.33263787  0.83159161  0.21299573  1
  Mn  Mn12  1  0.83030287  0.33957190  0.21877639  1
  Mn  Mn13  1  0.82765077  0.83145091  0.21280999  1
  O  O14  1  0.98819753  0.98759201  0.82444806  1
  O  O15  1  0.01185552  0.97577176  0.32444554  1
  O  O16  1  0.14452974  0.19360381  0.09145773  1
  O  O17  1  0.02465976  0.46916489  0.85015970  1
  O  O18  1  0.46430313  0.03638559  0.85163336  1
  O  O19  1  0.35485081  0.33812535  0.59639432  1
  O  O20  1  0.14892635  0.68378443  0.08994261  1
  O  O21  1  0.47413870  0.47988272  0.84197716  1
  O  O22  1  0.34715885  0.85186926  0.58903679  1
  O  O23  1  0.65280369  0.19888446  0.08905801  1
  O  O24  1  0.53560226  0.50092993  0.35159479  1
  O  O25  1  0.64497082  0.69290159  0.09651764  1
  O  O26  1  0.52605914  0.95411665  0.34213174  1
  O  O27  1  0.85554446  0.33850443  0.59138669  1
  O  O28  1  0.97535665  0.49387859  0.35005510  1
  O  O29  1  0.85096464  0.83304247  0.58997116  1
