# generated using pymatgen
data_V3O5F3
_symmetry_space_group_name_H-M   'P 1'
_cell_length_a   7.26717323
_cell_length_b   7.26717333
_cell_length_c   5.01579642
_cell_angle_alpha   89.63834629
_cell_angle_beta   90.36164761
_cell_angle_gamma   77.35621988
_symmetry_Int_Tables_number   1
_chemical_formula_structural   V3O5F3
_chemical_formula_sum   'V6 O10 F6'
_cell_volume   258.45637438
_cell_formula_units_Z   2
loop_
 _symmetry_equiv_pos_site_id
 _symmetry_equiv_pos_as_xyz
  1  'x, y, z'
loop_
 _atom_site_type_symbol
 _atom_site_label
 _atom_site_symmetry_multiplicity
 _atom_site_fract_x
 _atom_site_fract_y
 _atom_site_fract_z
 _atom_site_occupancy
  V  V0  1  0.17108738  0.65116099  0.72240420  1
  V  V1  1  0.31929577  0.32091233  0.23609331  1
  V  V2  1  0.34883901  0.82891262  0.22240420  1
  V  V3  1  0.66918490  0.17106920  0.78967095  1
  V  V4  1  0.67908767  0.68070423  0.73609331  1
  V  V5  1  0.82893080  0.33081510  0.28967095  1
  O  O6  1  0.06065947  0.32706193  0.35788686  1
  O  O7  1  0.21398932  0.45001726  0.91901673  1
  O  O8  1  0.32691352  0.06358281  0.13639189  1
  O  O9  1  0.29452831  0.56899724  0.40844672  1
  O  O10  1  0.43100276  0.70547169  0.90844672  1
  O  O11  1  0.57015658  0.30456187  0.10888654  1
  O  O12  1  0.54998274  0.78601068  0.41901673  1
  O  O13  1  0.69543813  0.42984342  0.60888654  1
  O  O14  1  0.67293807  0.93934153  0.85788686  1
  O  O15  1  0.93641719  0.67308648  0.63639189  1
  F  F16  1  0.10373199  0.81247528  0.04029024  1
  F  F17  1  0.18752472  0.89626801  0.54029024  1
  F  F18  1  0.43081550  0.21410830  0.57873147  1
  F  F19  1  0.81336046  0.09446000  0.45457309  1
  F  F20  1  0.78589170  0.56918450  0.07873147  1
  F  F21  1  0.90554000  0.18663954  0.95457309  1
