# generated using pymatgen
data_Li2Co4OF8
_symmetry_space_group_name_H-M   'P 1'
_cell_length_a   5.26571879
_cell_length_b   5.16777343
_cell_length_c   14.15323342
_cell_angle_alpha   89.99948910
_cell_angle_beta   90.75146447
_cell_angle_gamma   119.38734332
_symmetry_Int_Tables_number   1
_chemical_formula_structural   Li2Co4OF8
_chemical_formula_sum   'Li4 Co8 O2 F16'
_cell_volume   335.54163854
_cell_formula_units_Z   2
loop_
 _symmetry_equiv_pos_site_id
 _symmetry_equiv_pos_as_xyz
  1  'x, y, z'
loop_
 _atom_site_type_symbol
 _atom_site_label
 _atom_site_symmetry_multiplicity
 _atom_site_fract_x
 _atom_site_fract_y
 _atom_site_fract_z
 _atom_site_occupancy
  Li  Li0  1  0.00154849  0.99653706  0.15204371  1
  Li  Li1  1  0.01308023  0.02239497  0.35703379  1
  Li  Li2  1  0.00148652  0.00500417  0.65203262  1
  Li  Li3  1  0.01316651  0.99071533  0.85704604  1
  Co  Co4  1  0.34143437  0.65401855  0.31886677  1
  Co  Co5  1  0.32446893  0.67337522  0.01480861  1
  Co  Co6  1  0.34145833  0.68746394  0.81887707  1
  Co  Co7  1  0.32436654  0.65103174  0.51480896  1
  Co  Co8  1  0.66475043  0.32912908  0.18556728  1
  Co  Co9  1  0.66471404  0.33561748  0.68557667  1
  Co  Co10  1  0.64911382  0.30246773  0.97318716  1
  Co  Co11  1  0.64895653  0.34660279  0.47316304  1
  O  O12  1  0.33268366  0.95119110  0.91848471  1
  O  O13  1  0.33262609  0.38143746  0.41850874  1
  F  F14  1  0.00260766  0.69444027  0.74745262  1
  F  F15  1  0.02121679  0.68132616  0.41755738  1
  F  F16  1  0.00264469  0.30820115  0.24744246  1
  F  F17  1  0.02130885  0.33994733  0.91754726  1
  F  F18  1  0.31523478  0.32563437  0.74811037  1
  F  F19  1  0.35891475  0.33785460  0.08375640  1
  F  F20  1  0.65027846  0.98966076  0.41449036  1
  F  F21  1  0.31525868  0.98961670  0.24812021  1
  F  F22  1  0.35885699  0.02102888  0.58375741  1
  F  F23  1  0.65033761  0.66066622  0.91448818  1
  F  F24  1  0.69874005  0.69329940  0.24728773  1
  F  F25  1  0.66968789  0.64788429  0.58834103  1
  F  F26  1  0.95621587  0.62382232  0.08300748  1
  F  F27  1  0.66977370  0.02183995  0.08834423  1
  F  F28  1  0.69873653  0.00543727  0.74727421  1
  F  F29  1  0.95612922  0.33235371  0.58301750  1
