# generated using pymatgen
data_Mn2F5
_symmetry_space_group_name_H-M   'P 1'
_cell_length_a   4.87235807
_cell_length_b   6.83549618
_cell_length_c   5.38218174
_cell_angle_alpha   97.17203263
_cell_angle_beta   90.00000000
_cell_angle_gamma   69.12065495
_symmetry_Int_Tables_number   1
_chemical_formula_structural   Mn2F5
_chemical_formula_sum   'Mn4 F10'
_cell_volume   165.98049000
_cell_formula_units_Z   2
loop_
 _symmetry_equiv_pos_site_id
 _symmetry_equiv_pos_as_xyz
  1  'x, y, z'
loop_
 _atom_site_type_symbol
 _atom_site_label
 _atom_site_symmetry_multiplicity
 _atom_site_fract_x
 _atom_site_fract_y
 _atom_site_fract_z
 _atom_site_occupancy
  Mn  Mn0  1  0.90195653  0.75440940  0.39926500  1
  Mn  Mn1  1  0.65636593  0.24559060  0.10073500  1
  Mn  Mn2  1  0.34363407  0.75440940  0.89926500  1
  Mn  Mn3  1  0.09804347  0.24559060  0.60073500  1
  F  F4  1  0.65286860  0.80394593  0.10562148  1
  F  F5  1  0.86227296  0.40641580  0.33160661  1
  F  F6  1  0.97675758  0.00000000  0.75000000  1
  F  F7  1  0.73131124  0.40641580  0.83160661  1
  F  F8  1  0.54318647  0.80394593  0.60562148  1
  F  F9  1  0.45681353  0.19605407  0.39437852  1
  F  F10  1  0.26868876  0.59358420  0.16839339  1
  F  F11  1  0.13772704  0.59358420  0.66839339  1
  F  F12  1  0.34713140  0.19605407  0.89437852  1
  F  F13  1  0.02324242  0.00000000  0.25000000  1
