# generated using pymatgen
data_Li7CoOF7
_symmetry_space_group_name_H-M   'P 1'
_cell_length_a   2.95251304
_cell_length_b   5.87235534
_cell_length_c   8.28295560
_cell_angle_alpha   90.00000000
_cell_angle_beta   90.00000000
_cell_angle_gamma   90.00000000
_symmetry_Int_Tables_number   1
_chemical_formula_structural   Li7CoOF7
_chemical_formula_sum   'Li7 Co1 O1 F7'
_cell_volume   143.61158791
_cell_formula_units_Z   1
loop_
 _symmetry_equiv_pos_site_id
 _symmetry_equiv_pos_as_xyz
  1  'x, y, z'
loop_
 _atom_site_type_symbol
 _atom_site_label
 _atom_site_symmetry_multiplicity
 _atom_site_fract_x
 _atom_site_fract_y
 _atom_site_fract_z
 _atom_site_occupancy
  Li  Li0  1  0.00000000  0.50923017  0.99150985  1
  Li  Li1  1  0.00000000  0.98723506  0.00296698  1
  Li  Li2  1  0.50000000  0.76862399  0.25000000  1
  Li  Li3  1  0.00000000  0.98723506  0.49703302  1
  Li  Li4  1  0.00000000  0.50923017  0.50849015  1
  Li  Li5  1  0.50000000  0.75214425  0.75000000  1
  Li  Li6  1  0.50000000  0.24908329  0.75000000  1
  Co  Co7  1  0.50000000  0.22083221  0.25000000  1
  O  O8  1  0.00000000  0.00055026  0.25000000  1
  F  F9  1  0.50000000  0.26050246  0.99315745  1
  F  F10  1  0.50000000  0.74587128  0.99249005  1
  F  F11  1  0.00000000  0.50022651  0.25000000  1
  F  F12  1  0.50000000  0.26050246  0.50684255  1
  F  F13  1  0.50000000  0.74587128  0.50750995  1
  F  F14  1  0.00000000  0.00155032  0.75000000  1
  F  F15  1  0.00000000  0.50131122  0.75000000  1
