# generated using pymatgen
data_LiFePO4
_symmetry_space_group_name_H-M   'P 1'
_cell_length_a   5.77552055
_cell_length_b   10.93028051
_cell_length_c   9.94085887
_cell_angle_alpha   90.00000000
_cell_angle_beta   91.34375895
_cell_angle_gamma   90.00000000
_symmetry_Int_Tables_number   1
_chemical_formula_structural   LiFePO4
_chemical_formula_sum   'Li8 Fe8 P8 O32'
_cell_volume   627.37455074
_cell_formula_units_Z   8
loop_
 _symmetry_equiv_pos_site_id
 _symmetry_equiv_pos_as_xyz
  1  'x, y, z'
loop_
 _atom_site_type_symbol
 _atom_site_label
 _atom_site_symmetry_multiplicity
 _atom_site_fract_x
 _atom_site_fract_y
 _atom_site_fract_z
 _atom_site_occupancy
  Li  Li0  1  0.11984678  0.14517214  0.88707424  1
  Li  Li1  1  0.11984678  0.35482786  0.38707424  1
  Li  Li2  1  0.38882654  0.65887021  0.64119009  1
  Li  Li3  1  0.38882654  0.84112979  0.14119009  1
  Li  Li4  1  0.61117346  0.15887021  0.85880991  1
  Li  Li5  1  0.61117346  0.34112979  0.35880991  1
  Li  Li6  1  0.88015322  0.64517214  0.61292576  1
  Li  Li7  1  0.88015322  0.85482786  0.11292576  1
  Fe  Fe8  1  0.11883214  0.90356416  0.73105239  1
  Fe  Fe9  1  0.11883214  0.59643584  0.23105239  1
  Fe  Fe10  1  0.34243991  0.37461717  0.98645118  1
  Fe  Fe11  1  0.34243991  0.12538283  0.48645118  1
  Fe  Fe12  1  0.65756009  0.87461717  0.51354882  1
  Fe  Fe13  1  0.65756009  0.62538283  0.01354882  1
  Fe  Fe14  1  0.88116786  0.40356416  0.76894761  1
  Fe  Fe15  1  0.88116786  0.09643584  0.26894761  1
  P  P16  1  0.13126052  0.64463123  0.90895053  1
  P  P17  1  0.13126052  0.85536877  0.40895053  1
  P  P18  1  0.37452379  0.39394340  0.65859866  1
  P  P19  1  0.37452379  0.10605660  0.15859866  1
  P  P20  1  0.62547621  0.89394340  0.84140134  1
  P  P21  1  0.62547621  0.60605660  0.34140134  1
  P  P22  1  0.86873948  0.14463123  0.59104947  1
  P  P23  1  0.86873948  0.35536877  0.09104947  1
  O  O24  1  0.08672229  0.78757234  0.54411817  1
  O  O25  1  0.09423749  0.06945655  0.62365596  1
  O  O26  1  0.08672229  0.71242766  0.04411817  1
  O  O27  1  0.09423749  0.43054345  0.12365596  1
  O  O28  1  0.17499227  0.72889482  0.79003376  1
  O  O29  1  0.15529544  0.47714213  0.64951913  1
  O  O30  1  0.17499227  0.77110518  0.29003376  1
  O  O31  1  0.15529544  0.02285787  0.14951913  1
  O  O32  1  0.34431062  0.56012652  0.92779659  1
  O  O33  1  0.36252607  0.31005204  0.78739499  1
  O  O34  1  0.34431062  0.93987348  0.42779659  1
  O  O35  1  0.38381834  0.31360992  0.52900483  1
  O  O36  1  0.40657885  0.97716817  0.83149212  1
  O  O37  1  0.36252607  0.18994796  0.28739499  1
  O  O38  1  0.38381834  0.18639008  0.02900483  1
  O  O39  1  0.40657885  0.52283183  0.33149212  1
  O  O40  1  0.59342115  0.47716817  0.66850788  1
  O  O41  1  0.61618166  0.81360992  0.97099517  1
  O  O42  1  0.63747393  0.81005204  0.71260501  1
  O  O43  1  0.59342115  0.02283183  0.16850788  1
  O  O44  1  0.61618166  0.68639008  0.47099517  1
  O  O45  1  0.65568938  0.06012652  0.57220341  1
  O  O46  1  0.63747393  0.68994796  0.21260501  1
  O  O47  1  0.65568938  0.43987348  0.07220341  1
  O  O48  1  0.84470456  0.97714213  0.85048087  1
  O  O49  1  0.82500773  0.22889482  0.70996624  1
  O  O50  1  0.84470456  0.52285787  0.35048087  1
  O  O51  1  0.82500773  0.27110518  0.20996624  1
  O  O52  1  0.90576251  0.56945655  0.87634404  1
  O  O53  1  0.91327771  0.28757234  0.95588183  1
  O  O54  1  0.90576251  0.93054345  0.37634404  1
  O  O55  1  0.91327771  0.21242766  0.45588183  1
