# generated using pymatgen
data_LiMnPO4
_symmetry_space_group_name_H-M   'P 1'
_cell_length_a   5.10752093
_cell_length_b   9.47883305
_cell_length_c   8.22951966
_cell_angle_alpha   90.00000000
_cell_angle_beta   90.00000000
_cell_angle_gamma   88.81325506
_symmetry_Int_Tables_number   1
_chemical_formula_structural   LiMnPO4
_chemical_formula_sum   'Li4 Mn4 P4 O16'
_cell_volume   398.33305832
_cell_formula_units_Z   4
loop_
 _symmetry_equiv_pos_site_id
 _symmetry_equiv_pos_as_xyz
  1  'x, y, z'
loop_
 _atom_site_type_symbol
 _atom_site_label
 _atom_site_symmetry_multiplicity
 _atom_site_fract_x
 _atom_site_fract_y
 _atom_site_fract_z
 _atom_site_occupancy
  Li  Li0  1  0.31838238  0.62450995  0.04642277  1
  Li  Li1  1  0.18161762  0.87549005  0.54642277  1
  Li  Li2  1  0.81838238  0.12450995  0.45357723  1
  Li  Li3  1  0.68161762  0.37549005  0.95357723  1
  Mn  Mn4  1  0.25899398  0.40879605  0.32722156  1
  Mn  Mn5  1  0.24100602  0.09120395  0.82722156  1
  Mn  Mn6  1  0.75899398  0.90879605  0.17277844  1
  Mn  Mn7  1  0.74100602  0.59120395  0.67277844  1
  P  P8  1  0.24659739  0.06962717  0.25584629  1
  P  P9  1  0.25340261  0.43037283  0.75584629  1
  P  P10  1  0.74659739  0.56962717  0.24415371  1
  P  P11  1  0.75340261  0.93037283  0.74415371  1
  O  O12  1  0.03597778  0.55707917  0.18666038  1
  O  O13  1  0.08436246  0.94490210  0.32852827  1
  O  O14  1  0.11231306  0.20722297  0.32117580  1
  O  O15  1  0.26564345  0.44062770  0.57033726  1
  O  O16  1  0.23435655  0.05937230  0.07033726  1
  O  O17  1  0.38768694  0.29277703  0.82117580  1
  O  O18  1  0.41563754  0.55509790  0.82852827  1
  O  O19  1  0.46402222  0.94292083  0.68666038  1
  O  O20  1  0.53597778  0.05707917  0.31333962  1
  O  O21  1  0.58436246  0.44490210  0.17147173  1
  O  O22  1  0.61231306  0.70722297  0.17882420  1
  O  O23  1  0.76564345  0.94062770  0.92966274  1
  O  O24  1  0.73435655  0.55937230  0.42966274  1
  O  O25  1  0.88768694  0.79277703  0.67882420  1
  O  O26  1  0.91563754  0.05509790  0.67147173  1
  O  O27  1  0.96402222  0.44292083  0.81333962  1
