# generated using pymatgen
data_NaMn10O20
_symmetry_space_group_name_H-M   'P 1'
_cell_length_a   10.22204940
_cell_length_b   8.34572018
_cell_length_c   10.22204940
_cell_angle_alpha   114.09315954
_cell_angle_beta   80.40720397
_cell_angle_gamma   114.09315954
_symmetry_Int_Tables_number   1
_chemical_formula_structural   NaMn10O20
_chemical_formula_sum   'Na2 Mn20 O40'
_cell_volume   726.72472146
_cell_formula_units_Z   2
loop_
 _symmetry_equiv_pos_site_id
 _symmetry_equiv_pos_as_xyz
  1  'x, y, z'
loop_
 _atom_site_type_symbol
 _atom_site_label
 _atom_site_symmetry_multiplicity
 _atom_site_fract_x
 _atom_site_fract_y
 _atom_site_fract_z
 _atom_site_occupancy
  Na  Na0  1  0.05000000  0.07500000  0.85000000  1
  Na  Na1  1  0.55000000  0.32500000  0.35000000  1
  Mn  Mn2  1  0.10038924  0.40339597  0.69827208  1
  Mn  Mn3  1  0.99952511  0.99936217  0.49621917  1
  Mn  Mn4  1  0.20172792  0.79699327  0.90038924  1
  Mn  Mn5  1  0.30000000  0.20000000  0.60000000  1
  Mn  Mn6  1  0.19621917  0.29983706  0.40047489  1
  Mn  Mn7  1  0.40378083  0.10016294  0.79952511  1
  Mn  Mn8  1  0.99960976  0.50473464  0.00172792  1
  Mn  Mn9  1  0.10047489  0.40361689  0.20378083  1
  Mn  Mn10  1  0.30000000  0.20000000  0.10000000  1
  Mn  Mn11  1  0.69621917  0.79685800  0.90047489  1
  Mn  Mn12  1  0.60047489  0.40063783  0.70378083  1
  Mn  Mn13  1  0.49961076  0.99660403  0.50172792  1
  Mn  Mn14  1  0.39827208  0.60300673  0.29961076  1
  Mn  Mn15  1  0.49952511  0.99638311  0.99621917  1
  Mn  Mn16  1  0.89827208  0.59487612  0.79961076  1
  Mn  Mn17  1  0.70172792  0.80512388  0.40039024  1
  Mn  Mn18  1  0.80000000  0.70000000  0.60000000  1
  Mn  Mn19  1  0.60039024  0.89526536  0.19827208  1
  Mn  Mn20  1  0.90378083  0.60314200  0.29952511  1
  Mn  Mn21  1  0.80000000  0.20000000  0.10000000  1
  O  O22  1  0.00656639  0.72866491  0.98029780  1
  O  O23  1  0.09343361  0.64180071  0.71970220  1
  O  O24  1  0.18029780  0.55163289  0.89343361  1
  O  O25  1  0.22419945  0.04478109  0.90719605  1
  O  O26  1  0.10719705  0.16241496  0.67580055  1
  O  O27  1  0.01802728  0.24766404  0.50494922  1
  O  O28  1  0.39505078  0.87036224  0.81802728  1
  O  O29  1  0.28137459  0.42178846  0.59151540  1
  O  O30  1  0.19452351  0.07373489  0.41755974  1
  O  O31  1  0.08197272  0.62468754  0.19505078  1
  O  O32  1  0.48244026  0.22078862  0.99452351  1
  O  O33  1  0.40547649  0.32626511  0.78244026  1
  O  O34  1  0.20494922  0.52963776  0.38197272  1
  O  O35  1  0.31862541  0.97821254  0.60848460  1
  O  O36  1  0.11755974  0.17921138  0.20547649  1
  O  O37  1  0.58197272  0.15233596  0.69505078  1
  O  O38  1  0.49280295  0.23758504  0.52419945  1
  O  O39  1  0.37580055  0.35521891  0.29280295  1
  O  O40  1  0.29151540  0.44041387  0.11862541  1
  O  O41  1  0.69452351  0.03834836  0.91755974  1
  O  O42  1  0.61755974  0.64382484  0.70547649  1
  O  O43  1  0.50656639  0.75819929  0.48029780  1
  O  O44  1  0.70494922  0.55728518  0.88197272  1
  O  O45  1  0.41970220  0.84836711  0.30656639  1
  O  O46  1  0.30848460  0.95958613  0.08137459  1
  O  O47  1  0.79151540  0.46972794  0.61862541  1
  O  O48  1  0.87580055  0.81338559  0.79280295  1
  O  O49  1  0.59343361  0.67133509  0.21970220  1
  O  O50  1  0.68029780  0.02209852  0.39343361  1
  O  O51  1  0.60719705  0.12058164  0.17580055  1
  O  O52  1  0.80848460  0.93027206  0.58137459  1
  O  O53  1  0.91970220  0.37790148  0.80656639  1
  O  O54  1  0.72419945  0.58661441  0.40719605  1
  O  O55  1  0.51802728  0.77531246  0.00494922  1
  O  O56  1  0.78137459  0.95110253  0.09151540  1
  O  O57  1  0.89505078  0.84271482  0.31802728  1
  O  O58  1  0.98244026  0.75617516  0.49452351  1
  O  O59  1  0.90547649  0.36165164  0.28244026  1
  O  O60  1  0.81862541  0.44889847  0.10848460  1
  O  O61  1  0.99280395  0.27941836  0.02419945  1
