# generated using pymatgen
data_Li3V2(O2F)2
_symmetry_space_group_name_H-M   'P 1'
_cell_length_a   5.93517641
_cell_length_b   5.17996625
_cell_length_c   8.05819626
_cell_angle_alpha   69.78456221
_cell_angle_beta   100.75852435
_cell_angle_gamma   90.87318473
_symmetry_Int_Tables_number   1
_chemical_formula_structural   Li3V2(O2F)2
_chemical_formula_sum   'Li6 V4 O8 F4'
_cell_volume   228.06769034
_cell_formula_units_Z   2
loop_
 _symmetry_equiv_pos_site_id
 _symmetry_equiv_pos_as_xyz
  1  'x, y, z'
loop_
 _atom_site_type_symbol
 _atom_site_label
 _atom_site_symmetry_multiplicity
 _atom_site_fract_x
 _atom_site_fract_y
 _atom_site_fract_z
 _atom_site_occupancy
  Li  Li0  1  0.17897345  0.01625128  0.62373228  1
  Li  Li1  1  0.09585153  0.51547577  0.35361852  1
  Li  Li2  1  0.41294093  0.54879841  0.62743359  1
  Li  Li3  1  0.58705907  0.45120159  0.37256641  1
  Li  Li4  1  0.90414847  0.48452423  0.64638148  1
  Li  Li5  1  0.82102655  0.98374872  0.37626772  1
  V  V6  1  0.00000000  0.00000000  0.00000000  1
  V  V7  1  0.24925670  0.48439453  0.01349131  1
  V  V8  1  0.50000000  0.00000000  0.00000000  1
  V  V9  1  0.75074330  0.51560547  0.98650869  1
  O  O10  1  0.03029677  0.27582915  0.14132296  1
  O  O11  1  0.21637416  0.24445323  0.85956907  1
  O  O12  1  0.27603377  0.73835431  0.14360859  1
  O  O13  1  0.45495821  0.73194303  0.86099712  1
  O  O14  1  0.54504179  0.26805697  0.13900288  1
  O  O15  1  0.72396623  0.26164569  0.85639141  1
  O  O16  1  0.78362584  0.75554677  0.14043093  1
  O  O17  1  0.96970323  0.72417085  0.85867704  1
  F  F18  1  0.10981629  0.74316287  0.51201485  1
  F  F19  1  0.35740493  0.28989205  0.50227040  1
  F  F20  1  0.64259507  0.71010795  0.49772960  1
  F  F21  1  0.89018371  0.25683713  0.48798515  1
