# generated using pymatgen
data_LiNi4O4F
_symmetry_space_group_name_H-M   'P 1'
_cell_length_a   2.96474785
_cell_length_b   2.96474785
_cell_length_c   10.78981406
_cell_angle_alpha   97.89663772
_cell_angle_beta   97.89663772
_cell_angle_gamma   90.00000000
_symmetry_Int_Tables_number   1
_chemical_formula_structural   LiNi4O4F
_chemical_formula_sum   'Li1 Ni4 O4 F1'
_cell_volume   93.03223050
_cell_formula_units_Z   1
loop_
 _symmetry_equiv_pos_site_id
 _symmetry_equiv_pos_as_xyz
  1  'x, y, z'
loop_
 _atom_site_type_symbol
 _atom_site_label
 _atom_site_symmetry_multiplicity
 _atom_site_fract_x
 _atom_site_fract_y
 _atom_site_fract_z
 _atom_site_occupancy
  Li  Li0  1  0.40000000  0.40000000  0.80000000  1
  Ni  Ni1  1  0.00182628  0.00182628  0.00365155  1
  Ni  Ni2  1  0.59962827  0.59962827  0.19925653  1
  Ni  Ni3  1  0.20037173  0.20037173  0.40074347  1
  Ni  Ni4  1  0.79817372  0.79817372  0.59634845  1
  O  O5  1  0.49985233  0.49985233  0.99970467  1
  O  O6  1  0.10021822  0.10021822  0.20043543  1
  O  O7  1  0.69978178  0.69978178  0.39956457  1
  O  O8  1  0.30014767  0.30014767  0.60029533  1
  F  F9  1  0.90000000  0.90000000  0.80000000  1
