# generated using pymatgen
data_LiFePO4
_symmetry_space_group_name_H-M   'P 1'
_cell_length_a   8.09129662
_cell_length_b   9.12645545
_cell_length_c   4.98135363
_cell_angle_alpha   90.00000000
_cell_angle_beta   90.00000000
_cell_angle_gamma   90.00000000
_symmetry_Int_Tables_number   1
_chemical_formula_structural   LiFePO4
_chemical_formula_sum   'Li4 Fe4 P4 O16'
_cell_volume   367.84735213
_cell_formula_units_Z   4
loop_
 _symmetry_equiv_pos_site_id
 _symmetry_equiv_pos_as_xyz
  1  'x, y, z'
loop_
 _atom_site_type_symbol
 _atom_site_label
 _atom_site_symmetry_multiplicity
 _atom_site_fract_x
 _atom_site_fract_y
 _atom_site_fract_z
 _atom_site_occupancy
  Li  Li0  1  0.04718264  0.62379333  0.93209277  1
  Li  Li1  1  0.45281736  0.12379333  0.43209277  1
  Li  Li2  1  0.54718264  0.87620667  0.93209277  1
  Li  Li3  1  0.95281736  0.37620667  0.43209277  1
  Fe  Fe4  1  0.16115227  0.03345304  0.01801436  1
  Fe  Fe5  1  0.33884773  0.53345304  0.51801436  1
  Fe  Fe6  1  0.66115227  0.46654696  0.01801436  1
  Fe  Fe7  1  0.83884773  0.96654696  0.51801436  1
  P  P8  1  0.23635379  0.86346391  0.56066762  1
  P  P9  1  0.26364621  0.36346391  0.06066762  1
  P  P10  1  0.73635379  0.63653609  0.56066762  1
  P  P11  1  0.76364621  0.13653609  0.06066762  1
  O  O12  1  0.07707912  0.94289007  0.67022361  1
  O  O13  1  0.11766846  0.45473037  0.17579597  1
  O  O14  1  0.23786758  0.85689227  0.25194082  1
  O  O15  1  0.23195732  0.70652404  0.68326385  1
  O  O16  1  0.26804268  0.20652404  0.18326385  1
  O  O17  1  0.26213242  0.35689227  0.75194082  1
  O  O18  1  0.38233154  0.95473037  0.67579597  1
  O  O19  1  0.42292088  0.44289007  0.17022361  1
  O  O20  1  0.57707912  0.55710993  0.67022361  1
  O  O21  1  0.61766846  0.04526963  0.17579597  1
  O  O22  1  0.73786758  0.64310773  0.25194082  1
  O  O23  1  0.73195732  0.79347596  0.68326385  1
  O  O24  1  0.76804268  0.29347596  0.18326385  1
  O  O25  1  0.76213242  0.14310773  0.75194082  1
  O  O26  1  0.88233154  0.54526963  0.67579597  1
  O  O27  1  0.92292088  0.05710993  0.17022361  1
