# generated using pymatgen
data_Li4Cr2Co3Sb3O16
_symmetry_space_group_name_H-M   'P 1'
_cell_length_a   6.12044860
_cell_length_b   6.05598681
_cell_length_c   9.65953430
_cell_angle_alpha   89.58171871
_cell_angle_beta   92.00883797
_cell_angle_gamma   119.67138993
_symmetry_Int_Tables_number   1
_chemical_formula_structural   Li4Cr2Co3Sb3O16
_chemical_formula_sum   'Li4 Cr2 Co3 Sb3 O16'
_cell_volume   310.87620573
_cell_formula_units_Z   1
loop_
 _symmetry_equiv_pos_site_id
 _symmetry_equiv_pos_as_xyz
  1  'x, y, z'
loop_
 _atom_site_type_symbol
 _atom_site_label
 _atom_site_symmetry_multiplicity
 _atom_site_fract_x
 _atom_site_fract_y
 _atom_site_fract_z
 _atom_site_occupancy
  Li  Li0  1  0.32832360  0.66889762  0.88039066  1
  Li  Li1  1  0.95037038  0.97457150  0.98222429  1
  Li  Li2  1  0.98098620  0.98886301  0.50559109  1
  Li  Li3  1  0.65793379  0.32944823  0.40288016  1
  Cr  Cr4  1  0.35043960  0.66834175  0.49516430  1
  Cr  Cr5  1  0.68810946  0.34777357  0.97575345  1
  Co  Co6  1  0.66400675  0.83222856  0.21539930  1
  Co  Co7  1  0.82986247  0.66166272  0.70995098  1
  Co  Co8  1  0.84112919  0.17808061  0.71277516  1
  Sb  Sb9  1  0.17036996  0.83307895  0.21476759  1
  Sb  Sb10  1  0.17001768  0.33745277  0.21366541  1
  Sb  Sb11  1  0.34553028  0.16859098  0.71422614  1
  O  O12  1  0.18667314  0.84652792  0.59578098  1
  O  O13  1  0.03582697  0.51661713  0.33939973  1
  O  O14  1  0.31475042  0.65897847  0.09994375  1
  O  O15  1  0.01696669  0.00821082  0.31888344  1
  O  O16  1  0.01054703  0.99000185  0.80216822  1
  O  O17  1  0.17879165  0.33189549  0.59835672  1
  O  O18  1  0.47418772  0.96110573  0.34021887  1
  O  O19  1  0.47187281  0.50899861  0.33992218  1
  O  O20  1  0.31631634  0.15880032  0.10147595  1
  O  O21  1  0.67562091  0.82489629  0.60021011  1
  O  O22  1  0.50541607  0.46986419  0.84871312  1
  O  O23  1  0.52079559  0.04254831  0.84849956  1
  O  O24  1  0.66100086  0.34329941  0.60668459  1
  O  O25  1  0.84781423  0.67948301  0.10285861  1
  O  O26  1  0.95615031  0.49819351  0.84173008  1
  O  O27  1  0.85018989  0.17188965  0.10020556  1
