# generated using pymatgen
data_LiFe2(PO4)2
_symmetry_space_group_name_H-M   'P 1'
_cell_length_a   8.53284627
_cell_length_b   5.45903496
_cell_length_c   7.79306042
_cell_angle_alpha   90.00000000
_cell_angle_beta   104.40586815
_cell_angle_gamma   90.00000000
_symmetry_Int_Tables_number   1
_chemical_formula_structural   LiFe2(PO4)2
_chemical_formula_sum   'Li2 Fe4 P4 O16'
_cell_volume   351.59551952
_cell_formula_units_Z   2
loop_
 _symmetry_equiv_pos_site_id
 _symmetry_equiv_pos_as_xyz
  1  'x, y, z'
loop_
 _atom_site_type_symbol
 _atom_site_label
 _atom_site_symmetry_multiplicity
 _atom_site_fract_x
 _atom_site_fract_y
 _atom_site_fract_z
 _atom_site_occupancy
  Li  Li0  1  0.38736421  0.82582938  0.35920717  1
  Li  Li1  1  0.88736421  0.17417062  0.35920717  1
  Fe  Fe2  1  0.04273019  0.84569706  0.94463029  1
  Fe  Fe3  1  0.26997761  0.33077439  0.49796569  1
  Fe  Fe4  1  0.54273019  0.15430294  0.94463029  1
  Fe  Fe5  1  0.76997761  0.66922561  0.49796569  1
  P  P6  1  0.01271057  0.67363647  0.24850088  1
  P  P7  1  0.33241372  0.82727260  0.74716015  1
  P  P8  1  0.51271057  0.32636353  0.24850088  1
  P  P9  1  0.83241372  0.17272740  0.74716015  1
  O  O10  1  0.98994791  0.18649470  0.90049675  1
  O  O11  1  0.05701538  0.41375933  0.32648497  1
  O  O12  1  0.18440828  0.73530918  0.80990974  1
  O  O13  1  0.16288889  0.81319613  0.21095745  1
  O  O14  1  0.32222178  0.10992327  0.70894858  1
  O  O15  1  0.34555209  0.67972282  0.58291925  1
  O  O16  1  0.48994791  0.81350630  0.90049675  1
  O  O17  1  0.43446944  0.17765166  0.37441104  1
  O  O18  1  0.39932893  0.33645844  0.05764305  1
  O  O19  1  0.55701538  0.58624067  0.32648497  1
  O  O20  1  0.68440828  0.26469082  0.80990974  1
  O  O21  1  0.66288889  0.18680387  0.21095745  1
  O  O22  1  0.82222178  0.89007673  0.70894858  1
  O  O23  1  0.84555209  0.32027718  0.58291925  1
  O  O24  1  0.93446944  0.82234834  0.37441104  1
  O  O25  1  0.89932893  0.66354156  0.05764305  1
