# generated using pymatgen
data_Li2VOF4
_symmetry_space_group_name_H-M   'P 1'
_cell_length_a   7.20342132
_cell_length_b   5.44813993
_cell_length_c   9.60725539
_cell_angle_alpha   90.00000000
_cell_angle_beta   90.00000000
_cell_angle_gamma   90.00000000
_symmetry_Int_Tables_number   1
_chemical_formula_structural   Li2VOF4
_chemical_formula_sum   'Li8 V4 O4 F16'
_cell_volume   377.03911391
_cell_formula_units_Z   4
loop_
 _symmetry_equiv_pos_site_id
 _symmetry_equiv_pos_as_xyz
  1  'x, y, z'
loop_
 _atom_site_type_symbol
 _atom_site_label
 _atom_site_symmetry_multiplicity
 _atom_site_fract_x
 _atom_site_fract_y
 _atom_site_fract_z
 _atom_site_occupancy
  Li  Li0  1  0.95146921  0.75051523  0.28037918  1
  Li  Li1  1  0.12480344  0.21581333  0.42822443  1
  Li  Li2  1  0.37519656  0.78418667  0.92822443  1
  Li  Li3  1  0.54853079  0.24948477  0.78037918  1
  Li  Li4  1  0.45146921  0.74948477  0.21962082  1
  Li  Li5  1  0.62480344  0.28418667  0.07177557  1
  Li  Li6  1  0.87519656  0.71581333  0.57177557  1
  Li  Li7  1  0.04853079  0.25051523  0.71962082  1
  V  V8  1  0.19835336  0.27716783  0.05234027  1
  V  V9  1  0.30164664  0.72283217  0.55234027  1
  V  V10  1  0.69835336  0.22283217  0.44765973  1
  V  V11  1  0.80164664  0.77716783  0.94765973  1
  O  O12  1  0.14987816  0.49663592  0.57888276  1
  O  O13  1  0.35012184  0.50336408  0.07888276  1
  O  O14  1  0.64987816  0.00336408  0.92111724  1
  O  O15  1  0.85012184  0.99663592  0.42111724  1
  F  F16  1  0.01582500  0.97717288  0.00217744  1
  F  F17  1  0.98417500  0.47717288  0.99782256  1
  F  F18  1  0.10194503  0.24379646  0.23546150  1
  F  F19  1  0.13965915  0.00054475  0.58930977  1
  F  F20  1  0.23870454  0.76426153  0.35185004  1
  F  F21  1  0.26129546  0.23573847  0.85185004  1
  F  F22  1  0.36034085  0.99945525  0.08930977  1
  F  F23  1  0.39805497  0.75620354  0.73546150  1
  F  F24  1  0.48417500  0.02282712  0.50217744  1
  F  F25  1  0.51582500  0.52282712  0.49782256  1
  F  F26  1  0.60194503  0.25620354  0.26453850  1
  F  F27  1  0.63965915  0.49945525  0.91069023  1
  F  F28  1  0.73870454  0.73573847  0.14814996  1
  F  F29  1  0.76129546  0.26426153  0.64814996  1
  F  F30  1  0.86034085  0.50054475  0.41069023  1
  F  F31  1  0.89805497  0.74379646  0.76453850  1
