# generated using pymatgen
data_CoPO4
_symmetry_space_group_name_H-M   'P 1'
_cell_length_a   8.77685344
_cell_length_b   5.29422354
_cell_length_c   7.80199811
_cell_angle_alpha   90.00000000
_cell_angle_beta   102.98161169
_cell_angle_gamma   90.00000000
_symmetry_Int_Tables_number   1
_chemical_formula_structural   CoPO4
_chemical_formula_sum   'Co4 P4 O16'
_cell_volume   353.26698343
_cell_formula_units_Z   4
loop_
 _symmetry_equiv_pos_site_id
 _symmetry_equiv_pos_as_xyz
  1  'x, y, z'
loop_
 _atom_site_type_symbol
 _atom_site_label
 _atom_site_symmetry_multiplicity
 _atom_site_fract_x
 _atom_site_fract_y
 _atom_site_fract_z
 _atom_site_occupancy
  Co  Co0  1  0.06639255  0.87130730  0.96983325  1
  Co  Co1  1  0.27150898  0.31093846  0.48573901  1
  Co  Co2  1  0.56639255  0.12869270  0.96983325  1
  Co  Co3  1  0.77150898  0.68906154  0.48573901  1
  P  P4  1  0.02789611  0.67306354  0.25229504  1
  P  P5  1  0.31425030  0.81023815  0.74031518  1
  P  P6  1  0.52789611  0.32693646  0.25229504  1
  P  P7  1  0.81425030  0.18976185  0.74031518  1
  O  O8  1  0.96814693  0.16376847  0.88472524  1
  O  O9  1  0.09763861  0.41225365  0.32225517  1
  O  O10  1  0.17988750  0.72475723  0.82659244  1
  O  O11  1  0.15714489  0.86039635  0.22081525  1
  O  O12  1  0.27222706  0.07467271  0.65716372  1
  O  O13  1  0.34061585  0.61778078  0.60459826  1
  O  O14  1  0.46814693  0.83623153  0.88472524  1
  O  O15  1  0.43510756  0.21661797  0.37917249  1
  O  O16  1  0.42646365  0.34951345  0.06041394  1
  O  O17  1  0.59763861  0.58774635  0.32225517  1
  O  O18  1  0.67988750  0.27524277  0.82659244  1
  O  O19  1  0.65714489  0.13960365  0.22081525  1
  O  O20  1  0.77222706  0.92532729  0.65716372  1
  O  O21  1  0.84061585  0.38221922  0.60459826  1
  O  O22  1  0.93510756  0.78338203  0.37917249  1
  O  O23  1  0.92646365  0.65048655  0.06041394  1
