# generated using pymatgen
data_Mn2F5
_symmetry_space_group_name_H-M   'P 1'
_cell_length_a   5.30797033
_cell_length_b   6.08764293
_cell_length_c   7.97923643
_cell_angle_alpha   110.14485674
_cell_angle_beta   90.00000000
_cell_angle_gamma   64.15342779
_symmetry_Int_Tables_number   1
_chemical_formula_structural   Mn2F5
_chemical_formula_sum   'Mn4 F10'
_cell_volume   214.37852543
_cell_formula_units_Z   2
loop_
 _symmetry_equiv_pos_site_id
 _symmetry_equiv_pos_as_xyz
  1  'x, y, z'
loop_
 _atom_site_type_symbol
 _atom_site_label
 _atom_site_symmetry_multiplicity
 _atom_site_fract_x
 _atom_site_fract_y
 _atom_site_fract_z
 _atom_site_occupancy
  Mn  Mn0  1  0.63951819  0.76415962  0.29612174  1
  Mn  Mn1  1  0.59632118  0.76415962  0.79612174  1
  Mn  Mn2  1  0.40367882  0.23584038  0.20387826  1
  Mn  Mn3  1  0.36048181  0.23584038  0.70387826  1
  F  F4  1  0.70859026  0.85537821  0.57009937  1
  F  F5  1  0.00934534  0.44363113  0.18851140  1
  F  F6  1  0.54702453  0.44363113  0.68851140  1
  F  F7  1  0.43603153  0.85537821  0.07009937  1
  F  F8  1  0.77625059  0.00000000  0.25000000  1
  F  F9  1  0.56396847  0.14462179  0.92990063  1
  F  F10  1  0.45297547  0.55636887  0.31148860  1
  F  F11  1  0.99065466  0.55636887  0.81148860  1
  F  F12  1  0.29140974  0.14462179  0.42990063  1
  F  F13  1  0.22374941  1.00000000  0.75000000  1
