# generated using pymatgen
data_Si6Bi9O26
_symmetry_space_group_name_H-M   'P 1'
_cell_length_a   9.74329029
_cell_length_b   9.74689353
_cell_length_c   7.08298829
_cell_angle_alpha   89.99153844
_cell_angle_beta   89.99178794
_cell_angle_gamma   60.01905902
_symmetry_Int_Tables_number   1
_chemical_formula_structural   Si6Bi9O26
_chemical_formula_sum   'Si6 Bi9 O26'
_cell_volume   582.64280590
_cell_formula_units_Z   1
loop_
 _symmetry_equiv_pos_site_id
 _symmetry_equiv_pos_as_xyz
  1  'x, y, z'
loop_
 _atom_site_type_symbol
 _atom_site_label
 _atom_site_symmetry_multiplicity
 _atom_site_fract_x
 _atom_site_fract_y
 _atom_site_fract_z
 _atom_site_occupancy
  Si  Si0  1  0.02471858  0.59521968  0.24715695  1
  Si  Si1  1  0.62962559  0.97488923  0.75372203  1
  Si  Si2  1  0.39563605  0.62969625  0.75384057  1
  Si  Si3  1  0.59513332  0.38006440  0.24711129  1
  Si  Si4  1  0.38018764  0.02455478  0.24735756  1
  Si  Si5  1  0.97467573  0.39569871  0.75383979  1
  Bi  Bi6  1  0.23963284  0.99389546  0.73397661  1
  Bi  Bi7  1  0.22690030  0.74945780  0.24027478  1
  Bi  Bi8  1  0.02341110  0.22727270  0.24022217  1
  Bi  Bi9  1  0.66644531  0.66687807  0.99949968  1
  Bi  Bi10  1  0.33325600  0.33354502  0.95479858  1
  Bi  Bi11  1  0.66698737  0.66615869  0.48810127  1
  Bi  Bi12  1  0.99421398  0.76636150  0.73408911  1
  Bi  Bi13  1  0.76651059  0.23950844  0.73420852  1
  Bi  Bi14  1  0.74971477  0.02390660  0.24003398  1
  O  O15  1  0.07267179  0.67565586  0.42240183  1
  O  O16  1  0.08794400  0.65820727  0.06681397  1
  O  O17  1  0.34174072  0.75594838  0.93407382  1
  O  O18  1  0.34316045  0.75102731  0.56883935  1
  O  O19  1  0.52902005  0.87892650  0.75322980  1
  O  O20  1  0.49946279  0.82981371  0.24912634  1
  O  O21  1  0.11156151  0.40324642  0.23116006  1
  O  O22  1  0.31201403  0.52250707  0.75677655  1
  O  O23  1  0.75596344  0.90259784  0.93412215  1
  O  O24  1  0.16549909  0.31222662  0.75681634  1
  O  O25  1  0.75112475  0.90603529  0.56867914  1
  O  O26  1  0.40316461  0.48494912  0.23097420  1
  O  O27  1  0.00005852  0.00002288  0.71151255  1
  O  O28  1  0.99850576  0.99949338  0.20945454  1
  O  O29  1  0.59222323  0.52888021  0.75322010  1
  O  O30  1  0.25390978  0.08782364  0.06705249  1
  O  O31  1  0.67097509  0.49919731  0.24895450  1
  O  O32  1  0.82972536  0.67100303  0.24895181  1
  O  O33  1  0.25160856  0.07272822  0.42255919  1
  O  O34  1  0.87884567  0.59221923  0.75341604  1
  O  O35  1  0.52244632  0.16556479  0.75677442  1
  O  O36  1  0.48523210  0.11165733  0.23130529  1
  O  O37  1  0.65845625  0.25372139  0.06683999  1
  O  O38  1  0.67587067  0.25139444  0.42220284  1
  O  O39  1  0.90563737  0.34358352  0.56866631  1
  O  O40  1  0.90262395  0.34127090  0.93397347  1
