# generated using pymatgen
data_LiMn2F7
_symmetry_space_group_name_H-M   'P 1'
_cell_length_a   8.39520087
_cell_length_b   6.74272007
_cell_length_c   5.61339660
_cell_angle_alpha   86.46565536
_cell_angle_beta   101.04856793
_cell_angle_gamma   109.59156397
_symmetry_Int_Tables_number   1
_chemical_formula_structural   LiMn2F7
_chemical_formula_sum   'Li2 Mn4 F14'
_cell_volume   293.80908749
_cell_formula_units_Z   2
loop_
 _symmetry_equiv_pos_site_id
 _symmetry_equiv_pos_as_xyz
  1  'x, y, z'
loop_
 _atom_site_type_symbol
 _atom_site_label
 _atom_site_symmetry_multiplicity
 _atom_site_fract_x
 _atom_site_fract_y
 _atom_site_fract_z
 _atom_site_occupancy
  Li  Li0  1  0.24562833  0.98031864  0.87162591  1
  Li  Li1  1  0.75437167  0.01968136  0.12837409  1
  Mn  Mn2  1  0.18150129  0.28176810  0.28050916  1
  Mn  Mn3  1  0.32823824  0.52226667  0.79352864  1
  Mn  Mn4  1  0.67176176  0.47773333  0.20647136  1
  Mn  Mn5  1  0.81849871  0.71823190  0.71949084  1
  F  F6  1  0.03978553  0.82374701  0.66776832  1
  F  F7  1  0.13004114  0.41292596  0.93039599  1
  F  F8  1  0.17795812  0.03505472  0.15809426  1
  F  F9  1  0.22345182  0.54390936  0.43390093  1
  F  F10  1  0.37268247  0.79063528  0.89673538  1
  F  F11  1  0.30314649  0.24880277  0.68429170  1
  F  F12  1  0.42202458  0.40741383  0.20207114  1
  F  F13  1  0.57797542  0.59258617  0.79792886  1
  F  F14  1  0.69685351  0.75119723  0.31570830  1
  F  F15  1  0.62731753  0.20936472  0.10326462  1
  F  F16  1  0.77654818  0.45609064  0.56609907  1
  F  F17  1  0.82204188  0.96494528  0.84190574  1
  F  F18  1  0.86995886  0.58707404  0.06960401  1
  F  F19  1  0.96021447  0.17625299  0.33223168  1
