# generated using pymatgen
data_LiSiBiO4
_symmetry_space_group_name_H-M   'P 1'
_cell_length_a   8.96321166
_cell_length_b   8.96321188
_cell_length_c   8.96321221
_cell_angle_alpha   107.34999469
_cell_angle_beta   107.34999221
_cell_angle_gamma   107.34998844
_symmetry_Int_Tables_number   1
_chemical_formula_structural   LiSiBiO4
_chemical_formula_sum   'Li6 Si6 Bi6 O24'
_cell_volume   593.88504067
_cell_formula_units_Z   6
loop_
 _symmetry_equiv_pos_site_id
 _symmetry_equiv_pos_as_xyz
  1  'x, y, z'
loop_
 _atom_site_type_symbol
 _atom_site_label
 _atom_site_symmetry_multiplicity
 _atom_site_fract_x
 _atom_site_fract_y
 _atom_site_fract_z
 _atom_site_occupancy
  Li  Li0  1  0.52721325  0.95454094  0.79005095  1
  Li  Li1  1  0.23242066  0.45061533  0.05887750  1
  Li  Li2  1  0.05887750  0.23242066  0.45061533  1
  Li  Li3  1  0.95454094  0.79005095  0.52721325  1
  Li  Li4  1  0.79005095  0.52721325  0.95454094  1
  Li  Li5  1  0.45061533  0.05887750  0.23242066  1
  Si  Si6  1  0.09027669  0.88077277  0.28174821  1
  Si  Si7  1  0.55132571  0.81341748  0.38649118  1
  Si  Si8  1  0.38649118  0.55132571  0.81341748  1
  Si  Si9  1  0.28174821  0.09027669  0.88077277  1
  Si  Si10  1  0.81341748  0.38649118  0.55132571  1
  Si  Si11  1  0.88077277  0.28174821  0.09027669  1
  Bi  Bi12  1  0.11017388  0.71710036  0.87873495  1
  Bi  Bi13  1  0.21650939  0.60452893  0.46038212  1
  Bi  Bi14  1  0.71710036  0.87873495  0.11017388  1
  Bi  Bi15  1  0.60452893  0.46038212  0.21650939  1
  Bi  Bi16  1  0.46038212  0.21650939  0.60452893  1
  Bi  Bi17  1  0.87873495  0.11017388  0.71710036  1
  O  O18  1  0.98715301  0.75653954  0.07239983  1
  O  O19  1  0.33082172  0.98077312  0.98992032  1
  O  O20  1  0.08541439  0.75816315  0.38735203  1
  O  O21  1  0.23880753  0.53998607  0.89040748  1
  O  O22  1  0.01680496  0.33763243  0.28770900  1
  O  O23  1  0.42796663  0.72525327  0.77791011  1
  O  O24  1  0.53998607  0.89040748  0.23880753  1
  O  O25  1  0.37850288  0.62684148  0.30702923  1
  O  O26  1  0.56876290  0.95405570  0.56861191  1
  O  O27  1  0.56861191  0.56876290  0.95405570  1
  O  O28  1  0.30702923  0.37850288  0.62684148  1
  O  O29  1  0.98077312  0.98992032  0.33082172  1
  O  O30  1  0.07239983  0.98715301  0.75653954  1
  O  O31  1  0.72525327  0.77791011  0.42796663  1
  O  O32  1  0.33763243  0.28770900  0.01680496  1
  O  O33  1  0.28770900  0.01680496  0.33763243  1
  O  O34  1  0.77791011  0.42796663  0.72525327  1
  O  O35  1  0.38735203  0.08541439  0.75816315  1
  O  O36  1  0.62684148  0.30702923  0.37850288  1
  O  O37  1  0.95405570  0.56861191  0.56876290  1
  O  O38  1  0.75816315  0.38735203  0.08541439  1
  O  O39  1  0.89040748  0.23880753  0.53998607  1
  O  O40  1  0.75653954  0.07239983  0.98715301  1
  O  O41  1  0.98992032  0.33082172  0.98077312  1
