# generated using pymatgen
data_LiFe2(PO4)2
_symmetry_space_group_name_H-M   'P 1'
_cell_length_a   5.15716572
_cell_length_b   8.79689736
_cell_length_c   8.77288368
_cell_angle_alpha   70.97261602
_cell_angle_beta   89.99999720
_cell_angle_gamma   89.99999570
_symmetry_Int_Tables_number   1
_chemical_formula_structural   LiFe2(PO4)2
_chemical_formula_sum   'Li2 Fe4 P4 O16'
_cell_volume   376.25434365
_cell_formula_units_Z   2
loop_
 _symmetry_equiv_pos_site_id
 _symmetry_equiv_pos_as_xyz
  1  'x, y, z'
loop_
 _atom_site_type_symbol
 _atom_site_label
 _atom_site_symmetry_multiplicity
 _atom_site_fract_x
 _atom_site_fract_y
 _atom_site_fract_z
 _atom_site_occupancy
  Li  Li0  1  0.57077443  0.49896108  0.99773990  1
  Li  Li1  1  0.42922557  0.99896108  0.49773990  1
  Fe  Fe2  1  0.95242022  0.24590309  0.25554582  1
  Fe  Fe3  1  0.54096904  0.75588318  0.24411029  1
  Fe  Fe4  1  0.45903096  0.25588318  0.74411029  1
  Fe  Fe5  1  0.04757978  0.74590309  0.75554582  1
  P  P6  1  0.03140204  0.62042843  0.13724409  1
  P  P7  1  0.44459537  0.13268361  0.11425768  1
  P  P8  1  0.55540463  0.63268361  0.61425768  1
  P  P9  1  0.96859796  0.12042843  0.63724409  1
  O  O10  1  0.15509127  0.16775398  0.10317019  1
  O  O11  1  0.32915209  0.66613522  0.11050987  1
  O  O12  1  0.59341345  0.27075237  0.15083629  1
  O  O13  1  0.07394198  0.10226184  0.47742340  1
  O  O14  1  0.88874924  0.75990557  0.17575496  1
  O  O15  1  0.11125076  0.25990557  0.67575496  1
  O  O16  1  0.50566612  0.97143807  0.25658757  1
  O  O17  1  0.99218743  0.46385044  0.27470817  1
  O  O18  1  0.45971869  0.61398711  0.45280277  1
  O  O19  1  0.67084791  0.16613522  0.61050987  1
  O  O20  1  0.40658655  0.77075237  0.65083629  1
  O  O21  1  0.00781257  0.96385044  0.77470817  1
  O  O22  1  0.49433388  0.47143807  0.75658757  1
  O  O23  1  0.84490873  0.66775398  0.60317019  1
  O  O24  1  0.54028131  0.11398711  0.95280277  1
  O  O25  1  0.92605802  0.60226184  0.97742340  1
