# generated using pymatgen
data_Li5SbS
_symmetry_space_group_name_H-M   'P 1'
_cell_length_a   6.15884177
_cell_length_b   9.74956263
_cell_length_c   8.18470760
_cell_angle_alpha   90.00000000
_cell_angle_beta   90.06185280
_cell_angle_gamma   90.00000000
_symmetry_Int_Tables_number   1
_chemical_formula_structural   Li5SbS
_chemical_formula_sum   'Li20 Sb4 S4'
_cell_volume   491.45877744
_cell_formula_units_Z   4
loop_
 _symmetry_equiv_pos_site_id
 _symmetry_equiv_pos_as_xyz
  1  'x, y, z'
loop_
 _atom_site_type_symbol
 _atom_site_label
 _atom_site_symmetry_multiplicity
 _atom_site_fract_x
 _atom_site_fract_y
 _atom_site_fract_z
 _atom_site_occupancy
  Li  Li0  1  0.99957105  0.82835374  0.42486242  1
  Li  Li1  1  0.24646451  0.51357414  0.79867671  1
  Li  Li2  1  0.25656868  0.27259755  0.30058484  1
  Li  Li3  1  0.26333753  0.55969485  0.41200323  1
  Li  Li4  1  0.23673604  0.22498438  0.91006672  1
  Li  Li5  1  0.26546631  0.05875005  0.58712558  1
  Li  Li6  1  0.23546609  0.72603943  0.08803188  1
  Li  Li7  1  0.25292662  0.77305084  0.70168717  1
  Li  Li8  1  0.24303608  0.01405007  0.19862292  1
  Li  Li9  1  0.50101842  0.95456311  0.92494417  1
  Li  Li10  1  0.49898158  0.45456311  0.07505583  1
  Li  Li11  1  0.75696392  0.51405007  0.80137708  1
  Li  Li12  1  0.74707338  0.27305084  0.29831283  1
  Li  Li13  1  0.76453391  0.22603943  0.91196812  1
  Li  Li14  1  0.73453369  0.55875005  0.41287442  1
  Li  Li15  1  0.76326396  0.72498438  0.08993328  1
  Li  Li16  1  0.73666247  0.05969485  0.58799677  1
  Li  Li17  1  0.74343132  0.77259755  0.69941516  1
  Li  Li18  1  0.75353549  0.01357414  0.20132329  1
  Li  Li19  1  0.00042895  0.32835374  0.57513758  1
  Sb  Sb20  1  0.99906279  0.96967426  0.88306023  1
  Sb  Sb21  1  0.50114806  0.31650502  0.61667930  1
  Sb  Sb22  1  0.49885194  0.81650502  0.38332070  1
  Sb  Sb23  1  0.00093721  0.46967426  0.11693977  1
  S  S24  1  0.99961598  0.60602681  0.60721840  1
  S  S25  1  0.49985411  0.18063474  0.10689699  1
  S  S26  1  0.50014589  0.68063474  0.89310301  1
  S  S27  1  0.00038402  0.10602681  0.39278160  1
