# generated using pymatgen
data_Li3Mn4(PO4)6
_symmetry_space_group_name_H-M   'P 1'
_cell_length_a   8.38743345
_cell_length_b   8.65825347
_cell_length_c   6.29085955
_cell_angle_alpha   73.20247165
_cell_angle_beta   105.27229016
_cell_angle_gamma   87.55763315
_symmetry_Int_Tables_number   1
_chemical_formula_structural   Li3Mn4(PO4)6
_chemical_formula_sum   'Li3 Mn4 P6 O24'
_cell_volume   418.40608344
_cell_formula_units_Z   1
loop_
 _symmetry_equiv_pos_site_id
 _symmetry_equiv_pos_as_xyz
  1  'x, y, z'
loop_
 _atom_site_type_symbol
 _atom_site_label
 _atom_site_symmetry_multiplicity
 _atom_site_fract_x
 _atom_site_fract_y
 _atom_site_fract_z
 _atom_site_occupancy
  Li  Li0  1  0.28529464  0.29494440  0.24840385  1
  Li  Li1  1  0.50000000  0.50000000  0.00000000  1
  Li  Li2  1  0.71470436  0.70505560  0.75159615  1
  Mn  Mn3  1  0.05667599  0.62185339  0.63314176  1
  Mn  Mn4  1  0.37402175  0.94307773  0.13080168  1
  Mn  Mn5  1  0.62597825  0.05692227  0.86919832  1
  Mn  Mn6  1  0.94332401  0.37814661  0.36685824  1
  P  P7  1  0.29034699  0.28627292  0.75143551  1
  P  P8  1  0.14759520  0.65423602  0.12665860  1
  P  P9  1  0.34705886  0.85254195  0.64111316  1
  P  P10  1  0.65294114  0.14745805  0.35888684  1
  P  P11  1  0.85240480  0.34576398  0.87334140  1
  P  P12  1  0.70965301  0.71372708  0.24856449  1
  O  O13  1  0.00840370  0.65866573  0.90179746  1
  O  O14  1  0.05153354  0.59650379  0.32189011  1
  O  O15  1  0.26209451  0.16986267  0.97591987  1
  O  O16  1  0.17432639  0.26623577  0.52524461  1
  O  O17  1  0.16467851  0.81847736  0.60945941  1
  O  O18  1  0.26498831  0.46187938  0.76618941  1
  O  O19  1  0.17789309  0.83282498  0.10510327  1
  O  O20  1  0.29770390  0.53602592  0.17816575  1
  O  O21  1  0.47173814  0.25738618  0.73861061  1
  O  O22  1  0.39554737  0.95848061  0.81785274  1
  O  O23  1  0.34777437  0.97824367  0.40662755  1
  O  O24  1  0.47391369  0.70524200  0.73070987  1
  O  O25  1  0.52608631  0.29475800  0.26929013  1
  O  O26  1  0.65222563  0.02175633  0.59337245  1
  O  O27  1  0.60445263  0.04151939  0.18214726  1
  O  O28  1  0.52826186  0.74261382  0.26138939  1
  O  O29  1  0.70229610  0.46397408  0.82183425  1
  O  O30  1  0.82210691  0.16717502  0.89489673  1
  O  O31  1  0.73501169  0.53812062  0.23381059  1
  O  O32  1  0.83532149  0.18152264  0.39054059  1
  O  O33  1  0.82567361  0.73376423  0.47475539  1
  O  O34  1  0.73790549  0.83013733  0.02408013  1
  O  O35  1  0.94846646  0.40349621  0.67810989  1
  O  O36  1  0.99159630  0.34133427  0.09820254  1
