# generated using pymatgen
data_Li2MnVO4
_symmetry_space_group_name_H-M   'P 1'
_cell_length_a   6.09613949
_cell_length_b   6.09614028
_cell_length_c   6.05758350
_cell_angle_alpha   122.24739799
_cell_angle_beta   122.24740818
_cell_angle_gamma   86.44532955
_symmetry_Int_Tables_number   1
_chemical_formula_structural   Li2MnVO4
_chemical_formula_sum   'Li4 Mn2 V2 O8'
_cell_volume   153.02237814
_cell_formula_units_Z   2
loop_
 _symmetry_equiv_pos_site_id
 _symmetry_equiv_pos_as_xyz
  1  'x, y, z'
loop_
 _atom_site_type_symbol
 _atom_site_label
 _atom_site_symmetry_multiplicity
 _atom_site_fract_x
 _atom_site_fract_y
 _atom_site_fract_z
 _atom_site_occupancy
  Li  Li0  1  0.00000000  0.50000000  0.50000000  1
  Li  Li1  1  0.50000000  0.50000000  0.50000000  1
  Li  Li2  1  0.50000000  0.00000000  0.00000000  1
  Li  Li3  1  0.50000000  0.50000000  0.00000000  1
  Mn  Mn4  1  0.00000000  0.50000000  0.00000000  1
  Mn  Mn5  1  0.50000000  0.00000000  0.50000000  1
  V  V6  1  0.00000000  0.00000000  0.50000000  1
  V  V7  1  0.00000000  0.00000000  0.00000000  1
  O  O8  1  0.26018003  0.77469348  0.02434314  1
  O  O9  1  0.24459561  0.22114220  0.49010980  1
  O  O10  1  0.22530652  0.73981997  0.47565686  1
  O  O11  1  0.77885780  0.75540439  0.00989020  1
  O  O12  1  0.22114220  0.24459561  0.99010980  1
  O  O13  1  0.77469348  0.26018003  0.52434314  1
  O  O14  1  0.75540439  0.77885780  0.50989020  1
  O  O15  1  0.73981997  0.22530652  0.97565686  1
