# generated using pymatgen
data_Ni(PO3)3
_symmetry_space_group_name_H-M   'P 1'
_cell_length_a   8.59955228
_cell_length_b   8.31940196
_cell_length_c   8.87954940
_cell_angle_alpha   89.99838220
_cell_angle_beta   89.99829474
_cell_angle_gamma   90.00100691
_symmetry_Int_Tables_number   1
_chemical_formula_structural   Ni(PO3)3
_chemical_formula_sum   'Ni4 P12 O36'
_cell_volume   635.27077534
_cell_formula_units_Z   4
loop_
 _symmetry_equiv_pos_site_id
 _symmetry_equiv_pos_as_xyz
  1  'x, y, z'
loop_
 _atom_site_type_symbol
 _atom_site_label
 _atom_site_symmetry_multiplicity
 _atom_site_fract_x
 _atom_site_fract_y
 _atom_site_fract_z
 _atom_site_occupancy
  Ni  Ni0  1  0.12006584  0.09809741  0.13606165  1
  Ni  Ni1  1  0.37988526  0.90184720  0.63608463  1
  Ni  Ni2  1  0.62009636  0.40193745  0.86390531  1
  Ni  Ni3  1  0.87989532  0.59807398  0.36394418  1
  P  P4  1  0.06009911  0.94973653  0.82642580  1
  P  P5  1  0.06240203  0.72454330  0.07926897  1
  P  P6  1  0.22233375  0.56615846  0.55702225  1
  P  P7  1  0.27766284  0.43383484  0.05703540  1
  P  P8  1  0.43760088  0.27546044  0.57925941  1
  P  P9  1  0.43988913  0.05028643  0.32641557  1
  P  P10  1  0.56012593  0.55026737  0.17358677  1
  P  P11  1  0.56241206  0.77546706  0.92075007  1
  P  P12  1  0.72231382  0.93382887  0.44298826  1
  P  P13  1  0.77771754  0.06615008  0.94301812  1
  P  P14  1  0.93759224  0.22453481  0.42073800  1
  P  P15  1  0.93987734  0.44970514  0.67360207  1
  O  O16  1  0.01149226  0.78603781  0.91436005  1
  O  O17  1  0.06949854  0.13103872  0.35177733  1
  O  O18  1  0.10877228  0.52793451  0.70057679  1
  O  O19  1  0.12378314  0.86420088  0.16952482  1
  O  O20  1  0.13407319  0.91375629  0.67843554  1
  O  O21  1  0.12360326  0.60584967  0.42347291  1
  O  O22  1  0.14594984  0.32836772  0.10797144  1
  O  O23  1  0.15981120  0.05752728  0.92635212  1
  O  O24  1  0.20083678  0.60800373  0.03070220  1
  O  O25  1  0.29916989  0.39200268  0.53067759  1
  O  O26  1  0.34017643  0.94250404  0.42634764  1
  O  O27  1  0.35404110  0.67161963  0.60797932  1
  O  O28  1  0.37641913  0.39416940  0.92345009  1
  O  O29  1  0.36593461  0.08627192  0.17843367  1
  O  O30  1  0.37621304  0.13581168  0.66952217  1
  O  O31  1  0.39123622  0.47204202  0.20057117  1
  O  O32  1  0.43049951  0.86896510  0.85180354  1
  O  O33  1  0.48851238  0.21397161  0.41434541  1
  O  O34  1  0.51150381  0.71396485  0.08565941  1
  O  O35  1  0.56948534  0.36896875  0.64817483  1
  O  O36  1  0.60877887  0.97205813  0.29942787  1
  O  O37  1  0.62378376  0.63585012  0.83046516  1
  O  O38  1  0.63408126  0.58622593  0.32154853  1
  O  O39  1  0.62359810  0.89415224  0.57653219  1
  O  O40  1  0.64592089  0.17167762  0.89200865  1
  O  O41  1  0.65983448  0.44249841  0.07363552  1
  O  O42  1  0.70081980  0.89200240  0.96930087  1
  O  O43  1  0.79918489  0.10798596  0.46930654  1
  O  O44  1  0.84017532  0.55749926  0.57364940  1
  O  O45  1  0.85405564  0.82833023  0.39202486  1
  O  O46  1  0.87636337  0.10583419  0.07650847  1
  O  O47  1  0.86593398  0.41373048  0.82154779  1
  O  O48  1  0.87622770  0.36419347  0.33048596  1
  O  O49  1  0.89122603  0.02796170  0.79942328  1
  O  O50  1  0.93052297  0.63104502  0.14823962  1
  O  O51  1  0.98851155  0.28601718  0.58565077  1
