# generated using pymatgen
data_Li12Cr3FeP4(CO7)4
_symmetry_space_group_name_H-M   'P 1'
_cell_length_a   8.65031391
_cell_length_b   10.02797134
_cell_length_c   6.47040427
_cell_angle_alpha   90.00000000
_cell_angle_beta   90.00000000
_cell_angle_gamma   85.61151104
_symmetry_Int_Tables_number   1
_chemical_formula_structural   Li12Cr3FeP4(CO7)4
_chemical_formula_sum   'Li12 Cr3 Fe1 P4 C4 O28'
_cell_volume   559.63028577
_cell_formula_units_Z   1
loop_
 _symmetry_equiv_pos_site_id
 _symmetry_equiv_pos_as_xyz
  1  'x, y, z'
loop_
 _atom_site_type_symbol
 _atom_site_label
 _atom_site_symmetry_multiplicity
 _atom_site_fract_x
 _atom_site_fract_y
 _atom_site_fract_z
 _atom_site_occupancy
  Li  Li0  1  0.09467522  0.38239507  0.25000000  1
  Li  Li1  1  0.09627278  0.87948627  0.25000000  1
  Li  Li2  1  0.27371426  0.12524283  0.02482899  1
  Li  Li3  1  0.27371426  0.12524283  0.47517101  1
  Li  Li4  1  0.27385692  0.62482748  0.02439877  1
  Li  Li5  1  0.27385692  0.62482748  0.47560123  1
  Li  Li6  1  0.72612126  0.37494645  0.52375094  1
  Li  Li7  1  0.72612126  0.37494645  0.97624906  1
  Li  Li8  1  0.72684059  0.87448418  0.52374934  1
  Li  Li9  1  0.72684059  0.87448418  0.97625066  1
  Li  Li10  1  0.90244058  0.11941455  0.75000000  1
  Li  Li11  1  0.90269465  0.61938771  0.75000000  1
  Cr  Cr12  1  0.33518769  0.39304360  0.75000000  1
  Cr  Cr13  1  0.33550422  0.89305885  0.75000000  1
  Cr  Cr14  1  0.66547928  0.10750951  0.25000000  1
  Fe  Fe15  1  0.66564652  0.60511839  0.25000000  1
  P  P16  1  0.41106638  0.35866079  0.25000000  1
  P  P17  1  0.41374647  0.85895692  0.25000000  1
  P  P18  1  0.58876359  0.14075437  0.75000000  1
  P  P19  1  0.58910692  0.64023897  0.75000000  1
  C  C20  1  0.03170386  0.35309871  0.75000000  1
  C  C21  1  0.03163834  0.85339652  0.75000000  1
  C  C22  1  0.96847609  0.14686059  0.25000000  1
  C  C23  1  0.96522838  0.64923482  0.25000000  1
  O  O24  1  0.06108100  0.47689074  0.75000000  1
  O  O25  1  0.11034623  0.18300590  0.25000000  1
  O  O26  1  0.06129259  0.97719160  0.75000000  1
  O  O27  1  0.14719277  0.26047947  0.75000000  1
  O  O28  1  0.10956422  0.67953327  0.25000000  1
  O  O29  1  0.14708937  0.76069013  0.75000000  1
  O  O30  1  0.31195037  0.41491084  0.06350136  1
  O  O31  1  0.31195037  0.41491084  0.43649864  1
  O  O32  1  0.31283513  0.91258989  0.06368915  1
  O  O33  1  0.31283513  0.91258989  0.43631085  1
  O  O34  1  0.42221277  0.09339844  0.75000000  1
  O  O35  1  0.41937011  0.20336828  0.25000000  1
  O  O36  1  0.42237052  0.59362378  0.75000000  1
  O  O37  1  0.42874671  0.70277119  0.25000000  1
  O  O38  1  0.57909504  0.29608820  0.75000000  1
  O  O39  1  0.57771818  0.40474761  0.25000000  1
  O  O40  1  0.57996967  0.79552120  0.75000000  1
  O  O41  1  0.57795331  0.90910111  0.25000000  1
  O  O42  1  0.68783948  0.08521234  0.93643228  1
  O  O43  1  0.68783948  0.08521234  0.56356772  1
  O  O44  1  0.68771086  0.58465948  0.56271264  1
  O  O45  1  0.68771086  0.58465948  0.93728736  1
  O  O46  1  0.85321758  0.23952849  0.25000000  1
  O  O47  1  0.89002512  0.31748741  0.75000000  1
  O  O48  1  0.85388438  0.74468822  0.25000000  1
  O  O49  1  0.93959866  0.02327925  0.25000000  1
  O  O50  1  0.89007886  0.81777219  0.75000000  1
  O  O51  1  0.92982318  0.52647186  0.25000000  1
