# generated using pymatgen
data_LiCr2(PO5)2
_symmetry_space_group_name_H-M   'P 1'
_cell_length_a   6.73254702
_cell_length_b   6.97414839
_cell_length_c   8.03872066
_cell_angle_alpha   89.96172501
_cell_angle_beta   90.67258056
_cell_angle_gamma   116.05798906
_symmetry_Int_Tables_number   1
_chemical_formula_structural   LiCr2(PO5)2
_chemical_formula_sum   'Li2 Cr4 P4 O20'
_cell_volume   339.05308503
_cell_formula_units_Z   2
loop_
 _symmetry_equiv_pos_site_id
 _symmetry_equiv_pos_as_xyz
  1  'x, y, z'
loop_
 _atom_site_type_symbol
 _atom_site_label
 _atom_site_symmetry_multiplicity
 _atom_site_fract_x
 _atom_site_fract_y
 _atom_site_fract_z
 _atom_site_occupancy
  Li  Li0  1  0.22165533  0.28035103  0.07236620  1
  Li  Li1  1  0.68985246  0.18432913  0.56858558  1
  Cr  Cr2  1  0.24250742  0.00292623  0.75475928  1
  Cr  Cr3  1  0.24748666  0.50224054  0.73965309  1
  Cr  Cr4  1  0.76019859  0.50260739  0.24891292  1
  Cr  Cr5  1  0.75193126  0.00082548  0.24331741  1
  P  P6  1  0.24016520  0.75602223  0.08392053  1
  P  P7  1  0.26323063  0.24293222  0.41534986  1
  P  P8  1  0.73975392  0.75462577  0.58313439  1
  P  P9  1  0.76026344  0.24737623  0.91405727  1
  O  O10  1  0.14603157  0.88132142  0.97679076  1
  O  O11  1  0.07237679  0.63387647  0.22303599  1
  O  O12  1  0.23505769  0.74140451  0.69649744  1
  O  O13  1  0.28103932  0.58516247  0.98576161  1
  O  O14  1  0.19181986  0.38916141  0.51822155  1
  O  O15  1  0.06554220  0.09030008  0.30766998  1
  O  O16  1  0.45169239  0.91713139  0.17177375  1
  O  O17  1  0.26025987  0.25844712  0.82662670  1
  O  O18  1  0.65708656  0.89084767  0.47568123  1
  O  O19  1  0.43467282  0.37163011  0.28066037  1
  O  O20  1  0.56264688  0.62399770  0.71237374  1
  O  O21  1  0.35921076  0.12726656  0.53162636  1
  O  O22  1  0.73945374  0.75219060  0.19380868  1
  O  O23  1  0.55448495  0.08578549  0.81798013  1
  O  O24  1  0.94273965  0.91201824  0.68273979  1
  O  O25  1  0.79837629  0.59798011  0.48333725  1
  O  O26  1  0.70493942  0.40289232  0.01773374  1
  O  O27  1  0.76295882  0.24856049  0.32373836  1
  O  O28  1  0.92198391  0.35888299  0.76999694  1
  O  O29  1  0.86539657  0.13552758  0.02882412  1
