# generated using pymatgen
data_K2Li3CrO4
_symmetry_space_group_name_H-M   'P 1'
_cell_length_a   5.58478780
_cell_length_b   8.97562437
_cell_length_c   11.06204124
_cell_angle_alpha   90.00000000
_cell_angle_beta   109.78146899
_cell_angle_gamma   90.00000000
_symmetry_Int_Tables_number   1
_chemical_formula_structural   K2Li3CrO4
_chemical_formula_sum   'K8 Li12 Cr4 O16'
_cell_volume   521.78519812
_cell_formula_units_Z   4
loop_
 _symmetry_equiv_pos_site_id
 _symmetry_equiv_pos_as_xyz
  1  'x, y, z'
loop_
 _atom_site_type_symbol
 _atom_site_label
 _atom_site_symmetry_multiplicity
 _atom_site_fract_x
 _atom_site_fract_y
 _atom_site_fract_z
 _atom_site_occupancy
  K  K0  1  0.28361927  0.77332496  0.89221460  1
  K  K1  1  0.29467868  0.50688288  0.63770860  1
  K  K2  1  0.28361927  0.72667504  0.39221460  1
  K  K3  1  0.70532132  0.00688288  0.86229140  1
  K  K4  1  0.29467868  0.99311712  0.13770860  1
  K  K5  1  0.71638073  0.27332496  0.60778540  1
  K  K6  1  0.70532132  0.49311712  0.36229140  1
  K  K7  1  0.71638073  0.22667504  0.10778540  1
  Li  Li8  1  0.10311871  0.03676577  0.70563046  1
  Li  Li9  1  0.38319830  0.26627528  0.80064794  1
  Li  Li10  1  0.10311871  0.46323423  0.20563046  1
  Li  Li11  1  0.62201571  0.49746013  0.92767383  1
  Li  Li12  1  0.37798429  0.99746013  0.57232617  1
  Li  Li13  1  0.61680170  0.76627528  0.69935206  1
  Li  Li14  1  0.38319830  0.23372472  0.30064794  1
  Li  Li15  1  0.62201571  0.00253987  0.42767383  1
  Li  Li16  1  0.37798429  0.50253987  0.07232617  1
  Li  Li17  1  0.89688129  0.53676577  0.79436954  1
  Li  Li18  1  0.61680170  0.73372472  0.19935206  1
  Li  Li19  1  0.89688129  0.96323423  0.29436954  1
  Cr  Cr20  1  0.09411040  0.29125290  0.93703195  1
  Cr  Cr21  1  0.09411040  0.20874710  0.43703195  1
  Cr  Cr22  1  0.90588960  0.79125290  0.56296805  1
  Cr  Cr23  1  0.90588960  0.70874710  0.06296805  1
  O  O24  1  0.22859716  0.10971548  0.89323289  1
  O  O25  1  0.24740239  0.45638133  0.87641454  1
  O  O26  1  0.24913834  0.19761085  0.62297333  1
  O  O27  1  0.25531885  0.83802862  0.65153074  1
  O  O28  1  0.22859716  0.39028452  0.39323289  1
  O  O29  1  0.24740239  0.04361867  0.37641454  1
  O  O30  1  0.74468115  0.33802862  0.84846926  1
  O  O31  1  0.75086166  0.69761085  0.87702667  1
  O  O32  1  0.24913834  0.30238915  0.12297333  1
  O  O33  1  0.25531885  0.66197138  0.15153074  1
  O  O34  1  0.75259761  0.95638133  0.62358546  1
  O  O35  1  0.77140284  0.60971548  0.60676711  1
  O  O36  1  0.74468115  0.16197138  0.34846926  1
  O  O37  1  0.75086166  0.80238915  0.37702667  1
  O  O38  1  0.75259761  0.54361867  0.12358546  1
  O  O39  1  0.77140284  0.89028452  0.10676711  1
