# generated using pymatgen
data_Li6MnCrP2(CO7)2
_symmetry_space_group_name_H-M   'P 1'
_cell_length_a   8.60704042
_cell_length_b   5.00722373
_cell_length_c   6.52463480
_cell_angle_alpha   90.00000000
_cell_angle_beta   90.00000000
_cell_angle_gamma   85.64563421
_symmetry_Int_Tables_number   1
_chemical_formula_structural   Li6MnCrP2(CO7)2
_chemical_formula_sum   'Li6 Mn1 Cr1 P2 C2 O14'
_cell_volume   280.38298882
_cell_formula_units_Z   1
loop_
 _symmetry_equiv_pos_site_id
 _symmetry_equiv_pos_as_xyz
  1  'x, y, z'
loop_
 _atom_site_type_symbol
 _atom_site_label
 _atom_site_symmetry_multiplicity
 _atom_site_fract_x
 _atom_site_fract_y
 _atom_site_fract_z
 _atom_site_occupancy
  Li  Li0  1  0.09244723  0.75844008  0.25000000  1
  Li  Li1  1  0.27333916  0.24617655  0.02857133  1
  Li  Li2  1  0.27333916  0.24617655  0.47142867  1
  Li  Li3  1  0.72690187  0.75292722  0.52518872  1
  Li  Li4  1  0.72690187  0.75292722  0.97481128  1
  Li  Li5  1  0.90995560  0.24215160  0.75000000  1
  Mn  Mn6  1  0.33990637  0.77848626  0.75000000  1
  Cr  Cr7  1  0.66434099  0.21568995  0.25000000  1
  P  P8  1  0.41004938  0.71895245  0.25000000  1
  P  P9  1  0.58863826  0.28228984  0.75000000  1
  C  C10  1  0.03269679  0.70466020  0.75000000  1
  C  C11  1  0.96768357  0.29368805  0.25000000  1
  O  O12  1  0.06918767  0.95027821  0.75000000  1
  O  O13  1  0.11175458  0.35786387  0.25000000  1
  O  O14  1  0.14346574  0.51106237  0.75000000  1
  O  O15  1  0.31066848  0.82937173  0.06479937  1
  O  O16  1  0.31066848  0.82937173  0.43520063  1
  O  O17  1  0.42115295  0.18930308  0.75000000  1
  O  O18  1  0.42059940  0.40710447  0.25000000  1
  O  O19  1  0.57654329  0.59489545  0.75000000  1
  O  O20  1  0.57767424  0.81246653  0.25000000  1
  O  O21  1  0.68754999  0.17457052  0.93655525  1
  O  O22  1  0.68754999  0.17457052  0.56344475  1
  O  O23  1  0.85497522  0.48397037  0.25000000  1
  O  O24  1  0.88801579  0.64508560  0.75000000  1
  O  O25  1  0.93399294  0.04751958  0.25000000  1
