# generated using pymatgen
data_Li3Mn2Fe(BO3)4
_symmetry_space_group_name_H-M   'P 1'
_cell_length_a   5.22890256
_cell_length_b   9.18246505
_cell_length_c   9.69860290
_cell_angle_alpha   90.00000000
_cell_angle_beta   94.65092287
_cell_angle_gamma   90.00000000
_symmetry_Int_Tables_number   1
_chemical_formula_structural   Li3Mn2Fe(BO3)4
_chemical_formula_sum   'Li6 Mn4 Fe2 B8 O24'
_cell_volume   464.13744675
_cell_formula_units_Z   2
loop_
 _symmetry_equiv_pos_site_id
 _symmetry_equiv_pos_as_xyz
  1  'x, y, z'
loop_
 _atom_site_type_symbol
 _atom_site_label
 _atom_site_symmetry_multiplicity
 _atom_site_fract_x
 _atom_site_fract_y
 _atom_site_fract_z
 _atom_site_occupancy
  Li  Li0  1  0.16151715  0.97698100  0.65382367  1
  Li  Li1  1  0.19960247  0.98876220  0.11715917  1
  Li  Li2  1  0.33289330  0.48202395  0.83293231  1
  Li  Li3  1  0.69960247  0.51123780  0.61715917  1
  Li  Li4  1  0.66151715  0.52301900  0.15382367  1
  Li  Li5  1  0.83289330  0.01797605  0.33293231  1
  Mn  Mn6  1  0.14401695  0.30795049  0.11951352  1
  Mn  Mn7  1  0.35284207  0.82491188  0.37549869  1
  Mn  Mn8  1  0.64401695  0.19204951  0.61951352  1
  Mn  Mn9  1  0.85284207  0.67508812  0.87549869  1
  Fe  Fe10  1  0.31854825  0.48695725  0.38883529  1
  Fe  Fe11  1  0.81854825  0.01304275  0.88883529  1
  B  B12  1  0.17177566  0.30810801  0.60745041  1
  B  B13  1  0.15682921  0.65646247  0.13972017  1
  B  B14  1  0.32567017  0.81831966  0.88901082  1
  B  B15  1  0.34111052  0.15188504  0.36727147  1
  B  B16  1  0.65682921  0.84353753  0.63972017  1
  B  B17  1  0.67177566  0.19189199  0.10745041  1
  B  B18  1  0.84111052  0.34811496  0.86727147  1
  B  B19  1  0.82567017  0.68168034  0.38901082  1
  O  O20  1  0.09234508  0.35008250  0.92459242  1
  O  O21  1  0.09025398  0.65739716  0.40264719  1
  O  O22  1  0.16264775  0.93708220  0.89653923  1
  O  O23  1  0.19944545  0.02872991  0.34210534  1
  O  O24  1  0.23272397  0.68074865  0.86591357  1
  O  O25  1  0.22719171  0.28738292  0.32465211  1
  O  O26  1  0.27488149  0.17272543  0.63573131  1
  O  O27  1  0.26675225  0.78832002  0.18026072  1
  O  O28  1  0.28554187  0.52584732  0.17549070  1
  O  O29  1  0.33948934  0.42333741  0.58412977  1
  O  O30  1  0.41346662  0.85017355  0.57128312  1
  O  O31  1  0.41391073  0.16599533  0.10211801  1
  O  O32  1  0.59025398  0.84260284  0.90264719  1
  O  O33  1  0.59234508  0.14991750  0.42459242  1
  O  O34  1  0.69944545  0.47127009  0.84210534  1
  O  O35  1  0.72719171  0.21261708  0.82465211  1
  O  O36  1  0.66264775  0.56291780  0.39653923  1
  O  O37  1  0.73272397  0.81925135  0.36591357  1
  O  O38  1  0.76675225  0.71167998  0.68026072  1
  O  O39  1  0.78554187  0.97415268  0.67549070  1
  O  O40  1  0.77488149  0.32727457  0.13573131  1
  O  O41  1  0.83948834  0.07666259  0.08412977  1
  O  O42  1  0.91391073  0.33400467  0.60211801  1
  O  O43  1  0.91346662  0.64982645  0.07128312  1
