# generated using pymatgen
data_VSO4F3
_symmetry_space_group_name_H-M   'P 1'
_cell_length_a   7.18476243
_cell_length_b   8.20703593
_cell_length_c   10.64232859
_cell_angle_alpha   90.00000000
_cell_angle_beta   90.00000000
_cell_angle_gamma   90.00000000
_symmetry_Int_Tables_number   1
_chemical_formula_structural   VSO4F3
_chemical_formula_sum   'V4 S4 O16 F12'
_cell_volume   627.53132701
_cell_formula_units_Z   4
loop_
 _symmetry_equiv_pos_site_id
 _symmetry_equiv_pos_as_xyz
  1  'x, y, z'
loop_
 _atom_site_type_symbol
 _atom_site_label
 _atom_site_symmetry_multiplicity
 _atom_site_fract_x
 _atom_site_fract_y
 _atom_site_fract_z
 _atom_site_occupancy
  V  V0  1  0.00000000  0.00000000  0.00000000  1
  V  V1  1  0.00000000  0.50000000  0.50000000  1
  V  V2  1  0.50000000  0.00000000  0.00000000  1
  V  V3  1  0.50000000  0.50000000  0.50000000  1
  S  S4  1  0.25000000  0.17856870  0.50000000  1
  S  S5  1  0.25000000  0.67856870  0.00000000  1
  S  S6  1  0.75000000  0.82143130  0.50000000  1
  S  S7  1  0.75000000  0.32143130  0.00000000  1
  O  O8  1  0.10388818  0.30528467  0.44416934  1
  O  O9  1  0.10388818  0.80528467  0.05583066  1
  O  O10  1  0.16453624  0.09439288  0.60212668  1
  O  O11  1  0.16453624  0.59439288  0.89787332  1
  O  O12  1  0.33546376  0.09439288  0.39787332  1
  O  O13  1  0.33546376  0.59439288  0.10212668  1
  O  O14  1  0.39611182  0.80528467  0.94416934  1
  O  O15  1  0.39611182  0.30528467  0.55583066  1
  O  O16  1  0.60388818  0.19471533  0.05583066  1
  O  O17  1  0.60388818  0.69471533  0.44416934  1
  O  O18  1  0.66453624  0.40560712  0.89787332  1
  O  O19  1  0.66453624  0.90560712  0.60212668  1
  O  O20  1  0.83546376  0.40560712  0.10212668  1
  O  O21  1  0.83546376  0.90560712  0.39787332  1
  O  O22  1  0.89611182  0.69471533  0.55583066  1
  O  O23  1  0.89611182  0.19471533  0.94416934  1
  F  F24  1  0.03246005  0.44117214  0.65816849  1
  F  F25  1  0.03246005  0.94117214  0.84183151  1
  F  F26  1  0.25000000  0.59376993  0.50000000  1
  F  F27  1  0.25000000  0.09377093  0.00000000  1
  F  F28  1  0.46753995  0.94117214  0.15816849  1
  F  F29  1  0.46753995  0.44117214  0.34183151  1
  F  F30  1  0.53246005  0.05882786  0.84183151  1
  F  F31  1  0.53246005  0.55882786  0.65816849  1
  F  F32  1  0.75000000  0.40622907  0.50000000  1
  F  F33  1  0.75000000  0.90623007  0.00000000  1
  F  F34  1  0.96753995  0.05882786  0.15816849  1
  F  F35  1  0.96753995  0.55882786  0.34183151  1
