# generated using pymatgen
data_Li12V3CoP4(CO7)4
_symmetry_space_group_name_H-M   'P 1'
_cell_length_a   8.48173958
_cell_length_b   10.00792834
_cell_length_c   6.59471600
_cell_angle_alpha   90.00000000
_cell_angle_beta   90.00000000
_cell_angle_gamma   84.63377140
_symmetry_Int_Tables_number   1
_chemical_formula_structural   Li12V3CoP4(CO7)4
_chemical_formula_sum   'Li12 V3 Co1 P4 C4 O28'
_cell_volume   557.33669231
_cell_formula_units_Z   1
loop_
 _symmetry_equiv_pos_site_id
 _symmetry_equiv_pos_as_xyz
  1  'x, y, z'
loop_
 _atom_site_type_symbol
 _atom_site_label
 _atom_site_symmetry_multiplicity
 _atom_site_fract_x
 _atom_site_fract_y
 _atom_site_fract_z
 _atom_site_occupancy
  Li  Li0  1  0.09929353  0.38414589  0.25000000  1
  Li  Li1  1  0.09697425  0.88441621  0.25000000  1
  Li  Li2  1  0.27975856  0.12523401  0.02611710  1
  Li  Li3  1  0.27975856  0.12523401  0.47388290  1
  Li  Li4  1  0.27941465  0.62557735  0.02786707  1
  Li  Li5  1  0.27941465  0.62557735  0.47213293  1
  Li  Li6  1  0.72178480  0.37716307  0.52203867  1
  Li  Li7  1  0.72178480  0.37716307  0.97796133  1
  Li  Li8  1  0.72098034  0.87245372  0.52330366  1
  Li  Li9  1  0.72098034  0.87245372  0.97669634  1
  Li  Li10  1  0.90169024  0.11514986  0.75000000  1
  Li  Li11  1  0.90258289  0.61503141  0.75000000  1
  V  V12  1  0.32881583  0.39551883  0.75000000  1
  V  V13  1  0.32901831  0.89655685  0.75000000  1
  V  V14  1  0.67124349  0.10397039  0.25000000  1
  Co  Co15  1  0.66887766  0.60528730  0.25000000  1
  P  P16  1  0.41195329  0.36120684  0.25000000  1
  P  P17  1  0.41076938  0.86088810  0.25000000  1
  P  P18  1  0.58967900  0.13944600  0.75000000  1
  P  P19  1  0.58879507  0.63919800  0.75000000  1
  C  C20  1  0.03485307  0.34759704  0.75000000  1
  C  C21  1  0.03483466  0.84752195  0.75000000  1
  C  C22  1  0.96571401  0.15226911  0.25000000  1
  C  C23  1  0.96296043  0.65064248  0.25000000  1
  O  O24  1  0.07303643  0.47024900  0.75000000  1
  O  O25  1  0.11158488  0.18020652  0.25000000  1
  O  O26  1  0.07293724  0.97039132  0.75000000  1
  O  O27  1  0.14998364  0.25157724  0.75000000  1
  O  O28  1  0.10850994  0.68137051  0.25000000  1
  O  O29  1  0.14991256  0.75166345  0.75000000  1
  O  O30  1  0.30820486  0.41342527  0.06704478  1
  O  O31  1  0.30820486  0.41342527  0.43295522  1
  O  O32  1  0.30672188  0.91390358  0.06748432  1
  O  O33  1  0.30672188  0.91390358  0.43251568  1
  O  O34  1  0.42308570  0.08861867  0.75000000  1
  O  O35  1  0.43180083  0.20425354  0.25000000  1
  O  O36  1  0.42262326  0.58802558  0.75000000  1
  O  O37  1  0.43330638  0.70393005  0.25000000  1
  O  O38  1  0.56847919  0.29622844  0.75000000  1
  O  O39  1  0.57808421  0.41310993  0.25000000  1
  O  O40  1  0.56913638  0.79586006  0.75000000  1
  O  O41  1  0.57737265  0.91140877  0.25000000  1
  O  O42  1  0.69294867  0.08656237  0.93310446  1
  O  O43  1  0.69294867  0.08656237  0.56689554  1
  O  O44  1  0.69125398  0.58794211  0.56420502  1
  O  O45  1  0.69125398  0.58794211  0.93579498  1
  O  O46  1  0.85069089  0.24808042  0.25000000  1
  O  O47  1  0.88889732  0.31981075  0.75000000  1
  O  O48  1  0.84596848  0.74520894  0.25000000  1
  O  O49  1  0.92752263  0.02937053  0.25000000  1
  O  O50  1  0.88896456  0.81957264  0.75000000  1
  O  O51  1  0.92791425  0.52769643  0.25000000  1
