# generated using pymatgen
data_Na4Sn2C4SO16
_symmetry_space_group_name_H-M   'P 1'
_cell_length_a   10.16548080
_cell_length_b   10.06055686
_cell_length_c   9.91268813
_cell_angle_alpha   117.59821127
_cell_angle_beta   60.67981260
_cell_angle_gamma   117.16953974
_symmetry_Int_Tables_number   1
_chemical_formula_structural   Na4Sn2C4SO16
_chemical_formula_sum   'Na8 Sn4 C8 S2 O32'
_cell_volume   747.90036260
_cell_formula_units_Z   2
loop_
 _symmetry_equiv_pos_site_id
 _symmetry_equiv_pos_as_xyz
  1  'x, y, z'
loop_
 _atom_site_type_symbol
 _atom_site_label
 _atom_site_symmetry_multiplicity
 _atom_site_fract_x
 _atom_site_fract_y
 _atom_site_fract_z
 _atom_site_occupancy
  Na  Na0  1  0.92020612  0.16393244  0.32116307  1
  Na  Na1  1  0.92037007  0.16001391  0.91761715  1
  Na  Na2  1  0.91864197  0.57791640  0.32914295  1
  Na  Na3  1  0.66953358  0.43797283  0.08173319  1
  Na  Na4  1  0.32728075  0.16846830  0.91916769  1
  Na  Na5  1  0.33935561  0.58105436  0.92495105  1
  Na  Na6  1  0.07947446  0.42569974  0.66542526  1
  Na  Na7  1  0.07751072  0.81406042  0.66412370  1
  Sn  Sn8  1  0.50017341  0.99859348  0.00198146  1
  Sn  Sn9  1  0.50192222  0.99815201  0.49721566  1
  Sn  Sn10  1  0.50020271  0.50494168  0.50311375  1
  Sn  Sn11  1  0.00215586  0.99102026  0.48376796  1
  C  C12  1  0.70727091  0.15672257  0.72414057  1
  C  C13  1  0.66095856  0.21050293  0.27044994  1
  C  C14  1  0.27315440  0.20684948  0.66915775  1
  C  C15  1  0.29702696  0.22544649  0.26558925  1
  C  C16  1  0.70941136  0.78385958  0.73344527  1
  C  C17  1  0.72171593  0.79215828  0.34073145  1
  C  C18  1  0.34067403  0.79444868  0.73286930  1
  C  C19  1  0.28986944  0.84113802  0.27932422  1
  S  S20  1  0.87575774  0.62313316  0.87054182  1
  S  S21  1  0.12066847  0.36979078  0.12248220  1
  O  O22  1  0.84493699  0.18655379  0.71832151  1
  O  O23  1  0.64754349  0.09003177  0.30115915  1
  O  O24  1  0.68650654  0.13632854  0.59445288  1
  O  O25  1  0.65152339  0.18248108  0.12996233  1
  O  O26  1  0.58237928  0.14821539  0.85975066  1
  O  O27  1  0.94183463  0.56501421  0.68661349  1
  O  O28  1  0.93165807  0.55252230  0.93112261  1
  O  O29  1  0.69164397  0.34992855  0.36164378  1
  O  O30  1  0.40940674  0.18849477  0.63825311  1
  O  O31  1  0.30964608  0.09145794  0.13950113  1
  O  O32  1  0.93827760  0.79803535  0.92311270  1
  O  O33  1  0.70022927  0.56909485  0.93191356  1
  O  O34  1  0.72421798  0.65662592  0.31782405  1
  O  O35  1  0.84496540  0.78559719  0.61660167  1
  O  O36  1  0.41823645  0.34558557  0.26744909  1
  O  O37  1  0.14458743  0.09363071  0.68853798  1
  O  O38  1  0.84434314  0.91354706  0.33836552  1
  O  O39  1  0.58958062  0.66358916  0.73837424  1
  O  O40  1  0.27937752  0.34264902  0.68223553  1
  O  O41  1  0.15960928  0.22158312  0.37651245  1
  O  O42  1  0.29666117  0.42057194  0.05721793  1
  O  O43  1  0.06442732  0.19185493  0.06454680  1
  O  O44  1  0.58342689  0.80396247  0.37297878  1
  O  O45  1  0.69989074  0.92240622  0.85146669  1
  O  O46  1  0.30563591  0.65737202  0.63867209  1
  O  O47  1  0.05489545  0.42535433  0.30295251  1
  O  O48  1  0.06090940  0.42956841  0.05627789  1
  O  O49  1  0.41295782  0.85535707  0.14566723  1
  O  O50  1  0.36110693  0.81697462  0.86381382  1
  O  O51  1  0.31259614  0.86824127  0.41072168  1
  O  O52  1  0.35440249  0.91901065  0.70635494  1
  O  O53  1  0.14924958  0.79893397  0.28594051  1
