# generated using pymatgen
data_LiNiPO4
_symmetry_space_group_name_H-M   'P 1'
_cell_length_a   4.29952690
_cell_length_b   14.09550595
_cell_length_c   4.77198902
_cell_angle_alpha   89.99996749
_cell_angle_beta   90.00017424
_cell_angle_gamma   89.99996328
_symmetry_Int_Tables_number   1
_chemical_formula_structural   LiNiPO4
_chemical_formula_sum   'Li4 Ni4 P4 O16'
_cell_volume   289.20165598
_cell_formula_units_Z   4
loop_
 _symmetry_equiv_pos_site_id
 _symmetry_equiv_pos_as_xyz
  1  'x, y, z'
loop_
 _atom_site_type_symbol
 _atom_site_label
 _atom_site_symmetry_multiplicity
 _atom_site_fract_x
 _atom_site_fract_y
 _atom_site_fract_z
 _atom_site_occupancy
  Li  Li0  1  -0.00000006  0.24733990  0.75000009  1
  Li  Li1  1  0.99999964  0.75265992  0.24999959  1
  Li  Li2  1  0.50000002  0.25266043  0.24999946  1
  Li  Li3  1  0.49999994  0.74733956  0.75000003  1
  Ni  Ni4  1  -0.00000008  0.06291199  0.25000164  1
  Ni  Ni5  1  0.00000227  0.93708882  0.74999930  1
  Ni  Ni6  1  0.49999964  0.43707727  0.75000097  1
  Ni  Ni7  1  0.50000092  0.56291703  0.25000002  1
  P  P8  1  -0.00000013  0.38950608  0.24999995  1
  P  P9  1  0.99999990  0.61049533  0.74999991  1
  P  P10  1  0.50000028  0.88950404  0.24999987  1
  P  P11  1  0.50000025  0.11049544  0.75000020  1
  O  O12  1  0.18381968  0.32865332  0.46617681  1
  O  O13  1  0.18381912  0.67134672  0.96617728  1
  O  O14  1  0.25932633  0.04911944  0.58888287  1
  O  O15  1  0.25932501  0.95088102  0.08888276  1
  O  O16  1  0.24067521  0.45088135  0.08888405  1
  O  O17  1  0.24067684  0.54911986  0.58888099  1
  O  O18  1  0.31618048  0.17134675  0.96617662  1
  O  O19  1  0.31618137  0.82865372  0.46617657  1
  O  O20  1  0.68381905  0.17134676  0.53382316  1
  O  O21  1  0.68381855  0.82865376  0.03382303  1
  O  O22  1  0.75932287  0.54911981  0.91111865  1
  O  O23  1  0.75932399  0.45088133  0.41111603  1
  O  O24  1  0.74067387  0.04911937  0.91111778  1
  O  O25  1  0.74067473  0.95088096  0.41111768  1
  O  O26  1  0.81618013  0.32865342  0.03382254  1
  O  O27  1  0.81618015  0.67134661  0.53382216  1
