# generated using pymatgen
data_MnOF
_symmetry_space_group_name_H-M   'P 1'
_cell_length_a   5.10956293
_cell_length_b   4.73384204
_cell_length_c   5.82826407
_cell_angle_alpha   90.00000000
_cell_angle_beta   92.63253981
_cell_angle_gamma   90.00000000
_symmetry_Int_Tables_number   1
_chemical_formula_structural   MnOF
_chemical_formula_sum   'Mn4 O4 F4'
_cell_volume   140.82448082
_cell_formula_units_Z   4
loop_
 _symmetry_equiv_pos_site_id
 _symmetry_equiv_pos_as_xyz
  1  'x, y, z'
loop_
 _atom_site_type_symbol
 _atom_site_label
 _atom_site_symmetry_multiplicity
 _atom_site_fract_x
 _atom_site_fract_y
 _atom_site_fract_z
 _atom_site_occupancy
  Mn  Mn0  1  0.22747139  0.47693504  0.66157924  1
  Mn  Mn1  1  0.22747139  0.02306496  0.16157924  1
  Mn  Mn2  1  0.77252861  0.97693504  0.83842076  1
  Mn  Mn3  1  0.77252861  0.52306496  0.33842076  1
  O  O4  1  0.07569134  0.21274144  0.89612073  1
  O  O5  1  0.07569134  0.28725856  0.39612073  1
  O  O6  1  0.92430866  0.71274144  0.60387927  1
  O  O7  1  0.92430866  0.78725856  0.10387927  1
  F  F8  1  0.43374347  0.75353605  0.86904607  1
  F  F9  1  0.43374347  0.74646395  0.36904607  1
  F  F10  1  0.56625653  0.25353605  0.63095393  1
  F  F11  1  0.56625653  0.24646395  0.13095393  1
