# generated using pymatgen
data_Li5Cr17(SiO16)2
_symmetry_space_group_name_H-M   'P 1'
_cell_length_a   8.44506156
_cell_length_b   8.34534350
_cell_length_c   8.33962992
_cell_angle_alpha   91.04010329
_cell_angle_beta   90.16475331
_cell_angle_gamma   89.82246771
_symmetry_Int_Tables_number   1
_chemical_formula_structural   Li5Cr17(SiO16)2
_chemical_formula_sum   'Li5 Cr17 Si2 O32'
_cell_volume   587.64959662
_cell_formula_units_Z   1
loop_
 _symmetry_equiv_pos_site_id
 _symmetry_equiv_pos_as_xyz
  1  'x, y, z'
loop_
 _atom_site_type_symbol
 _atom_site_label
 _atom_site_symmetry_multiplicity
 _atom_site_fract_x
 _atom_site_fract_y
 _atom_site_fract_z
 _atom_site_occupancy
  Li  Li0  1  0.99643624  0.50192164  0.49807183  1
  Li  Li1  1  0.24776610  0.74666945  0.74590465  1
  Li  Li2  1  0.24708418  0.25356575  0.25270811  1
  Li  Li3  1  0.75468382  0.74558476  0.25445618  1
  Li  Li4  1  0.75582701  0.25388029  0.74702104  1
  Cr  Cr5  1  0.12492864  0.87666185  0.38263596  1
  Cr  Cr6  1  0.12575078  0.61731614  0.12243908  1
  Cr  Cr7  1  0.36875722  0.37774246  0.62187885  1
  Cr  Cr8  1  0.36980959  0.12319785  0.87696010  1
  Cr  Cr9  1  0.37633039  0.62142365  0.37739665  1
  Cr  Cr10  1  0.37820030  0.87728000  0.12224543  1
  Cr  Cr11  1  0.49955745  0.49786214  0.99590749  1
  Cr  Cr12  1  0.49830148  0.00234507  0.50202252  1
  Cr  Cr13  1  0.62539983  0.37652639  0.37780514  1
  Cr  Cr14  1  0.62204294  0.12276072  0.12260542  1
  Cr  Cr15  1  0.62596145  0.62219122  0.62284252  1
  Cr  Cr16  1  0.62246126  0.87790324  0.87736620  1
  Cr  Cr17  1  0.88029192  0.12711061  0.38065722  1
  Cr  Cr18  1  0.88097773  0.37506972  0.12208462  1
  Cr  Cr19  1  0.88086169  0.87874547  0.62592948  1
  Cr  Cr20  1  0.88133102  0.62011466  0.87280512  1
  Cr  Cr21  1  0.00250309  0.99937796  0.00194814  1
  Si  Si22  1  0.11676377  0.12981652  0.62264609  1
  Si  Si23  1  0.11703084  0.37705956  0.87046748  1
  O  O24  1  0.11768806  0.12326220  0.40899972  1
  O  O25  1  0.11867863  0.59052415  0.87600019  1
  O  O26  1  0.11838227  0.37544035  0.08886416  1
  O  O27  1  0.14029542  0.63867292  0.36041952  1
  O  O28  1  0.11807194  0.91161069  0.62503139  1
  O  O29  1  0.12554321  0.14908221  0.85246930  1
  O  O30  1  0.12735941  0.34891841  0.65079756  1
  O  O31  1  0.13192001  0.86377178  0.13569789  1
  O  O32  1  0.33652678  0.13024599  0.63251463  1
  O  O33  1  0.36698335  0.63177623  0.12917334  1
  O  O34  1  0.36596704  0.86946007  0.36774166  1
  O  O35  1  0.38546052  0.11463036  0.11397427  1
  O  O36  1  0.33722862  0.36734095  0.86951495  1
  O  O37  1  0.38674907  0.61331110  0.61470453  1
  O  O38  1  0.38634563  0.38424529  0.38620998  1
  O  O39  1  0.38580057  0.88628279  0.88481782  1
  O  O40  1  0.60635358  0.38323745  0.61687600  1
  O  O41  1  0.61195667  0.88661319  0.11357314  1
  O  O42  1  0.60649012  0.11635448  0.88411316  1
  O  O43  1  0.63910310  0.87147036  0.63126567  1
  O  O44  1  0.61271151  0.61205503  0.38714547  1
  O  O45  1  0.63913228  0.36890337  0.12860114  1
  O  O46  1  0.63957353  0.12742345  0.36823034  1
  O  O47  1  0.64080435  0.63266440  0.87203781  1
  O  O48  1  0.86183888  0.36276000  0.35953681  1
  O  O49  1  0.86762857  0.86632971  0.87176298  1
  O  O50  1  0.86254759  0.64151610  0.63709532  1
  O  O51  1  0.90582999  0.37975986  0.87861947  1
  O  O52  1  0.86707329  0.12948940  0.13435933  1
  O  O53  1  0.89218129  0.88872877  0.39072138  1
  O  O54  1  0.90565210  0.12198136  0.62112039  1
  O  O55  1  0.89306489  0.61010448  0.11129935  1
