# generated using pymatgen
data_Ba2YF7
_symmetry_space_group_name_H-M   'P 1'
_cell_length_a   5.97800398
_cell_length_b   12.15660843
_cell_length_c   10.04579494
_cell_angle_alpha   90.00000000
_cell_angle_beta   89.66041659
_cell_angle_gamma   90.00000000
_symmetry_Int_Tables_number   1
_chemical_formula_structural   Ba2YF7
_chemical_formula_sum   'Ba8 Y4 F28'
_cell_volume   730.03773494
_cell_formula_units_Z   4
loop_
 _symmetry_equiv_pos_site_id
 _symmetry_equiv_pos_as_xyz
  1  'x, y, z'
loop_
 _atom_site_type_symbol
 _atom_site_label
 _atom_site_symmetry_multiplicity
 _atom_site_fract_x
 _atom_site_fract_y
 _atom_site_fract_z
 _atom_site_occupancy
  Ba  Ba0  1  0.26003229  0.47281990  0.71649044  1
  Ba  Ba1  1  0.27692845  0.85122956  0.60660850  1
  Ba  Ba2  1  0.25842778  0.22686201  0.11220434  1
  Ba  Ba3  1  0.26514800  0.61226741  0.20341452  1
  Ba  Ba4  1  0.73485200  0.11226741  0.79658548  1
  Ba  Ba5  1  0.74157222  0.72686201  0.88779566  1
  Ba  Ba6  1  0.72307155  0.35122956  0.39339150  1
  Ba  Ba7  1  0.73996771  0.97281990  0.28350956  1
  Y  Y8  1  0.21004661  0.14985100  0.53341413  1
  Y  Y9  1  0.22999872  0.92834979  0.02386396  1
  Y  Y10  1  0.77000128  0.42834979  0.97613604  1
  Y  Y11  1  0.78995339  0.64985100  0.46658587  1
  F  F12  1  0.03577148  0.31992391  0.89173625  1
  F  F13  1  0.02951338  0.56079516  0.98333386  1
  F  F14  1  0.00624307  0.50492468  0.50362602  1
  F  F15  1  0.09770792  0.85349140  0.84476019  1
  F  F16  1  0.08303227  0.74302425  0.39239839  1
  F  F17  1  0.08969216  0.22360095  0.35193374  1
  F  F18  1  0.18720784  0.08179352  0.73759041  1
  F  F19  1  0.22885752  0.99215688  0.23053556  1
  F  F20  1  0.42061028  0.67045272  0.71435399  1
  F  F21  1  0.42487879  0.41025870  0.20442739  1
  F  F22  1  0.42035948  0.29166172  0.58858206  1
  F  F23  1  0.53780233  0.29873957  0.91259896  1
  F  F24  1  0.49827681  0.03751831  0.52508969  1
  F  F25  1  0.51543576  0.55722658  0.99069748  1
  F  F26  1  0.48456424  0.05722658  0.00930252  1
  F  F27  1  0.50172319  0.53751831  0.47491031  1
  F  F28  1  0.46219767  0.79873957  0.08740104  1
  F  F29  1  0.57964052  0.79166172  0.41141794  1
  F  F30  1  0.57512121  0.91025870  0.79557261  1
  F  F31  1  0.57938972  0.17045272  0.28564701  1
  F  F32  1  0.77114248  0.49215688  0.76946444  1
  F  F33  1  0.81279216  0.58179352  0.26240959  1
  F  F34  1  0.91030784  0.72360095  0.64806626  1
  F  F35  1  0.91696773  0.24302425  0.60760161  1
  F  F36  1  0.90229208  0.35349140  0.15523981  1
  F  F37  1  0.99375693  0.00492468  0.49637398  1
  F  F38  1  0.97048662  0.06079516  0.01666614  1
  F  F39  1  0.96422852  0.81992391  0.10826375  1
