# generated using pymatgen
data_Li4Fe2Ni3O10
_symmetry_space_group_name_H-M   'P 1'
_cell_length_a   5.08188851
_cell_length_b   5.04211345
_cell_length_c   7.76668992
_cell_angle_alpha   108.34019929
_cell_angle_beta   102.83722069
_cell_angle_gamma   99.31495397
_symmetry_Int_Tables_number   1
_chemical_formula_structural   Li4Fe2Ni3O10
_chemical_formula_sum   'Li4 Fe2 Ni3 O10'
_cell_volume   178.31005021
_cell_formula_units_Z   1
loop_
 _symmetry_equiv_pos_site_id
 _symmetry_equiv_pos_as_xyz
  1  'x, y, z'
loop_
 _atom_site_type_symbol
 _atom_site_label
 _atom_site_symmetry_multiplicity
 _atom_site_fract_x
 _atom_site_fract_y
 _atom_site_fract_z
 _atom_site_occupancy
  Li  Li0  1  0.22970626  0.92433397  0.41303049  1
  Li  Li1  1  0.39973445  0.30093643  0.78259889  1
  Li  Li2  1  0.60026555  0.69906357  0.21740111  1
  Li  Li3  1  0.77029374  0.07566603  0.58696951  1
  Fe  Fe4  1  0.10294909  0.69737674  0.68702845  1
  Fe  Fe5  1  0.89705091  0.30262326  0.31297155  1
  Ni  Ni6  1  0.00000000  0.50000000  0.00000000  1
  Ni  Ni7  1  0.70008701  0.90080097  0.90221002  1
  Ni  Ni8  1  0.29991299  0.09919903  0.09778998  1
  O  O9  1  0.05862753  0.10153168  0.86307150  1
  O  O10  1  0.11148782  0.30266193  0.55305829  1
  O  O11  1  0.32993107  0.71827856  0.95383852  1
  O  O12  1  0.45793366  0.90922036  0.68007532  1
  O  O13  1  0.22330945  0.46097284  0.21867885  1
  O  O14  1  0.77669055  0.53902716  0.78132115  1
  O  O15  1  0.54206634  0.09077964  0.31992468  1
  O  O16  1  0.67006893  0.28172144  0.04616148  1
  O  O17  1  0.88851218  0.69733807  0.44694171  1
  O  O18  1  0.94137247  0.89846832  0.13692850  1
