# generated using pymatgen
data_Li7NbS6
_symmetry_space_group_name_H-M   'P 1'
_cell_length_a   10.18192885
_cell_length_b   10.18192885
_cell_length_c   10.18192885
_cell_angle_alpha   90.00000000
_cell_angle_beta   90.00000000
_cell_angle_gamma   90.00000000
_symmetry_Int_Tables_number   1
_chemical_formula_structural   Li7NbS6
_chemical_formula_sum   'Li28 Nb4 S24'
_cell_volume   1055.57761969
_cell_formula_units_Z   4
loop_
 _symmetry_equiv_pos_site_id
 _symmetry_equiv_pos_as_xyz
  1  'x, y, z'
loop_
 _atom_site_type_symbol
 _atom_site_label
 _atom_site_symmetry_multiplicity
 _atom_site_fract_x
 _atom_site_fract_y
 _atom_site_fract_z
 _atom_site_occupancy
  Li  Li0  1  0.02169915  0.83517158  0.67752482  1
  Li  Li1  1  0.01027312  0.28106190  0.19030444  1
  Li  Li2  1  0.11589689  0.61589689  0.88410311  1
  Li  Li3  1  0.16482842  0.17752482  0.47830085  1
  Li  Li4  1  0.17752482  0.47830085  0.16482842  1
  Li  Li5  1  0.19030444  0.01027312  0.28106190  1
  Li  Li6  1  0.21893810  0.80969556  0.51027312  1
  Li  Li7  1  0.28106190  0.19030444  0.01027312  1
  Li  Li8  1  0.30969556  0.98972688  0.78106190  1
  Li  Li9  1  0.32247518  0.52169915  0.66482842  1
  Li  Li10  1  0.33517158  0.82247518  0.97830085  1
  Li  Li11  1  0.38410311  0.38410311  0.38410311  1
  Li  Li12  1  0.48972688  0.71893810  0.69030444  1
  Li  Li13  1  0.47830085  0.16482842  0.17752482  1
  Li  Li14  1  0.52169915  0.66482842  0.32247518  1
  Li  Li15  1  0.51027312  0.21893810  0.80969556  1
  Li  Li16  1  0.61589689  0.88410311  0.11589689  1
  Li  Li17  1  0.66482842  0.32247518  0.52169915  1
  Li  Li18  1  0.67752482  0.02169915  0.83517158  1
  Li  Li19  1  0.69030444  0.48972688  0.71893810  1
  Li  Li20  1  0.71893810  0.69030444  0.48972688  1
  Li  Li21  1  0.78106190  0.30969556  0.98972688  1
  Li  Li22  1  0.80969556  0.51027312  0.21893810  1
  Li  Li23  1  0.82247518  0.97830085  0.33517158  1
  Li  Li24  1  0.83517158  0.67752482  0.02169915  1
  Li  Li25  1  0.88410311  0.11589689  0.61589689  1
  Li  Li26  1  0.98972688  0.78106190  0.30969556  1
  Li  Li27  1  0.97830085  0.33517158  0.82247518  1
  Nb  Nb28  1  0.00861271  0.49138729  0.50861271  1
  Nb  Nb29  1  0.49138729  0.50861271  0.00861271  1
  Nb  Nb30  1  0.50861271  0.00861271  0.49138729  1
  Nb  Nb31  1  0.99138729  0.99138729  0.99138729  1
  S  S32  1  0.02634941  0.97365059  0.47365059  1
  S  S33  1  0.11146518  0.12228932  0.85395801  1
  S  S34  1  0.12228932  0.85395801  0.11146518  1
  S  S35  1  0.13760459  0.36239541  0.63760459  1
  S  S36  1  0.14604199  0.61146518  0.37771068  1
  S  S37  1  0.25548550  0.75548550  0.74451450  1
  S  S38  1  0.24451450  0.24451450  0.24451450  1
  S  S39  1  0.35395801  0.38853482  0.87771068  1
  S  S40  1  0.36239541  0.63760459  0.13760459  1
  S  S41  1  0.37771068  0.14604199  0.61146518  1
  S  S42  1  0.38853482  0.87771068  0.35395801  1
  S  S43  1  0.47365059  0.02634941  0.97365059  1
  S  S44  1  0.52634941  0.52634941  0.52634941  1
  S  S45  1  0.61146518  0.37771068  0.14604199  1
  S  S46  1  0.62228932  0.64604199  0.88853482  1
  S  S47  1  0.63760459  0.13760459  0.36239541  1
  S  S48  1  0.64604199  0.88853482  0.62228932  1
  S  S49  1  0.75548550  0.74451450  0.25548550  1
  S  S50  1  0.74451450  0.25548550  0.75548550  1
  S  S51  1  0.85395801  0.11146518  0.12228932  1
  S  S52  1  0.86239541  0.86239541  0.86239541  1
  S  S53  1  0.87771068  0.35395801  0.38853482  1
  S  S54  1  0.88853482  0.62228932  0.64604199  1
  S  S55  1  0.97365059  0.47365059  0.02634941  1
