# generated using pymatgen
data_Li8B2O7
_symmetry_space_group_name_H-M   'P 1'
_cell_length_a   7.26365461
_cell_length_b   9.22735848
_cell_length_c   8.41075547
_cell_angle_alpha   90.00000000
_cell_angle_beta   107.82791697
_cell_angle_gamma   90.00000000
_symmetry_Int_Tables_number   1
_chemical_formula_structural   Li8B2O7
_chemical_formula_sum   'Li32 B8 O28'
_cell_volume   536.65547009
_cell_formula_units_Z   4
loop_
 _symmetry_equiv_pos_site_id
 _symmetry_equiv_pos_as_xyz
  1  'x, y, z'
loop_
 _atom_site_type_symbol
 _atom_site_label
 _atom_site_symmetry_multiplicity
 _atom_site_fract_x
 _atom_site_fract_y
 _atom_site_fract_z
 _atom_site_occupancy
  Li  Li0  1  0.12122950  0.47445699  0.93145512  1
  Li  Li1  1  0.08415436  0.45857400  0.64103148  1
  Li  Li2  1  0.10826860  0.73983221  0.53323651  1
  Li  Li3  1  0.12122950  0.02554301  0.43145512  1
  Li  Li4  1  0.25500027  0.94046652  0.71528438  1
  Li  Li5  1  0.08415436  0.04142600  0.14103148  1
  Li  Li6  1  0.28339938  0.24997790  0.56921770  1
  Li  Li7  1  0.10826860  0.76016779  0.03323651  1
  Li  Li8  1  0.42278495  0.46949078  0.85995615  1
  Li  Li9  1  0.34446146  0.50505821  0.52381752  1
  Li  Li10  1  0.25500027  0.55953348  0.21528438  1
  Li  Li11  1  0.50167604  0.23425853  0.87710476  1
  Li  Li12  1  0.28339938  0.25002210  0.06921770  1
  Li  Li13  1  0.49832396  0.73425853  0.62289524  1
  Li  Li14  1  0.42278495  0.03050922  0.35995615  1
  Li  Li15  1  0.65553854  0.00505821  0.97618248  1
  Li  Li16  1  0.34446146  0.99494179  0.02381752  1
  Li  Li17  1  0.57721505  0.96949078  0.64004385  1
  Li  Li18  1  0.50167604  0.26574147  0.37710476  1
  Li  Li19  1  0.71660062  0.74997790  0.93078230  1
  Li  Li20  1  0.49832396  0.76574147  0.12289524  1
  Li  Li21  1  0.74499973  0.44046652  0.78471562  1
  Li  Li22  1  0.65553854  0.49494179  0.47618248  1
  Li  Li23  1  0.57721505  0.53050922  0.14004385  1
  Li  Li24  1  0.89173140  0.23983221  0.96676349  1
  Li  Li25  1  0.71660062  0.75002210  0.43078230  1
  Li  Li26  1  0.91584564  0.95857400  0.85896852  1
  Li  Li27  1  0.74499973  0.05953348  0.28471562  1
  Li  Li28  1  0.87877050  0.97445699  0.56854488  1
  Li  Li29  1  0.89173140  0.26016779  0.46676349  1
  Li  Li30  1  0.91584564  0.54142600  0.35896852  1
  Li  Li31  1  0.87877050  0.52554301  0.06854488  1
  B  B32  1  0.09284540  0.19941526  0.77410364  1
  B  B33  1  0.09284540  0.30058474  0.27410364  1
  B  B34  1  0.30816031  0.71106632  0.84547998  1
  B  B35  1  0.30816031  0.78893368  0.34547998  1
  B  B36  1  0.69183969  0.21106632  0.65452002  1
  B  B37  1  0.69183969  0.28893368  0.15452002  1
  B  B38  1  0.90715460  0.69941526  0.72589636  1
  B  B39  1  0.90715460  0.80058474  0.22589636  1
  O  O40  1  0.10613992  0.11047881  0.92560139  1
  O  O41  1  0.10634676  0.78436703  0.78439454  1
  O  O42  1  0.10645108  0.11004794  0.63217375  1
  O  O43  1  0.10613992  0.38952119  0.42560139  1
  O  O44  1  0.23916824  0.31852048  0.81434002  1
  O  O45  1  0.10634676  0.71563297  0.28439454  1
  O  O46  1  0.10645108  0.38995206  0.13217375  1
  O  O47  1  0.33215118  0.62113544  0.70763495  1
  O  O48  1  0.23916824  0.18147952  0.31434002  1
  O  O49  1  0.44922991  0.83967524  0.89142613  1
  O  O50  1  0.32832608  0.88328820  0.49715858  1
  O  O51  1  0.33215118  0.87886456  0.20763495  1
  O  O52  1  0.44922991  0.66032476  0.39142613  1
  O  O53  1  0.67167392  0.38328820  0.00284142  1
  O  O54  1  0.32832608  0.61671180  0.99715858  1
  O  O55  1  0.55077009  0.33967524  0.60857387  1
  O  O56  1  0.66784882  0.12113544  0.79236505  1
  O  O57  1  0.67167392  0.11671180  0.50284142  1
  O  O58  1  0.55077009  0.16032476  0.10857387  1
  O  O59  1  0.76083176  0.81852048  0.68565998  1
  O  O60  1  0.66784882  0.37886456  0.29236505  1
  O  O61  1  0.89354892  0.61004794  0.86782625  1
  O  O62  1  0.89365324  0.28436703  0.71560546  1
  O  O63  1  0.76083176  0.68147952  0.18565998  1
  O  O64  1  0.89386008  0.61047881  0.57439861  1
  O  O65  1  0.89354892  0.88995206  0.36782625  1
  O  O66  1  0.89365324  0.21563297  0.21560546  1
  O  O67  1  0.89386008  0.88952119  0.07439861  1
