# generated using pymatgen
data_Li7NbS6
_symmetry_space_group_name_H-M   'P 1'
_cell_length_a   7.19131178
_cell_length_b   7.25625369
_cell_length_c   10.30769948
_cell_angle_alpha   90.00000000
_cell_angle_beta   91.46039712
_cell_angle_gamma   90.00000000
_symmetry_Int_Tables_number   1
_chemical_formula_structural   Li7NbS6
_chemical_formula_sum   'Li14 Nb2 S12'
_cell_volume   537.70148205
_cell_formula_units_Z   2
loop_
 _symmetry_equiv_pos_site_id
 _symmetry_equiv_pos_as_xyz
  1  'x, y, z'
loop_
 _atom_site_type_symbol
 _atom_site_label
 _atom_site_symmetry_multiplicity
 _atom_site_fract_x
 _atom_site_fract_y
 _atom_site_fract_z
 _atom_site_occupancy
  Li  Li0  1  0.08018660  0.40806445  0.45477594  1
  Li  Li1  1  0.11407121  0.90723285  0.29915475  1
  Li  Li2  1  0.19115335  0.91570221  0.68563291  1
  Li  Li3  1  0.28852242  0.51797045  0.76675657  1
  Li  Li4  1  0.32367800  0.02261385  0.98211209  1
  Li  Li5  1  0.30235902  0.36777904  0.16812357  1
  Li  Li6  1  0.39267640  0.73390649  0.51873095  1
  Li  Li7  1  0.58018660  0.59193555  0.95477494  1
  Li  Li8  1  0.61407121  0.09276715  0.79915475  1
  Li  Li9  1  0.69115335  0.08429779  0.18563291  1
  Li  Li10  1  0.78852242  0.48202955  0.26675657  1
  Li  Li11  1  0.82367800  0.97738615  0.48211209  1
  Li  Li12  1  0.80235902  0.63222096  0.66812357  1
  Li  Li13  1  0.89267640  0.26609351  0.01873095  1
  Nb  Nb14  1  0.00400673  0.75359873  0.99546775  1
  Nb  Nb15  1  0.50400673  0.24640127  0.49546775  1
  S  S16  1  0.00063844  0.23060400  0.24848452  1
  S  S17  1  0.04136728  0.73689301  0.50654060  1
  S  S18  1  0.26225512  0.24414981  0.63464608  1
  S  S19  1  0.27797494  0.73938467  0.11039873  1
  S  S20  1  0.50724730  0.98276288  0.37317268  1
  S  S21  1  0.47771422  0.49706238  0.36188385  1
  S  S22  1  0.50063844  0.76939600  0.74848452  1
  S  S23  1  0.54136728  0.26310699  0.00654060  1
  S  S24  1  0.76225512  0.75585019  0.13464608  1
  S  S25  1  0.77797494  0.26061533  0.61039873  1
  S  S26  1  0.00724730  0.01723712  0.87317268  1
  S  S27  1  0.97771422  0.50293762  0.86188385  1
