# generated using pymatgen
data_LiBi4B3O11
_symmetry_space_group_name_H-M   'P 1'
_cell_length_a   6.53282704
_cell_length_b   6.53282704
_cell_length_c   12.40333768
_cell_angle_alpha   83.08876219
_cell_angle_beta   96.91123781
_cell_angle_gamma   91.15913533
_symmetry_Int_Tables_number   1
_chemical_formula_structural   LiBi4B3O11
_chemical_formula_sum   'Li2 Bi8 B6 O22'
_cell_volume   521.67386292
_cell_formula_units_Z   2
loop_
 _symmetry_equiv_pos_site_id
 _symmetry_equiv_pos_as_xyz
  1  'x, y, z'
loop_
 _atom_site_type_symbol
 _atom_site_label
 _atom_site_symmetry_multiplicity
 _atom_site_fract_x
 _atom_site_fract_y
 _atom_site_fract_z
 _atom_site_occupancy
  Li  Li0  1  0.88788190  0.88788190  0.75000000  1
  Li  Li1  1  0.11211810  0.11211810  0.25000000  1
  Bi  Bi2  1  0.39922397  0.92012532  0.83241902  1
  Bi  Bi3  1  0.07987468  0.60077603  0.33241902  1
  Bi  Bi4  1  0.17395384  0.39964754  0.92125968  1
  Bi  Bi5  1  0.60035246  0.82604616  0.42125968  1
  Bi  Bi6  1  0.39964754  0.17395384  0.57874032  1
  Bi  Bi7  1  0.82604616  0.60035246  0.07874032  1
  Bi  Bi8  1  0.92012532  0.39922397  0.66758098  1
  Bi  Bi9  1  0.60077603  0.07987468  0.16758098  1
  B  B10  1  0.13836455  0.82691485  0.57377468  1
  B  B11  1  0.17308515  0.86163545  0.07377468  1
  B  B12  1  0.46793598  0.46793598  0.75000000  1
  B  B13  1  0.53206402  0.53206402  0.25000000  1
  B  B14  1  0.82691485  0.13836455  0.92622532  1
  B  B15  1  0.86163545  0.17308515  0.42622532  1
  O  O16  1  0.13710431  0.95369240  0.65593679  1
  O  O17  1  0.04630760  0.86289569  0.15593679  1
  O  O18  1  0.29616771  0.86724172  0.50643646  1
  O  O19  1  0.13275828  0.70383229  0.00643646  1
  O  O20  1  0.59121190  0.99337367  0.70544636  1
  O  O21  1  0.67997569  0.98939242  0.94797074  1
  O  O22  1  0.00662633  0.40878810  0.20544636  1
  O  O23  1  0.01060758  0.32002431  0.44797074  1
  O  O24  1  0.48159152  0.58712231  0.83537420  1
  O  O25  1  0.31339807  0.31339807  0.75000000  1
  O  O26  1  0.41287769  0.51840848  0.33537420  1
  O  O27  1  0.58712231  0.48159152  0.66462580  1
  O  O28  1  0.68660193  0.68660193  0.25000000  1
  O  O29  1  0.51840848  0.41287769  0.16462580  1
  O  O30  1  0.98939242  0.67997569  0.55202926  1
  O  O31  1  0.99337367  0.59121190  0.79455364  1
  O  O32  1  0.32002431  0.01060758  0.05202926  1
  O  O33  1  0.40878810  0.00662633  0.29455364  1
  O  O34  1  0.86724172  0.29616771  0.99356354  1
  O  O35  1  0.70383229  0.13275828  0.49356354  1
  O  O36  1  0.95369240  0.13710431  0.84406321  1
  O  O37  1  0.86289569  0.04630760  0.34406321  1
