# generated using pymatgen
data_Li8BiO6
_symmetry_space_group_name_H-M   'P 1'
_cell_length_a   5.83886760
_cell_length_b   5.83884795
_cell_length_c   11.01716422
_cell_angle_alpha   90.00037166
_cell_angle_beta   89.99972000
_cell_angle_gamma   120.00098745
_symmetry_Int_Tables_number   1
_chemical_formula_structural   Li8BiO6
_chemical_formula_sum   'Li16 Bi2 O12'
_cell_volume   325.27592962
_cell_formula_units_Z   2
loop_
 _symmetry_equiv_pos_site_id
 _symmetry_equiv_pos_as_xyz
  1  'x, y, z'
loop_
 _atom_site_type_symbol
 _atom_site_label
 _atom_site_symmetry_multiplicity
 _atom_site_fract_x
 _atom_site_fract_y
 _atom_site_fract_z
 _atom_site_occupancy
  Li  Li0  1  0.99999110  0.67607857  0.76776776  1
  Li  Li1  1  0.00000854  0.58819470  0.12784802  1
  Li  Li2  1  0.99998501  0.41187118  0.62784612  1
  Li  Li3  1  0.00000591  0.32389536  0.26774862  1
  Li  Li4  1  0.33333861  0.66668872  0.40348404  1
  Li  Li5  1  0.33331957  0.66665138  0.90349047  1
  Li  Li6  1  0.32389121  0.32389472  0.76776728  1
  Li  Li7  1  0.41182290  0.41183409  0.12784010  1
  Li  Li8  1  0.58813306  0.58813515  0.62785155  1
  Li  Li9  1  0.32388739  0.00001825  0.26774846  1
  Li  Li10  1  0.67612283  0.67613198  0.26774696  1
  Li  Li11  1  0.41185746  0.99998735  0.62784607  1
  Li  Li12  1  0.66664970  0.33332162  0.90348962  1
  Li  Li13  1  0.66666647  0.33335187  0.40348312  1
  Li  Li14  1  0.58816656  0.00002008  0.12784171  1
  Li  Li15  1  0.67607479  0.99999168  0.76776644  1
  Bi  Bi16  1  0.00000280  0.00000613  0.98958907  1
  Bi  Bi17  1  -0.00001214  -0.00000143  0.48985453  1
  O  O18  1  0.99998893  0.64247129  0.94945330  1
  O  O19  1  0.99999921  0.35757237  0.44942887  1
  O  O20  1  0.33334147  0.66667947  0.21379546  1
  O  O21  1  0.00000736  0.99996793  0.18630596  1
  O  O22  1  0.99997161  0.99997788  0.68630274  1
  O  O23  1  0.33331187  0.66664771  0.71369439  1
  O  O24  1  0.35747399  0.35747404  0.94945884  1
  O  O25  1  0.35754601  0.00002108  0.44943010  1
  O  O26  1  0.64245338  0.64247047  0.44943302  1
  O  O27  1  0.66665034  0.33331734  0.71369499  1
  O  O28  1  0.66667259  0.33334362  0.21379495  1
  O  O29  1  0.64247147  0.99998640  0.94945643  1
