# generated using pymatgen
data_Li4Bi3O8
_symmetry_space_group_name_H-M   'P 1'
_cell_length_a   6.56055549
_cell_length_b   4.25213463
_cell_length_c   14.07295998
_cell_angle_alpha   90.00000000
_cell_angle_beta   90.80599178
_cell_angle_gamma   90.00000000
_symmetry_Int_Tables_number   1
_chemical_formula_structural   Li4Bi3O8
_chemical_formula_sum   'Li8 Bi6 O16'
_cell_volume   392.54558780
_cell_formula_units_Z   2
loop_
 _symmetry_equiv_pos_site_id
 _symmetry_equiv_pos_as_xyz
  1  'x, y, z'
loop_
 _atom_site_type_symbol
 _atom_site_label
 _atom_site_symmetry_multiplicity
 _atom_site_fract_x
 _atom_site_fract_y
 _atom_site_fract_z
 _atom_site_occupancy
  Li  Li0  1  0.20078718  0.75000000  0.39528864  1
  Li  Li1  1  0.03449242  0.75000000  0.67600307  1
  Li  Li2  1  0.61185205  0.25000000  0.04082269  1
  Li  Li3  1  0.41093716  0.25000000  0.31729968  1
  Li  Li4  1  0.58906284  0.75000000  0.68270032  1
  Li  Li5  1  0.38814795  0.75000000  0.95917731  1
  Li  Li6  1  0.96550758  0.25000000  0.32399693  1
  Li  Li7  1  0.79921282  0.25000000  0.60471136  1
  Bi  Bi8  1  0.15480168  0.25000000  0.08558976  1
  Bi  Bi9  1  0.31302414  0.25000000  0.55148203  1
  Bi  Bi10  1  0.31072953  0.25000000  0.80607609  1
  Bi  Bi11  1  0.68927047  0.75000000  0.19392391  1
  Bi  Bi12  1  0.68697586  0.75000000  0.44851797  1
  Bi  Bi13  1  0.84519832  0.75000000  0.91441024  1
  O  O14  1  0.10499668  0.75000000  0.04855673  1
  O  O15  1  0.43277244  0.25000000  0.17454696  1
  O  O16  1  0.18771932  0.25000000  0.41478324  1
  O  O17  1  0.08583129  0.25000000  0.65494829  1
  O  O18  1  0.12013827  0.75000000  0.81286108  1
  O  O19  1  0.47451705  0.75000000  0.33175038  1
  O  O20  1  0.36954290  0.75000000  0.53374264  1
  O  O21  1  0.63893344  0.75000000  0.03576662  1
  O  O22  1  0.36106656  0.25000000  0.96423338  1
  O  O23  1  0.63045710  0.25000000  0.46625736  1
  O  O24  1  0.52548295  0.25000000  0.66824962  1
  O  O25  1  0.87986173  0.25000000  0.18713892  1
  O  O26  1  0.91416871  0.75000000  0.34505171  1
  O  O27  1  0.81228068  0.75000000  0.58521676  1
  O  O28  1  0.56722756  0.75000000  0.82545304  1
  O  O29  1  0.89500332  0.25000000  0.95144327  1
