# generated using pymatgen
data_Bi3BO6
_symmetry_space_group_name_H-M   'P 1'
_cell_length_a   12.42981697
_cell_length_b   9.84630559
_cell_length_c   4.94767474
_cell_angle_alpha   90.00000000
_cell_angle_beta   90.00000000
_cell_angle_gamma   90.00000000
_symmetry_Int_Tables_number   1
_chemical_formula_structural   Bi3BO6
_chemical_formula_sum   'Bi12 B4 O24'
_cell_volume   605.53490936
_cell_formula_units_Z   4
loop_
 _symmetry_equiv_pos_site_id
 _symmetry_equiv_pos_as_xyz
  1  'x, y, z'
loop_
 _atom_site_type_symbol
 _atom_site_label
 _atom_site_symmetry_multiplicity
 _atom_site_fract_x
 _atom_site_fract_y
 _atom_site_fract_z
 _atom_site_occupancy
  Bi  Bi0  1  0.07627497  0.75000000  0.48881974  1
  Bi  Bi1  1  0.13726198  0.06361441  0.98570974  1
  Bi  Bi2  1  0.13726198  0.43638559  0.98570974  1
  Bi  Bi3  1  0.36273802  0.56361441  0.48570974  1
  Bi  Bi4  1  0.36273802  0.93638559  0.48570974  1
  Bi  Bi5  1  0.42372503  0.25000000  0.98881974  1
  Bi  Bi6  1  0.57627497  0.75000000  0.01118026  1
  Bi  Bi7  1  0.63726198  0.06361441  0.51429026  1
  Bi  Bi8  1  0.63726198  0.43638559  0.51429026  1
  Bi  Bi9  1  0.86273802  0.56361441  0.01429026  1
  Bi  Bi10  1  0.86273802  0.93638559  0.01429026  1
  Bi  Bi11  1  0.92372503  0.25000000  0.51118026  1
  B  B12  1  0.21758423  0.25000000  0.42674743  1
  B  B13  1  0.28241577  0.75000000  0.92674743  1
  B  B14  1  0.71758423  0.25000000  0.07325257  1
  B  B15  1  0.78241577  0.75000000  0.57325257  1
  O  O16  1  0.03548656  0.59022584  0.21482644  1
  O  O17  1  0.03548656  0.90977416  0.21482644  1
  O  O18  1  0.10073153  0.25000000  0.31226921  1
  O  O19  1  0.23296887  0.87627387  0.80235269  1
  O  O20  1  0.23296887  0.62372613  0.80235269  1
  O  O21  1  0.22671914  0.25000000  0.71865297  1
  O  O22  1  0.27328086  0.75000000  0.21865297  1
  O  O23  1  0.26703113  0.12372613  0.30235269  1
  O  O24  1  0.26703113  0.37627387  0.30235269  1
  O  O25  1  0.39926847  0.75000000  0.81226921  1
  O  O26  1  0.46451344  0.09022584  0.71482644  1
  O  O27  1  0.46451344  0.40977416  0.71482644  1
  O  O28  1  0.53548656  0.59022584  0.28517356  1
  O  O29  1  0.53548656  0.90977416  0.28517356  1
  O  O30  1  0.60073153  0.25000000  0.18773079  1
  O  O31  1  0.73296887  0.62372613  0.69764731  1
  O  O32  1  0.73296887  0.87627387  0.69764731  1
  O  O33  1  0.72671914  0.25000000  0.78134703  1
  O  O34  1  0.77328086  0.75000000  0.28134703  1
  O  O35  1  0.76703113  0.12372613  0.19764731  1
  O  O36  1  0.76703113  0.37627387  0.19764731  1
  O  O37  1  0.89926847  0.75000000  0.68773079  1
  O  O38  1  0.96451344  0.09022584  0.78517356  1
  O  O39  1  0.96451344  0.40977416  0.78517356  1
