# generated using pymatgen
data_Ba3Y2Cl12
_symmetry_space_group_name_H-M   'P 1'
_cell_length_a   12.02072367
_cell_length_b   12.88034670
_cell_length_c   16.40639714
_cell_angle_alpha   90.00000000
_cell_angle_beta   95.80445859
_cell_angle_gamma   90.00000000
_symmetry_Int_Tables_number   1
_chemical_formula_structural   Ba3Y2Cl12
_chemical_formula_sum   'Ba12 Y8 Cl48'
_cell_volume   2527.19621547
_cell_formula_units_Z   4
loop_
 _symmetry_equiv_pos_site_id
 _symmetry_equiv_pos_as_xyz
  1  'x, y, z'
loop_
 _atom_site_type_symbol
 _atom_site_label
 _atom_site_symmetry_multiplicity
 _atom_site_fract_x
 _atom_site_fract_y
 _atom_site_fract_z
 _atom_site_occupancy
  Ba  Ba0  1  0.04731242  0.20519041  0.47663470  1
  Ba  Ba1  1  0.13575904  0.13132715  0.85335144  1
  Ba  Ba2  1  0.13951025  0.34561181  0.10185444  1
  Ba  Ba3  1  0.36424096  0.63132715  0.64664856  1
  Ba  Ba4  1  0.36048975  0.84561181  0.39814556  1
  Ba  Ba5  1  0.45268758  0.70519041  0.02336530  1
  Ba  Ba6  1  0.54731242  0.29480959  0.97663470  1
  Ba  Ba7  1  0.63951025  0.15438819  0.60185444  1
  Ba  Ba8  1  0.63575904  0.36867285  0.35335144  1
  Ba  Ba9  1  0.86048975  0.65438819  0.89814556  1
  Ba  Ba10  1  0.86424096  0.86867285  0.14664856  1
  Ba  Ba11  1  0.95268758  0.79480959  0.52336530  1
  Y  Y12  1  0.23349402  0.48204815  0.86385648  1
  Y  Y13  1  0.26650598  0.98204815  0.63614352  1
  Y  Y14  1  0.24568346  0.53085261  0.35845549  1
  Y  Y15  1  0.25431654  0.03085261  0.14154451  1
  Y  Y16  1  0.74568346  0.96914739  0.85845549  1
  Y  Y17  1  0.75431654  0.46914739  0.64154451  1
  Y  Y18  1  0.73349402  0.01795185  0.36385648  1
  Y  Y19  1  0.76650598  0.51795185  0.13614352  1
  Cl  Cl20  1  0.12049080  0.62706316  0.93006985  1
  Cl  Cl21  1  0.12093313  0.65257618  0.44954029  1
  Cl  Cl22  1  0.15403995  0.80313138  0.65880424  1
  Cl  Cl23  1  0.10198484  0.92685841  0.21220854  1
  Cl  Cl24  1  0.11103409  0.12589024  0.65508709  1
  Cl  Cl25  1  0.07721626  0.35325165  0.90725871  1
  Cl  Cl26  1  0.08751093  0.11475272  0.03503904  1
  Cl  Cl27  1  0.08756385  0.47663473  0.24616971  1
  Cl  Cl28  1  0.21075449  0.19138437  0.23419234  1
  Cl  Cl29  1  0.21733015  0.37160872  0.45704001  1
  Cl  Cl30  1  0.30908142  0.98634328  0.79373208  1
  Cl  Cl31  1  0.34561375  0.46505437  0.02028592  1
  Cl  Cl32  1  0.19091858  0.48634328  0.70626792  1
  Cl  Cl33  1  0.15438625  0.96505437  0.47971408  1
  Cl  Cl34  1  0.28266985  0.87160872  0.04295999  1
  Cl  Cl35  1  0.28924551  0.69138437  0.26580766  1
  Cl  Cl36  1  0.41248907  0.61475272  0.46496096  1
  Cl  Cl37  1  0.42278374  0.85325165  0.59274129  1
  Cl  Cl38  1  0.41243615  0.97663473  0.25383029  1
  Cl  Cl39  1  0.38896591  0.62589024  0.84491291  1
  Cl  Cl40  1  0.34596005  0.30313138  0.84119576  1
  Cl  Cl41  1  0.37950920  0.12706316  0.56993015  1
  Cl  Cl42  1  0.39801516  0.42685841  0.28779146  1
  Cl  Cl43  1  0.37906687  0.15257618  0.05045971  1
  Cl  Cl44  1  0.62093313  0.84742382  0.94954029  1
  Cl  Cl45  1  0.60198484  0.57314159  0.71220854  1
  Cl  Cl46  1  0.62049080  0.87293684  0.43006985  1
  Cl  Cl47  1  0.65403995  0.69686862  0.15880424  1
  Cl  Cl48  1  0.61103409  0.37410976  0.15508709  1
  Cl  Cl49  1  0.58756385  0.02336527  0.74616971  1
  Cl  Cl50  1  0.57721626  0.14674835  0.40725871  1
  Cl  Cl51  1  0.58751093  0.38524728  0.53503904  1
  Cl  Cl52  1  0.71075449  0.30861563  0.73419234  1
  Cl  Cl53  1  0.71733015  0.12839128  0.95704001  1
  Cl  Cl54  1  0.84561375  0.03494563  0.52028592  1
  Cl  Cl55  1  0.80908142  0.51365672  0.29373208  1
  Cl  Cl56  1  0.65438625  0.53494563  0.97971408  1
  Cl  Cl57  1  0.69091858  0.01365672  0.20626792  1
  Cl  Cl58  1  0.78266985  0.62839128  0.54295999  1
  Cl  Cl59  1  0.78924551  0.80861563  0.76580766  1
  Cl  Cl60  1  0.91243615  0.52336527  0.75383029  1
  Cl  Cl61  1  0.91248907  0.88524728  0.96496096  1
  Cl  Cl62  1  0.92278374  0.64674835  0.09274129  1
  Cl  Cl63  1  0.88896591  0.87410976  0.34491291  1
  Cl  Cl64  1  0.89801516  0.07314159  0.78779146  1
  Cl  Cl65  1  0.84596005  0.19686862  0.34119576  1
  Cl  Cl66  1  0.87906687  0.34742382  0.55045971  1
  Cl  Cl67  1  0.87950920  0.37293684  0.06993015  1
