# generated using pymatgen
data_Ho3ReO7
_symmetry_space_group_name_H-M   'P 1'
_cell_length_a   6.42275225
_cell_length_b   6.42275225
_cell_length_c   7.39048923
_cell_angle_alpha   90.00000000
_cell_angle_beta   90.00000000
_cell_angle_gamma   110.22972439
_symmetry_Int_Tables_number   1
_chemical_formula_structural   Ho3ReO7
_chemical_formula_sum   'Ho6 Re2 O14'
_cell_volume   286.06426782
_cell_formula_units_Z   2
loop_
 _symmetry_equiv_pos_site_id
 _symmetry_equiv_pos_as_xyz
  1  'x, y, z'
loop_
 _atom_site_type_symbol
 _atom_site_label
 _atom_site_symmetry_multiplicity
 _atom_site_fract_x
 _atom_site_fract_y
 _atom_site_fract_z
 _atom_site_occupancy
  Ho  Ho0  1  0.02237432  0.56160979  0.25000000  1
  Ho  Ho1  1  0.43839021  0.97762568  0.75000000  1
  Ho  Ho2  1  0.50000000  0.50000000  0.00000000  1
  Ho  Ho3  1  0.50000000  0.50000000  0.50000000  1
  Ho  Ho4  1  0.56160979  0.02237432  0.25000000  1
  Ho  Ho5  1  0.97762568  0.43839021  0.75000000  1
  Re  Re6  1  0.00000000  0.00000000  0.00000000  1
  Re  Re7  1  0.00000000  0.00000000  0.50000000  1
  O  O8  1  0.67631370  0.93341875  0.53574335  1
  O  O9  1  0.06658125  0.32368630  0.46425665  1
  O  O10  1  0.06658125  0.32368630  0.03574335  1
  O  O11  1  0.67631370  0.93341875  0.96425665  1
  O  O12  1  0.39185991  0.65773631  0.25000000  1
  O  O13  1  0.34226369  0.60814009  0.75000000  1
  O  O14  1  0.93039496  0.93039496  0.25000000  1
  O  O15  1  0.06960504  0.06960504  0.75000000  1
  O  O16  1  0.60814009  0.34226369  0.75000000  1
  O  O17  1  0.65773631  0.39185991  0.25000000  1
  O  O18  1  0.32368630  0.06658125  0.03574335  1
  O  O19  1  0.32368630  0.06658125  0.46425665  1
  O  O20  1  0.93341875  0.67631370  0.53574335  1
  O  O21  1  0.93341875  0.67631370  0.96425665  1
