# generated using pymatgen
data_Sr2CaI6
_symmetry_space_group_name_H-M   'P 1'
_cell_length_a   10.26748333
_cell_length_b   16.95954509
_cell_length_c   10.01572316
_cell_angle_alpha   90.00000000
_cell_angle_beta   112.45787647
_cell_angle_gamma   90.00000000
_symmetry_Int_Tables_number   1
_chemical_formula_structural   Sr2CaI6
_chemical_formula_sum   'Sr8 Ca4 I24'
_cell_volume   1611.78823180
_cell_formula_units_Z   4
loop_
 _symmetry_equiv_pos_site_id
 _symmetry_equiv_pos_as_xyz
  1  'x, y, z'
loop_
 _atom_site_type_symbol
 _atom_site_label
 _atom_site_symmetry_multiplicity
 _atom_site_fract_x
 _atom_site_fract_y
 _atom_site_fract_z
 _atom_site_occupancy
  Sr  Sr0  1  0.23407976  0.42140770  0.04629306  1
  Sr  Sr1  1  0.26592024  0.92140770  0.45370694  1
  Sr  Sr2  1  0.28070814  0.24602475  0.51646761  1
  Sr  Sr3  1  0.21929186  0.74602475  0.98353239  1
  Sr  Sr4  1  0.78070814  0.25397525  0.01646761  1
  Sr  Sr5  1  0.71929186  0.75397525  0.48353239  1
  Sr  Sr6  1  0.73407976  0.07859230  0.54629306  1
  Sr  Sr7  1  0.76592024  0.57859230  0.95370694  1
  Ca  Ca8  1  0.20554676  0.59365677  0.53742585  1
  Ca  Ca9  1  0.29445324  0.09365677  0.96257415  1
  Ca  Ca10  1  0.70554676  0.90634323  0.03742585  1
  Ca  Ca11  1  0.79445324  0.40634323  0.46257415  1
  I  I12  1  0.12617496  0.41290031  0.52627204  1
  I  I13  1  0.19150903  0.07351049  0.61654823  1
  I  I14  1  0.10940000  0.57969335  0.18421814  1
  I  I15  1  0.16456528  0.77124033  0.61505939  1
  I  I16  1  0.33543472  0.27124033  0.88494061  1
  I  I17  1  0.03409321  0.89816378  0.12493770  1
  I  I18  1  0.30849097  0.57351049  0.88345177  1
  I  I19  1  0.11673242  0.26909278  0.17018738  1
  I  I20  1  0.38326758  0.76909278  0.32981262  1
  I  I21  1  0.62617496  0.08709969  0.02627204  1
  I  I22  1  0.46590679  0.39816378  0.37506230  1
  I  I23  1  0.60940000  0.92030665  0.68421814  1
  I  I24  1  0.39060000  0.07969335  0.31578186  1
  I  I25  1  0.53409321  0.60183622  0.62493770  1
  I  I26  1  0.37382504  0.91290031  0.97372796  1
  I  I27  1  0.61673242  0.23090722  0.67018738  1
  I  I28  1  0.88326758  0.73090722  0.82981262  1
  I  I29  1  0.69150903  0.42648951  0.11654823  1
  I  I30  1  0.96590679  0.10183622  0.87506230  1
  I  I31  1  0.66456528  0.72875967  0.11505939  1
  I  I32  1  0.83543472  0.22875967  0.38494061  1
  I  I33  1  0.89060000  0.42030665  0.81578186  1
  I  I34  1  0.80849097  0.92648951  0.38345177  1
  I  I35  1  0.87382504  0.58709969  0.47372796  1
