# generated using pymatgen
data_LiAlVO4
_symmetry_space_group_name_H-M   'P 1'
_cell_length_a   8.72999169
_cell_length_b   8.72999134
_cell_length_c   8.72999114
_cell_angle_alpha   107.54200026
_cell_angle_beta   107.54200426
_cell_angle_gamma   107.54200662
_symmetry_Int_Tables_number   1
_chemical_formula_structural   LiAlVO4
_chemical_formula_sum   'Li6 Al6 V6 O24'
_cell_volume   545.69899290
_cell_formula_units_Z   6
loop_
 _symmetry_equiv_pos_site_id
 _symmetry_equiv_pos_as_xyz
  1  'x, y, z'
loop_
 _atom_site_type_symbol
 _atom_site_label
 _atom_site_symmetry_multiplicity
 _atom_site_fract_x
 _atom_site_fract_y
 _atom_site_fract_z
 _atom_site_occupancy
  Li  Li0  1  0.12738020  0.89893236  0.72605738  1
  Li  Li1  1  0.21305959  0.43709101  0.60858583  1
  Li  Li2  1  0.43709101  0.60858583  0.21305959  1
  Li  Li3  1  0.89893236  0.72605738  0.12738020  1
  Li  Li4  1  0.60858583  0.21305959  0.43709101  1
  Li  Li5  1  0.72605738  0.12738020  0.89893236  1
  Al  Al6  1  0.05446895  0.45806093  0.23360716  1
  Al  Al7  1  0.53456288  0.76321892  0.94642995  1
  Al  Al8  1  0.76321892  0.94642995  0.53456288  1
  Al  Al9  1  0.23360716  0.05446895  0.45806093  1
  Al  Al10  1  0.45806093  0.23360716  0.05446895  1
  Al  Al11  1  0.94642995  0.53456288  0.76321892  1
  V  V12  1  0.27707447  0.87197667  0.10060313  1
  V  V13  1  0.38922643  0.79721229  0.56688560  1
  V  V14  1  0.10060313  0.27707447  0.87197667  1
  V  V15  1  0.56688560  0.38922643  0.79721229  1
  V  V16  1  0.79721229  0.56688560  0.38922643  1
  V  V17  1  0.87197667  0.10060313  0.27707447  1
  O  O18  1  0.30747968  0.01101366  0.98055744  1
  O  O19  1  0.04557327  0.70354105  0.98545380  1
  O  O20  1  0.25157740  0.91753115  0.57091158  1
  O  O21  1  0.41288002  0.75077704  0.07709891  1
  O  O22  1  0.61912933  0.95292689  0.64196075  1
  O  O23  1  0.27955924  0.62006479  0.33785168  1
  O  O24  1  0.07709891  0.41288002  0.75077704  1
  O  O25  1  0.39397982  0.69179852  0.71957038  1
  O  O26  1  0.02998934  0.32963616  0.35734234  1
  O  O27  1  0.98545380  0.04557327  0.70354105  1
  O  O28  1  0.32963616  0.35734234  0.02998934  1
  O  O29  1  0.69179852  0.71957038  0.39397982  1
  O  O30  1  0.01101366  0.98055744  0.30747968  1
  O  O31  1  0.64196075  0.61912933  0.95292689  1
  O  O32  1  0.33785168  0.27955924  0.62006479  1
  O  O33  1  0.62006479  0.33785168  0.27955924  1
  O  O34  1  0.95292689  0.64196075  0.61912933  1
  O  O35  1  0.57091158  0.25157740  0.91753115  1
  O  O36  1  0.71957038  0.39397982  0.69179852  1
  O  O37  1  0.35734234  0.02998934  0.32963616  1
  O  O38  1  0.91753115  0.57091158  0.25157740  1
  O  O39  1  0.98055744  0.30747968  0.01101366  1
  O  O40  1  0.75077704  0.07709891  0.41288002  1
  O  O41  1  0.70354105  0.98545380  0.04557327  1
