# generated using pymatgen
data_LiCoBO3
_symmetry_space_group_name_H-M   'P 1'
_cell_length_a   8.92606154
_cell_length_b   9.52536542
_cell_length_c   3.12024036
_cell_angle_alpha   90.00000000
_cell_angle_beta   90.37502236
_cell_angle_gamma   90.00000000
_symmetry_Int_Tables_number   1
_chemical_formula_structural   LiCoBO3
_chemical_formula_sum   'Li4 Co4 B4 O12'
_cell_volume   265.28962734
_cell_formula_units_Z   4
loop_
 _symmetry_equiv_pos_site_id
 _symmetry_equiv_pos_as_xyz
  1  'x, y, z'
loop_
 _atom_site_type_symbol
 _atom_site_label
 _atom_site_symmetry_multiplicity
 _atom_site_fract_x
 _atom_site_fract_y
 _atom_site_fract_z
 _atom_site_occupancy
  Li  Li0  1  0.13073740  0.71644557  0.25101200  1
  Li  Li1  1  0.36926260  0.21644557  0.24898800  1
  Li  Li2  1  0.63073740  0.78355443  0.75101200  1
  Li  Li3  1  0.86926260  0.28355443  0.74898800  1
  Co  Co4  1  0.27965129  0.44473622  0.75986187  1
  Co  Co5  1  0.22034871  0.94473622  0.74013813  1
  Co  Co6  1  0.77965129  0.05526378  0.25986187  1
  Co  Co7  1  0.72034871  0.55526378  0.24013813  1
  B  B8  1  0.10425412  0.20397985  0.24458161  1
  B  B9  1  0.39574588  0.70397985  0.25541839  1
  B  B10  1  0.60425412  0.29602015  0.74458161  1
  B  B11  1  0.89574588  0.79602015  0.75541839  1
  O  O12  1  0.04837433  0.80365807  0.75097054  1
  O  O13  1  0.17403519  0.33452082  0.24088823  1
  O  O14  1  0.19795995  0.08566234  0.24504398  1
  O  O15  1  0.30204005  0.58566234  0.25495702  1
  O  O16  1  0.45162567  0.30365807  0.74902946  1
  O  O17  1  0.32596481  0.83452082  0.25911177  1
  O  O18  1  0.67403519  0.16547918  0.74088823  1
  O  O19  1  0.54837433  0.69634193  0.25097054  1
  O  O20  1  0.69795995  0.41433766  0.74504298  1
  O  O21  1  0.80204005  0.91433766  0.75495702  1
  O  O22  1  0.82596481  0.66547918  0.75911177  1
  O  O23  1  0.95162567  0.19634193  0.24902946  1
