# generated using pymatgen
data_Li2VSiCO7
_symmetry_space_group_name_H-M   'P 1'
_cell_length_a   8.29988553
_cell_length_b   6.36098975
_cell_length_c   5.12039674
_cell_angle_alpha   90.00000000
_cell_angle_beta   84.99839870
_cell_angle_gamma   90.00000000
_symmetry_Int_Tables_number   1
_chemical_formula_structural   Li2VSiCO7
_chemical_formula_sum   'Li4 V2 Si2 C2 O14'
_cell_volume   269.30447774
_cell_formula_units_Z   2
loop_
 _symmetry_equiv_pos_site_id
 _symmetry_equiv_pos_as_xyz
  1  'x, y, z'
loop_
 _atom_site_type_symbol
 _atom_site_label
 _atom_site_symmetry_multiplicity
 _atom_site_fract_x
 _atom_site_fract_y
 _atom_site_fract_z
 _atom_site_occupancy
  Li  Li0  1  0.10244242  0.25117072  0.76495383  1
  Li  Li1  1  0.28981206  0.44714601  0.23954480  1
  Li  Li2  1  0.71018794  0.94714601  0.76045520  1
  Li  Li3  1  0.89755758  0.75117072  0.23504617  1
  V  V4  1  0.32060389  0.75832886  0.80914022  1
  V  V5  1  0.67939611  0.25832886  0.19085978  1
  Si  Si6  1  0.42608529  0.25019161  0.71416953  1
  Si  Si7  1  0.57391471  0.75019161  0.28583047  1
  C  C8  1  0.03425136  0.75036927  0.69883976  1
  C  C9  1  0.96574864  0.25036927  0.30116024  1
  O  O10  1  0.07085657  0.75678442  0.94486371  1
  O  O11  1  0.10668382  0.27124466  0.37068730  1
  O  O12  1  0.16036786  0.72673254  0.52835534  1
  O  O13  1  0.30092618  0.05070908  0.78311805  1
  O  O14  1  0.30833683  0.44632778  0.81732404  1
  O  O15  1  0.40989570  0.72690670  0.13451796  1
  O  O16  1  0.47377855  0.27395835  0.39725077  1
  O  O17  1  0.52622145  0.77395835  0.60274923  1
  O  O18  1  0.59010430  0.22690670  0.86548204  1
  O  O19  1  0.69907382  0.55070908  0.21688195  1
  O  O20  1  0.69166317  0.94632778  0.18267596  1
  O  O21  1  0.83963214  0.22673254  0.47164466  1
  O  O22  1  0.89331618  0.77124466  0.62931270  1
  O  O23  1  0.92914343  0.25678442  0.05513629  1
