# generated using pymatgen
data_VOF
_symmetry_space_group_name_H-M   'P 1'
_cell_length_a   3.44094177
_cell_length_b   3.44095660
_cell_length_c   6.34115370
_cell_angle_alpha   74.25729037
_cell_angle_beta   90.00010087
_cell_angle_gamma   60.00039056
_symmetry_Int_Tables_number   1
_chemical_formula_structural   VOF
_chemical_formula_sum   'V2 O2 F2'
_cell_volume   61.74816025
_cell_formula_units_Z   2
loop_
 _symmetry_equiv_pos_site_id
 _symmetry_equiv_pos_as_xyz
  1  'x, y, z'
loop_
 _atom_site_type_symbol
 _atom_site_label
 _atom_site_symmetry_multiplicity
 _atom_site_fract_x
 _atom_site_fract_y
 _atom_site_fract_z
 _atom_site_occupancy
  V  V0  1  0.76051406  0.47897223  0.28154938  1
  V  V1  1  0.23948594  0.52102777  0.71845162  1
  O  O2  1  0.87507992  0.24984268  0.62521262  1
  O  O3  1  0.12492008  0.75015732  0.37478738  1
  F  F4  1  0.62665782  0.74668400  0.87993259  1
  F  F5  1  0.37334218  0.25331600  0.12006741  1
