# generated using pymatgen
data_NaAg(CO2)2
_symmetry_space_group_name_H-M   'P 1'
_cell_length_a   3.55551438
_cell_length_b   5.31612482
_cell_length_c   11.09566524
_cell_angle_alpha   90.00000000
_cell_angle_beta   96.16850680
_cell_angle_gamma   90.00000000
_symmetry_Int_Tables_number   1
_chemical_formula_structural   NaAg(CO2)2
_chemical_formula_sum   'Na2 Ag2 C4 O8'
_cell_volume   208.51109007
_cell_formula_units_Z   2
loop_
 _symmetry_equiv_pos_site_id
 _symmetry_equiv_pos_as_xyz
  1  'x, y, z'
loop_
 _atom_site_type_symbol
 _atom_site_label
 _atom_site_symmetry_multiplicity
 _atom_site_fract_x
 _atom_site_fract_y
 _atom_site_fract_z
 _atom_site_occupancy
  Na  Na0  1  0.31306019  0.18979672  0.85439500  1
  Na  Na1  1  0.31306019  0.81020328  0.35439500  1
  Ag  Ag2  1  0.70225601  0.32328634  0.15714180  1
  Ag  Ag3  1  0.70225601  0.67671366  0.65714180  1
  C  C4  1  0.88597788  0.28927526  0.43871722  1
  C  C5  1  0.88597788  0.71072474  0.93871722  1
  C  C6  1  0.10484309  0.18305605  0.55881301  1
  C  C7  1  0.10484309  0.81694395  0.05881301  1
  O  O8  1  0.27480783  0.02394735  0.04833711  1
  O  O9  1  0.27480783  0.97605265  0.54833711  1
  O  O10  1  0.76958590  0.48608390  0.93795576  1
  O  O11  1  0.76958590  0.51391610  0.43795576  1
  O  O12  1  0.10123293  0.68988504  0.15563896  1
  O  O13  1  0.10123293  0.31011496  0.65563896  1
  O  O14  1  0.84828617  0.86230592  0.84899114  1
  O  O15  1  0.84828617  0.13769408  0.34899114  1
