# generated using pymatgen
data_Li3V3(BO5)2
_symmetry_space_group_name_H-M   'P 1'
_cell_length_a   9.43392813
_cell_length_b   12.06467373
_cell_length_c   2.99295924
_cell_angle_alpha   90.01283956
_cell_angle_beta   89.86972452
_cell_angle_gamma   89.15432383
_symmetry_Int_Tables_number   1
_chemical_formula_structural   Li3V3(BO5)2
_chemical_formula_sum   'Li6 V6 B4 O20'
_cell_volume   340.61243794
_cell_formula_units_Z   2
loop_
 _symmetry_equiv_pos_site_id
 _symmetry_equiv_pos_as_xyz
  1  'x, y, z'
loop_
 _atom_site_type_symbol
 _atom_site_label
 _atom_site_symmetry_multiplicity
 _atom_site_fract_x
 _atom_site_fract_y
 _atom_site_fract_z
 _atom_site_occupancy
  Li  Li0  1  0.00798422  0.00311615  0.00040778  1
  Li  Li1  1  0.99844075  0.27584526  0.99996429  1
  Li  Li2  1  0.49980184  0.49649277  0.00000011  1
  Li  Li3  1  0.50565405  0.01262719  0.50010272  1
  Li  Li4  1  0.50484589  0.21077940  0.99994236  1
  Li  Li5  1  0.00013936  0.72180964  0.00020221  1
  V  V6  1  0.99562897  0.49899305  0.50016009  1
  V  V7  1  0.24386944  0.11381217  0.49906087  1
  V  V8  1  0.26245080  0.61196435  0.49990649  1
  V  V9  1  0.50436836  0.78677182  0.99960828  1
  V  V10  1  0.73553305  0.38003848  0.50059823  1
  V  V11  1  0.77073105  0.89782814  0.49371803  1
  B  B12  1  0.23131484  0.85873086  0.49989817  1
  B  B13  1  0.26361163  0.36174370  0.49987995  1
  B  B14  1  0.72873487  0.63263198  0.50024466  1
  B  B15  1  0.76261591  0.14185792  0.49972417  1
  O  O16  1  0.12223369  0.14548656  0.00036435  1
  O  O17  1  0.12036569  0.57022496  0.00004612  1
  O  O18  1  0.11729160  0.36544191  0.49988027  1
  O  O19  1  0.16177725  0.75791339  0.50016088  1
  O  O20  1  0.15875571  0.95704301  0.50033160  1
  O  O21  1  0.34106068  0.46127341  0.49974541  1
  O  O22  1  0.33525524  0.26180119  0.49988805  1
  O  O23  1  0.38267135  0.85410114  0.49912207  1
  O  O24  1  0.36761637  0.07313949  0.00024581  1
  O  O25  1  0.38546653  0.65153053  0.99945791  1
  O  O26  1  0.62459561  0.35342232  0.99982218  1
  O  O27  1  0.62544943  0.91999403  0.99512845  1
  O  O28  1  0.62091682  0.14200999  0.49922269  1
  O  O29  1  0.65101820  0.73618292  0.49991148  1
  O  O30  1  0.65092832  0.53791216  0.49977165  1
  O  O31  1  0.84683523  0.04253034  0.50439564  1
  O  O32  1  0.84080562  0.24040472  0.49993187  1
  O  O33  1  0.87383351  0.63722690  0.50075031  1
  O  O34  1  0.87744231  0.43068608  0.00033084  1
  O  O35  1  0.87995680  0.85663606  0.00807200  1
