# generated using pymatgen
data_Li3V(BO3)2
_symmetry_space_group_name_H-M   'P 1'
_cell_length_a   6.04765815
_cell_length_b   7.75278546
_cell_length_c   9.70772230
_cell_angle_alpha   90.00000000
_cell_angle_beta   84.51582373
_cell_angle_gamma   90.00000000
_symmetry_Int_Tables_number   1
_chemical_formula_structural   Li3V(BO3)2
_chemical_formula_sum   'Li12 V4 B8 O24'
_cell_volume   453.07474502
_cell_formula_units_Z   4
loop_
 _symmetry_equiv_pos_site_id
 _symmetry_equiv_pos_as_xyz
  1  'x, y, z'
loop_
 _atom_site_type_symbol
 _atom_site_label
 _atom_site_symmetry_multiplicity
 _atom_site_fract_x
 _atom_site_fract_y
 _atom_site_fract_z
 _atom_site_occupancy
  Li  Li0  1  0.02125388  0.79352365  0.37356687  1
  Li  Li1  1  0.02067968  0.69689105  0.93330658  1
  Li  Li2  1  0.16495450  0.94705245  0.11559958  1
  Li  Li3  1  0.33504550  0.44705245  0.38440042  1
  Li  Li4  1  0.47874612  0.29352365  0.12643313  1
  Li  Li5  1  0.52067968  0.80310895  0.43330658  1
  Li  Li6  1  0.47932032  0.19689105  0.56669342  1
  Li  Li7  1  0.52125388  0.70647635  0.87356687  1
  Li  Li8  1  0.66495450  0.55294755  0.61559958  1
  Li  Li9  1  0.83504550  0.05294755  0.88440042  1
  Li  Li10  1  0.97932032  0.30310895  0.06669342  1
  Li  Li11  1  0.97874612  0.20647635  0.62643313  1
  V  V12  1  0.23641183  0.87257179  0.67359768  1
  V  V13  1  0.26358817  0.37257179  0.82640232  1
  V  V14  1  0.73641183  0.62742821  0.17359768  1
  V  V15  1  0.76358817  0.12742821  0.32640232  1
  B  B16  1  0.24032385  0.59009948  0.12528245  1
  B  B17  1  0.19458792  0.55720684  0.61176949  1
  B  B18  1  0.25967615  0.09009948  0.37471755  1
  B  B19  1  0.30541208  0.05720684  0.88823051  1
  B  B20  1  0.69458792  0.94279316  0.11176949  1
  B  B21  1  0.74032385  0.90990052  0.62528245  1
  B  B22  1  0.80541208  0.44279316  0.38823051  1
  B  B23  1  0.75967615  0.40990052  0.87471755  1
  O  O24  1  0.07202523  0.70662923  0.16929991  1
  O  O25  1  0.09275700  0.04775965  0.29355467  1
  O  O26  1  0.23389369  0.51804674  0.99575120  1
  O  O27  1  0.21688455  0.67685708  0.50708721  1
  O  O28  1  0.13611834  0.61940014  0.74399512  1
  O  O29  1  0.26610631  0.01804674  0.50424880  1
  O  O30  1  0.25253769  0.38693216  0.59964341  1
  O  O31  1  0.24746231  0.88693216  0.90035659  1
  O  O32  1  0.36388166  0.11940014  0.75600488  1
  O  O33  1  0.28311545  0.17685708  0.99291279  1
  O  O34  1  0.40724300  0.54775965  0.20644533  1
  O  O35  1  0.42797477  0.20662923  0.33070009  1
  O  O36  1  0.57202523  0.79337077  0.66929991  1
  O  O37  1  0.59275700  0.45224035  0.79355467  1
  O  O38  1  0.71688455  0.82314292  0.00708721  1
  O  O39  1  0.63611834  0.88059986  0.24399512  1
  O  O40  1  0.75253769  0.11306784  0.09964341  1
  O  O41  1  0.74746231  0.61306784  0.40035659  1
  O  O42  1  0.73389369  0.98195326  0.49575120  1
  O  O43  1  0.86388166  0.38059986  0.25600488  1
  O  O44  1  0.78311545  0.32314292  0.49291279  1
  O  O45  1  0.76610631  0.48195326  0.00424880  1
  O  O46  1  0.90724300  0.95224035  0.70644533  1
  O  O47  1  0.92797477  0.29337077  0.83070009  1
