# generated using pymatgen
data_Li4Ti2V3Ni3O16
_symmetry_space_group_name_H-M   'P 1'
_cell_length_a   5.89264094
_cell_length_b   5.86395704
_cell_length_c   9.60855577
_cell_angle_alpha   90.03819498
_cell_angle_beta   90.50351032
_cell_angle_gamma   119.74600246
_symmetry_Int_Tables_number   1
_chemical_formula_structural   Li4Ti2V3Ni3O16
_chemical_formula_sum   'Li4 Ti2 V3 Ni3 O16'
_cell_volume   288.25133691
_cell_formula_units_Z   1
loop_
 _symmetry_equiv_pos_site_id
 _symmetry_equiv_pos_as_xyz
  1  'x, y, z'
loop_
 _atom_site_type_symbol
 _atom_site_label
 _atom_site_symmetry_multiplicity
 _atom_site_fract_x
 _atom_site_fract_y
 _atom_site_fract_z
 _atom_site_occupancy
  Li  Li0  1  0.31723123  0.65876206  0.89600826  1
  Li  Li1  1  0.99831971  0.99439577  0.98873490  1
  Li  Li2  1  0.00451978  0.00211446  0.49799435  1
  Li  Li3  1  0.66311834  0.33962638  0.40445114  1
  Ti  Ti4  1  0.33562801  0.66518649  0.51027740  1
  Ti  Ti5  1  0.71280095  0.35962067  0.99002420  1
  V  V6  1  0.18860017  0.83237669  0.22687496  1
  V  V7  1  0.18716095  0.33936586  0.21245508  1
  V  V8  1  0.36092109  0.17711420  0.73490093  1
  Ni  Ni9  1  0.66383798  0.83051001  0.20573501  1
  Ni  Ni10  1  0.83119370  0.66140682  0.70822040  1
  Ni  Ni11  1  0.83150315  0.16963819  0.70799255  1
  O  O12  1  0.18009692  0.83679096  0.59496907  1
  O  O13  1  0.02920134  0.53146413  0.33065489  1
  O  O14  1  0.30721940  0.66877522  0.10258610  1
  O  O15  1  0.01322564  0.99429000  0.30517649  1
  O  O16  1  0.02714268  0.01347702  0.79963985  1
  O  O17  1  0.17708480  0.34237024  0.59447231  1
  O  O18  1  0.46856936  0.96751989  0.33532005  1
  O  O19  1  0.45463621  0.50088525  0.33447830  1
  O  O20  1  0.32655310  0.15620441  0.10416187  1
  O  O21  1  0.66220866  0.83019603  0.58628530  1
  O  O22  1  0.49566998  0.46484202  0.84500467  1
  O  O23  1  0.49748128  0.02850369  0.84395721  1
  O  O24  1  0.62399037  0.31229022  0.60633509  1
  O  O25  1  0.83786943  0.66548024  0.09298328  1
  O  O26  1  0.95158233  0.47535100  0.85026364  1
  O  O27  1  0.85263642  0.18174110  0.09788668  1
