# generated using pymatgen
data_Li4Mn2Co3Sb3O16
_symmetry_space_group_name_H-M   'P 1'
_cell_length_a   6.05961981
_cell_length_b   6.10976182
_cell_length_c   9.76103822
_cell_angle_alpha   89.88298614
_cell_angle_beta   91.99200150
_cell_angle_gamma   119.39421192
_symmetry_Int_Tables_number   1
_chemical_formula_structural   Li4Mn2Co3Sb3O16
_chemical_formula_sum   'Li4 Mn2 Co3 Sb3 O16'
_cell_volume   314.62121400
_cell_formula_units_Z   1
loop_
 _symmetry_equiv_pos_site_id
 _symmetry_equiv_pos_as_xyz
  1  'x, y, z'
loop_
 _atom_site_type_symbol
 _atom_site_label
 _atom_site_symmetry_multiplicity
 _atom_site_fract_x
 _atom_site_fract_y
 _atom_site_fract_z
 _atom_site_occupancy
  Li  Li0  1  0.33048582  0.65607656  0.88183904  1
  Li  Li1  1  0.96419862  0.99202212  0.98756186  1
  Li  Li2  1  0.97453862  0.99041944  0.50262395  1
  Li  Li3  1  0.65608280  0.32983306  0.40162985  1
  Mn  Mn4  1  0.34631221  0.67810050  0.50060431  1
  Mn  Mn5  1  0.68912537  0.34181651  0.98015714  1
  Co  Co6  1  0.66653246  0.83908528  0.21625614  1
  Co  Co7  1  0.83154898  0.65626726  0.70947460  1
  Co  Co8  1  0.83849418  0.17151863  0.71785277  1
  Sb  Sb9  1  0.17549288  0.84337686  0.21335176  1
  Sb  Sb10  1  0.17613207  0.34975830  0.21425993  1
  Sb  Sb11  1  0.33869111  0.15735134  0.71455685  1
  O  O12  1  0.16757359  0.83989951  0.59638207  1
  O  O13  1  0.03972861  0.52759650  0.33710558  1
  O  O14  1  0.31733154  0.66415519  0.09935405  1
  O  O15  1  0.02184054  0.02218781  0.31729147  1
  O  O16  1  0.01001686  -0.00406307  0.80867915  1
  O  O17  1  0.16234546  0.31206005  0.60481194  1
  O  O18  1  0.48295756  0.97886436  0.32978262  1
  O  O19  1  0.48013364  0.51791163  0.33692185  1
  O  O20  1  0.31575678  0.16720716  0.09967037  1
  O  O21  1  0.66540771  0.83622918  0.60409177  1
  O  O22  1  0.51908253  0.46076265  0.84976470  1
  O  O23  1  0.51247482  0.02085139  0.83943191  1
  O  O24  1  0.65095887  0.31520833  0.60466785  1
  O  O25  1  0.85453164  0.69537318  0.10291565  1
  O  O26  1  0.96118476  0.45672651  0.83643519  1
  O  O27  1  0.85103995  0.18370376  0.10036565  1
