# generated using pymatgen
data_LiFeAsCO7
_symmetry_space_group_name_H-M   'P 1'
_cell_length_a   8.82889318
_cell_length_b   6.64403350
_cell_length_c   5.26499948
_cell_angle_alpha   90.00000000
_cell_angle_beta   85.48905676
_cell_angle_gamma   90.00000000
_symmetry_Int_Tables_number   1
_chemical_formula_structural   LiFeAsCO7
_chemical_formula_sum   'Li2 Fe2 As2 C2 O14'
_cell_volume   307.88534652
_cell_formula_units_Z   2
loop_
 _symmetry_equiv_pos_site_id
 _symmetry_equiv_pos_as_xyz
  1  'x, y, z'
loop_
 _atom_site_type_symbol
 _atom_site_label
 _atom_site_symmetry_multiplicity
 _atom_site_fract_x
 _atom_site_fract_y
 _atom_site_fract_z
 _atom_site_occupancy
  Li  Li0  1  0.21726491  0.51239959  0.21157681  1
  Li  Li1  1  0.78273509  0.01239959  0.78842319  1
  Fe  Fe2  1  0.34621363  0.75455712  0.79791985  1
  Fe  Fe3  1  0.65378637  0.25455712  0.20208015  1
  As  As4  1  0.42227748  0.24591242  0.72660074  1
  As  As5  1  0.57772252  0.74591242  0.27339926  1
  C  C6  1  0.06404623  0.74854653  0.72676515  1
  C  C7  1  0.93595377  0.24854653  0.27323485  1
  O  O8  1  0.07345220  0.28478063  0.30340046  1
  O  O9  1  0.11639374  0.74485818  0.95137009  1
  O  O10  1  0.16537945  0.71981437  0.53897081  1
  O  O11  1  0.30993229  0.04225844  0.79412961  1
  O  O12  1  0.31876705  0.45044070  0.83191811  1
  O  O13  1  0.40321332  0.73070237  0.14813888  1
  O  O14  1  0.46290679  0.26357866  0.39918556  1
  O  O15  1  0.53709321  0.76357866  0.60081444  1
  O  O16  1  0.59678668  0.23070237  0.85186112  1
  O  O17  1  0.68123295  0.95044070  0.16808189  1
  O  O18  1  0.69006771  0.54225844  0.20587039  1
  O  O19  1  0.83462055  0.21981437  0.46102919  1
  O  O20  1  0.88360626  0.24485818  0.04862991  1
  O  O21  1  0.92654780  0.78478063  0.69659954  1
