# generated using pymatgen
data_Li3V3FeO8
_symmetry_space_group_name_H-M   'P 1'
_cell_length_a   10.42410902
_cell_length_b   10.35933611
_cell_length_c   14.71659058
_cell_angle_alpha   19.22791008
_cell_angle_beta   19.42746840
_cell_angle_gamma   33.20799065
_symmetry_Int_Tables_number   1
_chemical_formula_structural   Li3V3FeO8
_chemical_formula_sum   'Li3 V3 Fe1 O8'
_cell_volume   151.66407312
_cell_formula_units_Z   1
loop_
 _symmetry_equiv_pos_site_id
 _symmetry_equiv_pos_as_xyz
  1  'x, y, z'
loop_
 _atom_site_type_symbol
 _atom_site_label
 _atom_site_symmetry_multiplicity
 _atom_site_fract_x
 _atom_site_fract_y
 _atom_site_fract_z
 _atom_site_occupancy
  Li  Li0  1  0.99999443  0.50000437  0.50000537  1
  Li  Li1  1  0.49999946  0.99998452  0.50001618  1
  Li  Li2  1  0.49998248  0.49997322  0.50003415  1
  V  V3  1  -0.00003747  0.49985774  0.00011771  1
  V  V4  1  0.49984338  0.00003060  0.00007948  1
  V  V5  1  0.50015154  0.50026082  -0.00027442  1
  Fe  Fe6  1  0.00012675  -0.00001441  -0.00011985  1
  O  O7  1  0.98620918  0.98838670  0.27336477  1
  O  O8  1  0.00698375  0.49944631  0.25593505  1
  O  O9  1  0.51176202  0.03214809  0.23135305  1
  O  O10  1  0.01377397  0.01159802  0.72667311  1
  O  O11  1  0.49468358  0.48827685  0.27351979  1
  O  O12  1  0.99299489  0.50051622  0.74411279  1
  O  O13  1  0.48822943  0.96782769  0.76867089  1
  O  O14  1  0.50530062  0.51170227  0.72651093  1
