# generated using pymatgen
data_LiVTe2WO12
_symmetry_space_group_name_H-M   'P 1'
_cell_length_a   5.28614376
_cell_length_b   10.60654256
_cell_length_c   9.29111209
_cell_angle_alpha   28.97450313
_cell_angle_beta   52.59109105
_cell_angle_gamma   57.86933793
_symmetry_Int_Tables_number   1
_chemical_formula_structural   LiVTe2WO12
_chemical_formula_sum   'Li1 V1 Te2 W1 O12'
_cell_volume   200.44640249
_cell_formula_units_Z   1
loop_
 _symmetry_equiv_pos_site_id
 _symmetry_equiv_pos_as_xyz
  1  'x, y, z'
loop_
 _atom_site_type_symbol
 _atom_site_label
 _atom_site_symmetry_multiplicity
 _atom_site_fract_x
 _atom_site_fract_y
 _atom_site_fract_z
 _atom_site_occupancy
  Li  Li0  1  0.76429420  0.50054034  0.78649643  1
  V  V1  1  0.98189977  0.50844829  0.00055888  1
  Te  Te2  1  0.49599019  0.49803390  0.50081243  1
  Te  Te3  1  0.49663642  0.00744331  0.48784184  1
  W  W4  1  0.00285371  0.99456882  0.99613335  1
  O  O5  1  0.35797617  0.30372903  0.13068069  1
  O  O6  1  0.24205726  0.10785112  0.63918104  1
  O  O7  1  0.12274092  0.31268998  0.74233529  1
  O  O8  1  0.84869401  0.21376579  0.22521519  1
  O  O9  1  0.36298035  0.80835663  0.13160722  1
  O  O10  1  0.74014668  0.39336063  0.35207073  1
  O  O11  1  0.24661250  0.60448002  0.64051792  1
  O  O12  1  0.64001901  0.18880953  0.85944568  1
  O  O13  1  0.14290083  0.79292672  0.75370555  1
  O  O14  1  0.86422141  0.68665316  0.25425309  1
  O  O15  1  0.74958391  0.88073919  0.36358912  1
  O  O16  1  0.64759267  0.69760355  0.84275655  1
