# generated using pymatgen
data_Mg(CoO2)2
_symmetry_space_group_name_H-M   'P 1'
_cell_length_a   4.86922796
_cell_length_b   5.61676534
_cell_length_c   10.02387833
_cell_angle_alpha   90.00106419
_cell_angle_beta   89.99467164
_cell_angle_gamma   90.00065545
_symmetry_Int_Tables_number   1
_chemical_formula_structural   Mg(CoO2)2
_chemical_formula_sum   'Mg4 Co8 O16'
_cell_volume   274.14616279
_cell_formula_units_Z   4
loop_
 _symmetry_equiv_pos_site_id
 _symmetry_equiv_pos_as_xyz
  1  'x, y, z'
loop_
 _atom_site_type_symbol
 _atom_site_label
 _atom_site_symmetry_multiplicity
 _atom_site_fract_x
 _atom_site_fract_y
 _atom_site_fract_z
 _atom_site_occupancy
  Mg  Mg0  1  0.85480504  0.25000806  0.75000141  1
  Mg  Mg1  1  0.14517859  0.74999090  0.24998649  1
  Mg  Mg2  1  0.53013117  0.24999900  0.25000745  1
  Mg  Mg3  1  0.46988929  0.74999952  0.75000264  1
  Co  Co4  1  0.50839193  0.74999858  0.49084192  1
  Co  Co5  1  0.50841309  0.74999854  0.00915607  1
  Co  Co6  1  0.49159538  0.25000117  0.50915691  1
  Co  Co7  1  0.49160019  0.25000202  0.99084228  1
  Co  Co8  1  0.99999564  0.50000195  0.49999831  1
  Co  Co9  1  0.00000622  -0.00001072  0.00000001  1
  Co  Co10  1  0.99999560  -0.00000231  0.49999841  1
  Co  Co11  1  0.00000628  0.50001177  -0.00000012  1
  O  O12  1  0.84924539  0.74999391  0.39549136  1
  O  O13  1  0.84917723  0.75000091  0.10451415  1
  O  O14  1  0.15073925  0.25000621  0.60450186  1
  O  O15  1  0.15078849  0.24999990  0.89548920  1
  O  O16  1  0.18407691  0.75000360  0.59655252  1
  O  O17  1  0.18414567  0.74999476  0.90345992  1
  O  O18  1  0.81592035  0.24999550  0.40344901  1
  O  O19  1  0.81589500  0.25000650  0.09653926  1
  O  O20  1  0.66600553  0.50161504  0.60804342  1
  O  O21  1  0.66602005  0.99836425  0.89195253  1
  O  O22  1  0.33398845  0.00160444  0.39195846  1
  O  O23  1  0.33398063  0.49843440  0.10805608  1
  O  O24  1  0.33398404  0.49838431  0.39195465  1
  O  O25  1  0.33399247  0.00156860  0.10805473  1
  O  O26  1  0.66600058  0.99839572  0.60804017  1
  O  O27  1  0.66603154  0.50163346  0.89195090  1
