# generated using pymatgen
data_NaAg(CO2)2
_symmetry_space_group_name_H-M   'P 1'
_cell_length_a   3.55207864
_cell_length_b   5.31340631
_cell_length_c   11.07878301
_cell_angle_alpha   88.35962602
_cell_angle_beta   84.65633321
_cell_angle_gamma   88.36330282
_symmetry_Int_Tables_number   1
_chemical_formula_structural   NaAg(CO2)2
_chemical_formula_sum   'Na2 Ag2 C4 O8'
_cell_volume   208.03242178
_cell_formula_units_Z   2
loop_
 _symmetry_equiv_pos_site_id
 _symmetry_equiv_pos_as_xyz
  1  'x, y, z'
loop_
 _atom_site_type_symbol
 _atom_site_label
 _atom_site_symmetry_multiplicity
 _atom_site_fract_x
 _atom_site_fract_y
 _atom_site_fract_z
 _atom_site_occupancy
  Na  Na0  1  0.28205933  0.43697197  0.14402404  1
  Na  Na1  1  0.71794067  0.56302803  0.85597596  1
  Ag  Ag2  1  0.65956210  0.93058065  0.33716794  1
  Ag  Ag3  1  0.34043790  0.06941935  0.66283206  1
  C  C4  1  0.10710387  0.43992498  0.44216380  1
  C  C5  1  0.89289613  0.56007502  0.55783620  1
  C  C6  1  0.88223689  0.95305566  0.05970338  1
  C  C7  1  0.11776311  0.04694434  0.94029662  1
  O  O8  1  0.16968644  0.88839762  0.85577180  1
  O  O9  1  0.83031356  0.11160238  0.14422820  1
  O  O10  1  0.23602157  0.26939195  0.93677727  1
  O  O11  1  0.76397843  0.73060805  0.06322273  1
  O  O12  1  0.91033455  0.44527274  0.65943155  1
  O  O13  1  0.08966545  0.55472726  0.34056845  1
  O  O14  1  0.71326757  0.76602273  0.54153111  1
  O  O15  1  0.28673243  0.23397727  0.45846889  1
