# generated using pymatgen
data_Li2TiMn2O5
_symmetry_space_group_name_H-M   'P 1'
_cell_length_a   5.30964151
_cell_length_b   8.05298565
_cell_length_c   5.33009533
_cell_angle_alpha   96.60346241
_cell_angle_beta   110.41483141
_cell_angle_gamma   70.75155583
_symmetry_Int_Tables_number   1
_chemical_formula_structural   Li2TiMn2O5
_chemical_formula_sum   'Li4 Ti2 Mn4 O10'
_cell_volume   201.65203683
_cell_formula_units_Z   2
loop_
 _symmetry_equiv_pos_site_id
 _symmetry_equiv_pos_as_xyz
  1  'x, y, z'
loop_
 _atom_site_type_symbol
 _atom_site_label
 _atom_site_symmetry_multiplicity
 _atom_site_fract_x
 _atom_site_fract_y
 _atom_site_fract_z
 _atom_site_occupancy
  Li  Li0  1  0.09904740  0.80188114  0.49995324  1
  Li  Li1  1  0.50338402  0.99315229  0.49996296  1
  Li  Li2  1  0.60145526  0.79712282  0.00000778  1
  Li  Li3  1  0.79330950  0.41348957  0.00003476  1
  Ti  Ti4  1  0.68719510  0.62561126  0.50000964  1
  Ti  Ti5  1  0.99649281  0.00692404  0.99995487  1
  Mn  Mn6  1  0.90236808  0.19527431  0.49998740  1
  Mn  Mn7  1  0.29856837  0.40286026  0.49999894  1
  Mn  Mn8  1  0.19715639  0.60588323  0.99994071  1
  Mn  Mn9  1  0.40246173  0.19504750  0.99999098  1
  O  O10  1  0.84149438  0.79817651  0.74178269  1
  O  O11  1  0.67014130  0.17736200  0.76298131  1
  O  O12  1  0.47618568  0.60016106  0.72345507  1
  O  O13  1  0.92360180  0.60016484  0.27660939  1
  O  O14  1  0.03485548  0.41223590  0.73946914  1
  O  O15  1  0.22367032  0.99342889  0.77843787  1
  O  O16  1  0.36031823  0.79816224  0.25828238  1
  O  O17  1  0.78285522  0.99344540  0.22153960  1
  O  O18  1  0.55296728  0.41224500  0.26060570  1
  O  O19  1  0.15247264  0.17737175  0.23699557  1
