# generated using pymatgen
data_Li3Fe5O9
_symmetry_space_group_name_H-M   'P 1'
_cell_length_a   8.82577882
_cell_length_b   8.82577882
_cell_length_c   5.36159290
_cell_angle_alpha   89.44187335
_cell_angle_beta   90.55812665
_cell_angle_gamma   99.24915162
_symmetry_Int_Tables_number   1
_chemical_formula_structural   Li3Fe5O9
_chemical_formula_sum   'Li6 Fe10 O18'
_cell_volume   412.17439626
_cell_formula_units_Z   2
loop_
 _symmetry_equiv_pos_site_id
 _symmetry_equiv_pos_as_xyz
  1  'x, y, z'
loop_
 _atom_site_type_symbol
 _atom_site_label
 _atom_site_symmetry_multiplicity
 _atom_site_fract_x
 _atom_site_fract_y
 _atom_site_fract_z
 _atom_site_occupancy
  Li  Li0  1  0.32713281  0.82307836  0.21647935  1
  Li  Li1  1  0.17692164  0.67286719  0.71647935  1
  Li  Li2  1  0.59524352  0.59524352  0.25000000  1
  Li  Li3  1  0.40475648  0.40475648  0.75000000  1
  Li  Li4  1  0.82307836  0.32713281  0.28352065  1
  Li  Li5  1  0.67286719  0.17692164  0.78352065  1
  Fe  Fe6  1  0.69221627  0.97666144  0.21104524  1
  Fe  Fe7  1  0.02333856  0.30778373  0.71104524  1
  Fe  Fe8  1  0.21806267  0.45533389  0.20666460  1
  Fe  Fe9  1  0.54466611  0.78193733  0.70666560  1
  Fe  Fe10  1  0.06795751  0.06795751  0.25000000  1
  Fe  Fe11  1  0.93204249  0.93204249  0.75000000  1
  Fe  Fe12  1  0.45533389  0.21806267  0.29333540  1
  Fe  Fe13  1  0.78193733  0.54466611  0.79333440  1
  Fe  Fe14  1  0.97666144  0.69221627  0.28895476  1
  Fe  Fe15  1  0.30778373  0.02333856  0.78895476  1
  O  O16  1  0.01811062  0.86231926  0.07774840  1
  O  O17  1  0.13768074  0.98188938  0.57774840  1
  O  O18  1  0.17967866  0.64283182  0.34461457  1
  O  O19  1  0.35716818  0.82032134  0.84461457  1
  O  O20  1  0.54343616  0.81540929  0.34995851  1
  O  O21  1  0.18459071  0.45656384  0.84995851  1
  O  O22  1  0.08497176  0.28859087  0.36702380  1
  O  O23  1  0.71140913  0.91502824  0.86702380  1
  O  O24  1  0.42508597  0.42508597  0.25000000  1
  O  O25  1  0.57491403  0.57491403  0.75000000  1
  O  O26  1  0.28859087  0.08497176  0.13297620  1
  O  O27  1  0.91502824  0.71140913  0.63297620  1
  O  O28  1  0.81540929  0.54343616  0.15004149  1
  O  O29  1  0.45656384  0.18459071  0.65004149  1
  O  O30  1  0.64283182  0.17967866  0.15538543  1
  O  O31  1  0.82032134  0.35716818  0.65538543  1
  O  O32  1  0.86231926  0.01811062  0.42225160  1
  O  O33  1  0.98188938  0.13768074  0.92225160  1
