# generated using pymatgen
data_La2MgI8
_symmetry_space_group_name_H-M   'P 1'
_cell_length_a   9.46298138
_cell_length_b   9.46298138
_cell_length_c   13.54212811
_cell_angle_alpha   69.02008432
_cell_angle_beta   110.97991568
_cell_angle_gamma   118.43047740
_symmetry_Int_Tables_number   1
_chemical_formula_structural   La2MgI8
_chemical_formula_sum   'La4 Mg2 I16'
_cell_volume   969.38864270
_cell_formula_units_Z   2
loop_
 _symmetry_equiv_pos_site_id
 _symmetry_equiv_pos_as_xyz
  1  'x, y, z'
loop_
 _atom_site_type_symbol
 _atom_site_label
 _atom_site_symmetry_multiplicity
 _atom_site_fract_x
 _atom_site_fract_y
 _atom_site_fract_z
 _atom_site_occupancy
  La  La0  1  0.43736753  0.98273907  0.68951637  1
  La  La1  1  0.01726093  0.56263247  0.18951637  1
  La  La2  1  0.98273907  0.43736753  0.81048363  1
  La  La3  1  0.56263247  0.01726093  0.31048363  1
  Mg  Mg4  1  0.99084561  0.99084561  0.75000000  1
  Mg  Mg5  1  0.00915439  0.00915439  0.25000000  1
  I  I6  1  0.37390753  0.63431025  0.86221018  1
  I  I7  1  0.80148291  0.03850441  0.87483263  1
  I  I8  1  0.07093302  0.33421458  0.64872187  1
  I  I9  1  0.65600995  0.89607651  0.59430351  1
  I  I10  1  0.36568975  0.62609247  0.36221018  1
  I  I11  1  0.96149559  0.19851709  0.37483263  1
  I  I12  1  0.66578542  0.92906698  0.14872187  1
  I  I13  1  0.10392349  0.34399005  0.09430351  1
  I  I14  1  0.89607651  0.65600995  0.90569649  1
  I  I15  1  0.33421458  0.07093302  0.85127813  1
  I  I16  1  0.03850441  0.80148291  0.62516737  1
  I  I17  1  0.63431025  0.37390753  0.63778982  1
  I  I18  1  0.34399005  0.10392349  0.40569649  1
  I  I19  1  0.92906698  0.66578542  0.35127813  1
  I  I20  1  0.19851709  0.96149559  0.12516737  1
  I  I21  1  0.62609247  0.36568975  0.13778982  1
