# generated using pymatgen
data_Li2Cr2O7
_symmetry_space_group_name_H-M   'P 1'
_cell_length_a   6.44121535
_cell_length_b   6.44121535
_cell_length_c   13.92075371
_cell_angle_alpha   90.00000000
_cell_angle_beta   90.00000000
_cell_angle_gamma   62.39191105
_symmetry_Int_Tables_number   1
_chemical_formula_structural   Li2Cr2O7
_chemical_formula_sum   'Li8 Cr8 O28'
_cell_volume   511.79946715
_cell_formula_units_Z   4
loop_
 _symmetry_equiv_pos_site_id
 _symmetry_equiv_pos_as_xyz
  1  'x, y, z'
loop_
 _atom_site_type_symbol
 _atom_site_label
 _atom_site_symmetry_multiplicity
 _atom_site_fract_x
 _atom_site_fract_y
 _atom_site_fract_z
 _atom_site_occupancy
  Li  Li0  1  0.24497953  0.75502047  0.00000000  1
  Li  Li1  1  0.25502047  0.74497953  0.50000000  1
  Li  Li2  1  0.30946007  0.30946007  0.35751083  1
  Li  Li3  1  0.19053993  0.19053993  0.85751083  1
  Li  Li4  1  0.80946007  0.80946007  0.14248917  1
  Li  Li5  1  0.69053993  0.69053993  0.64248917  1
  Li  Li6  1  0.74497953  0.25502047  0.50000000  1
  Li  Li7  1  0.75502047  0.24497953  0.00000000  1
  Cr  Cr8  1  0.32683051  0.82683051  0.25000000  1
  Cr  Cr9  1  0.17316949  0.67316949  0.75000000  1
  Cr  Cr10  1  0.74820723  0.74820723  0.92052556  1
  Cr  Cr11  1  0.25179277  0.25179277  0.07947444  1
  Cr  Cr12  1  0.24820723  0.24820723  0.57947444  1
  Cr  Cr13  1  0.75179277  0.75179277  0.42052556  1
  Cr  Cr14  1  0.67316949  0.17316949  0.75000000  1
  Cr  Cr15  1  0.82683051  0.32683051  0.25000000  1
  O  O16  1  0.18276804  0.79133824  0.16129866  1
  O  O17  1  0.20866176  0.81723196  0.83870134  1
  O  O18  1  0.03572904  0.44221988  0.14875608  1
  O  O19  1  0.05778012  0.46427096  0.64875608  1
  O  O20  1  0.55778012  0.96427096  0.85124392  1
  O  O21  1  0.53572904  0.94221988  0.35124392  1
  O  O22  1  0.29133824  0.68276804  0.33870134  1
  O  O23  1  0.31723196  0.70866176  0.66129866  1
  O  O24  1  0.36157300  0.36157300  0.49866873  1
  O  O25  1  0.37453993  0.37453993  0.78347772  1
  O  O26  1  0.11555111  0.11555111  0.52482475  1
  O  O27  1  0.87453993  0.87453993  0.71652228  1
  O  O28  1  0.13842700  0.13842700  0.99866873  1
  O  O29  1  0.12546007  0.12546007  0.28347772  1
  O  O30  1  0.63842700  0.63842700  0.50133127  1
  O  O31  1  0.38444889  0.38444889  0.02482475  1
  O  O32  1  0.62546007  0.62546007  0.21652228  1
  O  O33  1  0.88444889  0.88444889  0.47517525  1
  O  O34  1  0.86157300  0.86157300  0.00133127  1
  O  O35  1  0.61555111  0.61555111  0.97517525  1
  O  O36  1  0.68276804  0.29133824  0.33870134  1
  O  O37  1  0.70866176  0.31723196  0.66129866  1
  O  O38  1  0.94221988  0.53572904  0.35124392  1
  O  O39  1  0.96427096  0.55778012  0.85124392  1
  O  O40  1  0.44221988  0.03572904  0.14875608  1
  O  O41  1  0.46427096  0.05778012  0.64875608  1
  O  O42  1  0.79133824  0.18276804  0.16129866  1
  O  O43  1  0.81723196  0.20866176  0.83870134  1
