# generated using pymatgen
data_Li6MnSn3(PO4)6
_symmetry_space_group_name_H-M   'P 1'
_cell_length_a   8.60685868
_cell_length_b   8.65457816
_cell_length_c   8.64029249
_cell_angle_alpha   64.13619205
_cell_angle_beta   64.26855974
_cell_angle_gamma   64.45725451
_symmetry_Int_Tables_number   1
_chemical_formula_structural   Li6MnSn3(PO4)6
_chemical_formula_sum   'Li6 Mn1 Sn3 P6 O24'
_cell_volume   497.95901240
_cell_formula_units_Z   1
loop_
 _symmetry_equiv_pos_site_id
 _symmetry_equiv_pos_as_xyz
  1  'x, y, z'
loop_
 _atom_site_type_symbol
 _atom_site_label
 _atom_site_symmetry_multiplicity
 _atom_site_fract_x
 _atom_site_fract_y
 _atom_site_fract_z
 _atom_site_occupancy
  Li  Li0  1  0.02154946  0.98539724  0.98101047  1
  Li  Li1  1  0.74725258  0.15551453  0.37147718  1
  Li  Li2  1  0.47616339  0.52123788  0.52217564  1
  Li  Li3  1  0.22159468  0.85874446  0.68093437  1
  Li  Li4  1  0.69041316  0.21947461  0.86357524  1
  Li  Li5  1  0.85885809  0.68590173  0.22015114  1
  Mn  Mn6  1  0.83933157  0.84042129  0.83790549  1
  Sn  Sn7  1  0.14648587  0.14817109  0.14392056  1
  Sn  Sn8  1  0.35927712  0.36247389  0.35430530  1
  Sn  Sn9  1  0.66386326  0.66101096  0.66270241  1
  P  P10  1  0.07434308  0.74589590  0.41777827  1
  P  P11  1  0.41696917  0.07126604  0.74535599  1
  P  P12  1  0.74824742  0.42383243  0.06636725  1
  P  P13  1  0.24305029  0.55406302  0.95872164  1
  P  P14  1  0.55969035  0.96601644  0.24459215  1
  P  P15  1  0.95442180  0.24137135  0.54908054  1
  O  O16  1  0.12148766  0.30301631  0.48769138  1
  O  O17  1  0.31990939  0.51553399  0.10874968  1
  O  O18  1  0.09917321  0.90595575  0.23814473  1
  O  O19  1  0.54580260  0.11232477  0.31543978  1
  O  O20  1  0.26293023  0.59847493  0.41739999  1
  O  O21  1  0.01310614  0.80412646  0.58434913  1
  O  O22  1  0.23760953  0.10341463  0.90232993  1
  O  O23  1  0.42425882  0.25771943  0.59251621  1
  O  O24  1  0.60538597  0.41357455  0.26092182  1
  O  O25  1  0.17093466  0.39800689  0.00929829  1
  O  O26  1  0.08571905  0.73358491  0.95089172  1
  O  O27  1  0.38577921  0.03301009  0.19317921  1
  O  O28  1  0.58738249  0.00995057  0.79907700  1
  O  O29  1  0.89891595  0.23778884  0.10335175  1
  O  O30  1  0.80511535  0.58941707  0.00932675  1
  O  O31  1  0.38526580  0.57623487  0.76824546  1
  O  O32  1  0.57912215  0.77565396  0.38427941  1
  O  O33  1  0.73109412  0.95673200  0.07768305  1
  O  O34  1  0.96848221  0.18347217  0.39401053  1
  O  O35  1  0.76953912  0.38691793  0.58510546  1
  O  O36  1  0.40146767  0.94058650  0.68129232  1
  O  O37  1  0.95656215  0.08053293  0.72574147  1
  O  O38  1  0.68178434  0.41340613  0.93460721  1
  O  O39  1  0.94166090  0.67877044  0.40731009  1
