# generated using pymatgen
data_Li4FeTe(WO6)2
_symmetry_space_group_name_H-M   'P 1'
_cell_length_a   5.49377628
_cell_length_b   10.99320821
_cell_length_c   9.69688234
_cell_angle_alpha   28.27885312
_cell_angle_beta   51.29265349
_cell_angle_gamma   56.60277329
_symmetry_Int_Tables_number   1
_chemical_formula_structural   Li4FeTe(WO6)2
_chemical_formula_sum   'Li4 Fe1 Te1 W2 O12'
_cell_volume   216.51018369
_cell_formula_units_Z   1
loop_
 _symmetry_equiv_pos_site_id
 _symmetry_equiv_pos_as_xyz
  1  'x, y, z'
loop_
 _atom_site_type_symbol
 _atom_site_label
 _atom_site_symmetry_multiplicity
 _atom_site_fract_x
 _atom_site_fract_y
 _atom_site_fract_z
 _atom_site_occupancy
  Li  Li0  1  0.32245982  0.00101948  0.26565670  1
  Li  Li1  1  0.25047166  0.49631340  0.30941329  1
  Li  Li2  1  0.77647988  0.99438099  0.81066729  1
  Li  Li3  1  0.76538936  0.50757837  0.72560227  1
  Fe  Fe4  1  0.01253098  0.00052428  0.00195112  1
  Te  Te5  1  0.99949678  0.49732461  0.00929678  1
  W  W6  1  0.50542371  0.99564050  0.50681092  1
  W  W7  1  0.49744898  0.50348518  0.50041139  1
  O  O8  1  0.38605213  0.30867077  0.11778695  1
  O  O9  1  0.25402641  0.12237172  0.61317386  1
  O  O10  1  0.14208622  0.32193450  0.72658463  1
  O  O11  1  0.87949094  0.16819166  0.26336046  1
  O  O12  1  0.37401851  0.79325214  0.13925364  1
  O  O13  1  0.74120741  0.36620008  0.38563348  1
  O  O14  1  0.24351585  0.62994162  0.61645216  1
  O  O15  1  0.63195426  0.20300981  0.84831054  1
  O  O16  1  0.11686599  0.82692893  0.73407841  1
  O  O17  1  0.85285313  0.69733439  0.24046288  1
  O  O18  1  0.71676606  0.88457994  0.37418255  1
  O  O19  1  0.60266191  0.68131764  0.88211068  1
