# generated using pymatgen
data_LiFePCO7
_symmetry_space_group_name_H-M   'P 1'
_cell_length_a   8.43286744
_cell_length_b   8.26365118
_cell_length_c   8.28513206
_cell_angle_alpha   77.64909592
_cell_angle_beta   86.49620485
_cell_angle_gamma   93.23350211
_symmetry_Int_Tables_number   1
_chemical_formula_structural   LiFePCO7
_chemical_formula_sum   'Li4 Fe4 P4 C4 O28'
_cell_volume   561.51227114
_cell_formula_units_Z   4
loop_
 _symmetry_equiv_pos_site_id
 _symmetry_equiv_pos_as_xyz
  1  'x, y, z'
loop_
 _atom_site_type_symbol
 _atom_site_label
 _atom_site_symmetry_multiplicity
 _atom_site_fract_x
 _atom_site_fract_y
 _atom_site_fract_z
 _atom_site_occupancy
  Li  Li0  1  0.89266250  0.76246763  0.98760673  1
  Li  Li1  1  0.71743297  0.39451867  0.15590665  1
  Li  Li2  1  0.10702432  0.73885098  0.51173797  1
  Li  Li3  1  0.11303522  0.23122072  0.01018638  1
  Fe  Fe4  1  0.66569413  0.52566705  0.71895283  1
  Fe  Fe5  1  0.66246553  0.02051845  0.22550706  1
  Fe  Fe6  1  0.33921609  0.97514738  0.77227603  1
  Fe  Fe7  1  0.33296424  0.47654617  0.27658268  1
  P  P8  1  0.57654410  0.24512653  0.50431308  1
  P  P9  1  0.57842373  0.73689004  0.00843463  1
  P  P10  1  0.42392865  0.26281362  0.98901778  1
  P  P11  1  0.42096878  0.76148793  0.49228495  1
  C  C12  1  0.95353498  0.47157376  0.77708877  1
  C  C13  1  0.95269740  0.98011066  0.27784384  1
  C  C14  1  0.04501600  0.02204352  0.73066374  1
  C  C15  1  0.04602212  0.51954143  0.21699700  1
  O  O16  1  0.92599291  0.59131678  0.65510347  1
  O  O17  1  0.92323224  0.09757782  0.15362096  1
  O  O18  1  0.90306799  0.05147872  0.69913242  1
  O  O19  1  0.82533274  0.39223539  0.86235785  1
  O  O20  1  0.90793755  0.54399883  0.17048628  1
  O  O21  1  0.82585292  0.89812897  0.36192372  1
  O  O22  1  0.68035739  0.37446039  0.56723755  1
  O  O23  1  0.68064598  0.20162876  0.36005730  1
  O  O24  1  0.69529059  0.67879423  0.88290836  1
  O  O25  1  0.68635581  0.86455755  0.07368185  1
  O  O26  1  0.52567409  0.09161211  0.64399279  1
  O  O27  1  0.57826508  0.19899928  0.06602090  1
  O  O28  1  0.57208541  0.69115328  0.56529351  1
  O  O29  1  0.53102737  0.58053385  0.15208588  1
  O  O30  1  0.47779605  0.41269112  0.84538703  1
  O  O31  1  0.42081268  0.31705238  0.43804167  1
  O  O32  1  0.42928308  0.80939905  0.93641948  1
  O  O33  1  0.47554513  0.90982691  0.34636453  1
  O  O34  1  0.32063704  0.13048420  0.92822365  1
  O  O35  1  0.30710184  0.81955727  0.61916156  1
  O  O36  1  0.30902698  0.31926776  0.11636900  1
  O  O37  1  0.31235720  0.63454705  0.42872455  1
  O  O38  1  0.16339360  0.11013157  0.64231317  1
  O  O39  1  0.08829276  0.42954792  0.81949186  1
  O  O40  1  0.17142890  0.61231152  0.14184467  1
  O  O41  1  0.08835143  0.93894517  0.31733463  1
  O  O42  1  0.08475183  0.40517617  0.33792189  1
  O  O43  1  0.07828866  0.90329940  0.85184935  1
