# generated using pymatgen
data_LiMnBO3
_symmetry_space_group_name_H-M   'P 1'
_cell_length_a   14.50128214
_cell_length_b   14.49657827
_cell_length_c   3.24418652
_cell_angle_alpha   89.94579491
_cell_angle_beta   89.94680975
_cell_angle_gamma   119.95098920
_symmetry_Int_Tables_number   1
_chemical_formula_structural   LiMnBO3
_chemical_formula_sum   'Li9 Mn9 B9 O27'
_cell_volume   590.91071261
_cell_formula_units_Z   9
loop_
 _symmetry_equiv_pos_site_id
 _symmetry_equiv_pos_as_xyz
  1  'x, y, z'
loop_
 _atom_site_type_symbol
 _atom_site_label
 _atom_site_symmetry_multiplicity
 _atom_site_fract_x
 _atom_site_fract_y
 _atom_site_fract_z
 _atom_site_occupancy
  Li  Li0  1  0.09771753  0.87924068  0.49701611  1
  Li  Li1  1  0.11170572  0.56555718  0.48694696  1
  Li  Li2  1  0.45346106  0.88727054  0.55186891  1
  Li  Li3  1  0.12004141  0.21868199  0.49517087  1
  Li  Li4  1  0.43387414  0.54695130  0.45940446  1
  Li  Li5  1  0.45123010  0.25154523  0.51374403  1
  Li  Li6  1  0.78141349  0.90228727  0.50468949  1
  Li  Li7  1  0.80058715  0.54942874  0.49417745  1
  Li  Li8  1  0.74756073  0.19971275  0.49169951  1
  Mn  Mn9  1  0.24940084  0.80105597  0.05932816  1
  Mn  Mn10  1  0.19744003  0.44758637  0.99777801  1
  Mn  Mn11  1  0.22121397  0.10437683  0.01207038  1
  Mn  Mn12  1  0.55186851  0.75109833  0.95281210  1
  Mn  Mn13  1  0.57758843  0.46700081  0.97433247  1
  Mn  Mn14  1  0.53217533  0.11042761  0.02241244  1
  Mn  Mn15  1  0.88214131  0.77881231  0.98520656  1
  Mn  Mn16  1  0.88845410  0.42178095  0.98949163  1
  Mn  Mn17  1  0.89546889  0.11702090  0.00852843  1
  B  B18  1  0.00711262  0.66299996  0.00393908  1
  B  B19  1  0.33307896  0.66678070  0.00108843  1
  B  B20  1  0.33605821  0.34446981  0.99378718  1
  B  B21  1  0.65545240  0.99239178  0.00646217  1
  B  B22  1  0.33129811  0.01106974  0.53010825  1
  B  B23  1  0.67894117  0.66811760  0.46849034  1
  B  B24  1  0.66598686  0.33299279  0.99781764  1
  B  B25  1  0.99967988  0.99972719  0.00342882  1
  B  B26  1  0.98799348  0.32039464  0.50186869  1
  O  O27  1  0.02655193  0.91993261  0.99947998  1
  O  O28  1  0.01736407  0.57233476  0.97429629  1
  O  O29  1  0.09568851  0.76195115  0.09289768  1
  O  O30  1  0.32290709  0.91222778  0.56112696  1
  O  O31  1  0.08657423  0.41080346  0.50316732  1
  O  O32  1  0.22398169  0.60168457  0.01449836  1
  O  O33  1  0.37778253  0.77531714  0.06794663  1
  O  O34  1  0.07915947  0.10622899  0.01506644  1
  O  O35  1  0.55440705  0.98185402  0.04061659  1
  O  O36  1  0.23674859  0.33393656  0.07624111  1
  O  O37  1  0.39801327  0.62413970  0.92017642  1
  O  O38  1  0.66574890  0.90447613  0.90025960  1
  O  O39  1  0.34555489  0.25446768  0.94064606  1
  O  O40  1  0.42678180  0.44560329  0.96729948  1
  O  O41  1  0.24035364  0.01992834  0.50886398  1
  O  O42  1  0.58852582  0.67669384  0.44684209  1
  O  O43  1  0.66959571  0.56740117  0.47429840  1
  O  O44  1  0.43193149  0.10233477  0.52042141  1
  O  O45  1  0.89301141  0.97276714  0.99540237  1
  O  O46  1  0.77862677  0.75910173  0.48480906  1
  O  O47  1  0.56385237  0.31886381  0.01592108  1
  O  O48  1  0.68002005  0.24485787  0.98737555  1
  O  O49  1  0.75367325  0.43496554  0.98990857  1
  O  O50  1  0.90768013  0.65364416  0.94854329  1
  O  O51  1  0.74520528  0.09077613  0.07400420  1
  O  O52  1  0.89640718  0.32941137  0.49102790  1
  O  O53  1  0.97938346  0.22042633  0.51101761  1
