# generated using pymatgen
data_SnH16C4(NO4)3
_symmetry_space_group_name_H-M   'P 1'
_cell_length_a   11.57490979
_cell_length_b   16.08571330
_cell_length_c   8.10036869
_cell_angle_alpha   90.00000000
_cell_angle_beta   90.00000000
_cell_angle_gamma   90.00000000
_symmetry_Int_Tables_number   1
_chemical_formula_structural   SnH16C4(NO4)3
_chemical_formula_sum   'Sn4 H64 C16 N12 O48'
_cell_volume   1508.21315752
_cell_formula_units_Z   4
loop_
 _symmetry_equiv_pos_site_id
 _symmetry_equiv_pos_as_xyz
  1  'x, y, z'
loop_
 _atom_site_type_symbol
 _atom_site_label
 _atom_site_symmetry_multiplicity
 _atom_site_fract_x
 _atom_site_fract_y
 _atom_site_fract_z
 _atom_site_occupancy
  Sn  Sn0  1  0.03825523  0.24077334  0.54258035  1
  Sn  Sn1  1  0.46174477  0.75922666  0.04258035  1
  Sn  Sn2  1  0.53825523  0.25922666  0.45741965  1
  Sn  Sn3  1  0.96174477  0.74077334  0.95741965  1
  H  H4  1  0.07760111  0.01070862  0.48830720  1
  H  H5  1  0.42239889  0.98929138  0.98830720  1
  H  H6  1  0.57760111  0.48929138  0.51169280  1
  H  H7  1  0.92239889  0.51070862  0.01169280  1
  H  H8  1  0.10758980  0.92480246  0.40588436  1
  H  H9  1  0.39241020  0.07519754  0.90588436  1
  H  H10  1  0.60758980  0.57519754  0.59411564  1
  H  H11  1  0.89241020  0.42480246  0.09411564  1
  H  H12  1  0.96039858  0.16579647  0.15795860  1
  H  H13  1  0.53960142  0.83420353  0.65795860  1
  H  H14  1  0.46039858  0.33420353  0.84204140  1
  H  H15  1  0.03960142  0.66579647  0.34204140  1
  H  H16  1  0.96489812  0.16799993  0.96328095  1
  H  H17  1  0.53510188  0.83200007  0.46328095  1
  H  H18  1  0.46489812  0.33200007  0.03671905  1
  H  H19  1  0.03510188  0.66799993  0.53671905  1
  H  H20  1  0.09606196  0.42096023  0.96155910  1
  H  H21  1  0.40393804  0.57903977  0.46155910  1
  H  H22  1  0.59606196  0.07903977  0.03844090  1
  H  H23  1  0.90393804  0.92096023  0.53844090  1
  H  H24  1  0.23380992  0.40500062  0.02478453  1
  H  H25  1  0.26619008  0.59499938  0.52478453  1
  H  H26  1  0.73380992  0.09499938  0.97521547  1
  H  H27  1  0.76619008  0.90500062  0.47521547  1
  H  H28  1  0.20748250  0.44460901  0.83374646  1
  H  H29  1  0.29251750  0.55539099  0.33374646  1
  H  H30  1  0.70748250  0.05539099  0.16625354  1
  H  H31  1  0.79251750  0.94460901  0.66625354  1
  H  H32  1  0.17672031  0.34494261  0.86905253  1
  H  H33  1  0.32327969  0.65505739  0.36905253  1
  H  H34  1  0.67672031  0.15505739  0.13094747  1
  H  H35  1  0.82327969  0.84494261  0.63094747  1
  H  H36  1  0.28566688  0.15881144  0.10124791  1
  H  H37  1  0.21433312  0.84118856  0.60124791  1
  H  H38  1  0.78566688  0.34118856  0.89875209  1
  H  H39  1  0.71433312  0.65881144  0.39875209  1
  H  H40  1  0.20492361  0.17180752  0.26966071  1
  H  H41  1  0.29507639  0.82819248  0.76966071  1
  H  H42  1  0.70492361  0.32819248  0.73033929  1
  H  H43  1  0.79507639  0.67180752  0.23033929  1
  H  H44  1  0.34610116  0.14037936  0.29249529  1
  H  H45  1  0.15389884  0.85962064  0.79249529  1
  H  H46  1  0.84610116  0.35962064  0.70750471  1
  H  H47  1  0.65389884  0.64037936  0.20750471  1
  H  H48  1  0.24815180  0.07302261  0.20670409  1
  H  H49  1  0.25184820  0.92697739  0.70670409  1
  H  H50  1  0.74815180  0.42697739  0.79329591  1
  H  H51  1  0.75184820  0.57302261  0.29329591  1
  H  H52  1  0.02261183  0.46786882  0.25764708  1
  H  H53  1  0.47738817  0.53213118  0.75764708  1
  H  H54  1  0.52261183  0.03213118  0.74235292  1
  H  H55  1  0.97738817  0.96786882  0.24235292  1
  H  H56  1  0.05177246  0.52512667  0.42483760  1
  H  H57  1  0.44822654  0.47487333  0.92483760  1
  H  H58  1  0.55177246  0.97487333  0.57516240  1
  H  H59  1  0.94822754  0.02512667  0.07516240  1
  H  H60  1  0.02186608  0.41973433  0.45078482  1
  H  H61  1  0.47813392  0.58026567  0.95078482  1
  H  H62  1  0.52186608  0.08026567  0.54921518  1
  H  H63  1  0.97813392  0.91973433  0.04921518  1
  H  H64  1  0.14761866  0.45173381  0.35828136  1
  H  H65  1  0.35238134  0.54826619  0.85828136  1
  H  H66  1  0.64761866  0.04826619  0.64171864  1
  H  H67  1  0.85238134  0.95173381  0.14171864  1
  C  C68  1  0.22865262  0.18822649  0.77577571  1
  C  C69  1  0.27134738  0.81177351  0.27577571  1
  C  C70  1  0.72865262  0.31177351  0.22422429  1
  C  C71  1  0.77134738  0.68822649  0.72422429  1
  C  C72  1  0.20582600  0.10746281  0.67622561  1
  C  C73  1  0.29417400  0.89253719  0.17622561  1
  C  C74  1  0.70582600  0.39253719  0.32377439  1
  C  C75  1  0.79417400  0.60746281  0.82377439  1
  C  C76  1  0.84700390  0.12217489  0.48255887  1
  C  C77  1  0.65299610  0.87782511  0.98255887  1
  C  C78  1  0.34700390  0.37782511  0.51744113  1
  C  C79  1  0.15299610  0.62217489  0.01744113  1
  C  C80  1  0.85536976  0.12862742  0.67380786  1
  C  C81  1  0.64463024  0.87137258  0.17380786  1
  C  C82  1  0.35536976  0.37137258  0.32619214  1
  C  C83  1  0.14463024  0.62862742  0.82619214  1
  N  N84  1  0.17870596  0.40370068  0.92301442  1
  N  N85  1  0.32129404  0.59629932  0.42301442  1
  N  N86  1  0.67870596  0.09629932  0.07698558  1
  N  N87  1  0.82129404  0.90370068  0.57698558  1
  N  N88  1  0.27113320  0.13503278  0.21806191  1
  N  N89  1  0.22886680  0.86496722  0.71806191  1
  N  N90  1  0.77113320  0.36496722  0.78193809  1
  N  N91  1  0.72886680  0.63503278  0.28193809  1
  N  N92  1  0.06125046  0.46620502  0.37346012  1
  N  N93  1  0.43874954  0.53379498  0.87346012  1
  N  N94  1  0.56125046  0.03379498  0.62653988  1
  N  N95  1  0.93874954  0.96620502  0.12653988  1
  O  O96  1  0.96369253  0.35021773  0.57102602  1
  O  O97  1  0.53630747  0.64978227  0.07102602  1
  O  O98  1  0.46369253  0.14978227  0.42897398  1
  O  O99  1  0.03630747  0.85021773  0.92897398  1
  O  O100  1  0.16522211  0.25233085  0.73809935  1
  O  O101  1  0.33477789  0.74766915  0.23809935  1
  O  O102  1  0.66522211  0.24766915  0.26190065  1
  O  O103  1  0.83477789  0.75233085  0.76190065  1
  O  O104  1  0.12482470  0.11266270  0.56602750  1
  O  O105  1  0.37517530  0.88733730  0.06602750  1
  O  O106  1  0.62482470  0.38733730  0.43397250  1
  O  O107  1  0.87517530  0.61266270  0.93397250  1
  O  O108  1  0.30329088  0.18815226  0.88554416  1
  O  O109  1  0.19670912  0.81184774  0.38554416  1
  O  O110  1  0.80329088  0.31184774  0.11445584  1
  O  O111  1  0.69670912  0.68815226  0.61445584  1
  O  O112  1  0.26397040  0.04492371  0.71003820  1
  O  O113  1  0.23602960  0.95507629  0.21003820  1
  O  O114  1  0.76397040  0.45507629  0.28996180  1
  O  O115  1  0.73602960  0.54492371  0.78996180  1
  O  O116  1  0.14199007  0.26038576  0.34817004  1
  O  O117  1  0.35800993  0.73961424  0.84817004  1
  O  O118  1  0.64199007  0.23961424  0.65182996  1
  O  O119  1  0.85800993  0.76038576  0.15182996  1
  O  O120  1  0.91477125  0.17204271  0.39993100  1
  O  O121  1  0.58522875  0.82795729  0.89993100  1
  O  O122  1  0.41477125  0.32795729  0.60006900  1
  O  O123  1  0.08522875  0.67204271  0.10006900  1
  O  O124  1  0.92835813  0.18250492  0.73107751  1
  O  O125  1  0.57164187  0.81749508  0.23107751  1
  O  O126  1  0.42835813  0.31749508  0.26892249  1
  O  O127  1  0.07164187  0.68250492  0.76892249  1
  O  O128  1  0.77992944  0.07160785  0.42092469  1
  O  O129  1  0.72007056  0.92839215  0.92092469  1
  O  O130  1  0.27992944  0.42839215  0.57907531  1
  O  O131  1  0.22007056  0.57160785  0.07907531  1
  O  O132  1  0.79413978  0.08187299  0.75912385  1
  O  O133  1  0.70586022  0.91812701  0.25912385  1
  O  O134  1  0.29413978  0.41812701  0.24087615  1
  O  O135  1  0.20586022  0.58187299  0.74087615  1
  O  O136  1  0.04291588  0.95754204  0.45139842  1
  O  O137  1  0.45708412  0.04245796  0.95139842  1
  O  O138  1  0.54291588  0.54245796  0.54860158  1
  O  O139  1  0.95708412  0.45754204  0.04860158  1
  O  O140  1  0.99001322  0.13650619  0.06065055  1
  O  O141  1  0.50998678  0.86349381  0.56065055  1
  O  O142  1  0.49001322  0.36349381  0.93934945  1
  O  O143  1  0.00998678  0.63650619  0.43934945  1
