# generated using pymatgen
data_Na4Co2P(CO4)4
_symmetry_space_group_name_H-M   'P 1'
_cell_length_a   9.98494054
_cell_length_b   9.80950739
_cell_length_c   9.98494049
_cell_angle_alpha   60.68069833
_cell_angle_beta   92.16943244
_cell_angle_gamma   60.68070346
_symmetry_Int_Tables_number   1
_chemical_formula_structural   Na4Co2P(CO4)4
_chemical_formula_sum   'Na8 Co4 P2 C8 O32'
_cell_volume   692.13532396
_cell_formula_units_Z   2
loop_
 _symmetry_equiv_pos_site_id
 _symmetry_equiv_pos_as_xyz
  1  'x, y, z'
loop_
 _atom_site_type_symbol
 _atom_site_label
 _atom_site_symmetry_multiplicity
 _atom_site_fract_x
 _atom_site_fract_y
 _atom_site_fract_z
 _atom_site_occupancy
  Na  Na0  1  0.08900014  0.82200072  0.83900014  1
  Na  Na1  1  0.08857061  0.25000000  0.83857061  1
  Na  Na2  1  0.33857061  0.75000000  0.58857061  1
  Na  Na3  1  0.33900014  0.32200072  0.58900014  1
  Na  Na4  1  0.66099986  0.67799928  0.41099986  1
  Na  Na5  1  0.66142939  0.25000000  0.41142939  1
  Na  Na6  1  0.91142939  0.75000000  0.16142939  1
  Na  Na7  1  0.91099986  0.17799928  0.16099986  1
  Co  Co8  1  0.00000000  0.50000000  0.00000000  1
  Co  Co9  1  0.50000000  0.00000000  0.50000000  1
  Co  Co10  1  0.50000000  0.50000000  0.00000000  1
  Co  Co11  1  0.50000000  0.00000000  0.00000000  1
  P  P12  1  0.12500000  0.75000000  0.37500000  1
  P  P13  1  0.87500000  0.25000000  0.62500000  1
  C  C14  1  0.35656974  0.93121557  0.77785055  1
  C  C15  1  0.27785055  0.43121557  0.85656974  1
  C  C16  1  0.71221369  0.93121557  0.79093288  1
  C  C17  1  0.70906712  0.56878443  0.78778631  1
  C  C18  1  0.29093288  0.43121557  0.21221369  1
  C  C19  1  0.28778631  0.06878443  0.20906712  1
  C  C20  1  0.72214945  0.56878443  0.14343026  1
  C  C21  1  0.64343026  0.06878443  0.22214945  1
  O  O22  1  0.34919960  0.79382511  0.88660764  1
  O  O23  1  0.06362739  0.88180161  0.43529279  1
  O  O24  1  0.36438098  0.95250779  0.64048853  1
  O  O25  1  0.14048853  0.45250779  0.86438098  1
  O  O26  1  0.68311123  0.95250779  0.90700368  1
  O  O27  1  0.30282126  0.55240222  0.84893408  1
  O  O28  1  0.05457201  0.88180161  0.18290560  1
  O  O29  1  0.06470721  0.61819839  0.43637261  1
  O  O30  1  0.40133631  0.94759778  0.35522348  1
  O  O31  1  0.59299632  0.54749221  0.81688877  1
  O  O32  1  0.38660764  0.29382511  0.84919960  1
  O  O33  1  0.31709440  0.61819839  0.44542799  1
  O  O34  1  0.85697529  0.79382511  0.81956725  1
  O  O35  1  0.68043275  0.70617489  0.64302471  1
  O  O36  1  0.34893408  0.05240222  0.80282126  1
  O  O37  1  0.14477652  0.55240222  0.09866369  1
  O  O38  1  0.85522348  0.44759778  0.90133631  1
  O  O39  1  0.65106592  0.94759778  0.19717874  1
  O  O40  1  0.31956725  0.29382511  0.35697529  1
  O  O41  1  0.14302471  0.20617489  0.18043275  1
  O  O42  1  0.68290560  0.38180161  0.55457201  1
  O  O43  1  0.61339236  0.70617489  0.15080040  1
  O  O44  1  0.40700368  0.45250779  0.18311123  1
  O  O45  1  0.59866369  0.05240222  0.64477652  1
  O  O46  1  0.93529279  0.38180161  0.56362739  1
  O  O47  1  0.94542799  0.11819839  0.81709440  1
  O  O48  1  0.69717874  0.44759778  0.15106592  1
  O  O49  1  0.31688877  0.04749221  0.09299632  1
  O  O50  1  0.85951147  0.54749221  0.13561902  1
  O  O51  1  0.63561902  0.04749221  0.35951147  1
  O  O52  1  0.93637261  0.11819839  0.56470721  1
  O  O53  1  0.65080040  0.20617489  0.11339236  1
