# generated using pymatgen
data_Li4NbCo3O8
_symmetry_space_group_name_H-M   'P 1'
_cell_length_a   10.43427188
_cell_length_b   10.41342718
_cell_length_c   14.74746985
_cell_angle_alpha   19.35712148
_cell_angle_beta   19.37078229
_cell_angle_gamma   33.38827562
_symmetry_Int_Tables_number   1
_chemical_formula_structural   Li4NbCo3O8
_chemical_formula_sum   'Li4 Nb1 Co3 O8'
_cell_volume   152.43858813
_cell_formula_units_Z   1
loop_
 _symmetry_equiv_pos_site_id
 _symmetry_equiv_pos_as_xyz
  1  'x, y, z'
loop_
 _atom_site_type_symbol
 _atom_site_label
 _atom_site_symmetry_multiplicity
 _atom_site_fract_x
 _atom_site_fract_y
 _atom_site_fract_z
 _atom_site_occupancy
  Li  Li0  1  0.99998194  -0.00000420  0.50001743  1
  Li  Li1  1  0.99997797  0.50001060  0.50000463  1
  Li  Li2  1  0.50001537  0.99999203  0.49998895  1
  Li  Li3  1  0.49996484  0.49997489  0.50004155  1
  Nb  Nb4  1  0.00005769  0.00002854  0.99993884  1
  Co  Co5  1  -0.00000607  0.49999858  0.00000690  1
  Co  Co6  1  0.49998750  -0.00000003  0.00001181  1
  Co  Co7  1  0.49999354  0.49999577  0.00000859  1
  O  O8  1  0.01152790  -0.00049578  0.25848706  1
  O  O9  1  0.00093228  0.52432324  0.23499584  1
  O  O10  1  0.51953979  0.00042285  0.24094548  1
  O  O11  1  0.98845903  0.00049606  0.74152404  1
  O  O12  1  0.47667800  0.47638630  0.28321221  1
  O  O13  1  -0.00093296  0.47567182  0.76500735  1
  O  O14  1  0.48047392  -0.00042295  0.75904599  1
  O  O15  1  0.52335024  0.52362227  0.71676232  1
