# generated using pymatgen
data_Li4TiCo5O12
_symmetry_space_group_name_H-M   'P 1'
_cell_length_a   4.94343107
_cell_length_b   4.92071846
_cell_length_c   9.95047132
_cell_angle_alpha   90.17167799
_cell_angle_beta   90.34176454
_cell_angle_gamma   59.84719447
_symmetry_Int_Tables_number   1
_chemical_formula_structural   Li4TiCo5O12
_chemical_formula_sum   'Li4 Ti1 Co5 O12'
_cell_volume   209.29207473
_cell_formula_units_Z   1
loop_
 _symmetry_equiv_pos_site_id
 _symmetry_equiv_pos_as_xyz
  1  'x, y, z'
loop_
 _atom_site_type_symbol
 _atom_site_label
 _atom_site_symmetry_multiplicity
 _atom_site_fract_x
 _atom_site_fract_y
 _atom_site_fract_z
 _atom_site_occupancy
  Li  Li0  1  0.16185568  0.49544556  0.74727210  1
  Li  Li1  1  0.34269876  0.49544556  0.25272790  1
  Li  Li2  1  0.65730124  0.50455544  0.74727210  1
  Li  Li3  1  0.83814432  0.50455544  0.25272790  1
  Ti  Ti4  1  0.00000000  0.00000000  0.00000000  1
  Co  Co5  1  0.16483214  0.67033673  0.50000000  1
  Co  Co6  1  0.66479682  0.67040537  0.00000000  1
  Co  Co7  1  0.33520318  0.32959463  0.00000000  1
  Co  Co8  1  0.83516786  0.32966327  0.50000000  1
  Co  Co9  1  0.50000000  0.00000000  0.50000000  1
  O  O10  1  0.00373130  0.65609452  0.10714756  1
  O  O11  1  0.34017418  0.65609452  0.89285244  1
  O  O12  1  0.16745324  0.33544014  0.39885830  1
  O  O13  1  0.50289338  0.66455986  0.39885830  1
  O  O14  1  0.49710662  0.33544014  0.60114170  1
  O  O15  1  0.17357587  1.00000000  0.59694083  1
  O  O16  1  0.83254676  0.66455986  0.60114170  1
  O  O17  1  0.65982582  0.34390548  0.10714756  1
  O  O18  1  0.33855060  1.00000000  0.10320152  1
  O  O19  1  0.99626870  0.34390548  0.89285244  1
  O  O20  1  0.66144940  0.00000000  0.89679848  1
  O  O21  1  0.82642413  0.00000000  0.40305917  1
