# generated using pymatgen
data_Y2W2O9
_symmetry_space_group_name_H-M   'P 1'
_cell_length_a   5.49375291
_cell_length_b   5.37801144
_cell_length_c   23.76542050
_cell_angle_alpha   90.00000000
_cell_angle_beta   90.00000000
_cell_angle_gamma   90.00000000
_symmetry_Int_Tables_number   1
_chemical_formula_structural   Y2W2O9
_chemical_formula_sum   'Y8 W8 O36'
_cell_volume   702.16042332
_cell_formula_units_Z   4
loop_
 _symmetry_equiv_pos_site_id
 _symmetry_equiv_pos_as_xyz
  1  'x, y, z'
loop_
 _atom_site_type_symbol
 _atom_site_label
 _atom_site_symmetry_multiplicity
 _atom_site_fract_x
 _atom_site_fract_y
 _atom_site_fract_z
 _atom_site_occupancy
  Y  Y0  1  0.11237695  0.47365688  0.29593465  1
  Y  Y1  1  0.11350702  0.97323404  0.39074048  1
  Y  Y2  1  0.38649298  0.47323404  0.89074048  1
  Y  Y3  1  0.38762305  0.97365688  0.79593465  1
  Y  Y4  1  0.61237695  0.02634312  0.29593465  1
  Y  Y5  1  0.61350702  0.52676596  0.39074048  1
  Y  Y6  1  0.88649298  0.02676596  0.89074048  1
  Y  Y7  1  0.88762305  0.52634312  0.79593465  1
  W  W8  1  0.17847154  0.99890387  0.17168730  1
  W  W9  1  0.18879432  0.49932716  0.51570830  1
  W  W10  1  0.31120568  0.99932716  0.01570830  1
  W  W11  1  0.32152846  0.49890387  0.67168730  1
  W  W12  1  0.67847154  0.50109613  0.17168730  1
  W  W13  1  0.68879432  0.00067284  0.51570830  1
  W  W14  1  0.81120568  0.50067284  0.01570830  1
  W  W15  1  0.82152846  0.00109613  0.67168730  1
  O  O16  1  0.01299526  0.21008378  0.49565888  1
  O  O17  1  0.99512259  0.29149956  0.69174236  1
  O  O18  1  0.12727621  0.74448796  0.85283410  1
  O  O19  1  0.07090953  0.30028066  0.03277773  1
  O  O20  1  0.12785348  0.24426149  0.83397834  1
  O  O21  1  0.08292863  0.80258523  0.65488767  1
  O  O22  1  0.22319605  0.11572942  0.24506156  1
  O  O23  1  0.23239895  0.61791667  0.44243027  1
  O  O24  1  0.25450679  0.41139744  0.59375936  1
  O  O25  1  0.24549321  0.91139744  0.09375936  1
  O  O26  1  0.26760105  0.11791667  0.94243027  1
  O  O27  1  0.27680395  0.61572942  0.74506156  1
  O  O28  1  0.41707137  0.30258523  0.15488767  1
  O  O29  1  0.37214652  0.74426149  0.33397834  1
  O  O30  1  0.42909047  0.80028066  0.53277773  1
  O  O31  1  0.37272379  0.24448796  0.35283410  1
  O  O32  1  0.50487741  0.79149956  0.19174236  1
  O  O33  1  0.48700474  0.71008378  0.99565888  1
  O  O34  1  0.51299526  0.28991622  0.49565888  1
  O  O35  1  0.49512259  0.20850044  0.69174236  1
  O  O36  1  0.62727621  0.75551204  0.85283410  1
  O  O37  1  0.57090953  0.19971934  0.03277773  1
  O  O38  1  0.62785348  0.25573851  0.83397834  1
  O  O39  1  0.58292863  0.69741477  0.65488767  1
  O  O40  1  0.72319605  0.38427058  0.24506156  1
  O  O41  1  0.73239895  0.88208333  0.44243027  1
  O  O42  1  0.75450679  0.08860256  0.59375936  1
  O  O43  1  0.74549321  0.58860256  0.09375936  1
  O  O44  1  0.76760105  0.38208333  0.94243027  1
  O  O45  1  0.77680395  0.88427058  0.74506156  1
  O  O46  1  0.91707137  0.19741477  0.15488767  1
  O  O47  1  0.87214652  0.75573851  0.33397834  1
  O  O48  1  0.92909047  0.69971934  0.53277773  1
  O  O49  1  0.87272379  0.25551204  0.35283410  1
  O  O50  1  0.00487741  0.70850044  0.19174236  1
  O  O51  1  0.98700474  0.78991622  0.99565888  1
