# generated using pymatgen
data_Li2Cr2O7
_symmetry_space_group_name_H-M   'P 1'
_cell_length_a   6.73529999
_cell_length_b   6.76265003
_cell_length_c   6.46926518
_cell_angle_alpha   111.02097776
_cell_angle_beta   93.36854430
_cell_angle_gamma   93.26268504
_symmetry_Int_Tables_number   1
_chemical_formula_structural   Li2Cr2O7
_chemical_formula_sum   'Li4 Cr4 O14'
_cell_volume   273.61631850
_cell_formula_units_Z   2
loop_
 _symmetry_equiv_pos_site_id
 _symmetry_equiv_pos_as_xyz
  1  'x, y, z'
loop_
 _atom_site_type_symbol
 _atom_site_label
 _atom_site_symmetry_multiplicity
 _atom_site_fract_x
 _atom_site_fract_y
 _atom_site_fract_z
 _atom_site_occupancy
  Li  Li0  1  0.16833942  0.17525831  0.74716348  1
  Li  Li1  1  0.37423280  0.54746565  0.28787692  1
  Li  Li2  1  0.62576720  0.45253435  0.71212308  1
  Li  Li3  1  0.83166058  0.82474169  0.25283652  1
  Cr  Cr4  1  0.15460157  0.67831873  0.79528952  1
  Cr  Cr5  1  0.33495980  0.02216394  0.24351968  1
  Cr  Cr6  1  0.66504020  0.97783606  0.75648032  1
  Cr  Cr7  1  0.84539843  0.32168127  0.20471048  1
  O  O8  1  0.06586895  0.34486096  0.11792670  1
  O  O9  1  0.14514893  0.65997747  0.53760900  1
  O  O10  1  0.13827701  0.99813347  0.37076839  1
  O  O11  1  0.25769366  0.94603794  0.95508827  1
  O  O12  1  0.29270660  0.49877655  0.83567343  1
  O  O13  1  0.43435460  0.26819608  0.34338929  1
  O  O14  1  0.50836389  0.14871426  0.73287648  1
  O  O15  1  0.49163611  0.85128574  0.26712252  1
  O  O16  1  0.56564540  0.73180392  0.65661071  1
  O  O17  1  0.70729340  0.50122345  0.16432657  1
  O  O18  1  0.74230634  0.05396206  0.04491173  1
  O  O19  1  0.86172299  0.00186653  0.62923161  1
  O  O20  1  0.85485107  0.34002253  0.46239100  1
  O  O21  1  0.93413105  0.65513904  0.88207330  1
