# generated using pymatgen
data_CuNi4O5
_symmetry_space_group_name_H-M   'P 1'
_cell_length_a   2.98112320
_cell_length_b   5.15971616
_cell_length_c   12.29602131
_cell_angle_alpha   94.09870890
_cell_angle_beta   96.96269536
_cell_angle_gamma   90.00000000
_symmetry_Int_Tables_number   1
_chemical_formula_structural   CuNi4O5
_chemical_formula_sum   'Cu2 Ni8 O10'
_cell_volume   187.25217500
_cell_formula_units_Z   2
loop_
 _symmetry_equiv_pos_site_id
 _symmetry_equiv_pos_as_xyz
  1  'x, y, z'
loop_
 _atom_site_type_symbol
 _atom_site_label
 _atom_site_symmetry_multiplicity
 _atom_site_fract_x
 _atom_site_fract_y
 _atom_site_fract_z
 _atom_site_occupancy
  Cu  Cu0  1  0.10001162  0.70046915  0.20002424  1
  Cu  Cu1  1  0.29998838  0.09953085  0.59997576  1
  Ni  Ni2  1  0.40035191  0.79973596  0.80070482  1
  Ni  Ni3  1  0.89949401  0.29991652  0.79898902  1
  Ni  Ni4  1  0.80002941  0.60033979  0.60005982  1
  Ni  Ni5  1  0.70000000  0.90000000  0.40000000  1
  Ni  Ni6  1  0.20000000  0.40000000  0.40000000  1
  Ni  Ni7  1  0.50050599  0.50008348  0.00101098  1
  Ni  Ni8  1  0.59997059  0.19966021  0.19994018  1
  Ni  Ni9  1  0.99964809  0.00026404  0.99929518  1
  O  O10  1  0.95033662  0.64893033  0.90067423  1
  O  O11  1  0.85105965  0.94573726  0.70211829  1
  O  O12  1  0.35035560  0.45404655  0.70071120  1
  O  O13  1  0.24943983  0.74668205  0.49887866  1
  O  O14  1  0.44966338  0.15106967  0.89932577  1
  O  O15  1  0.54894035  0.85426274  0.09788171  1
  O  O16  1  0.65109891  0.54659398  0.30219782  1
  O  O17  1  0.74890109  0.25340602  0.49780218  1
  O  O18  1  0.04964440  0.34595345  0.09928880  1
  O  O19  1  0.15056017  0.05331795  0.30112134  1
