# generated using pymatgen
data_Li9V12Cr7O48
_symmetry_space_group_name_H-M   'P 1'
_cell_length_a   5.04344133
_cell_length_b   10.25605069
_cell_length_c   17.17957228
_cell_angle_alpha   90.24726024
_cell_angle_beta   90.41818267
_cell_angle_gamma   89.91563725
_symmetry_Int_Tables_number   1
_chemical_formula_structural   Li9V12Cr7O48
_chemical_formula_sum   'Li9 V12 Cr7 O48'
_cell_volume   888.59408176
_cell_formula_units_Z   1
loop_
 _symmetry_equiv_pos_site_id
 _symmetry_equiv_pos_as_xyz
  1  'x, y, z'
loop_
 _atom_site_type_symbol
 _atom_site_label
 _atom_site_symmetry_multiplicity
 _atom_site_fract_x
 _atom_site_fract_y
 _atom_site_fract_z
 _atom_site_occupancy
  Li  Li0  1  0.24653829  0.42144478  0.96729952  1
  Li  Li1  1  0.25585888  0.74544480  0.30425532  1
  Li  Li2  1  0.25303601  0.25723282  0.79814606  1
  Li  Li3  1  0.25135257  0.58101082  0.46951725  1
  Li  Li4  1  0.39869639  0.74851581  0.74980104  1
  Li  Li5  1  0.59952117  0.24930692  0.25033103  1
  Li  Li6  1  0.74892732  0.08122534  0.53089430  1
  Li  Li7  1  0.74578574  0.74715215  0.20158626  1
  Li  Li8  1  0.74526525  0.24945390  0.69637576  1
  V  V9  1  0.20852397  0.74860461  0.94360574  1
  V  V10  1  0.21540486  0.02547291  0.65822602  1
  V  V11  1  0.21335945  0.47364557  0.65265717  1
  V  V12  1  0.27739848  0.52642910  0.15533724  1
  V  V13  1  0.28421994  0.97181003  0.15708500  1
  V  V14  1  0.27600217  0.25160695  0.44457252  1
  V  V15  1  0.72423173  0.75200723  0.55497058  1
  V  V16  1  0.71038977  0.02786164  0.84307257  1
  V  V17  1  0.72497169  0.47406727  0.84329128  1
  V  V18  1  0.78487272  0.52680771  0.34291745  1
  V  V19  1  0.78735613  0.97452629  0.34646426  1
  V  V20  1  0.78856324  0.24788426  0.05744365  1
  Cr  Cr21  1  0.09755792  0.25008797  0.25342187  1
  Cr  Cr22  1  0.24509230  0.07094802  0.97378862  1
  Cr  Cr23  1  0.25865237  0.93251046  0.47575007  1
  Cr  Cr24  1  0.74043361  0.43261574  0.52410376  1
  Cr  Cr25  1  0.74998854  0.56698700  0.02716334  1
  Cr  Cr26  1  0.74522349  0.92734557  0.02730748  1
  Cr  Cr27  1  0.89934862  0.74859869  0.74594295  1
  O  O28  1  0.06601670  0.23763928  0.99614390  1
  O  O29  1  0.05096863  0.61462675  0.37097932  1
  O  O30  1  0.08285761  0.89025331  0.38074169  1
  O  O31  1  0.09508243  0.62502802  0.20852862  1
  O  O32  1  0.09713736  0.87802179  0.21103452  1
  O  O33  1  0.10223320  0.10879252  0.46589699  1
  O  O34  1  0.05940013  0.37620166  0.46702756  1
  O  O35  1  0.07976973  0.00207782  0.07041297  1
  O  O36  1  0.07084367  0.49785727  0.07374519  1
  O  O37  1  0.13142900  0.74859257  0.84658915  1
  O  O38  1  0.13128361  0.61873791  0.70386531  1
  O  O39  1  0.12466857  0.87604117  0.70888808  1
  O  O40  1  0.33126927  0.12256728  0.20580254  1
  O  O41  1  0.32366790  0.37726306  0.20496718  1
  O  O42  1  0.33438693  0.25244780  0.34362496  1
  O  O43  1  0.40832543  0.98813954  0.57213892  1
  O  O44  1  0.42599651  0.50597588  0.57407179  1
  O  O45  1  0.40788841  0.88991252  0.96624398  1
  O  O46  1  0.42835785  0.62611467  0.96644461  1
  O  O47  1  0.41559332  0.11656324  0.71634607  1
  O  O48  1  0.39666852  0.37612676  0.70812867  1
  O  O49  1  0.41527775  0.11060363  0.87906529  1
  O  O50  1  0.44957372  0.38983080  0.87023938  1
  O  O51  1  0.43644362  0.76439217  0.49467178  1
  O  O52  1  0.56269438  0.26390176  0.50492354  1
  O  O53  1  0.57998741  0.60952443  0.11962807  1
  O  O54  1  0.56998226  0.88696749  0.12549299  1
  O  O55  1  0.58577983  0.61901576  0.28589115  1
  O  O56  1  0.60817115  0.87847871  0.28874849  1
  O  O57  1  0.57749594  0.10956659  0.03570657  1
  O  O58  1  0.60540303  0.38737133  0.03582649  1
  O  O59  1  0.57521582  0.00537876  0.42512773  1
  O  O60  1  0.59069675  0.48719112  0.42817498  1
  O  O61  1  0.66692122  0.75369175  0.65620579  1
  O  O62  1  0.67285369  0.62484291  0.79120958  1
  O  O63  1  0.66765708  0.87893422  0.79536093  1
  O  O64  1  0.87475226  0.11977846  0.29505606  1
  O  O65  1  0.87162325  0.37694312  0.29178795  1
  O  O66  1  0.87169187  0.24544911  0.15427586  1
  O  O67  1  0.90855041  0.51936455  0.93014810  1
  O  O68  1  0.91568452  0.99160706  0.92841747  1
  O  O69  1  0.89822923  0.60937099  0.53408747  1
  O  O70  1  0.94004934  0.87637961  0.53311910  1
  O  O71  1  0.90830096  0.12356056  0.79337380  1
  O  O72  1  0.91746914  0.37573673  0.78892818  1
  O  O73  1  0.95055991  0.11446044  0.63051578  1
  O  O74  1  0.91638025  0.38968711  0.61844238  1
  O  O75  1  0.92213683  0.74838562  0.00862497  1
