# generated using pymatgen
data_Li9V12Cr7O48
_symmetry_space_group_name_H-M   'P 1'
_cell_length_a   5.03389548
_cell_length_b   10.21617030
_cell_length_c   17.13602165
_cell_angle_alpha   89.90253174
_cell_angle_beta   89.48523728
_cell_angle_gamma   89.91595379
_symmetry_Int_Tables_number   1
_chemical_formula_structural   Li9V12Cr7O48
_chemical_formula_sum   'Li9 V12 Cr7 O48'
_cell_volume   881.21870412
_cell_formula_units_Z   1
loop_
 _symmetry_equiv_pos_site_id
 _symmetry_equiv_pos_as_xyz
  1  'x, y, z'
loop_
 _atom_site_type_symbol
 _atom_site_label
 _atom_site_symmetry_multiplicity
 _atom_site_fract_x
 _atom_site_fract_y
 _atom_site_fract_z
 _atom_site_occupancy
  Li  Li0  1  0.09735488  0.25050910  0.25033908  1
  Li  Li1  1  0.25023286  0.41832958  0.96957147  1
  Li  Li2  1  0.25250819  0.58160191  0.47189080  1
  Li  Li3  1  0.25371373  0.91877836  0.47233756  1
  Li  Li4  1  0.24394123  0.25410806  0.80338995  1
  Li  Li5  1  0.75310319  0.75115020  0.19274804  1
  Li  Li6  1  0.75203363  0.91916997  0.02855641  1
  Li  Li7  1  0.75021604  0.25128089  0.70073224  1
  Li  Li8  1  0.90116350  0.75047754  0.74884663  1
  V  V9  1  0.22403251  0.74900302  0.94396484  1
  V  V10  1  0.22496222  0.02866908  0.65498649  1
  V  V11  1  0.22364370  0.47188525  0.65466483  1
  V  V12  1  0.28667660  0.52661795  0.15424343  1
  V  V13  1  0.28554100  0.97372908  0.15747113  1
  V  V14  1  0.28723311  0.25069821  0.44384771  1
  V  V15  1  0.71470484  0.75016490  0.55829792  1
  V  V16  1  0.71583879  0.47298803  0.84259037  1
  V  V17  1  0.71605289  0.02565356  0.84612657  1
  V  V18  1  0.77257163  0.52919003  0.34305563  1
  V  V19  1  0.77422694  0.97065982  0.34372412  1
  V  V20  1  0.77563653  0.24890609  0.05611245  1
  Cr  Cr21  1  0.23747115  0.75347778  0.29775287  1
  Cr  Cr22  1  0.24447764  0.06886479  0.97465917  1
  Cr  Cr23  1  0.40433289  0.74926191  0.75072489  1
  Cr  Cr24  1  0.59713159  0.24892606  0.24855936  1
  Cr  Cr25  1  0.76302376  0.06727589  0.52711510  1
  Cr  Cr26  1  0.76059675  0.43282603  0.52792561  1
  Cr  Cr27  1  0.76013273  0.56847442  0.02310038  1
  O  O28  1  0.06553942  0.23601004  0.99608839  1
  O  O29  1  0.05998125  0.61663537  0.36620014  1
  O  O30  1  0.06070861  0.88281580  0.36865333  1
  O  O31  1  0.09922215  0.62766910  0.21322362  1
  O  O32  1  0.08420781  0.87433365  0.21733328  1
  O  O33  1  0.08216830  0.11850331  0.46564387  1
  O  O34  1  0.08032516  0.38201600  0.46575317  1
  O  O35  1  0.09244533  0.00970399  0.07381728  1
  O  O36  1  0.07356055  0.49592843  0.07680587  1
  O  O37  1  0.16700739  0.74739473  0.84349778  1
  O  O38  1  0.17191779  0.62084762  0.70425107  1
  O  O39  1  0.17612630  0.87830435  0.70601879  1
  O  O40  1  0.36923798  0.12281172  0.20775048  1
  O  O41  1  0.36601881  0.38143431  0.20401173  1
  O  O42  1  0.36547821  0.25106141  0.34482520  1
  O  O43  1  0.43692629  0.49687750  0.57370693  1
  O  O44  1  0.43656000  0.00293398  0.57474423  1
  O  O45  1  0.40035029  0.89146815  0.96631561  1
  O  O46  1  0.44058652  0.62305352  0.96611419  1
  O  O47  1  0.39931991  0.12569143  0.71227693  1
  O  O48  1  0.40813837  0.37551491  0.70953946  1
  O  O49  1  0.41408683  0.11087460  0.88074385  1
  O  O50  1  0.45179250  0.38344083  0.87144294  1
  O  O51  1  0.45287815  0.75016174  0.49791875  1
  O  O52  1  0.58165295  0.24960337  0.50779277  1
  O  O53  1  0.57973983  0.60971053  0.12046343  1
  O  O54  1  0.55415663  0.88834135  0.13004136  1
  O  O55  1  0.55980117  0.62668576  0.29128529  1
  O  O56  1  0.55389914  0.87461072  0.29362152  1
  O  O57  1  0.56110685  0.12315003  0.03367381  1
  O  O58  1  0.60180539  0.39259172  0.03408804  1
  O  O59  1  0.60268605  0.01459664  0.42985163  1
  O  O60  1  0.60238356  0.48552829  0.42885975  1
  O  O61  1  0.62873794  0.75157617  0.65754984  1
  O  O62  1  0.62845906  0.62372804  0.79276171  1
  O  O63  1  0.63288212  0.88117164  0.79673658  1
  O  O64  1  0.82900470  0.11874031  0.29266407  1
  O  O65  1  0.82493954  0.37996368  0.29090796  1
  O  O66  1  0.83121107  0.24746560  0.15708815  1
  O  O67  1  0.91354693  0.51117256  0.92927412  1
  O  O68  1  0.92858682  0.99423840  0.92573643  1
  O  O69  1  0.90977925  0.60745741  0.53803456  1
  O  O70  1  0.91004735  0.89328947  0.53745602  1
  O  O71  1  0.89510469  0.12198586  0.78757693  1
  O  O72  1  0.91580911  0.38148723  0.78506217  1
  O  O73  1  0.92220953  0.11346458  0.62053047  1
  O  O74  1  0.92160627  0.38475358  0.61926221  1
  O  O75  1  0.93370462  0.73652307  0.00566726  1
