# generated using pymatgen
data_BaYI5
_symmetry_space_group_name_H-M   'P 1'
_cell_length_a   8.27067009
_cell_length_b   27.05664881
_cell_length_c   11.57388447
_cell_angle_alpha   90.00000000
_cell_angle_beta   89.02348811
_cell_angle_gamma   90.00000000
_symmetry_Int_Tables_number   1
_chemical_formula_structural   BaYI5
_chemical_formula_sum   'Ba8 Y8 I40'
_cell_volume   2589.58854988
_cell_formula_units_Z   8
loop_
 _symmetry_equiv_pos_site_id
 _symmetry_equiv_pos_as_xyz
  1  'x, y, z'
loop_
 _atom_site_type_symbol
 _atom_site_label
 _atom_site_symmetry_multiplicity
 _atom_site_fract_x
 _atom_site_fract_y
 _atom_site_fract_z
 _atom_site_occupancy
  Ba  Ba0  1  0.09222142  0.52801746  0.75053562  1
  Ba  Ba1  1  0.33917550  0.25994286  0.51157956  1
  Ba  Ba2  1  0.40777858  0.02801746  0.74946438  1
  Ba  Ba3  1  0.16082450  0.75994286  0.98842044  1
  Ba  Ba4  1  0.83917550  0.24005714  0.01157956  1
  Ba  Ba5  1  0.59222142  0.97198254  0.25053562  1
  Ba  Ba6  1  0.66082450  0.74005714  0.48842044  1
  Ba  Ba7  1  0.90777858  0.47198254  0.24946438  1
  Y  Y8  1  0.25353035  0.37150378  0.94300944  1
  Y  Y9  1  0.24646965  0.87150378  0.55699056  1
  Y  Y10  1  0.23502313  0.11306840  0.10917766  1
  Y  Y11  1  0.26497687  0.61306840  0.39082234  1
  Y  Y12  1  0.73502313  0.38693160  0.60917766  1
  Y  Y13  1  0.76497687  0.88693160  0.89082234  1
  Y  Y14  1  0.75353035  0.12849622  0.44300944  1
  Y  Y15  1  0.74646965  0.62849622  0.05699056  1
  I  I16  1  0.04445975  0.12499422  0.89608824  1
  I  I17  1  0.04252664  0.35631648  0.49076618  1
  I  I18  1  0.05376266  0.16177301  0.55186993  1
  I  I19  1  0.08688425  0.92447649  0.76537039  1
  I  I20  1  0.06589298  0.59055288  0.17515219  1
  I  I21  1  0.02478199  0.35027933  0.14460288  1
  I  I22  1  0.17500585  0.27380090  0.82845839  1
  I  I23  1  0.16045926  0.21314561  0.20710480  1
  I  I24  1  0.24948840  0.97609131  0.46179358  1
  I  I25  1  0.22824973  0.50347350  0.44505817  1
  I  I26  1  0.32499415  0.77380090  0.67154161  1
  I  I27  1  0.27175027  0.00347350  0.05494183  1
  I  I28  1  0.25051160  0.47609131  0.03820642  1
  I  I29  1  0.33954074  0.71314561  0.29289520  1
  I  I30  1  0.41311575  0.42447649  0.73462961  1
  I  I31  1  0.44623734  0.66177301  0.94813007  1
  I  I32  1  0.47521801  0.85027933  0.35539712  1
  I  I33  1  0.43410702  0.09055288  0.32484781  1
  I  I34  1  0.45747336  0.85631648  0.00923382  1
  I  I35  1  0.45554025  0.62499422  0.60391176  1
  I  I36  1  0.54445975  0.37500578  0.39608824  1
  I  I37  1  0.54252664  0.14368352  0.99076618  1
  I  I38  1  0.56589298  0.90944712  0.67515219  1
  I  I39  1  0.52478199  0.14972067  0.64460288  1
  I  I40  1  0.55376266  0.33822699  0.05186993  1
  I  I41  1  0.58688425  0.57552351  0.26537039  1
  I  I42  1  0.66045926  0.28685439  0.70710480  1
  I  I43  1  0.74948840  0.52390869  0.96179358  1
  I  I44  1  0.72824973  0.99652650  0.94505817  1
  I  I45  1  0.67500585  0.22619910  0.32845839  1
  I  I46  1  0.77175027  0.49652650  0.55494183  1
  I  I47  1  0.75051160  0.02390869  0.53820642  1
  I  I48  1  0.83954074  0.78685439  0.79289520  1
  I  I49  1  0.82499415  0.72619910  0.17154161  1
  I  I50  1  0.97521801  0.64972067  0.85539712  1
  I  I51  1  0.93410702  0.40944712  0.82484781  1
  I  I52  1  0.91311575  0.07552351  0.23462961  1
  I  I53  1  0.94623734  0.83822699  0.44813007  1
  I  I54  1  0.95747336  0.64368352  0.50923382  1
  I  I55  1  0.95554025  0.87500578  0.10391176  1
