# generated using pymatgen
data_Li3Ta7O19
_symmetry_space_group_name_H-M   'P 1'
_cell_length_a   6.30100323
_cell_length_b   6.30093980
_cell_length_c   20.16851685
_cell_angle_alpha   90.00005623
_cell_angle_beta   89.99992224
_cell_angle_gamma   120.00082248
_symmetry_Int_Tables_number   1
_chemical_formula_structural   Li3Ta7O19
_chemical_formula_sum   'Li6 Ta14 O38'
_cell_volume   693.45139603
_cell_formula_units_Z   2
loop_
 _symmetry_equiv_pos_site_id
 _symmetry_equiv_pos_as_xyz
  1  'x, y, z'
loop_
 _atom_site_type_symbol
 _atom_site_label
 _atom_site_symmetry_multiplicity
 _atom_site_fract_x
 _atom_site_fract_y
 _atom_site_fract_z
 _atom_site_occupancy
  Li  Li0  1  0.00000299  0.50000587  0.99999944  1
  Li  Li1  1  0.00000574  0.50000400  0.50000002  1
  Li  Li2  1  0.50000252  0.50000023  0.99999915  1
  Li  Li3  1  0.49999843  0.49999609  0.50000119  1
  Li  Li4  1  0.49999300  0.00000188  0.50000095  1
  Li  Li5  1  0.49999946  0.00000177  0.00000092  1
  Ta  Ta6  1  0.30508259  0.97070508  0.65485661  1
  Ta  Ta7  1  0.30509337  0.97071636  0.84520659  1
  Ta  Ta8  1  0.02928939  0.33438742  0.65485814  1
  Ta  Ta9  1  0.02928440  0.33438033  0.84520664  1
  Ta  Ta10  1  0.00000766  0.00000382  0.00000036  1
  Ta  Ta11  1  -0.00000323  -0.00000148  0.50000198  1
  Ta  Ta12  1  0.33437863  0.30508770  0.15478779  1
  Ta  Ta13  1  0.33438170  0.30508607  0.34514384  1
  Ta  Ta14  1  0.66562026  0.69491529  0.65485694  1
  Ta  Ta15  1  0.66562845  0.69491122  0.84520909  1
  Ta  Ta16  1  0.97071659  0.66561425  0.15478660  1
  Ta  Ta17  1  0.97071047  0.66561564  0.34514337  1
  Ta  Ta18  1  0.69491514  0.02927569  0.15478718  1
  Ta  Ta19  1  0.69491524  0.02929597  0.34514327  1
  O  O20  1  0.24305964  0.95960788  0.55491278  1
  O  O21  1  0.24308079  0.95960946  0.94507248  1
  O  O22  1  0.29462016  0.93072109  0.74995733  1
  O  O23  1  0.08589447  0.42019281  0.15029860  1
  O  O24  1  0.08589635  0.42020510  0.34970995  1
  O  O25  1  0.06928783  0.36390350  0.74995842  1
  O  O26  1  0.33430027  0.91408529  0.15029703  1
  O  O27  1  0.33430196  0.91409700  0.34970903  1
  O  O28  1  0.04038655  0.28345829  0.55491418  1
  O  O29  1  0.04039267  0.28347603  0.94507059  1
  O  O30  1  -0.00000035  0.99999218  0.16376022  1
  O  O31  1  0.00000089  0.00000223  0.33624615  1
  O  O32  1  0.00000569  0.00000392  0.66375367  1
  O  O33  1  0.00000420  0.00000059  0.83624195  1
  O  O34  1  0.33333821  0.66666720  0.63793621  1
  O  O35  1  0.33333848  0.66666427  0.86205815  1
  O  O36  1  0.28347604  0.24308617  0.05492983  1
  O  O37  1  0.28345607  0.24307309  0.44508491  1
  O  O38  1  0.36390343  0.29462430  0.25004603  1
  O  O39  1  0.42022202  0.33430900  0.65028887  1
  O  O40  1  0.42021820  0.33430318  0.84970458  1
  O  O41  1  0.57978426  0.66570083  0.34971167  1
  O  O42  1  0.57979223  0.66568813  0.15029621  1
  O  O43  1  0.63610547  0.70538056  0.74995808  1
  O  O44  1  0.71655113  0.75692847  0.55491194  1
  O  O45  1  0.71653595  0.75691827  0.94507170  1
  O  O46  1  0.66666616  0.33333528  0.36206189  1
  O  O47  1  0.66666338  0.33332447  0.13794392  1
  O  O48  1  0.95960896  0.71652850  0.05493026  1
  O  O49  1  0.95960865  0.71654024  0.44508358  1
  O  O50  1  0.66570136  0.08590682  0.65029075  1
  O  O51  1  0.66570520  0.08590549  0.84970360  1
  O  O52  1  0.93072106  0.63609851  0.25004439  1
  O  O53  1  0.91411278  0.57980725  0.65029367  1
  O  O54  1  0.91411122  0.57980264  0.84970426  1
  O  O55  1  0.70538160  0.06927435  0.25004431  1
  O  O56  1  0.75692148  0.04038893  0.05492785  1
  O  O57  1  0.75692475  0.04038752  0.44508591  1
