# generated using pymatgen
data_Y2W2O9
_symmetry_space_group_name_H-M   'P 1'
_cell_length_a   9.80549124
_cell_length_b   9.80549124
_cell_length_c   7.21316793
_cell_angle_alpha   90.00000000
_cell_angle_beta   90.00000000
_cell_angle_gamma   73.96879830
_symmetry_Int_Tables_number   1
_chemical_formula_structural   Y2W2O9
_chemical_formula_sum   'Y8 W8 O36'
_cell_volume   666.55886005
_cell_formula_units_Z   4
loop_
 _symmetry_equiv_pos_site_id
 _symmetry_equiv_pos_as_xyz
  1  'x, y, z'
loop_
 _atom_site_type_symbol
 _atom_site_label
 _atom_site_symmetry_multiplicity
 _atom_site_fract_x
 _atom_site_fract_y
 _atom_site_fract_z
 _atom_site_occupancy
  Y  Y0  1  0.40896512  0.88019287  0.49774669  1
  Y  Y1  1  0.11980713  0.59103488  0.50225331  1
  Y  Y2  1  0.22870709  0.22870709  0.25000000  1
  Y  Y3  1  0.22758574  0.22758574  0.75000000  1
  Y  Y4  1  0.77241426  0.77241426  0.25000000  1
  Y  Y5  1  0.77129291  0.77129291  0.75000000  1
  Y  Y6  1  0.88019287  0.40896512  0.00225331  1
  Y  Y7  1  0.59103488  0.11980713  0.99774669  1
  W  W8  1  0.95310714  0.04689286  0.00000000  1
  W  W9  1  0.39286174  0.85283712  0.99658165  1
  W  W10  1  0.14716288  0.60713826  0.00341835  1
  W  W11  1  0.50087829  0.50087829  0.25000000  1
  W  W12  1  0.49912171  0.49912171  0.75000000  1
  W  W13  1  0.85283712  0.39286174  0.50341835  1
  W  W14  1  0.60713826  0.14716288  0.49658165  1
  W  W15  1  0.04689286  0.95310714  0.50000000  1
  O  O16  1  0.02892578  0.67181505  0.20626672  1
  O  O17  1  0.32818495  0.97107422  0.79373328  1
  O  O18  1  0.20181557  0.79818443  0.50000000  1
  O  O19  1  0.03091540  0.66860264  0.79859959  1
  O  O20  1  0.33139736  0.96908460  0.20140041  1
  O  O21  1  0.22342836  0.77657164  0.00000000  1
  O  O22  1  0.57692874  0.88780524  0.99546440  1
  O  O23  1  0.11219576  0.42307126  0.00453560  1
  O  O24  1  0.47630884  0.69665884  0.18710767  1
  O  O25  1  0.30334116  0.52369116  0.81289233  1
  O  O26  1  0.47451805  0.69733534  0.80737288  1
  O  O27  1  0.30266466  0.52548195  0.19262712  1
  O  O28  1  0.20901185  0.36957271  0.50183780  1
  O  O29  1  0.63042729  0.79098815  0.49816220  1
  O  O30  1  0.44155192  0.55844808  0.50000000  1
  O  O31  1  0.84731705  0.91147855  0.99442484  1
  O  O32  1  0.08852145  0.15268295  0.00557516  1
  O  O33  1  0.00300523  0.00300523  0.75000000  1
  O  O34  1  0.99699477  0.99699477  0.25000000  1
  O  O35  1  0.91147855  0.84731705  0.50557516  1
  O  O36  1  0.15268295  0.08852145  0.49442484  1
  O  O37  1  0.55844808  0.44155192  0.00000000  1
  O  O38  1  0.79098815  0.63042729  0.00183780  1
  O  O39  1  0.36957271  0.20901185  0.99816220  1
  O  O40  1  0.69733534  0.47451805  0.69262712  1
  O  O41  1  0.52548195  0.30266466  0.30737288  1
  O  O42  1  0.69665884  0.47630884  0.31289233  1
  O  O43  1  0.52369116  0.30334116  0.68710767  1
  O  O44  1  0.42307126  0.11219576  0.49546440  1
  O  O45  1  0.88780524  0.57692874  0.50453560  1
  O  O46  1  0.77657164  0.22342836  0.50000000  1
  O  O47  1  0.66860264  0.03091540  0.70140041  1
  O  O48  1  0.96908460  0.33139736  0.29859959  1
  O  O49  1  0.79818443  0.20181557  0.00000000  1
  O  O50  1  0.67181505  0.02892578  0.29373328  1
  O  O51  1  0.97107422  0.32818495  0.70626672  1
