# generated using pymatgen
data_KLi2FeO3
_symmetry_space_group_name_H-M   'P 1'
_cell_length_a   6.56978671
_cell_length_b   6.15100180
_cell_length_c   5.49820821
_cell_angle_alpha   90.18742737
_cell_angle_beta   53.23786333
_cell_angle_gamma   90.16593241
_symmetry_Int_Tables_number   1
_chemical_formula_structural   KLi2FeO3
_chemical_formula_sum   'K2 Li4 Fe2 O6'
_cell_volume   177.99880369
_cell_formula_units_Z   2
loop_
 _symmetry_equiv_pos_site_id
 _symmetry_equiv_pos_as_xyz
  1  'x, y, z'
loop_
 _atom_site_type_symbol
 _atom_site_label
 _atom_site_symmetry_multiplicity
 _atom_site_fract_x
 _atom_site_fract_y
 _atom_site_fract_z
 _atom_site_occupancy
  K  K0  1  0.67203472  0.74632604  0.01487472  1
  K  K1  1  0.31546968  0.24940620  0.01811937  1
  Li  Li2  1  0.21835851  0.49751018  0.56051612  1
  Li  Li3  1  0.22957838  0.99637178  0.55908404  1
  Li  Li4  1  0.76069406  0.50136743  0.47834835  1
  Li  Li5  1  0.76574759  0.00131975  0.47938259  1
  Fe  Fe6  1  0.17714087  0.74972033  0.01978034  1
  Fe  Fe7  1  0.80648025  0.24865046  0.02139451  1
  O  O8  1  0.99147249  0.99897883  0.02043340  1
  O  O9  1  0.99256540  0.49906628  0.02019561  1
  O  O10  1  0.82671127  0.25458258  0.66751043  1
  O  O11  1  0.47383355  0.25054672  0.37766329  1
  O  O12  1  0.15392317  0.75053865  0.37597508  1
  O  O13  1  0.50969008  0.75306077  0.66347216  1
