# generated using pymatgen
data_CrCo5O12
_symmetry_space_group_name_H-M   'P 1'
_cell_length_a   4.92004354
_cell_length_b   4.92381357
_cell_length_c   9.79612979
_cell_angle_alpha   89.95723596
_cell_angle_beta   89.91440742
_cell_angle_gamma   60.02532856
_symmetry_Int_Tables_number   1
_chemical_formula_structural   CrCo5O12
_chemical_formula_sum   'Cr1 Co5 O12'
_cell_volume   205.57297056
_cell_formula_units_Z   1
loop_
 _symmetry_equiv_pos_site_id
 _symmetry_equiv_pos_as_xyz
  1  'x, y, z'
loop_
 _atom_site_type_symbol
 _atom_site_label
 _atom_site_symmetry_multiplicity
 _atom_site_fract_x
 _atom_site_fract_y
 _atom_site_fract_z
 _atom_site_occupancy
  Cr  Cr0  1  0.00000000  0.00000000  0.00000000  1
  Co  Co1  1  0.16662145  0.66675710  0.50000000  1
  Co  Co2  1  0.66660091  0.66679817  1.00000000  1
  Co  Co3  1  0.33339909  0.33320183  0.00000000  1
  Co  Co4  1  0.83337855  0.33324290  0.50000000  1
  Co  Co5  1  0.50000000  0.00000000  0.50000000  1
  O  O6  1  0.00037582  0.65944448  0.09842169  1
  O  O7  1  0.34017870  0.65944448  0.90157831  1
  O  O8  1  0.16687649  0.33324893  0.40315746  1
  O  O9  1  0.50012542  0.66675107  0.40315746  1
  O  O10  1  0.49987458  0.33324893  0.59684254  1
  O  O11  1  0.16645230  0.00000000  0.59684581  1
  O  O12  1  0.83312351  0.66675107  0.59684254  1
  O  O13  1  0.65982130  0.34055552  0.09842169  1
  O  O14  1  0.34008095  0.00000000  0.09830390  1
  O  O15  1  -0.00037582  0.34055552  0.90157831  1
  O  O16  1  0.65991905  0.00000000  0.90169610  1
  O  O17  1  0.83354770  0.00000000  0.40315419  1
