# generated using pymatgen
data_Li2FeSn(PO4)2
_symmetry_space_group_name_H-M   'P 1'
_cell_length_a   10.99262536
_cell_length_b   6.39242814
_cell_length_c   4.85840095
_cell_angle_alpha   90.00000000
_cell_angle_beta   89.47808658
_cell_angle_gamma   90.00000000
_symmetry_Int_Tables_number   1
_chemical_formula_structural   Li2FeSn(PO4)2
_chemical_formula_sum   'Li4 Fe2 Sn2 P4 O16'
_cell_volume   341.38357062
_cell_formula_units_Z   2
loop_
 _symmetry_equiv_pos_site_id
 _symmetry_equiv_pos_as_xyz
  1  'x, y, z'
loop_
 _atom_site_type_symbol
 _atom_site_label
 _atom_site_symmetry_multiplicity
 _atom_site_fract_x
 _atom_site_fract_y
 _atom_site_fract_z
 _atom_site_occupancy
  Li  Li0  1  0.00000000  0.00000000  0.00000000  1
  Li  Li1  1  0.00000000  0.50000000  0.00000000  1
  Li  Li2  1  0.50000000  0.00000000  0.50000000  1
  Li  Li3  1  0.50000000  0.50000000  0.50000000  1
  Fe  Fe4  1  0.29200697  0.25000000  0.97639247  1
  Fe  Fe5  1  0.70799303  0.75000000  0.02360753  1
  Sn  Sn6  1  0.22048188  0.75000000  0.48146665  1
  Sn  Sn7  1  0.77951812  0.25000000  0.51853335  1
  P  P8  1  0.09776357  0.25000000  0.37617685  1
  P  P9  1  0.42276437  0.75000000  0.93096214  1
  P  P10  1  0.57723563  0.25000000  0.06903786  1
  P  P11  1  0.90223643  0.75000000  0.62382315  1
  O  O12  1  0.03533421  0.75000000  0.73781811  1
  O  O13  1  0.10578534  0.25000000  0.69014718  1
  O  O14  1  0.16207017  0.05836194  0.23248313  1
  O  O15  1  0.16207017  0.44163806  0.23248313  1
  O  O16  1  0.35066119  0.55277077  0.82293679  1
  O  O17  1  0.35066119  0.94722923  0.82293679  1
  O  O18  1  0.43598582  0.75000000  0.24509130  1
  O  O19  1  0.45126590  0.25000000  0.22218053  1
  O  O20  1  0.54873410  0.75000000  0.77781947  1
  O  O21  1  0.56401418  0.25000000  0.75490870  1
  O  O22  1  0.64933881  0.05277077  0.17706321  1
  O  O23  1  0.64933881  0.44722923  0.17706321  1
  O  O24  1  0.83792983  0.55836194  0.76751687  1
  O  O25  1  0.83792983  0.94163806  0.76751687  1
  O  O26  1  0.89421466  0.75000000  0.30985282  1
  O  O27  1  0.96466579  0.25000000  0.26218189  1
