# generated using pymatgen
data_Li4Mn3V5O16
_symmetry_space_group_name_H-M   'P 1'
_cell_length_a   5.89691060
_cell_length_b   5.84253837
_cell_length_c   9.55766870
_cell_angle_alpha   90.49850290
_cell_angle_beta   91.58684007
_cell_angle_gamma   117.75813338
_symmetry_Int_Tables_number   1
_chemical_formula_structural   Li4Mn3V5O16
_chemical_formula_sum   'Li4 Mn3 V5 O16'
_cell_volume   291.19692408
_cell_formula_units_Z   1
loop_
 _symmetry_equiv_pos_site_id
 _symmetry_equiv_pos_as_xyz
  1  'x, y, z'
loop_
 _atom_site_type_symbol
 _atom_site_label
 _atom_site_symmetry_multiplicity
 _atom_site_fract_x
 _atom_site_fract_y
 _atom_site_fract_z
 _atom_site_occupancy
  Li  Li0  1  0.31683432  0.66080374  0.89595229  1
  Li  Li1  1  0.99629801  0.00086583  0.99309570  1
  Li  Li2  1  0.00674117  0.99636837  0.49354124  1
  Li  Li3  1  0.66740148  0.33088272  0.39854226  1
  Mn  Mn4  1  0.66273897  0.82942357  0.21160245  1
  Mn  Mn5  1  0.82635669  0.65778632  0.71409995  1
  Mn  Mn6  1  0.83207762  0.16753081  0.71176287  1
  V  V7  1  0.17246116  0.82766724  0.21660518  1
  V  V8  1  0.34571106  0.66568114  0.48744286  1
  V  V9  1  0.16740394  0.34223394  0.21159854  1
  V  V10  1  0.34024188  0.16327125  0.71558935  1
  V  V11  1  0.65189462  0.33247112  0.98811948  1
  O  O12  1  0.20369009  0.84160068  0.59088850  1
  O  O13  1  0.03880876  0.53283155  0.34219433  1
  O  O14  1  0.33150978  0.68103094  0.10426287  1
  O  O15  1  0.00155865  0.99566287  0.30551154  1
  O  O16  1  0.00388267  0.99868109  0.80510882  1
  O  O17  1  0.20114508  0.33434569  0.60029355  1
  O  O18  1  0.48198421  0.95967988  0.33964454  1
  O  O19  1  0.46423046  0.50808827  0.35166416  1
  O  O20  1  0.32781771  0.16803230  0.10264084  1
  O  O21  1  0.68442328  0.83457415  0.59246809  1
  O  O22  1  0.50012389  0.46480515  0.85460804  1
  O  O23  1  0.49395189  0.03243100  0.84439091  1
  O  O24  1  0.66337991  0.32936266  0.60939947  1
  O  O25  1  0.83005708  0.67463535  0.09491185  1
  O  O26  1  0.94797773  0.47422864  0.84234430  1
  O  O27  1  0.83929690  0.19532271  0.08955703  1
