# generated using pymatgen
data_Cr3(CuO6)2
_symmetry_space_group_name_H-M   'P 1'
_cell_length_a   12.24541038
_cell_length_b   8.97761876
_cell_length_c   8.87793180
_cell_angle_alpha   90.00000000
_cell_angle_beta   90.00000000
_cell_angle_gamma   90.00000000
_symmetry_Int_Tables_number   1
_chemical_formula_structural   Cr3(CuO6)2
_chemical_formula_sum   'Cr12 Cu8 O48'
_cell_volume   975.99211165
_cell_formula_units_Z   4
loop_
 _symmetry_equiv_pos_site_id
 _symmetry_equiv_pos_as_xyz
  1  'x, y, z'
loop_
 _atom_site_type_symbol
 _atom_site_label
 _atom_site_symmetry_multiplicity
 _atom_site_fract_x
 _atom_site_fract_y
 _atom_site_fract_z
 _atom_site_occupancy
  Cr  Cr0  1  0.00000000  0.46192632  0.25000000  1
  Cr  Cr1  1  0.00000000  0.53807468  0.75000000  1
  Cr  Cr2  1  0.14482632  0.10014400  0.60582149  1
  Cr  Cr3  1  0.14482632  0.89985600  0.10582149  1
  Cr  Cr4  1  0.35517368  0.39985600  0.10582149  1
  Cr  Cr5  1  0.35517368  0.60014400  0.60582149  1
  Cr  Cr6  1  0.50000000  0.03807368  0.75000000  1
  Cr  Cr7  1  0.50000000  0.96192532  0.25000000  1
  Cr  Cr8  1  0.64482632  0.39985600  0.39417851  1
  Cr  Cr9  1  0.64482632  0.60014400  0.89417851  1
  Cr  Cr10  1  0.85517368  0.10014400  0.89417851  1
  Cr  Cr11  1  0.85517368  0.89985600  0.39417851  1
  Cu  Cu12  1  0.12208763  0.25023720  0.97045360  1
  Cu  Cu13  1  0.12208763  0.74976280  0.47045360  1
  Cu  Cu14  1  0.37791237  0.24976280  0.47045360  1
  Cu  Cu15  1  0.37791237  0.75023720  0.97045360  1
  Cu  Cu16  1  0.62208763  0.24976280  0.02954640  1
  Cu  Cu17  1  0.62208763  0.75023720  0.52954640  1
  Cu  Cu18  1  0.87791237  0.25023720  0.52954640  1
  Cu  Cu19  1  0.87791237  0.74976280  0.02954640  1
  O  O20  1  0.01668916  0.14464988  0.56538076  1
  O  O21  1  0.01668916  0.85535012  0.06538076  1
  O  O22  1  0.06847677  0.56661048  0.37108845  1
  O  O23  1  0.06847677  0.43338952  0.87108845  1
  O  O24  1  0.09193322  0.35440603  0.16265628  1
  O  O25  1  0.09193322  0.64559397  0.66265628  1
  O  O26  1  0.16340827  0.08510682  0.10545268  1
  O  O27  1  0.16340827  0.91489318  0.60545268  1
  O  O28  1  0.17717642  0.15945532  0.77699638  1
  O  O29  1  0.17717642  0.84054468  0.27699638  1
  O  O30  1  0.22542133  0.17591430  0.47523575  1
  O  O31  1  0.22542133  0.82408570  0.97523575  1
  O  O32  1  0.27457867  0.32408570  0.97523575  1
  O  O33  1  0.27457867  0.67591430  0.47523575  1
  O  O34  1  0.32282358  0.65945532  0.77699638  1
  O  O35  1  0.32282358  0.34054468  0.27699638  1
  O  O36  1  0.33659173  0.41489318  0.60545268  1
  O  O37  1  0.33659173  0.58510682  0.10545268  1
  O  O38  1  0.40806678  0.14559397  0.66265628  1
  O  O39  1  0.40806678  0.85440603  0.16265628  1
  O  O40  1  0.43152323  0.06661048  0.37108845  1
  O  O41  1  0.43152323  0.93338952  0.87108845  1
  O  O42  1  0.48331084  0.64464988  0.56538076  1
  O  O43  1  0.48331084  0.35535012  0.06538076  1
  O  O44  1  0.51668916  0.35535012  0.43461924  1
  O  O45  1  0.51668916  0.64464988  0.93461924  1
  O  O46  1  0.56847677  0.06661048  0.12891155  1
  O  O47  1  0.56847677  0.93338952  0.62891155  1
  O  O48  1  0.59193322  0.14559397  0.83734372  1
  O  O49  1  0.59193322  0.85440603  0.33734372  1
  O  O50  1  0.66340827  0.41489318  0.89454732  1
  O  O51  1  0.66340827  0.58510682  0.39454732  1
  O  O52  1  0.67717642  0.34054468  0.22300362  1
  O  O53  1  0.67717642  0.65945532  0.72300362  1
  O  O54  1  0.72542133  0.32408570  0.52476425  1
  O  O55  1  0.72542133  0.67591430  0.02476425  1
  O  O56  1  0.77457867  0.17591430  0.02476425  1
  O  O57  1  0.77457867  0.82408570  0.52476425  1
  O  O58  1  0.82282358  0.15945532  0.72300362  1
  O  O59  1  0.82282358  0.84054468  0.22300362  1
  O  O60  1  0.83659173  0.08510682  0.39454732  1
  O  O61  1  0.83659173  0.91489318  0.89454732  1
  O  O62  1  0.90806678  0.35440603  0.33734372  1
  O  O63  1  0.90806678  0.64559397  0.83734372  1
  O  O64  1  0.93152323  0.43338952  0.62891155  1
  O  O65  1  0.93152323  0.56661048  0.12891155  1
  O  O66  1  0.98331084  0.14464988  0.93461924  1
  O  O67  1  0.98331084  0.85535012  0.43461924  1
