# generated using pymatgen
data_Li3Fe(SbO3)4
_symmetry_space_group_name_H-M   'P 1'
_cell_length_a   5.59252697
_cell_length_b   11.16043301
_cell_length_c   9.84139317
_cell_angle_alpha   28.24000121
_cell_angle_beta   51.04079918
_cell_angle_gamma   56.40078986
_symmetry_Int_Tables_number   1
_chemical_formula_structural   Li3Fe(SbO3)4
_chemical_formula_sum   'Li3 Fe1 Sb4 O12'
_cell_volume   226.00161599
_cell_formula_units_Z   1
loop_
 _symmetry_equiv_pos_site_id
 _symmetry_equiv_pos_as_xyz
  1  'x, y, z'
loop_
 _atom_site_type_symbol
 _atom_site_label
 _atom_site_symmetry_multiplicity
 _atom_site_fract_x
 _atom_site_fract_y
 _atom_site_fract_z
 _atom_site_occupancy
  Li  Li0  1  0.27290539  0.50026862  0.28491005  1
  Li  Li1  1  0.78537105  0.99961850  0.78367959  1
  Li  Li2  1  0.77824359  0.49859060  0.78133350  1
  Fe  Fe3  1  0.29388658  0.00385380  0.27917292  1
  Sb  Sb4  1  0.00600231  -0.00026428  0.99121157  1
  Sb  Sb5  1  0.98461214  0.49876457  0.00226368  1
  Sb  Sb6  1  0.49511881  0.99663940  0.50348172  1
  Sb  Sb7  1  0.49646408  0.50400937  0.48772953  1
  O  O8  1  0.36641648  0.29865976  0.11756677  1
  O  O9  1  0.21929690  0.13391085  0.61098965  1
  O  O10  1  0.11412398  0.32659525  0.72144151  1
  O  O11  1  0.87668400  0.19457142  0.21978257  1
  O  O12  1  0.38093968  0.80530846  0.10740946  1
  O  O13  1  0.71927366  0.36424994  0.38115175  1
  O  O14  1  0.21570004  0.63049020  0.61245428  1
  O  O15  1  0.61437380  0.17787438  0.86910709  1
  O  O16  1  0.11236513  0.83105902  0.70996611  1
  O  O17  1  0.87502388  0.70039990  0.21265939  1
  O  O18  1  0.71629577  0.87043078  0.37027099  1
  O  O19  1  0.60650373  0.66497047  0.88301888  1
