# generated using pymatgen
data_Li3V2CoO6
_symmetry_space_group_name_H-M   'P 1'
_cell_length_a   15.47634508
_cell_length_b   9.93950028
_cell_length_c   9.93950014
_cell_angle_alpha   17.38315468
_cell_angle_beta   16.56635973
_cell_angle_gamma   16.56636199
_symmetry_Int_Tables_number   1
_chemical_formula_structural   Li3V2CoO6
_chemical_formula_sum   'Li3 V2 Co1 O6'
_cell_volume   111.72972533
_cell_formula_units_Z   1
loop_
 _symmetry_equiv_pos_site_id
 _symmetry_equiv_pos_as_xyz
  1  'x, y, z'
loop_
 _atom_site_type_symbol
 _atom_site_label
 _atom_site_symmetry_multiplicity
 _atom_site_fract_x
 _atom_site_fract_y
 _atom_site_fract_z
 _atom_site_occupancy
  Li  Li0  1  0.16666700  0.50000000  0.50000000  1
  Li  Li1  1  0.50419328  0.49867067  0.49867067  1
  Li  Li2  1  0.82913972  0.50132933  0.50132933  1
  V  V3  1  0.01458513  0.98904057  0.98904058  1
  V  V4  1  0.31874887  0.01095943  0.01095942  1
  Co  Co5  1  0.66666700  0.00000000  0.00000000  1
  O  O6  1  0.22851892  0.26966246  0.26966246  1
  O  O7  1  0.57913580  0.26069088  0.26069088  1
  O  O8  1  0.10481408  0.73033754  0.73033754  1
  O  O9  1  0.93917410  0.23658809  0.23658809  1
  O  O10  1  0.39415890  0.76341191  0.76341191  1
  O  O11  1  0.75419720  0.73930912  0.73930912  1
