# generated using pymatgen
data_Li4TiCo3O8
_symmetry_space_group_name_H-M   'P 1'
_cell_length_a   5.56253640
_cell_length_b   6.46087965
_cell_length_c   5.10024480
_cell_angle_alpha   90.43295196
_cell_angle_beta   89.62758246
_cell_angle_gamma   90.21532707
_symmetry_Int_Tables_number   1
_chemical_formula_structural   Li4TiCo3O8
_chemical_formula_sum   'Li4 Ti1 Co3 O8'
_cell_volume   183.28671077
_cell_formula_units_Z   1
loop_
 _symmetry_equiv_pos_site_id
 _symmetry_equiv_pos_as_xyz
  1  'x, y, z'
loop_
 _atom_site_type_symbol
 _atom_site_label
 _atom_site_symmetry_multiplicity
 _atom_site_fract_x
 _atom_site_fract_y
 _atom_site_fract_z
 _atom_site_occupancy
  Li  Li0  1  0.08399207  0.62122260  0.99641919  1
  Li  Li1  1  0.42155237  0.12537961  0.49516986  1
  Li  Li2  1  0.57894001  0.87582098  0.99774635  1
  Li  Li3  1  0.91290345  0.37458455  0.49312886  1
  Ti  Ti4  1  0.91945971  0.87662738  0.49859355  1
  Co  Co5  1  0.08881156  0.13922372  0.98876095  1
  Co  Co6  1  0.41851654  0.62193063  0.49673836  1
  Co  Co7  1  0.57371915  0.38257322  0.01004767  1
  O  O8  1  0.07413756  0.10842245  0.36857972  1
  O  O9  1  0.07587354  0.64109893  0.39236427  1
  O  O10  1  0.40648105  0.13164586  0.89280748  1
  O  O11  1  0.42591415  0.61151400  0.88137670  1
  O  O12  1  0.57937965  0.37227361  0.36769238  1
  O  O13  1  0.60633478  0.87052059  0.39299980  1
  O  O14  1  0.90559635  0.35952435  0.89120339  1
  O  O15  1  0.92838906  0.88763852  0.86277047  1
