# generated using pymatgen
data_Li2VP2O7
_symmetry_space_group_name_H-M   'P 1'
_cell_length_a   9.46396179
_cell_length_b   8.17461739
_cell_length_c   9.46367269
_cell_angle_alpha   70.88348868
_cell_angle_beta   149.04409961
_cell_angle_gamma   119.49943710
_symmetry_Int_Tables_number   1
_chemical_formula_structural   Li2VP2O7
_chemical_formula_sum   'Li4 V2 P4 O14'
_cell_volume   320.34873531
_cell_formula_units_Z   2
loop_
 _symmetry_equiv_pos_site_id
 _symmetry_equiv_pos_as_xyz
  1  'x, y, z'
loop_
 _atom_site_type_symbol
 _atom_site_label
 _atom_site_symmetry_multiplicity
 _atom_site_fract_x
 _atom_site_fract_y
 _atom_site_fract_z
 _atom_site_occupancy
  Li  Li0  1  0.50294877  0.67228786  0.94905242  1
  Li  Li1  1  0.27680169  0.82770425  0.33071748  1
  Li  Li2  1  0.72320464  0.17229640  0.66927818  1
  Li  Li3  1  0.49705119  0.32771574  0.05094110  1
  V  V4  1  0.99990181  0.49998228  0.99993565  1
  V  V5  1  0.50003868  0.99999126  0.00005507  1
  P  P6  1  0.15863695  0.39131227  0.47399408  1
  P  P7  1  0.08274607  0.10875875  0.26727016  1
  P  P8  1  0.91727336  0.89124051  0.73274033  1
  P  P9  1  0.84137542  0.60869605  0.52601431  1
  O  O10  1  0.00146167  0.76349575  0.94144399  1
  O  O11  1  0.17796513  0.73651336  0.73795552  1
  O  O12  1  0.20536285  0.05191297  0.87073668  1
  O  O13  1  0.36939541  0.46297450  0.75975906  1
  O  O14  1  0.18133296  0.55186155  0.34672459  1
  O  O15  1  0.27131394  0.24999719  0.52132214  1
  O  O16  1  0.70336816  0.96294132  0.59374588  1
  O  O17  1  0.29663442  0.03706807  0.40624862  1
  O  O18  1  0.72869517  0.75001467  0.47867580  1
  O  O19  1  0.81863980  0.44813413  0.65325064  1
  O  O20  1  0.63061930  0.53703703  0.24023934  1
  O  O21  1  0.79466630  0.94808224  0.12929774  1
  O  O22  1  0.82205210  0.26349054  0.26206612  1
  O  O23  1  0.99851422  0.23649330  0.05853811  1
