# generated using pymatgen
data_Li4Cr5Fe3O16
_symmetry_space_group_name_H-M   'P 1'
_cell_length_a   5.89252847
_cell_length_b   5.87690086
_cell_length_c   9.51771901
_cell_angle_alpha   89.99425168
_cell_angle_beta   90.95030669
_cell_angle_gamma   119.91699835
_symmetry_Int_Tables_number   1
_chemical_formula_structural   Li4Cr5Fe3O16
_chemical_formula_sum   'Li4 Cr5 Fe3 O16'
_cell_volume   285.62561115
_cell_formula_units_Z   1
loop_
 _symmetry_equiv_pos_site_id
 _symmetry_equiv_pos_as_xyz
  1  'x, y, z'
loop_
 _atom_site_type_symbol
 _atom_site_label
 _atom_site_symmetry_multiplicity
 _atom_site_fract_x
 _atom_site_fract_y
 _atom_site_fract_z
 _atom_site_occupancy
  Li  Li0  1  0.33508607  0.66752509  0.89370462  1
  Li  Li1  1  0.99710894  0.99860082  0.99651293  1
  Li  Li2  1  0.99771628  0.99888520  0.49549264  1
  Li  Li3  1  0.66544079  0.33273590  0.39510181  1
  Cr  Cr4  1  0.16576496  0.83001187  0.21031804  1
  Cr  Cr5  1  0.33744592  0.66875296  0.48541904  1
  Cr  Cr6  1  0.16577254  0.33579424  0.21032174  1
  Cr  Cr7  1  0.33567465  0.16784639  0.70790723  1
  Cr  Cr8  1  0.67123896  0.33563162  0.98283516  1
  Fe  Fe9  1  0.65663947  0.82833361  0.21716743  1
  Fe  Fe10  1  0.82849883  0.66042752  0.71494939  1
  Fe  Fe11  1  0.82850530  0.16809419  0.71497598  1
  O  O12  1  0.17753420  0.84597029  0.60281681  1
  O  O13  1  0.04299012  0.52148698  0.33418847  1
  O  O14  1  0.32877300  0.66440011  0.10231916  1
  O  O15  1  0.00284942  0.00139630  0.30970060  1
  O  O16  1  0.00547173  0.00269097  0.81051214  1
  O  O17  1  0.17750208  0.33158639  0.60283386  1
  O  O18  1  0.46870402  0.95963056  0.34060059  1
  O  O19  1  0.46865354  0.50905118  0.34063072  1
  O  O20  1  0.32901056  0.16453059  0.10872521  1
  O  O21  1  0.67213624  0.83610295  0.59856323  1
  O  O22  1  0.51088573  0.47036138  0.83996783  1
  O  O23  1  0.51091316  0.04053147  0.83997676  1
  O  O24  1  0.66418735  0.33214699  0.60226106  1
  O  O25  1  0.84681144  0.67042277  0.10340504  1
  O  O26  1  0.96183898  0.48093341  0.84322458  1
  O  O27  1  0.84684471  0.17641625  0.10340791  1
