# generated using pymatgen
data_Ba4Y2Cu5O14
_symmetry_space_group_name_H-M   'P 1'
_cell_length_a   7.76115577
_cell_length_b   5.49651912
_cell_length_c   12.71334175
_cell_angle_alpha   77.49610879
_cell_angle_beta   72.14176723
_cell_angle_gamma   45.08909691
_symmetry_Int_Tables_number   1
_chemical_formula_structural   Ba4Y2Cu5O14
_chemical_formula_sum   'Ba4 Y2 Cu5 O14'
_cell_volume   365.58398968
_cell_formula_units_Z   1
loop_
 _symmetry_equiv_pos_site_id
 _symmetry_equiv_pos_as_xyz
  1  'x, y, z'
loop_
 _atom_site_type_symbol
 _atom_site_label
 _atom_site_symmetry_multiplicity
 _atom_site_fract_x
 _atom_site_fract_y
 _atom_site_fract_z
 _atom_site_occupancy
  Ba  Ba0  1  0.39970922  0.50032317  0.19844265  1
  Ba  Ba1  1  0.09370968  0.49998957  0.80998701  1
  Ba  Ba2  1  0.90003140  0.49967683  0.19844265  1
  Ba  Ba3  1  0.59369924  0.50001043  0.80998701  1
  Y  Y4  1  0.25466438  0.49990160  0.49001525  1
  Y  Y5  1  0.75456598  0.50009840  0.49001525  1
  Cu  Cu6  1  0.00132505  0.00000000  0.99398444  1
  Cu  Cu7  1  0.49941373  0.00000000  0.99800862  1
  Cu  Cu8  1  0.17825854  1.00000000  0.64223846  1
  Cu  Cu9  1  0.67894991  0.00000000  0.64091454  1
  Cu  Cu10  1  0.31121150  1.00000000  0.37680483  1
  O  O11  1  0.23624676  0.50084694  0.99974517  1
  O  O12  1  0.07213868  0.47274326  0.38215344  1
  O  O13  1  0.42556897  1.00000000  0.14969294  1
  O  O14  1  0.07174316  0.00000000  0.38177959  1
  O  O15  1  0.73709369  0.49915306  0.99974517  1
  O  O16  1  0.43957801  0.49757270  0.62168827  1
  O  O17  1  0.54488194  0.52725674  0.38215344  1
  O  O18  1  0.07973142  1.00000000  0.84050077  1
  O  O19  1  0.92831513  1.00000000  0.14425371  1
  O  O20  1  0.43914887  1.00000000  0.62238051  1
  O  O21  1  0.54566133  1.00000000  0.38180452  1
  O  O22  1  0.93715170  0.50242730  0.62168827  1
  O  O23  1  0.57802422  1.00000000  0.84447131  1
  O  O24  1  0.93733648  0.00000000  0.62238217  1
