# generated using pymatgen
data_CrSn3(PO4)6
_symmetry_space_group_name_H-M   'P 1'
_cell_length_a   8.95871198
_cell_length_b   8.95871212
_cell_length_c   8.95871235
_cell_angle_alpha   58.12721316
_cell_angle_beta   58.12721522
_cell_angle_gamma   58.12721581
_symmetry_Int_Tables_number   1
_chemical_formula_structural   CrSn3(PO4)6
_chemical_formula_sum   'Cr1 Sn3 P6 O24'
_cell_volume   486.59256861
_cell_formula_units_Z   1
loop_
 _symmetry_equiv_pos_site_id
 _symmetry_equiv_pos_as_xyz
  1  'x, y, z'
loop_
 _atom_site_type_symbol
 _atom_site_label
 _atom_site_symmetry_multiplicity
 _atom_site_fract_x
 _atom_site_fract_y
 _atom_site_fract_z
 _atom_site_occupancy
  Cr  Cr0  1  0.85662218  0.85662218  0.85662218  1
  Sn  Sn1  1  0.14315957  0.14315957  0.14315957  1
  Sn  Sn2  1  0.35816420  0.35816420  0.35816420  1
  Sn  Sn3  1  0.64308564  0.64308564  0.64308564  1
  P  P4  1  0.03552758  0.74984864  0.46802026  1
  P  P5  1  0.46802026  0.03552758  0.74984864  1
  P  P6  1  0.74984864  0.46802026  0.03552758  1
  P  P7  1  0.24421069  0.54271419  0.96072452  1
  P  P8  1  0.54271419  0.96072452  0.24421069  1
  P  P9  1  0.96072452  0.24421069  0.54271419  1
  O  O10  1  0.13103623  0.26311525  0.52434550  1
  O  O11  1  0.26311525  0.52434550  0.13103623  1
  O  O12  1  0.05984675  0.92005524  0.29081623  1
  O  O13  1  0.52434550  0.13103623  0.26311525  1
  O  O14  1  0.21440591  0.57733682  0.45462994  1
  O  O15  1  0.99352047  0.78686143  0.64325940  1
  O  O16  1  0.29081623  0.05984675  0.92005524  1
  O  O17  1  0.45462994  0.21440591  0.57733682  1
  O  O18  1  0.57733682  0.45462994  0.21440591  1
  O  O19  1  0.21680235  0.37545347  0.98688431  1
  O  O20  1  0.06438675  0.72135486  0.92880067  1
  O  O21  1  0.37545347  0.98688431  0.21680235  1
  O  O22  1  0.64325940  0.99352047  0.78686143  1
  O  O23  1  0.92005524  0.29081623  0.05984675  1
  O  O24  1  0.78686143  0.64325940  0.99352047  1
  O  O25  1  0.40908261  0.57475571  0.77939223  1
  O  O26  1  0.57475571  0.77939223  0.40908261  1
  O  O27  1  0.72135486  0.92880067  0.06438675  1
  O  O28  1  0.98688431  0.21680235  0.37545347  1
  O  O29  1  0.77939223  0.40908261  0.57475571  1
  O  O30  1  0.49002552  0.87080277  0.72095111  1
  O  O31  1  0.92880067  0.06438675  0.72135486  1
  O  O32  1  0.72095111  0.49002552  0.87080277  1
  O  O33  1  0.87080277  0.72095111  0.49002552  1
