# generated using pymatgen
data_Li3Cr(PO4)2
_symmetry_space_group_name_H-M   'P 1'
_cell_length_a   8.42142183
_cell_length_b   8.42142182
_cell_length_c   8.42142175
_cell_angle_alpha   63.67410243
_cell_angle_beta   63.67410242
_cell_angle_gamma   63.67410390
_symmetry_Int_Tables_number   1
_chemical_formula_structural   Li3Cr(PO4)2
_chemical_formula_sum   'Li9 Cr3 P6 O24'
_cell_volume   456.58368995
_cell_formula_units_Z   3
loop_
 _symmetry_equiv_pos_site_id
 _symmetry_equiv_pos_as_xyz
  1  'x, y, z'
loop_
 _atom_site_type_symbol
 _atom_site_label
 _atom_site_symmetry_multiplicity
 _atom_site_fract_x
 _atom_site_fract_y
 _atom_site_fract_z
 _atom_site_occupancy
  Li  Li0  1  0.24354178  0.85030501  0.65329498  1
  Li  Li1  1  0.32616495  0.80492212  0.14244597  1
  Li  Li2  1  0.14244597  0.32616495  0.80492212  1
  Li  Li3  1  0.15230683  0.15230683  0.15230683  1
  Li  Li4  1  0.00947753  0.00947753  0.00947753  1
  Li  Li5  1  0.49759502  0.49759502  0.49759502  1
  Li  Li6  1  0.85030501  0.65329498  0.24354178  1
  Li  Li7  1  0.65329498  0.24354178  0.85030501  1
  Li  Li8  1  0.80492212  0.14244597  0.32616495  1
  Cr  Cr9  1  0.35664736  0.35664736  0.35664736  1
  Cr  Cr10  1  0.85724468  0.85724468  0.85724468  1
  Cr  Cr11  1  0.64183679  0.64183679  0.64183679  1
  P  P12  1  0.04611482  0.74530509  0.45365399  1
  P  P13  1  0.54816086  0.94991196  0.24656686  1
  P  P14  1  0.24656686  0.54816086  0.94991196  1
  P  P15  1  0.74530509  0.45365399  0.04611482  1
  P  P16  1  0.45365399  0.04611482  0.74530509  1
  P  P17  1  0.94991196  0.24656686  0.54816086  1
  O  O18  1  0.05147792  0.90299648  0.26798427  1
  O  O19  1  0.09149857  0.74451609  0.93266102  1
  O  O20  1  0.49527603  0.88929986  0.67176625  1
  O  O21  1  0.61735793  0.01892248  0.80315913  1
  O  O22  1  0.24238916  0.59336929  0.43005244  1
  O  O23  1  0.18883163  0.39197854  0.97194112  1
  O  O24  1  0.11456389  0.30372183  0.51577047  1
  O  O25  1  0.57898815  0.75420485  0.40177599  1
  O  O26  1  0.74451609  0.93266102  0.09149857  1
  O  O27  1  0.97194112  0.18883163  0.39197854  1
  O  O28  1  0.30372183  0.51577047  0.11456389  1
  O  O29  1  0.40177599  0.57898815  0.75420485  1
  O  O30  1  0.59336929  0.43005244  0.24238916  1
  O  O31  1  0.67176625  0.49527603  0.88929986  1
  O  O32  1  0.01892248  0.80315913  0.61735793  1
  O  O33  1  0.43005244  0.24238916  0.59336929  1
  O  O34  1  0.26798427  0.05147792  0.90299648  1
  O  O35  1  0.80315913  0.61735793  0.01892248  1
  O  O36  1  0.88929986  0.67176625  0.49527603  1
  O  O37  1  0.75420485  0.40177599  0.57898815  1
  O  O38  1  0.39197854  0.97194112  0.18883163  1
  O  O39  1  0.51577047  0.11456389  0.30372183  1
  O  O40  1  0.90299648  0.26798427  0.05147792  1
  O  O41  1  0.93266102  0.09149857  0.74451609  1
