# generated using pymatgen
data_Ni3OF5
_symmetry_space_group_name_H-M   'P 1'
_cell_length_a   7.33416936
_cell_length_b   5.63391094
_cell_length_c   5.62720743
_cell_angle_alpha   72.39749881
_cell_angle_beta   72.33036587
_cell_angle_gamma   72.33622135
_symmetry_Int_Tables_number   1
_chemical_formula_structural   Ni3OF5
_chemical_formula_sum   'Ni6 O2 F10'
_cell_volume   205.35985975
_cell_formula_units_Z   2
loop_
 _symmetry_equiv_pos_site_id
 _symmetry_equiv_pos_as_xyz
  1  'x, y, z'
loop_
 _atom_site_type_symbol
 _atom_site_label
 _atom_site_symmetry_multiplicity
 _atom_site_fract_x
 _atom_site_fract_y
 _atom_site_fract_z
 _atom_site_occupancy
  Ni  Ni0  1  0.83762379  0.65851095  0.66625015  1
  Ni  Ni1  1  0.33243496  0.66032863  0.66188944  1
  Ni  Ni2  1  0.65988475  0.33191151  0.33603274  1
  Ni  Ni3  1  0.16770629  0.33681807  0.34520306  1
  Ni  Ni4  1  0.49998165  0.99740995  0.00032883  1
  Ni  Ni5  1  0.00043951  0.01186711  0.99132114  1
  O  O6  1  0.36920899  0.43233949  0.43774243  1
  O  O7  1  0.00228866  0.30702696  0.69551641  1
  F  F8  1  0.67038489  0.02479215  0.63811659  1
  F  F9  1  0.32965044  0.36067099  0.97421597  1
  F  F10  1  0.30005591  0.89506430  0.89466982  1
  F  F11  1  0.63172736  0.56446597  0.56606709  1
  F  F12  1  0.96189268  0.23779699  0.23654651  1
  F  F13  1  0.70159829  0.10111372  0.09984695  1
  F  F14  1  0.03510989  0.76963598  0.76716419  1
  F  F15  1  0.33302519  0.96911144  0.36220615  1
  F  F16  1  0.66631374  0.63541310  0.03080450  1
  F  F17  1  0.00067302  0.70572168  0.29607602  1
