# generated using pymatgen
data_Li2Cr3NiO8
_symmetry_space_group_name_H-M   'P 1'
_cell_length_a   5.82796622
_cell_length_b   5.82799517
_cell_length_c   9.63609509
_cell_angle_alpha   89.99433437
_cell_angle_beta   90.01565981
_cell_angle_gamma   120.00002482
_symmetry_Int_Tables_number   1
_chemical_formula_structural   Li2Cr3NiO8
_chemical_formula_sum   'Li4 Cr6 Ni2 O16'
_cell_volume   283.44434187
_cell_formula_units_Z   2
loop_
 _symmetry_equiv_pos_site_id
 _symmetry_equiv_pos_as_xyz
  1  'x, y, z'
loop_
 _atom_site_type_symbol
 _atom_site_label
 _atom_site_symmetry_multiplicity
 _atom_site_fract_x
 _atom_site_fract_y
 _atom_site_fract_z
 _atom_site_occupancy
  Li  Li0  1  0.33337584  0.66670407  0.89358702  1
  Li  Li1  1  0.99991390  0.00002518  0.99788585  1
  Li  Li2  1  0.99998260  0.00005166  0.49786416  1
  Li  Li3  1  0.66669301  0.33337879  0.39370408  1
  Cr  Cr4  1  0.16856727  0.83140069  0.21381619  1
  Cr  Cr5  1  0.16857158  0.33702932  0.21374711  1
  Cr  Cr6  1  0.66297516  0.83146317  0.21373850  1
  Cr  Cr7  1  0.33714380  0.16853313  0.71380970  1
  Cr  Cr8  1  0.83148956  0.66285796  0.71381538  1
  Cr  Cr9  1  0.83150763  0.16851656  0.71373633  1
  Ni  Ni10  1  0.33336310  0.66670333  0.49000678  1
  Ni  Ni11  1  0.66663948  0.33342556  0.98993149  1
  O  O12  1  0.15961801  0.84033932  0.61027302  1
  O  O13  1  0.03817148  0.51906638  0.32743090  1
  O  O14  1  0.33325841  0.66662778  0.10264297  1
  O  O15  1  0.00006077  0.99998609  0.31533427  1
  O  O16  1  0.00008150  0.00002927  0.81534583  1
  O  O17  1  0.15963268  0.31938342  0.61027365  1
  O  O18  1  0.48094810  0.96181934  0.32745211  1
  O  O19  1  0.48087435  0.51917080  0.32748102  1
  O  O20  1  0.31927155  0.15965750  0.11025798  1
  O  O21  1  0.68064138  0.84035400  0.61026660  1
  O  O22  1  0.51912480  0.48096491  0.82740941  1
  O  O23  1  0.51918530  0.03826121  0.82741900  1
  O  O24  1  0.66661890  0.33333708  0.60266465  1
  O  O25  1  0.84025004  0.68067317  0.11024618  1
  O  O26  1  0.96180298  0.48088685  0.82744005  1
  O  O27  1  0.84023684  0.15965245  0.11026174  1
