# generated using pymatgen
data_LiMnF3
_symmetry_space_group_name_H-M   'P 1'
_cell_length_a   5.41345918
_cell_length_b   5.41249589
_cell_length_c   9.86130506
_cell_angle_alpha   90.01258667
_cell_angle_beta   89.97105034
_cell_angle_gamma   120.01148580
_symmetry_Int_Tables_number   1
_chemical_formula_structural   LiMnF3
_chemical_formula_sum   'Li4 Mn4 F12'
_cell_volume   250.19990452
_cell_formula_units_Z   4
loop_
 _symmetry_equiv_pos_site_id
 _symmetry_equiv_pos_as_xyz
  1  'x, y, z'
loop_
 _atom_site_type_symbol
 _atom_site_label
 _atom_site_symmetry_multiplicity
 _atom_site_fract_x
 _atom_site_fract_y
 _atom_site_fract_z
 _atom_site_occupancy
  Li  Li0  1  0.33309500  0.66663017  0.43260634  1
  Li  Li1  1  0.33358728  0.66661730  0.06701855  1
  Li  Li2  1  0.66692715  0.33349647  0.56736456  1
  Li  Li3  1  0.66650289  0.33330816  0.93296217  1
  Mn  Mn4  1  0.00000156  -0.00001712  0.24977278  1
  Mn  Mn5  1  0.00002706  0.00001307  0.75022381  1
  Mn  Mn6  1  0.33336194  0.66670538  0.75008207  1
  Mn  Mn7  1  0.66664825  0.33325960  0.24990869  1
  F  F8  1  0.00731830  0.66788381  0.86972535  1
  F  F9  1  0.33222929  0.99277172  0.63052789  1
  F  F10  1  0.00739184  0.33940503  0.63055408  1
  F  F11  1  0.33195100  0.33950540  0.86983200  1
  F  F12  1  0.66047496  0.99248140  0.86988771  1
  F  F13  1  0.33927269  0.33212213  0.36937466  1
  F  F14  1  0.66067417  0.66794121  0.63055670  1
  F  F15  1  0.33954886  0.00738719  0.13018700  1
  F  F16  1  0.66813553  0.66045720  0.13010480  1
  F  F17  1  0.99239784  0.66051292  0.36964939  1
  F  F18  1  0.66774634  0.00721454  0.36938653  1
  F  F19  1  0.99270804  0.33210241  0.13027492  1
