# generated using pymatgen
data_Li3Mn4O8
_symmetry_space_group_name_H-M   'P 1'
_cell_length_a   5.87713856
_cell_length_b   5.87713856
_cell_length_c   6.19005181
_cell_angle_alpha   61.65857849
_cell_angle_beta   61.65857849
_cell_angle_gamma   60.00000000
_symmetry_Int_Tables_number   1
_chemical_formula_structural   Li3Mn4O8
_chemical_formula_sum   'Li3 Mn4 O8'
_cell_volume   154.86576060
_cell_formula_units_Z   1
loop_
 _symmetry_equiv_pos_site_id
 _symmetry_equiv_pos_as_xyz
  1  'x, y, z'
loop_
 _atom_site_type_symbol
 _atom_site_label
 _atom_site_symmetry_multiplicity
 _atom_site_fract_x
 _atom_site_fract_y
 _atom_site_fract_z
 _atom_site_occupancy
  Li  Li0  1  0.14213913  0.14213913  0.07358262  1
  Li  Li1  1  0.00000000  0.00000000  0.50000000  1
  Li  Li2  1  0.85786087  0.85786087  0.92641738  1
  Mn  Mn3  1  0.50000000  0.50000000  0.00000000  1
  Mn  Mn4  1  0.50000000  0.00000000  0.50000000  1
  Mn  Mn5  1  0.00000000  0.50000000  0.50000000  1
  Mn  Mn6  1  0.50000000  0.50000000  0.50000000  1
  O  O7  1  0.71851135  0.24499248  0.29150469  1
  O  O8  1  0.24499248  0.24499248  0.29150469  1
  O  O9  1  0.24499248  0.71851135  0.29150469  1
  O  O10  1  0.26525507  0.26525507  0.70423380  1
  O  O11  1  0.75500752  0.28148865  0.70849531  1
  O  O12  1  0.73474493  0.73474493  0.29576620  1
  O  O13  1  0.75500752  0.75500752  0.70849531  1
  O  O14  1  0.28148865  0.75500752  0.70849531  1
