# generated using pymatgen
data_VSb(PO4)2
_symmetry_space_group_name_H-M   'P 1'
_cell_length_a   10.84129280
_cell_length_b   5.97409698
_cell_length_c   5.12499104
_cell_angle_alpha   90.00000000
_cell_angle_beta   93.90913827
_cell_angle_gamma   90.00000000
_symmetry_Int_Tables_number   1
_chemical_formula_structural   VSb(PO4)2
_chemical_formula_sum   'V2 Sb2 P4 O16'
_cell_volume   331.15769693
_cell_formula_units_Z   2
loop_
 _symmetry_equiv_pos_site_id
 _symmetry_equiv_pos_as_xyz
  1  'x, y, z'
loop_
 _atom_site_type_symbol
 _atom_site_label
 _atom_site_symmetry_multiplicity
 _atom_site_fract_x
 _atom_site_fract_y
 _atom_site_fract_z
 _atom_site_occupancy
  V  V0  1  0.20919937  0.75000000  0.43592094  1
  V  V1  1  0.79080063  0.25000000  0.56407906  1
  Sb  Sb2  1  0.27003008  0.25000000  0.96201576  1
  Sb  Sb3  1  0.72996992  0.75000000  0.03798424  1
  P  P4  1  0.08123640  0.25000000  0.41328610  1
  P  P5  1  0.38164902  0.75000000  0.88550501  1
  P  P6  1  0.61835098  0.25000000  0.11449499  1
  P  P7  1  0.91876360  0.75000000  0.58671390  1
  O  O8  1  0.05729202  0.75000000  0.65101548  1
  O  O9  1  0.11122337  0.25000000  0.71256225  1
  O  O10  1  0.14647391  0.04496258  0.28403990  1
  O  O11  1  0.14647391  0.45503742  0.28403990  1
  O  O12  1  0.31533828  0.94986155  0.72036951  1
  O  O13  1  0.31533828  0.55013845  0.72036951  1
  O  O14  1  0.33737077  0.75000000  0.16207631  1
  O  O15  1  0.48033857  0.25000000  0.13044928  1
  O  O16  1  0.51966143  0.75000000  0.86955072  1
  O  O17  1  0.66262923  0.25000000  0.83792369  1
  O  O18  1  0.68466172  0.05013845  0.27963049  1
  O  O19  1  0.68466172  0.44986155  0.27963049  1
  O  O20  1  0.85352609  0.54496258  0.71596010  1
  O  O21  1  0.85352609  0.95503742  0.71596010  1
  O  O22  1  0.88877663  0.75000000  0.28743775  1
  O  O23  1  0.94270798  0.25000000  0.34898452  1
