# generated using pymatgen
data_Li2V3CuO8
_symmetry_space_group_name_H-M   'P 1'
_cell_length_a   5.91974426
_cell_length_b   5.91974480
_cell_length_c   5.91974480
_cell_angle_alpha   59.61655814
_cell_angle_beta   59.61655275
_cell_angle_gamma   59.61654743
_symmetry_Int_Tables_number   1
_chemical_formula_structural   Li2V3CuO8
_chemical_formula_sum   'Li2 V3 Cu1 O8'
_cell_volume   145.40947359
_cell_formula_units_Z   1
loop_
 _symmetry_equiv_pos_site_id
 _symmetry_equiv_pos_as_xyz
  1  'x, y, z'
loop_
 _atom_site_type_symbol
 _atom_site_label
 _atom_site_symmetry_multiplicity
 _atom_site_fract_x
 _atom_site_fract_y
 _atom_site_fract_z
 _atom_site_occupancy
  Li  Li0  1  0.12174652  0.12174652  0.12174652  1
  Li  Li1  1  0.49990253  0.49990253  0.49990253  1
  V  V2  1  0.00507989  0.49883361  0.49883361  1
  V  V3  1  0.49883361  0.00507989  0.49883361  1
  V  V4  1  0.49883361  0.49883361  0.00507989  1
  Cu  Cu5  1  0.87711837  0.87711837  0.87711837  1
  O  O6  1  0.25964732  0.25964732  0.25964732  1
  O  O7  1  0.24876572  0.24876572  0.71043229  1
  O  O8  1  0.24876572  0.71043229  0.24876572  1
  O  O9  1  0.71043229  0.24876572  0.24876572  1
  O  O10  1  0.28944438  0.74992852  0.74992852  1
  O  O11  1  0.74992852  0.28944438  0.74992852  1
  O  O12  1  0.74992852  0.74992852  0.28944438  1
  O  O13  1  0.74157400  0.74157400  0.74157400  1
