# generated using pymatgen
data_Li4CoO4
_symmetry_space_group_name_H-M   'P 1'
_cell_length_a   6.41181698
_cell_length_b   6.40722722
_cell_length_c   4.85756376
_cell_angle_alpha   90.00000000
_cell_angle_beta   90.74682011
_cell_angle_gamma   90.00000000
_symmetry_Int_Tables_number   1
_chemical_formula_structural   Li4CoO4
_chemical_formula_sum   'Li8 Co2 O8'
_cell_volume   199.54132860
_cell_formula_units_Z   2
loop_
 _symmetry_equiv_pos_site_id
 _symmetry_equiv_pos_as_xyz
  1  'x, y, z'
loop_
 _atom_site_type_symbol
 _atom_site_label
 _atom_site_symmetry_multiplicity
 _atom_site_fract_x
 _atom_site_fract_y
 _atom_site_fract_z
 _atom_site_occupancy
  Li  Li0  1  0.42849622  0.50677012  0.75625548  1
  Li  Li1  1  0.42849622  0.99322988  0.75625548  1
  Li  Li2  1  0.52169607  0.05581895  0.24447953  1
  Li  Li3  1  0.52169607  0.44418105  0.24447953  1
  Li  Li4  1  0.73489508  0.75000000  0.30883241  1
  Li  Li5  1  0.80474818  0.75000000  0.79001189  1
  Li  Li6  1  0.99417741  0.04227829  0.27052472  1
  Li  Li7  1  0.99417741  0.45772171  0.27052472  1
  Co  Co8  1  0.25315855  0.75000000  0.23592600  1
  Co  Co9  1  0.76122887  0.25000000  0.74218907  1
  O  O10  1  0.96294310  0.25000000  0.98544104  1
  O  O11  1  0.26923291  0.98478040  0.42816586  1
  O  O12  1  0.26923291  0.51521960  0.42816586  1
  O  O13  1  0.52114631  0.25000000  0.94479581  1
  O  O14  1  0.49655858  0.75000000  0.02455499  1
  O  O15  1  0.74038648  0.49186791  0.53262343  1
  O  O16  1  0.74038648  0.00813209  0.53262343  1
  O  O17  1  0.98932317  0.75000000  0.10120775  1
