# generated using pymatgen
data_LiAlB4
_symmetry_space_group_name_H-M   'P 1'
_cell_length_a   3.32147759
_cell_length_b   5.90027496
_cell_length_c   11.33280060
_cell_angle_alpha   90.00000000
_cell_angle_beta   90.00000000
_cell_angle_gamma   90.00000000
_symmetry_Int_Tables_number   1
_chemical_formula_structural   LiAlB4
_chemical_formula_sum   'Li4 Al4 B16'
_cell_volume   222.09604497
_cell_formula_units_Z   4
loop_
 _symmetry_equiv_pos_site_id
 _symmetry_equiv_pos_as_xyz
  1  'x, y, z'
loop_
 _atom_site_type_symbol
 _atom_site_label
 _atom_site_symmetry_multiplicity
 _atom_site_fract_x
 _atom_site_fract_y
 _atom_site_fract_z
 _atom_site_occupancy
  Li  Li0  1  0.00000000  0.37265971  0.14980377  1
  Li  Li1  1  0.00000000  0.62734029  0.85019623  1
  Li  Li2  1  0.00000000  0.12734029  0.64980377  1
  Li  Li3  1  0.00000000  0.87265971  0.35019623  1
  Al  Al4  1  0.00000000  0.85678297  0.09257258  1
  Al  Al5  1  0.00000000  0.14321703  0.90742742  1
  Al  Al6  1  0.00000000  0.64321703  0.59257258  1
  Al  Al7  1  0.00000000  0.35678297  0.40742742  1
  B  B8  1  0.50000000  0.01910720  0.19694838  1
  B  B9  1  0.50000000  0.98089280  0.80305162  1
  B  B10  1  0.50000000  0.48089280  0.69694838  1
  B  B11  1  0.50000000  0.51910720  0.30305162  1
  B  B12  1  0.50000000  0.11642597  0.04998592  1
  B  B13  1  0.50000000  0.88357403  0.95001408  1
  B  B14  1  0.50000000  0.38357403  0.54998592  1
  B  B15  1  0.50000000  0.61642597  0.45001408  1
  B  B16  1  0.50000000  0.63192016  0.02861825  1
  B  B17  1  0.50000000  0.36807984  0.97138175  1
  B  B18  1  0.50000000  0.86807984  0.52861825  1
  B  B19  1  0.50000000  0.13192016  0.47138175  1
  B  B20  1  0.50000000  0.69796353  0.18671386  1
  B  B21  1  0.50000000  0.30203647  0.81328614  1
  B  B22  1  0.50000000  0.80203647  0.68671386  1
  B  B23  1  0.50000000  0.19796353  0.31328614  1
