# generated using pymatgen
data_Li3MnV(PO4)3
_symmetry_space_group_name_H-M   'P 1'
_cell_length_a   9.86304323
_cell_length_b   9.86304408
_cell_length_c   9.80810702
_cell_angle_alpha   86.76591311
_cell_angle_beta   93.23408372
_cell_angle_gamma   94.90383940
_symmetry_Int_Tables_number   1
_chemical_formula_structural   Li3MnV(PO4)3
_chemical_formula_sum   'Li12 Mn4 V4 P12 O48'
_cell_volume   947.84507755
_cell_formula_units_Z   4
loop_
 _symmetry_equiv_pos_site_id
 _symmetry_equiv_pos_as_xyz
  1  'x, y, z'
loop_
 _atom_site_type_symbol
 _atom_site_label
 _atom_site_symmetry_multiplicity
 _atom_site_fract_x
 _atom_site_fract_y
 _atom_site_fract_z
 _atom_site_occupancy
  Li  Li0  1  0.01190589  0.51321670  0.24697573  1
  Li  Li1  1  0.97693226  0.25044061  0.38664150  1
  Li  Li2  1  0.22524393  0.56360531  0.46745379  1
  Li  Li3  1  0.22805787  0.73458743  0.17992620  1
  Li  Li4  1  0.25044061  0.97693226  0.61335850  1
  Li  Li5  1  0.37258425  0.74910744  0.80909494  1
  Li  Li6  1  0.51321670  0.01190589  0.75302427  1
  Li  Li7  1  0.56360531  0.22524393  0.53254621  1
  Li  Li8  1  0.69171094  0.91923761  0.97996478  1
  Li  Li9  1  0.73458743  0.22805787  0.82007380  1
  Li  Li10  1  0.74910744  0.37258425  0.19090506  1
  Li  Li11  1  0.91923761  0.69171094  0.02003522  1
  Mn  Mn12  1  0.53364533  0.53364533  0.50000000  1
  Mn  Mn13  1  0.74281519  0.97355492  0.27757340  1
  Mn  Mn14  1  0.75625000  0.75625000  0.50000000  1
  Mn  Mn15  1  0.97355492  0.74281519  0.72242660  1
  V  V16  1  0.02798858  0.24753674  0.78232039  1
  V  V17  1  0.24729211  0.24729211  1.00000000  1
  V  V18  1  0.24753674  0.02798858  0.21767961  1
  V  V19  1  0.47175855  0.47175855  0.00000000  1
  P  P20  1  0.05350802  0.81667483  0.40547451  1
  P  P21  1  0.17266573  0.94632898  0.90303853  1
  P  P22  1  0.15961558  0.54824887  0.93171541  1
  P  P23  1  0.32418517  0.34071554  0.30173668  1
  P  P24  1  0.34071554  0.32418517  0.69826332  1
  P  P25  1  0.44390871  0.83750694  0.42532134  1
  P  P26  1  0.54824887  0.15961558  0.06828459  1
  P  P27  1  0.64986332  0.68777766  0.80049989  1
  P  P28  1  0.68777766  0.64986332  0.19950011  1
  P  P29  1  0.83750694  0.44390871  0.57467866  1
  P  P30  1  0.81667483  0.05350802  0.59452549  1
  P  P31  1  0.94632898  0.17266573  0.09696147  1
  O  O32  1  0.03221976  0.87257074  0.87004988  1
  O  O33  1  0.09264577  0.82423133  0.55925506  1
  O  O34  1  0.11625197  0.61174525  0.79405765  1
  O  O35  1  0.10952042  0.95334178  0.33393462  1
  O  O36  1  0.10480158  0.69241940  0.34225595  1
  O  O37  1  0.12515305  0.38947091  0.92892956  1
  O  O38  1  0.09780592  0.60153457  0.05626296  1
  O  O39  1  0.10600260  0.16329881  0.12480106  1
  O  O40  1  0.16329881  0.10600260  0.87519894  1
  O  O41  1  0.18263177  0.31083008  0.67375819  1
  O  O42  1  0.20861427  0.91027512  0.05742886  1
  O  O43  1  0.20088382  0.40559270  0.34838902  1
  O  O44  1  0.28502547  0.91229872  0.81314643  1
  O  O45  1  0.32187169  0.58011324  0.94692470  1
  O  O46  1  0.31083008  0.18263177  0.32624181  1
  O  O47  1  0.33276345  0.37741429  0.13839836  1
  O  O48  1  0.36728354  0.87910940  0.28820354  1
  O  O49  1  0.40270395  0.90459753  0.55057380  1
  O  O50  1  0.37741429  0.33276345  0.86160164  1
  O  O51  1  0.38755168  0.46267553  0.63081719  1
  O  O52  1  0.41090045  0.67652683  0.43894186  1
  O  O53  1  0.40559270  0.20088382  0.65161098  1
  O  O54  1  0.38947091  0.12515305  0.07107044  1
  O  O55  1  0.46267553  0.38755168  0.36918281  1
  O  O56  1  0.57324023  0.80724525  0.84149152  1
  O  O57  1  0.55017985  0.58105155  0.13945279  1
  O  O58  1  0.58105155  0.55017985  0.86054721  1
  O  O59  1  0.60046058  0.87362431  0.40943409  1
  O  O60  1  0.62819792  0.67562988  0.64090428  1
  O  O61  1  0.60153457  0.09780592  0.94373704  1
  O  O62  1  0.58011324  0.32187169  0.05307530  1
  O  O63  1  0.61174525  0.11625197  0.20594235  1
  O  O64  1  0.67562988  0.62819792  0.35909572  1
  O  O65  1  0.69862654  0.80059456  0.14959147  1
  O  O66  1  0.67652683  0.41090045  0.56105814  1
  O  O67  1  0.69241940  0.10480158  0.65774405  1
  O  O68  1  0.80059456  0.69862654  0.85040853  1
  O  O69  1  0.81818925  0.89461468  0.62440223  1
  O  O70  1  0.80724525  0.57324023  0.15850848  1
  O  O71  1  0.82423133  0.09264577  0.44074494  1
  O  O72  1  0.87362431  0.60046058  0.59056591  1
  O  O73  1  0.89461468  0.81818925  0.37559777  1
  O  O74  1  0.87910940  0.36728354  0.71179646  1
  O  O75  1  0.91027512  0.20861427  0.94257114  1
  O  O76  1  0.90459753  0.40270395  0.44942620  1
  O  O77  1  0.87257074  0.03221976  0.12995012  1
  O  O78  1  0.91229872  0.28502547  0.18685357  1
  O  O79  1  0.95334178  0.10952042  0.66606538  1
