# generated using pymatgen
data_Li3Fe8(BO3)8
_symmetry_space_group_name_H-M   'P 1'
_cell_length_a   5.24889730
_cell_length_b   9.15630536
_cell_length_c   10.10403628
_cell_angle_alpha   90.68274469
_cell_angle_beta   90.05075448
_cell_angle_gamma   89.41249979
_symmetry_Int_Tables_number   1
_chemical_formula_structural   Li3Fe8(BO3)8
_chemical_formula_sum   'Li3 Fe8 B8 O24'
_cell_volume   485.54495662
_cell_formula_units_Z   1
loop_
 _symmetry_equiv_pos_site_id
 _symmetry_equiv_pos_as_xyz
  1  'x, y, z'
loop_
 _atom_site_type_symbol
 _atom_site_label
 _atom_site_symmetry_multiplicity
 _atom_site_fract_x
 _atom_site_fract_y
 _atom_site_fract_z
 _atom_site_occupancy
  Li  Li0  1  0.84743957  0.82740674  0.65424710  1
  Li  Li1  1  0.67032183  0.66828095  0.39294229  1
  Li  Li2  1  0.31831460  0.32601177  0.15624443  1
  Fe  Fe3  1  0.83468892  0.16795720  0.62680802  1
  Fe  Fe4  1  0.82834335  0.50132741  0.12956576  1
  Fe  Fe5  1  0.67014968  0.00815655  0.88531225  1
  Fe  Fe6  1  0.66420047  0.33639642  0.38139549  1
  Fe  Fe7  1  0.34831041  0.65526208  0.62997566  1
  Fe  Fe8  1  0.31561784  0.99545812  0.12866698  1
  Fe  Fe9  1  0.16895902  0.84084729  0.37494239  1
  Fe  Fe10  1  0.17166179  0.49903787  0.87279131  1
  B  B11  1  0.84645419  0.50096059  0.62583419  1
  B  B12  1  0.83368366  0.17483307  0.12390213  1
  B  B13  1  0.66539625  0.99516574  0.38753420  1
  B  B14  1  0.67074170  0.33341900  0.88028832  1
  B  B15  1  0.32963651  0.99845822  0.63024410  1
  B  B16  1  0.32440461  0.66138508  0.13394367  1
  B  B17  1  0.16746011  0.51172715  0.36626179  1
  B  B18  1  0.17341929  0.83347627  0.87433055  1
  O  O19  1  0.90784043  0.51682854  0.33063374  1
  O  O20  1  0.91909595  0.85924314  0.85070162  1
  O  O21  1  0.77937331  0.20492642  0.82813685  1
  O  O22  1  0.76450711  0.12585881  0.43374959  1
  O  O23  1  0.80792141  0.86767159  0.39052525  1
  O  O24  1  0.83083516  0.44323776  0.92908355  1
  O  O25  1  0.72233168  0.63245192  0.60322995  1
  O  O26  1  0.68702421  0.06004907  0.07590163  1
  O  O27  1  0.73695181  0.37036946  0.58668881  1
  O  O28  1  0.69962498  0.30298818  0.16478918  1
  O  O29  1  0.58185291  0.64976097  0.14386640  1
  O  O30  1  0.58942783  0.99776366  0.67069078  1
  O  O31  1  0.41690178  0.99034651  0.33985989  1
  O  O32  1  0.41597771  0.35079588  0.88890876  1
  O  O33  1  0.28386752  0.69839492  0.84428331  1
  O  O34  1  0.27811210  0.64004878  0.41781432  1
  O  O35  1  0.30729816  0.38987416  0.34794193  1
  O  O36  1  0.32816480  0.94349504  0.92281980  1
  O  O37  1  0.18477267  0.54108465  0.08436544  1
  O  O38  1  0.18312769  0.12007705  0.63743006  1
  O  O39  1  0.22567103  0.86661038  0.58248275  1
  O  O40  1  0.19307276  0.78480823  0.17861892  1
  O  O41  1  0.08985488  0.16892079  0.13273376  1
  O  O42  1  0.08832930  0.49871557  0.68091406  1
