# generated using pymatgen
data_LiV2O4
_symmetry_space_group_name_H-M   'P 1'
_cell_length_a   5.93753766
_cell_length_b   5.93753831
_cell_length_c   5.93753796
_cell_angle_alpha   120.64239092
_cell_angle_beta   118.69043141
_cell_angle_gamma   90.58699465
_symmetry_Int_Tables_number   1
_chemical_formula_structural   LiV2O4
_chemical_formula_sum   'Li2 V4 O8'
_cell_volume   148.69906909
_cell_formula_units_Z   2
loop_
 _symmetry_equiv_pos_site_id
 _symmetry_equiv_pos_as_xyz
  1  'x, y, z'
loop_
 _atom_site_type_symbol
 _atom_site_label
 _atom_site_symmetry_multiplicity
 _atom_site_fract_x
 _atom_site_fract_y
 _atom_site_fract_z
 _atom_site_occupancy
  Li  Li0  1  0.00000000  0.00000000  0.50000000  1
  Li  Li1  1  0.00000000  0.50000000  0.00000000  1
  V  V2  1  0.00000000  0.00000000  0.00000000  1
  V  V3  1  0.50000000  0.00000000  0.50000000  1
  V  V4  1  0.37963062  0.62963062  0.75000000  1
  V  V5  1  0.62036938  0.37036938  0.25000000  1
  O  O6  1  0.24899562  0.24041024  0.49141462  1
  O  O7  1  0.27262044  0.76139804  0.51122140  1
  O  O8  1  0.75017664  0.76139804  0.98877860  1
  O  O9  1  0.75100438  0.24242000  0.99141462  1
  O  O10  1  0.24899562  0.75758000  0.00858538  1
  O  O11  1  0.24982336  0.23860196  0.01122140  1
  O  O12  1  0.72737956  0.23860196  0.48877860  1
  O  O13  1  0.75100438  0.75958976  0.50858538  1
