# generated using pymatgen
data_Li5Cr2Co3O10
_symmetry_space_group_name_H-M   'P 1'
_cell_length_a   4.99396296
_cell_length_b   5.08586348
_cell_length_c   7.73731589
_cell_angle_alpha   109.48953452
_cell_angle_beta   102.62465670
_cell_angle_gamma   99.06049101
_symmetry_Int_Tables_number   1
_chemical_formula_structural   Li5Cr2Co3O10
_chemical_formula_sum   'Li5 Cr2 Co3 O10'
_cell_volume   175.01637042
_cell_formula_units_Z   1
loop_
 _symmetry_equiv_pos_site_id
 _symmetry_equiv_pos_as_xyz
  1  'x, y, z'
loop_
 _atom_site_type_symbol
 _atom_site_label
 _atom_site_symmetry_multiplicity
 _atom_site_fract_x
 _atom_site_fract_y
 _atom_site_fract_z
 _atom_site_occupancy
  Li  Li0  1  0.21631628  0.91497014  0.40928762  1
  Li  Li1  1  0.40608116  0.29796397  0.78864943  1
  Li  Li2  1  0.50000000  0.50000000  0.50000000  1
  Li  Li3  1  0.59391884  0.70203603  0.21135057  1
  Li  Li4  1  0.78368372  0.08502986  0.59071238  1
  Cr  Cr5  1  0.10759072  0.70244487  0.69490111  1
  Cr  Cr6  1  0.89240928  0.29755513  0.30509889  1
  Co  Co7  1  0.00000000  0.50000000  0.00000000  1
  Co  Co8  1  0.69961181  0.90027100  0.90069402  1
  Co  Co9  1  0.30038819  0.09972900  0.09930598  1
  O  O10  1  0.03923538  0.08424934  0.86300354  1
  O  O11  1  0.35833890  0.72914103  0.94951622  1
  O  O12  1  0.13158115  0.31480184  0.55076805  1
  O  O13  1  0.22918060  0.46491023  0.23024053  1
  O  O14  1  0.45649410  0.89750064  0.66941626  1
  O  O15  1  0.54350590  0.10249936  0.33058374  1
  O  O16  1  0.77081940  0.53508977  0.76975947  1
  O  O17  1  0.86841885  0.68519816  0.44923195  1
  O  O18  1  0.64166110  0.27085897  0.05048378  1
  O  O19  1  0.96076462  0.91575066  0.13699646  1
