# generated using pymatgen
data_LiCr(PO3)4
_symmetry_space_group_name_H-M   'P 1'
_cell_length_a   7.59279234
_cell_length_b   9.03859567
_cell_length_c   13.91538430
_cell_angle_alpha   90.00000000
_cell_angle_beta   98.64837523
_cell_angle_gamma   90.00000000
_symmetry_Int_Tables_number   1
_chemical_formula_structural   LiCr(PO3)4
_chemical_formula_sum   'Li4 Cr4 P16 O48'
_cell_volume   944.12907555
_cell_formula_units_Z   4
loop_
 _symmetry_equiv_pos_site_id
 _symmetry_equiv_pos_as_xyz
  1  'x, y, z'
loop_
 _atom_site_type_symbol
 _atom_site_label
 _atom_site_symmetry_multiplicity
 _atom_site_fract_x
 _atom_site_fract_y
 _atom_site_fract_z
 _atom_site_occupancy
  Li  Li0  1  0.02069404  0.57894940  0.92455859  1
  Li  Li1  1  0.47930596  0.07894940  0.57544141  1
  Li  Li2  1  0.52069404  0.92105060  0.42455859  1
  Li  Li3  1  0.97930596  0.42105060  0.07544141  1
  Cr  Cr4  1  0.00631871  0.63520837  0.35127986  1
  Cr  Cr5  1  0.50631871  0.86479163  0.85127986  1
  Cr  Cr6  1  0.49368129  0.13520837  0.14872014  1
  Cr  Cr7  1  0.99368129  0.36479163  0.64872014  1
  P  P8  1  0.07332035  0.29316102  0.42875830  1
  P  P9  1  0.12184364  0.05201401  0.77416895  1
  P  P10  1  0.20507999  0.23981903  0.95607249  1
  P  P11  1  0.23518269  0.06577764  0.30592066  1
  P  P12  1  0.29492001  0.73981903  0.54392751  1
  P  P13  1  0.37815636  0.55201401  0.72583105  1
  P  P14  1  0.26481731  0.56577764  0.19407934  1
  P  P15  1  0.57332035  0.20683898  0.92875830  1
  P  P16  1  0.42667965  0.79316102  0.07124170  1
  P  P17  1  0.73518269  0.43422236  0.80592066  1
  P  P18  1  0.62184364  0.44798599  0.27416895  1
  P  P19  1  0.70507999  0.26018097  0.45607249  1
  P  P20  1  0.76481731  0.93422236  0.69407934  1
  P  P21  1  0.79492001  0.76018097  0.04392751  1
  P  P22  1  0.87815636  0.94798599  0.22583105  1
  P  P23  1  0.92667965  0.70683898  0.57124170  1
  O  O24  1  0.08663486  0.37186518  0.95648029  1
  O  O25  1  0.10699688  0.11939739  0.88032281  1
  O  O26  1  0.04572302  0.05856547  0.23593925  1
  O  O27  1  0.12677329  0.32511161  0.53551385  1
  O  O28  1  0.09901789  0.16519501  0.69425203  1
  O  O29  1  0.12133731  0.78487858  0.59193510  1
  O  O30  1  0.08213117  0.42101066  0.36108087  1
  O  O31  1  0.21552395  0.45719763  0.72335680  1
  O  O32  1  0.19023361  0.15947520  0.40035256  1
  O  O33  1  0.14629100  0.66265560  0.24451920  1
  O  O34  1  0.28447605  0.95719763  0.77664320  1
  O  O35  1  0.30157270  0.91998143  0.34268944  1
  O  O36  1  0.23422641  0.66323818  0.44870678  1
  O  O37  1  0.37866269  0.28487858  0.90806490  1
  O  O38  1  0.40098211  0.66519501  0.80574797  1
  O  O39  1  0.37322671  0.82511161  0.96448615  1
  O  O40  1  0.26577359  0.16323818  0.05129322  1
  O  O41  1  0.19842730  0.41998143  0.15731056  1
  O  O42  1  0.39300312  0.61939739  0.61967719  1
  O  O43  1  0.35370900  0.16265560  0.25548080  1
  O  O44  1  0.41336514  0.87186518  0.54351971  1
  O  O45  1  0.30976639  0.65947520  0.09964744  1
  O  O46  1  0.54572302  0.44143453  0.73593925  1
  O  O47  1  0.41786883  0.92101066  0.13891913  1
  O  O48  1  0.58213117  0.07898934  0.86108087  1
  O  O49  1  0.45427698  0.55856547  0.26406075  1
  O  O50  1  0.69023361  0.34052480  0.90035256  1
  O  O51  1  0.58663486  0.12813482  0.45648029  1
  O  O52  1  0.64629100  0.83734440  0.74451920  1
  O  O53  1  0.60699688  0.38060261  0.38032281  1
  O  O54  1  0.80157270  0.58001857  0.84268944  1
  O  O55  1  0.73422641  0.83676182  0.94870678  1
  O  O56  1  0.62677329  0.17488839  0.03551385  1
  O  O57  1  0.59901789  0.33480499  0.19425203  1
  O  O58  1  0.62133731  0.71512142  0.09193510  1
  O  O59  1  0.76577359  0.33676182  0.55129322  1
  O  O60  1  0.69842730  0.08001857  0.65731056  1
  O  O61  1  0.71552395  0.04280237  0.22335680  1
  O  O62  1  0.85370900  0.33734440  0.75548080  1
  O  O63  1  0.80976639  0.84052480  0.59964744  1
  O  O64  1  0.78447605  0.54280237  0.27664320  1
  O  O65  1  0.91786883  0.57898934  0.63891913  1
  O  O66  1  0.87866269  0.21512142  0.40806490  1
  O  O67  1  0.90098211  0.83480499  0.30574797  1
  O  O68  1  0.87322671  0.67488839  0.46448615  1
  O  O69  1  0.95427698  0.94143453  0.76406075  1
  O  O70  1  0.89300312  0.88060261  0.11967719  1
  O  O71  1  0.91336514  0.62813482  0.04351971  1
