# generated using pymatgen
data_Li6V3Sb3O16
_symmetry_space_group_name_H-M   'P 1'
_cell_length_a   6.12256388
_cell_length_b   6.05881777
_cell_length_c   10.07365408
_cell_angle_alpha   90.00896646
_cell_angle_beta   90.32703031
_cell_angle_gamma   119.68519900
_symmetry_Int_Tables_number   1
_chemical_formula_structural   Li6V3Sb3O16
_chemical_formula_sum   'Li6 V3 Sb3 O16'
_cell_volume   324.63711388
_cell_formula_units_Z   1
loop_
 _symmetry_equiv_pos_site_id
 _symmetry_equiv_pos_as_xyz
  1  'x, y, z'
loop_
 _atom_site_type_symbol
 _atom_site_label
 _atom_site_symmetry_multiplicity
 _atom_site_fract_x
 _atom_site_fract_y
 _atom_site_fract_z
 _atom_site_occupancy
  Li  Li0  1  0.32818658  0.66419078  0.50669949  1
  Li  Li1  1  0.33693065  0.66861841  0.87944401  1
  Li  Li2  1  0.97647515  0.98838152  0.99747578  1
  Li  Li3  1  0.99014995  0.99506667  0.50295801  1
  Li  Li4  1  0.67488505  0.33741830  0.00273026  1
  Li  Li5  1  0.65911076  0.32965445  0.38840439  1
  V  V6  1  0.83896923  0.66216081  0.71820936  1
  V  V7  1  0.66519179  0.83265723  0.21679282  1
  V  V8  1  0.83101099  0.16246239  0.71321182  1
  Sb  Sb9  1  0.16914018  0.83290711  0.21527868  1
  Sb  Sb10  1  0.16914722  0.33634497  0.21528822  1
  Sb  Sb11  1  0.34017378  0.17100257  0.71549228  1
  O  O12  1  0.15149341  0.84635641  0.60928379  1
  O  O13  1  0.02719411  0.51363441  0.32840113  1
  O  O14  1  0.32453891  0.66233256  0.10135164  1
  O  O15  1  0.00949638  0.00478571  0.32263819  1
  O  O16  1  0.00478512  0.00240064  0.81826096  1
  O  O17  1  0.15158319  0.30654887  0.60953087  1
  O  O18  1  0.48172429  0.97320444  0.32178342  1
  O  O19  1  0.48171197  0.50864210  0.32180779  1
  O  O20  1  0.30343889  0.15179307  0.10211958  1
  O  O21  1  0.70354457  0.85486011  0.61860317  1
  O  O22  1  0.52123141  0.49133194  0.82194677  1
  O  O23  1  0.52149842  0.03174914  0.82236062  1
  O  O24  1  0.66732353  0.33389145  0.60528281  1
  O  O25  1  0.85241955  0.69326048  0.11037332  1
  O  O26  1  0.96618635  0.48537399  0.81173782  1
  O  O27  1  0.85245957  0.15926949  0.11037401  1
