# generated using pymatgen
data_Li3CoPCO7
_symmetry_space_group_name_H-M   'P 1'
_cell_length_a   8.56552547
_cell_length_b   4.90606300
_cell_length_c   6.37238142
_cell_angle_alpha   90.00000000
_cell_angle_beta   90.00000000
_cell_angle_gamma   84.68904230
_symmetry_Int_Tables_number   1
_chemical_formula_structural   Li3CoPCO7
_chemical_formula_sum   'Li6 Co2 P2 C2 O14'
_cell_volume   266.63702873
_cell_formula_units_Z   2
loop_
 _symmetry_equiv_pos_site_id
 _symmetry_equiv_pos_as_xyz
  1  'x, y, z'
loop_
 _atom_site_type_symbol
 _atom_site_label
 _atom_site_symmetry_multiplicity
 _atom_site_fract_x
 _atom_site_fract_y
 _atom_site_fract_z
 _atom_site_occupancy
  Li  Li0  1  0.10667251  0.77326572  0.26324816  1
  Li  Li1  1  0.28551716  0.23691335  0.48561792  1
  Li  Li2  1  0.35517228  0.77641701  0.74277649  1
  Li  Li3  1  0.64482772  0.22358299  0.24277649  1
  Li  Li4  1  0.71448284  0.76308665  0.98561792  1
  Li  Li5  1  0.89332749  0.22673428  0.76324816  1
  Co  Co6  1  0.26230490  0.25554039  0.00420842  1
  Co  Co7  1  0.73769510  0.74445961  0.50420842  1
  P  P8  1  0.40927583  0.72225713  0.24785881  1
  P  P9  1  0.59072417  0.27774287  0.74785881  1
  C  C10  1  0.04075401  0.70316757  0.75873619  1
  C  C11  1  0.95924599  0.29683243  0.25873619  1
  O  O12  1  0.06701539  0.95516254  0.75772048  1
  O  O13  1  0.10420776  0.36714077  0.24082120  1
  O  O14  1  0.15363823  0.50784498  0.77376444  1
  O  O15  1  0.31486813  0.84493994  0.05469987  1
  O  O16  1  0.30905290  0.82133802  0.43931415  1
  O  O17  1  0.42191176  0.19166891  0.75100327  1
  O  O18  1  0.41721844  0.40212991  0.23023060  1
  O  O19  1  0.58278156  0.59787009  0.73023060  1
  O  O20  1  0.57808824  0.80833109  0.25100327  1
  O  O21  1  0.69094710  0.17866198  0.93931415  1
  O  O22  1  0.68513187  0.15506006  0.55469987  1
  O  O23  1  0.84636177  0.49215502  0.27376444  1
  O  O24  1  0.89579224  0.63285923  0.74082120  1
  O  O25  1  0.93298461  0.04483746  0.25772048  1
