# generated using pymatgen
data_V2O3
_symmetry_space_group_name_H-M   'P 1'
_cell_length_a   13.39487070
_cell_length_b   3.11041339
_cell_length_c   7.64532670
_cell_angle_alpha   90.00000000
_cell_angle_beta   98.50055921
_cell_angle_gamma   90.00000000
_symmetry_Int_Tables_number   1
_chemical_formula_structural   V2O3
_chemical_formula_sum   'V12 O18'
_cell_volume   315.03246450
_cell_formula_units_Z   6
loop_
 _symmetry_equiv_pos_site_id
 _symmetry_equiv_pos_as_xyz
  1  'x, y, z'
loop_
 _atom_site_type_symbol
 _atom_site_label
 _atom_site_symmetry_multiplicity
 _atom_site_fract_x
 _atom_site_fract_y
 _atom_site_fract_z
 _atom_site_occupancy
  V  V0  1  0.01610136  0.25000000  0.18631641  1
  V  V1  1  0.11218235  0.25000000  0.54831684  1
  V  V2  1  0.21695375  0.75000000  0.18012122  1
  V  V3  1  0.28344458  0.75000000  0.82015010  1
  V  V4  1  0.40110037  0.25000000  0.49925874  1
  V  V5  1  0.42944179  0.25000000  0.12709972  1
  V  V6  1  0.57055821  0.75000000  0.87290028  1
  V  V7  1  0.59889963  0.75000000  0.50074126  1
  V  V8  1  0.71655542  0.25000000  0.17984990  1
  V  V9  1  0.78304625  0.25000000  0.81987878  1
  V  V10  1  0.88781765  0.75000000  0.45168316  1
  V  V11  1  0.98389864  0.75000000  0.81368359  1
  O  O12  1  0.02518925  0.75000000  0.37864395  1
  O  O13  1  0.13442405  0.75000000  0.72050551  1
  O  O14  1  0.07467510  0.75000000  0.05401909  1
  O  O15  1  0.17108721  0.25000000  0.31514322  1
  O  O16  1  0.29337775  0.25000000  0.65429239  1
  O  O17  1  0.27065055  0.25000000  0.01803962  1
  O  O18  1  0.35952993  0.75000000  0.30769290  1
  O  O19  1  0.42574378  0.75000000  0.96019572  1
  O  O20  1  0.47515807  0.75000000  0.63343494  1
  O  O21  1  0.52484193  0.25000000  0.36656506  1
  O  O22  1  0.57425622  0.25000000  0.03980428  1
  O  O23  1  0.64047007  0.25000000  0.69230710  1
  O  O24  1  0.72934945  0.75000000  0.98196038  1
  O  O25  1  0.70662225  0.75000000  0.34570761  1
  O  O26  1  0.82891279  0.75000000  0.68485678  1
  O  O27  1  0.92532490  0.25000000  0.94598091  1
  O  O28  1  0.86557595  0.25000000  0.27949449  1
  O  O29  1  0.97481075  0.25000000  0.62135605  1
