# generated using pymatgen
data_Li2VF4
_symmetry_space_group_name_H-M   'P 1'
_cell_length_a   8.87401833
_cell_length_b   8.87401751
_cell_length_c   8.87401823
_cell_angle_alpha   108.79467546
_cell_angle_beta   108.79467364
_cell_angle_gamma   108.79467092
_symmetry_Int_Tables_number   1
_chemical_formula_structural   Li2VF4
_chemical_formula_sum   'Li12 V6 F24'
_cell_volume   551.00922420
_cell_formula_units_Z   6
loop_
 _symmetry_equiv_pos_site_id
 _symmetry_equiv_pos_as_xyz
  1  'x, y, z'
loop_
 _atom_site_type_symbol
 _atom_site_label
 _atom_site_symmetry_multiplicity
 _atom_site_fract_x
 _atom_site_fract_y
 _atom_site_fract_z
 _atom_site_occupancy
  Li  Li0  1  0.03115523  0.92000355  0.28993128  1
  Li  Li1  1  0.07999645  0.71006872  0.96884477  1
  Li  Li2  1  0.21450758  0.63446120  0.34653738  1
  Li  Li3  1  0.71006872  0.96884477  0.07999645  1
  Li  Li4  1  0.36553880  0.65346262  0.78549242  1
  Li  Li5  1  0.65346262  0.78549242  0.36553880  1
  Li  Li6  1  0.34653738  0.21450758  0.63446120  1
  Li  Li7  1  0.63446120  0.34653738  0.21450758  1
  Li  Li8  1  0.28993128  0.03115523  0.92000355  1
  Li  Li9  1  0.78549242  0.36553880  0.65346262  1
  Li  Li10  1  0.92000355  0.28993128  0.03115523  1
  Li  Li11  1  0.96884477  0.07999645  0.71006872  1
  V  V12  1  0.02598971  0.70945800  0.54276073  1
  V  V13  1  0.45723927  0.97401029  0.29054200  1
  V  V14  1  0.29054200  0.45723927  0.97401029  1
  V  V15  1  0.70945800  0.54276073  0.02598971  1
  V  V16  1  0.54276073  0.02598971  0.70945800  1
  V  V17  1  0.97401029  0.29054200  0.45723927  1
  F  F18  1  0.11096306  0.79469497  0.81339160  1
  F  F19  1  0.96004549  0.63320065  0.26750423  1
  F  F20  1  0.18660840  0.88903694  0.20530503  1
  F  F21  1  0.73249577  0.03995451  0.36679935  1
  F  F22  1  0.46380558  0.81995947  0.43957173  1
  F  F23  1  0.15450856  0.46762010  0.12445555  1
  F  F24  1  0.53237990  0.87554445  0.84549144  1
  F  F25  1  0.36679935  0.73249577  0.03995451  1
  F  F26  1  0.18004053  0.56042827  0.53619442  1
  F  F27  1  0.56042827  0.53619442  0.18004053  1
  F  F28  1  0.20530503  0.18660840  0.88903694  1
  F  F29  1  0.87554445  0.84549144  0.53237990  1
  F  F30  1  0.12445555  0.15450856  0.46762010  1
  F  F31  1  0.79469497  0.81339160  0.11096306  1
  F  F32  1  0.43957173  0.46380558  0.81995947  1
  F  F33  1  0.81995947  0.43957173  0.46380558  1
  F  F34  1  0.63320065  0.26750423  0.96004549  1
  F  F35  1  0.46762010  0.12445555  0.15450856  1
  F  F36  1  0.84549144  0.53237990  0.87554445  1
  F  F37  1  0.53619442  0.18004053  0.56042827  1
  F  F38  1  0.26750423  0.96004549  0.63320065  1
  F  F39  1  0.81339160  0.11096306  0.79469497  1
  F  F40  1  0.03995451  0.36679935  0.73249577  1
  F  F41  1  0.88903694  0.20530503  0.18660840  1
