# generated using pymatgen
data_LiFe2F5
_symmetry_space_group_name_H-M   'P 1'
_cell_length_a   8.17437409
_cell_length_b   8.47596102
_cell_length_c   6.60532100
_cell_angle_alpha   90.39097679
_cell_angle_beta   89.66033082
_cell_angle_gamma   89.68840090
_symmetry_Int_Tables_number   1
_chemical_formula_structural   LiFe2F5
_chemical_formula_sum   'Li4 Fe8 F20'
_cell_volume   457.62856492
_cell_formula_units_Z   4
loop_
 _symmetry_equiv_pos_site_id
 _symmetry_equiv_pos_as_xyz
  1  'x, y, z'
loop_
 _atom_site_type_symbol
 _atom_site_label
 _atom_site_symmetry_multiplicity
 _atom_site_fract_x
 _atom_site_fract_y
 _atom_site_fract_z
 _atom_site_occupancy
  Li  Li0  1  0.17204184  0.31623951  0.75323549  1
  Li  Li1  1  0.32713552  0.81681716  0.75131609  1
  Li  Li2  1  0.67294811  0.18396999  0.24965155  1
  Li  Li3  1  0.82793706  0.68182470  0.24705937  1
  Fe  Fe4  1  -0.00042602  0.00105620  0.00090115  1
  Fe  Fe5  1  -0.00033769  0.00144868  0.49931533  1
  Fe  Fe6  1  0.11760889  0.34444288  0.25501648  1
  Fe  Fe7  1  0.39384975  0.83792298  0.25328670  1
  Fe  Fe8  1  0.50242818  0.50135048  0.99890934  1
  Fe  Fe9  1  0.50257792  0.50018160  0.50155302  1
  Fe  Fe10  1  0.60751775  0.16195294  0.75080973  1
  Fe  Fe11  1  0.89182551  0.66358033  0.74527767  1
  F  F12  1  0.04131831  0.49240206  0.75726206  1
  F  F13  1  0.12892547  0.20774654  0.99559624  1
  F  F14  1  0.13697086  0.20694824  0.50538579  1
  F  F15  1  0.10874299  0.88805275  0.74644952  1
  F  F16  1  0.15404499  0.91938035  0.24996356  1
  F  F17  1  0.35641231  0.41404276  0.25146858  1
  F  F18  1  0.39148045  0.38598795  0.75118714  1
  F  F19  1  0.36002346  0.70165346  0.50542186  1
  F  F20  1  0.36214956  0.70330440  0.99492383  1
  F  F21  1  0.46209128  -0.01148367  0.74508497  1
  F  F22  1  0.53705510  0.01234368  0.24545965  1
  F  F23  1  0.63907974  0.29763743  0.00564357  1
  F  F24  1  0.63750705  0.29532539  0.49562230  1
  F  F25  1  0.60770244  0.61589975  0.25046530  1
  F  F26  1  0.65285561  0.58185612  0.74884554  1
  F  F27  1  0.84659655  0.08024460  0.75050150  1
  F  F28  1  0.88650105  0.10587101  0.25341730  1
  F  F29  1  0.86639881  0.79603552  0.00631062  1
  F  F30  1  0.86017045  0.79691668  0.49346084  1
  F  F31  1  0.94886671  0.49904753  0.24119789  1
