# generated using pymatgen
data_Zr2N2O
_symmetry_space_group_name_H-M   'P 1'
_cell_length_a   3.35567039
_cell_length_b   7.04354995
_cell_length_c   16.67824321
_cell_angle_alpha   79.55875731
_cell_angle_beta   90.00000000
_cell_angle_gamma   76.21915690
_symmetry_Int_Tables_number   1
_chemical_formula_structural   Zr2N2O
_chemical_formula_sum   'Zr12 N12 O6'
_cell_volume   376.13218940
_cell_formula_units_Z   6
loop_
 _symmetry_equiv_pos_site_id
 _symmetry_equiv_pos_as_xyz
  1  'x, y, z'
loop_
 _atom_site_type_symbol
 _atom_site_label
 _atom_site_symmetry_multiplicity
 _atom_site_fract_x
 _atom_site_fract_y
 _atom_site_fract_z
 _atom_site_occupancy
  Zr  Zr0  1  0.03017347  0.93965206  0.90454737  1
  Zr  Zr1  1  0.03661968  0.92675963  0.40217972  1
  Zr  Zr2  1  0.62843361  0.74313279  0.73749643  1
  Zr  Zr3  1  0.69532666  0.60934568  0.56714135  1
  Zr  Zr4  1  0.63459081  0.73081839  0.24650074  1
  Zr  Zr5  1  0.30467334  0.39065432  0.93285865  1
  Zr  Zr6  1  0.69703935  0.60592030  0.06535783  1
  Zr  Zr7  1  0.37156639  0.25686721  0.76250357  1
  Zr  Zr8  1  0.30296065  0.39407970  0.43464217  1
  Zr  Zr9  1  0.36540919  0.26918161  0.25349926  1
  Zr  Zr10  1  0.96982653  0.06034794  0.59545263  1
  Zr  Zr11  1  0.96338032  0.07324037  0.09782028  1
  N  N12  1  0.53377648  0.93244803  0.82892220  1
  N  N13  1  0.52561476  0.94877047  0.32787761  1
  N  N14  1  0.17345317  0.65309365  0.98397687  1
  N  N15  1  0.12763920  0.74472160  0.64440927  1
  N  N16  1  0.17164845  0.65670309  0.48556279  1
  N  N17  1  0.20409035  0.59182030  0.31242459  1
  N  N18  1  0.87236080  0.25527840  0.85559073  1
  N  N19  1  0.82654683  0.34690635  0.51602313  1
  N  N20  1  0.79590965  0.40817970  0.18757541  1
  N  N21  1  0.82835155  0.34329691  0.01443721  1
  N  N22  1  0.46622352  0.06755197  0.67107780  1
  N  N23  1  0.47438524  0.05122953  0.17212239  1
  O  O24  1  0.20802097  0.58395806  0.80978023  1
  O  O25  1  0.12575933  0.74848034  0.13696049  1
  O  O26  1  0.79197903  0.41604194  0.69021977  1
  O  O27  1  0.87424067  0.25151966  0.36303951  1
  O  O28  1  0.50022675  0.99954550  0.49984576  1
  O  O29  1  0.49977325  0.00045450  0.00015424  1
