# generated using pymatgen
data_Li6V2C4SO16
_symmetry_space_group_name_H-M   'P 1'
_cell_length_a   9.47050622
_cell_length_b   9.47050693
_cell_length_c   9.47050668
_cell_angle_alpha   59.99999649
_cell_angle_beta   59.99999812
_cell_angle_gamma   59.99999897
_symmetry_Int_Tables_number   1
_chemical_formula_structural   Li6V2C4SO16
_chemical_formula_sum   'Li12 V4 C8 S2 O32'
_cell_volume   600.62667422
_cell_formula_units_Z   2
loop_
 _symmetry_equiv_pos_site_id
 _symmetry_equiv_pos_as_xyz
  1  'x, y, z'
loop_
 _atom_site_type_symbol
 _atom_site_label
 _atom_site_symmetry_multiplicity
 _atom_site_fract_x
 _atom_site_fract_y
 _atom_site_fract_z
 _atom_site_occupancy
  Li  Li0  1  0.09240168  0.65759832  0.09240168  1
  Li  Li1  1  0.09240168  0.09240168  0.65759832  1
  Li  Li2  1  0.65759832  0.09240168  0.09240168  1
  Li  Li3  1  0.09240168  0.65759832  0.65759832  1
  Li  Li4  1  0.34240168  0.34240168  0.90759832  1
  Li  Li5  1  0.34240168  0.90759832  0.34240168  1
  Li  Li6  1  0.65759832  0.65759832  0.09240168  1
  Li  Li7  1  0.65759832  0.09240168  0.65759832  1
  Li  Li8  1  0.34240168  0.90759832  0.90759832  1
  Li  Li9  1  0.90759832  0.34240168  0.34240168  1
  Li  Li10  1  0.90759832  0.34240168  0.90759832  1
  Li  Li11  1  0.90759832  0.90759832  0.34240168  1
  V  V12  1  0.00000000  0.50000000  0.50000000  1
  V  V13  1  0.50000000  0.00000000  0.50000000  1
  V  V14  1  0.50000000  0.50000000  0.00000000  1
  V  V15  1  0.50000000  0.50000000  0.50000000  1
  C  C16  1  0.27492729  0.27492729  0.27492729  1
  C  C17  1  0.27492729  0.67521914  0.27492729  1
  C  C18  1  0.27492729  0.27492729  0.67521914  1
  C  C19  1  0.67521914  0.27492729  0.27492729  1
  C  C20  1  0.32478086  0.72507271  0.72507271  1
  C  C21  1  0.72507271  0.32478086  0.72507271  1
  C  C22  1  0.72507271  0.72507271  0.32478086  1
  C  C23  1  0.72507271  0.72507271  0.72507271  1
  S  S24  1  0.12500000  0.12500000  0.12500000  1
  S  S25  1  0.87500000  0.87500000  0.87500000  1
  O  O26  1  0.06051172  0.06051172  0.06051172  1
  O  O27  1  0.06051172  0.31846485  0.06051172  1
  O  O28  1  0.06051172  0.06051172  0.31846485  1
  O  O29  1  0.31846485  0.06051172  0.06051172  1
  O  O30  1  0.13400024  0.40771844  0.28234071  1
  O  O31  1  0.28234071  0.13400024  0.40771844  1
  O  O32  1  0.13400024  0.28234071  0.67594061  1
  O  O33  1  0.40771844  0.28234071  0.13400024  1
  O  O34  1  0.13400024  0.67594061  0.40771844  1
  O  O35  1  0.28234071  0.67594061  0.13400024  1
  O  O36  1  0.40771844  0.13400024  0.67594061  1
  O  O37  1  0.28234071  0.40771844  0.67594061  1
  O  O38  1  0.67594061  0.13400024  0.28234071  1
  O  O39  1  0.40771844  0.67594061  0.28234071  1
  O  O40  1  0.67594061  0.40771844  0.13400024  1
  O  O41  1  0.32405939  0.71765929  0.59228156  1
  O  O42  1  0.67594061  0.28234071  0.40771844  1
  O  O43  1  0.32405939  0.59228156  0.86599976  1
  O  O44  1  0.59228156  0.32405939  0.71765929  1
  O  O45  1  0.32405939  0.86599976  0.71765929  1
  O  O46  1  0.71765929  0.59228156  0.32405939  1
  O  O47  1  0.59228156  0.86599976  0.32405939  1
  O  O48  1  0.71765929  0.32405939  0.86599976  1
  O  O49  1  0.86599976  0.32405939  0.59228156  1
  O  O50  1  0.59228156  0.71765929  0.86599976  1
  O  O51  1  0.86599976  0.71765929  0.32405939  1
  O  O52  1  0.71765929  0.86599976  0.59228156  1
  O  O53  1  0.86599976  0.59228156  0.71765929  1
  O  O54  1  0.68153515  0.93948828  0.93948828  1
  O  O55  1  0.93948828  0.68153515  0.93948828  1
  O  O56  1  0.93948828  0.93948828  0.68153515  1
  O  O57  1  0.93948828  0.93948828  0.93948828  1
