# generated using pymatgen
data_Fe3Cu2Te(PO4)6
_symmetry_space_group_name_H-M   'P 1'
_cell_length_a   8.66792989
_cell_length_b   8.66793030
_cell_length_c   8.66793087
_cell_angle_alpha   59.97424634
_cell_angle_beta   59.97424143
_cell_angle_gamma   59.97424925
_symmetry_Int_Tables_number   1
_chemical_formula_structural   Fe3Cu2Te(PO4)6
_chemical_formula_sum   'Fe3 Cu2 Te1 P6 O24'
_cell_volume   460.23276656
_cell_formula_units_Z   1
loop_
 _symmetry_equiv_pos_site_id
 _symmetry_equiv_pos_as_xyz
  1  'x, y, z'
loop_
 _atom_site_type_symbol
 _atom_site_label
 _atom_site_symmetry_multiplicity
 _atom_site_fract_x
 _atom_site_fract_y
 _atom_site_fract_z
 _atom_site_occupancy
  Fe  Fe0  1  0.14460043  0.14460043  0.14460043  1
  Fe  Fe1  1  0.35547759  0.35547759  0.35547759  1
  Fe  Fe2  1  0.64290487  0.64290487  0.64290487  1
  Cu  Cu3  1  0.00931781  0.00931781  0.00931781  1
  Cu  Cu4  1  0.50012650  0.50012650  0.50012650  1
  Te  Te5  1  0.85701594  0.85701594  0.85701594  1
  P  P6  1  0.25291758  0.53686923  0.95520426  1
  P  P7  1  0.53686923  0.95520426  0.25291758  1
  P  P8  1  0.95520426  0.25291758  0.53686923  1
  P  P9  1  0.04517455  0.74486465  0.45373326  1
  P  P10  1  0.45373326  0.04517455  0.74486465  1
  P  P11  1  0.74486465  0.45373326  0.04517455  1
  O  O12  1  0.11574645  0.29937653  0.51162956  1
  O  O13  1  0.29937653  0.51162956  0.11574645  1
  O  O14  1  0.05692534  0.91419893  0.26856284  1
  O  O15  1  0.51162956  0.11574645  0.29937653  1
  O  O16  1  0.01414922  0.80394407  0.61951929  1
  O  O17  1  0.23653693  0.58334661  0.44577338  1
  O  O18  1  0.26856284  0.05692534  0.91419893  1
  O  O19  1  0.44577338  0.23653693  0.58334661  1
  O  O20  1  0.18563947  0.38611375  0.99392098  1
  O  O21  1  0.58334661  0.44577338  0.23653693  1
  O  O22  1  0.07909598  0.73897551  0.94134423  1
  O  O23  1  0.38611375  0.99392098  0.18563947  1
  O  O24  1  0.61951929  0.01414922  0.80394407  1
  O  O25  1  0.91419893  0.26856284  0.05692534  1
  O  O26  1  0.40905641  0.56344700  0.76032429  1
  O  O27  1  0.80394407  0.61951929  0.01414922  1
  O  O28  1  0.56344700  0.76032429  0.40905641  1
  O  O29  1  0.73897551  0.94134423  0.07909598  1
  O  O30  1  0.76032429  0.40905641  0.56344700  1
  O  O31  1  0.99392098  0.18563947  0.38611375  1
  O  O32  1  0.50246388  0.88304436  0.68866128  1
  O  O33  1  0.94134423  0.07909598  0.73897551  1
  O  O34  1  0.68866128  0.50246388  0.88304436  1
  O  O35  1  0.88304436  0.68866128  0.50246388  1
