# generated using pymatgen
data_Li6Mn3Sn(PO4)6
_symmetry_space_group_name_H-M   'P 1'
_cell_length_a   8.72215517
_cell_length_b   8.63730658
_cell_length_c   8.54765843
_cell_angle_alpha   62.62247398
_cell_angle_beta   61.99499733
_cell_angle_gamma   61.49892000
_symmetry_Int_Tables_number   1
_chemical_formula_structural   Li6Mn3Sn(PO4)6
_chemical_formula_sum   'Li6 Mn3 Sn1 P6 O24'
_cell_volume   476.01066732
_cell_formula_units_Z   1
loop_
 _symmetry_equiv_pos_site_id
 _symmetry_equiv_pos_as_xyz
  1  'x, y, z'
loop_
 _atom_site_type_symbol
 _atom_site_label
 _atom_site_symmetry_multiplicity
 _atom_site_fract_x
 _atom_site_fract_y
 _atom_site_fract_z
 _atom_site_occupancy
  Li  Li0  1  0.02494542  0.00567425  0.00295010  1
  Li  Li1  1  0.75057782  0.15309757  0.34874726  1
  Li  Li2  1  0.48694484  0.49847686  0.49751270  1
  Li  Li3  1  0.29038743  0.83977143  0.64965221  1
  Li  Li4  1  0.64421398  0.29282899  0.84089273  1
  Li  Li5  1  0.83996137  0.64374719  0.29025299  1
  Mn  Mn6  1  0.14356224  0.14310431  0.14275311  1
  Mn  Mn7  1  0.35472293  0.35855152  0.35692430  1
  Mn  Mn8  1  0.64948700  0.65112624  0.65443332  1
  Sn  Sn9  1  0.85602657  0.84768678  0.85346087  1
  P  P10  1  0.74943570  0.44117033  0.05626985  1
  P  P11  1  0.05633712  0.74164779  0.43663492  1
  P  P12  1  0.44020616  0.05839699  0.75115482  1
  P  P13  1  0.24669584  0.53831729  0.96021191  1
  P  P14  1  0.54215990  0.96405712  0.25058305  1
  P  P15  1  0.95426353  0.24362411  0.53655008  1
  O  O16  1  0.11911953  0.28636992  0.49814641  1
  O  O17  1  0.30716483  0.50707189  0.11675372  1
  O  O18  1  0.06323380  0.90764424  0.25863802  1
  O  O19  1  0.52912314  0.12092074  0.30328467  1
  O  O20  1  0.01885192  0.79864429  0.60485636  1
  O  O21  1  0.24491706  0.58385046  0.42686213  1
  O  O22  1  0.25810605  0.07850794  0.91614680  1
  O  O23  1  0.44036407  0.24066428  0.58858720  1
  O  O24  1  0.17357130  0.39179308  0.00197473  1
  O  O25  1  0.60539570  0.42502972  0.25175141  1
  O  O26  1  0.09042368  0.73946540  0.93557356  1
  O  O27  1  0.38080685  0.01492160  0.19296990  1
  O  O28  1  0.60840542  0.01236002  0.80635222  1
  O  O29  1  0.90568339  0.25038077  0.07282791  1
  O  O30  1  0.40278133  0.55563772  0.76827971  1
  O  O31  1  0.80899783  0.60473968  0.01492167  1
  O  O32  1  0.55920420  0.77554391  0.40663000  1
  O  O33  1  0.73529869  0.93486740  0.08993519  1
  O  O34  1  0.76634123  0.40300789  0.55911888  1
  O  O35  1  0.97589169  0.18078766  0.38147550  1
  O  O36  1  0.45951918  0.90314723  0.69571776  1
  O  O37  1  0.93074250  0.08624082  0.73264034  1
  O  O38  1  0.68522694  0.47065843  0.90306478  1
  O  O39  1  0.90089882  0.68346613  0.46750892  1
