# generated using pymatgen
data_Li4V2C4SO16
_symmetry_space_group_name_H-M   'P 1'
_cell_length_a   9.31065278
_cell_length_b   9.31065288
_cell_length_c   9.74807459
_cell_angle_alpha   60.75714304
_cell_angle_beta   60.75713510
_cell_angle_gamma   88.68629281
_symmetry_Int_Tables_number   1
_chemical_formula_structural   Li4V2C4SO16
_chemical_formula_sum   'Li8 V4 C8 S2 O32'
_cell_volume   617.01375328
_cell_formula_units_Z   2
loop_
 _symmetry_equiv_pos_site_id
 _symmetry_equiv_pos_as_xyz
  1  'x, y, z'
loop_
 _atom_site_type_symbol
 _atom_site_label
 _atom_site_symmetry_multiplicity
 _atom_site_fract_x
 _atom_site_fract_y
 _atom_site_fract_z
 _atom_site_occupancy
  Li  Li0  1  0.82771717  0.07771717  0.25000000  1
  Li  Li1  1  0.82913995  0.67086005  0.25000000  1
  Li  Li2  1  0.57771717  0.32771717  0.75000000  1
  Li  Li3  1  0.57913995  0.92086005  0.75000000  1
  Li  Li4  1  0.42086005  0.07913995  0.25000000  1
  Li  Li5  1  0.42228283  0.67228283  0.25000000  1
  Li  Li6  1  0.17086005  0.32913995  0.75000000  1
  Li  Li7  1  0.17228283  0.92228283  0.75000000  1
  V  V8  1  0.50000000  0.50000000  0.00000000  1
  V  V9  1  0.00000000  0.00000000  0.50000000  1
  V  V10  1  0.00000000  0.50000000  0.50000000  1
  V  V11  1  0.00000000  0.50000000  0.00000000  1
  C  C12  1  0.79551474  0.34560846  0.91779222  1
  C  C13  1  0.78669305  0.73659932  0.91779222  1
  C  C14  1  0.84560846  0.29551474  0.41779222  1
  C  C15  1  0.76340068  0.71330695  0.58220778  1
  C  C16  1  0.23659932  0.28669305  0.41779222  1
  C  C17  1  0.15439154  0.70448526  0.58220778  1
  C  C18  1  0.21330695  0.26340068  0.08220778  1
  C  C19  1  0.20448526  0.65439154  0.08220778  1
  S  S20  1  0.62500000  0.87500000  0.25000000  1
  S  S21  1  0.37500000  0.12500000  0.75000000  1
  O  O22  1  0.91269955  0.71900338  0.94070593  1
  O  O23  1  0.92362504  0.35143927  0.77399878  1
  O  O24  1  0.80237618  0.87456195  0.77399878  1
  O  O25  1  0.88332477  0.85770595  0.46016370  1
  O  O26  1  0.84348847  0.31786964  0.53983630  1
  O  O27  1  0.64659452  0.34029069  0.94070593  1
  O  O28  1  0.84029069  0.14659452  0.44070593  1
  O  O29  1  0.78099662  0.58730045  0.55929407  1
  O  O30  1  0.85143927  0.42362504  0.27399778  1
  O  O31  1  0.62543805  0.69762382  0.72600122  1
  O  O32  1  0.81716515  0.93058119  0.13640979  1
  O  O33  1  0.45357494  0.06699098  0.86359021  1
  O  O34  1  0.81786964  0.34348847  0.03983630  1
  O  O35  1  0.35770595  0.38332477  0.96016370  1
  O  O36  1  0.56941881  0.68283485  0.36359021  1
  O  O37  1  0.56699098  0.95357494  0.36359021  1
  O  O38  1  0.43300902  0.04642506  0.63640979  1
  O  O39  1  0.43058119  0.31716515  0.63640979  1
  O  O40  1  0.64229405  0.61667523  0.03983630  1
  O  O41  1  0.18213036  0.65651153  0.96016370  1
  O  O42  1  0.54642506  0.93300902  0.13640979  1
  O  O43  1  0.18283485  0.06941881  0.86359021  1
  O  O44  1  0.37456195  0.30237618  0.27399778  1
  O  O45  1  0.14856073  0.57637496  0.72600122  1
  O  O46  1  0.21900338  0.41269955  0.44070593  1
  O  O47  1  0.15970931  0.85340548  0.55929407  1
  O  O48  1  0.35340548  0.65970931  0.05929407  1
  O  O49  1  0.15651153  0.68213036  0.46016370  1
  O  O50  1  0.11667523  0.14229405  0.53983630  1
  O  O51  1  0.19762382  0.12543805  0.22600222  1
  O  O52  1  0.07637496  0.64856073  0.22600222  1
  O  O53  1  0.08730045  0.28099662  0.05929407  1
