# generated using pymatgen
data_KLiNiO2
_symmetry_space_group_name_H-M   'P 1'
_cell_length_a   5.81144160
_cell_length_b   5.81144114
_cell_length_c   8.22029128
_cell_angle_alpha   62.47626443
_cell_angle_beta   117.52373668
_cell_angle_gamma   146.80782034
_symmetry_Int_Tables_number   1
_chemical_formula_structural   KLiNiO2
_chemical_formula_sum   'K2 Li2 Ni2 O4'
_cell_volume   133.14719887
_cell_formula_units_Z   2
loop_
 _symmetry_equiv_pos_site_id
 _symmetry_equiv_pos_as_xyz
  1  'x, y, z'
loop_
 _atom_site_type_symbol
 _atom_site_label
 _atom_site_symmetry_multiplicity
 _atom_site_fract_x
 _atom_site_fract_y
 _atom_site_fract_z
 _atom_site_occupancy
  K  K0  1  0.16169116  0.83830884  0.62534678  1
  K  K1  1  0.83830884  0.16169116  0.37465322  1
  Li  Li2  1  0.65823407  0.34176593  0.94748152  1
  Li  Li3  1  0.34176593  0.65823407  0.05251848  1
  Ni  Ni4  1  0.05407817  0.94592183  0.18451012  1
  Ni  Ni5  1  0.94592183  0.05407817  0.81548988  1
  O  O6  1  0.17559968  0.82440032  0.08238346  1
  O  O7  1  0.46310175  0.53689825  0.70226608  1
  O  O8  1  0.53689825  0.46310175  0.29773392  1
  O  O9  1  0.82440032  0.17559968  0.91761654  1
