# generated using pymatgen
data_FeSiGe
_symmetry_space_group_name_H-M   'P 1'
_cell_length_a   6.44864809
_cell_length_b   6.44864770
_cell_length_c   8.02680124
_cell_angle_alpha   90.00000000
_cell_angle_beta   90.00000000
_cell_angle_gamma   103.79062175
_symmetry_Int_Tables_number   1
_chemical_formula_structural   FeSiGe
_chemical_formula_sum   'Fe8 Si8 Ge8'
_cell_volume   324.17280368
_cell_formula_units_Z   8
loop_
 _symmetry_equiv_pos_site_id
 _symmetry_equiv_pos_as_xyz
  1  'x, y, z'
loop_
 _atom_site_type_symbol
 _atom_site_label
 _atom_site_symmetry_multiplicity
 _atom_site_fract_x
 _atom_site_fract_y
 _atom_site_fract_z
 _atom_site_occupancy
  Fe  Fe0  1  0.28409448  0.71590552  0.50000000  1
  Fe  Fe1  1  0.30877911  0.30877911  0.31409404  1
  Fe  Fe2  1  0.71590552  0.28409448  0.50000000  1
  Fe  Fe3  1  0.21590552  0.78409448  0.00000000  1
  Fe  Fe4  1  0.69122089  0.69122089  0.68590596  1
  Fe  Fe5  1  0.80877911  0.80877911  0.18590596  1
  Fe  Fe6  1  0.78409448  0.21590552  0.00000000  1
  Fe  Fe7  1  0.19122089  0.19122089  0.81409404  1
  Si  Si8  1  0.83017029  0.08332082  0.72929311  1
  Si  Si9  1  0.66982971  0.41667918  0.22929311  1
  Si  Si10  1  0.16982971  0.91667918  0.27070689  1
  Si  Si11  1  0.58332082  0.33017029  0.77070689  1
  Si  Si12  1  0.08332082  0.83017029  0.72929311  1
  Si  Si13  1  0.33017029  0.58332082  0.77070689  1
  Si  Si14  1  0.91667918  0.16982971  0.27070689  1
  Si  Si15  1  0.41667918  0.66982971  0.22929311  1
  Ge  Ge16  1  0.40319359  0.14671717  0.05232620  1
  Ge  Ge17  1  0.59680641  0.85328283  0.94767380  1
  Ge  Ge18  1  0.64671717  0.90319359  0.44767380  1
  Ge  Ge19  1  0.35328283  0.09680641  0.55232620  1
  Ge  Ge20  1  0.14671717  0.40319359  0.05232620  1
  Ge  Ge21  1  0.90319359  0.64671717  0.44767380  1
  Ge  Ge22  1  0.09680641  0.35328283  0.55232620  1
  Ge  Ge23  1  0.85328283  0.59680641  0.94767380  1
