# generated using pymatgen
data_LiFeF4
_symmetry_space_group_name_H-M   'P 1'
_cell_length_a   6.56917135
_cell_length_b   3.96847267
_cell_length_c   12.39890284
_cell_angle_alpha   90.00000000
_cell_angle_beta   109.20552815
_cell_angle_gamma   90.00000000
_symmetry_Int_Tables_number   1
_chemical_formula_structural   LiFeF4
_chemical_formula_sum   'Li4 Fe4 F16'
_cell_volume   305.24443735
_cell_formula_units_Z   4
loop_
 _symmetry_equiv_pos_site_id
 _symmetry_equiv_pos_as_xyz
  1  'x, y, z'
loop_
 _atom_site_type_symbol
 _atom_site_label
 _atom_site_symmetry_multiplicity
 _atom_site_fract_x
 _atom_site_fract_y
 _atom_site_fract_z
 _atom_site_occupancy
  Li  Li0  1  0.35432887  0.99056817  0.89118330  1
  Li  Li1  1  0.35432887  0.50943183  0.39118330  1
  Li  Li2  1  0.64567113  0.49056817  0.60881670  1
  Li  Li3  1  0.64567113  0.00943183  0.10881670  1
  Fe  Fe4  1  0.15019359  0.74806287  0.61278994  1
  Fe  Fe5  1  0.15019359  0.75193713  0.11278994  1
  Fe  Fe6  1  0.84980641  0.24806287  0.88721006  1
  Fe  Fe7  1  0.84980641  0.25193713  0.38721006  1
  F  F8  1  0.89856852  0.74373599  0.65103116  1
  F  F9  1  0.89856852  0.75626401  0.15103116  1
  F  F10  1  0.09643450  0.24359221  0.57105955  1
  F  F11  1  0.09643450  0.25640779  0.07105955  1
  F  F12  1  0.34640474  0.74892797  0.75909106  1
  F  F13  1  0.36480780  0.70867634  0.53824238  1
  F  F14  1  0.34640474  0.75107203  0.25909106  1
  F  F15  1  0.63519220  0.20867634  0.96175762  1
  F  F16  1  0.36480780  0.79132366  0.03824238  1
  F  F17  1  0.65359526  0.24892797  0.74090894  1
  F  F18  1  0.63519220  0.29132366  0.46175762  1
  F  F19  1  0.65359526  0.25107203  0.24090894  1
  F  F20  1  0.90356550  0.74359221  0.92894045  1
  F  F21  1  0.90356550  0.75640779  0.42894045  1
  F  F22  1  0.10143148  0.24373599  0.84896884  1
  F  F23  1  0.10143148  0.25626401  0.34896884  1
