# generated using pymatgen
data_LiFe2OF5
_symmetry_space_group_name_H-M   'P 1'
_cell_length_a   4.68554531
_cell_length_b   17.13120383
_cell_length_c   5.11225744
_cell_angle_alpha   90.00000000
_cell_angle_beta   90.00000000
_cell_angle_gamma   89.26407916
_symmetry_Int_Tables_number   1
_chemical_formula_structural   LiFe2OF5
_chemical_formula_sum   'Li4 Fe8 O4 F20'
_cell_volume   410.32210581
_cell_formula_units_Z   4
loop_
 _symmetry_equiv_pos_site_id
 _symmetry_equiv_pos_as_xyz
  1  'x, y, z'
loop_
 _atom_site_type_symbol
 _atom_site_label
 _atom_site_symmetry_multiplicity
 _atom_site_fract_x
 _atom_site_fract_y
 _atom_site_fract_z
 _atom_site_occupancy
  Li  Li0  1  0.00727615  0.38317811  0.25421953  1
  Li  Li1  1  0.00500389  0.61371474  0.76445258  1
  Li  Li2  1  0.50727615  0.88317811  0.24578047  1
  Li  Li3  1  0.50500389  0.11371474  0.73554742  1
  Fe  Fe4  1  0.02385118  0.28109172  0.77649370  1
  Fe  Fe5  1  0.97552677  0.06093496  0.25670119  1
  Fe  Fe6  1  0.00490025  0.71802564  0.25160141  1
  Fe  Fe7  1  0.00312449  0.94858431  0.75064513  1
  Fe  Fe8  1  0.47552677  0.56093496  0.24329881  1
  Fe  Fe9  1  0.52385118  0.78109172  0.72350630  1
  Fe  Fe10  1  0.50490025  0.21802564  0.24839859  1
  Fe  Fe11  1  0.50312449  0.44858431  0.74935487  1
  O  O12  1  0.24109231  0.28831527  0.07710962  1
  O  O13  1  0.22373933  0.63124079  0.10544187  1
  O  O14  1  0.74109231  0.78831527  0.42289038  1
  O  O15  1  0.72373933  0.13124079  0.39455813  1
  F  F16  1  0.23505057  0.70733468  0.58950117  1
  F  F17  1  0.23680432  0.37385147  0.59705401  1
  F  F18  1  0.21855268  0.03513084  0.57769899  1
  F  F19  1  0.21716587  0.96239901  0.07263031  1
  F  F20  1  0.27899134  0.46262090  0.07220615  1
  F  F21  1  0.27271139  0.53444232  0.58328870  1
  F  F22  1  0.26739256  0.87386947  0.59203358  1
  F  F23  1  0.26307650  0.12477689  0.07907362  1
  F  F24  1  0.25947573  0.20652242  0.57649150  1
  F  F25  1  0.26626567  0.79396446  0.06097889  1
  F  F26  1  0.73505057  0.20733468  0.91049883  1
  F  F27  1  0.73680432  0.87385147  0.90294599  1
  F  F28  1  0.71716587  0.46239901  0.42736969  1
  F  F29  1  0.71855268  0.53513084  0.92230101  1
  F  F30  1  0.77271139  0.03444232  0.91671130  1
  F  F31  1  0.77899134  0.96262090  0.42779385  1
  F  F32  1  0.76307650  0.62477689  0.42092638  1
  F  F33  1  0.76739256  0.37386947  0.90796642  1
  F  F34  1  0.76626567  0.29396446  0.43902111  1
  F  F35  1  0.75947573  0.70652242  0.92350850  1
