# generated using pymatgen
data_Li2FeF4
_symmetry_space_group_name_H-M   'P 1'
_cell_length_a   7.05621822
_cell_length_b   8.81868820
_cell_length_c   10.55423774
_cell_angle_alpha   90.00000000
_cell_angle_beta   90.77490216
_cell_angle_gamma   90.00000000
_symmetry_Int_Tables_number   1
_chemical_formula_structural   Li2FeF4
_chemical_formula_sum   'Li16 Fe8 F32'
_cell_volume   656.69414343
_cell_formula_units_Z   8
loop_
 _symmetry_equiv_pos_site_id
 _symmetry_equiv_pos_as_xyz
  1  'x, y, z'
loop_
 _atom_site_type_symbol
 _atom_site_label
 _atom_site_symmetry_multiplicity
 _atom_site_fract_x
 _atom_site_fract_y
 _atom_site_fract_z
 _atom_site_occupancy
  Li  Li0  1  0.17707548  0.44162203  0.64932159  1
  Li  Li1  1  0.25520936  0.93665088  0.86644160  1
  Li  Li2  1  0.17707548  0.05837797  0.14932159  1
  Li  Li3  1  0.25520936  0.56334912  0.36644160  1
  Li  Li4  1  0.29252552  0.58271241  0.88831455  1
  Li  Li5  1  0.26175415  0.11094386  0.62825716  1
  Li  Li6  1  0.29252552  0.91728759  0.38831455  1
  Li  Li7  1  0.26175415  0.38905614  0.12825716  1
  Li  Li8  1  0.73824585  0.61094386  0.87174284  1
  Li  Li9  1  0.70747448  0.08271241  0.61168545  1
  Li  Li10  1  0.73824585  0.88905614  0.37174284  1
  Li  Li11  1  0.70747448  0.41728759  0.11168545  1
  Li  Li12  1  0.74479064  0.43665088  0.63355840  1
  Li  Li13  1  0.82292452  0.94162203  0.85067841  1
  Li  Li14  1  0.74479064  0.06334912  0.13355840  1
  Li  Li15  1  0.82292452  0.55837797  0.35067841  1
  Fe  Fe16  1  0.01938288  0.75463807  0.61307325  1
  Fe  Fe17  1  0.01938288  0.74536193  0.11307325  1
  Fe  Fe18  1  0.47389216  0.75130310  0.63147140  1
  Fe  Fe19  1  0.52610784  0.25130310  0.86852860  1
  Fe  Fe20  1  0.47389216  0.74869690  0.13147140  1
  Fe  Fe21  1  0.52610784  0.24869690  0.36852860  1
  Fe  Fe22  1  0.98061712  0.25463807  0.88692675  1
  Fe  Fe23  1  0.98061712  0.24536193  0.38692675  1
  F  F24  1  0.04657145  0.05594936  0.81011407  1
  F  F25  1  0.04657145  0.44405064  0.31011407  1
  F  F26  1  0.11371113  0.26988249  0.55973256  1
  F  F27  1  0.11371113  0.23011751  0.05973256  1
  F  F28  1  0.25798277  0.75513003  0.76839918  1
  F  F29  1  0.18000272  0.92530844  0.55505375  1
  F  F30  1  0.25283816  0.37445568  0.81640860  1
  F  F31  1  0.25798277  0.74486997  0.26839918  1
  F  F32  1  0.18000272  0.57469156  0.05505375  1
  F  F33  1  0.26302448  0.60459256  0.54287180  1
  F  F34  1  0.25283816  0.12554432  0.31640860  1
  F  F35  1  0.26302448  0.89540744  0.04287180  1
  F  F36  1  0.41967069  0.07042236  0.77910722  1
  F  F37  1  0.41967069  0.42957764  0.27910722  1
  F  F38  1  0.51766663  0.66148052  0.96499722  1
  F  F39  1  0.48233337  0.16148052  0.53500278  1
  F  F40  1  0.51766663  0.83851948  0.46499722  1
  F  F41  1  0.48233337  0.33851948  0.03500278  1
  F  F42  1  0.58032931  0.57042236  0.72089278  1
  F  F43  1  0.58032931  0.92957764  0.22089278  1
  F  F44  1  0.73697552  0.10459256  0.95712820  1
  F  F45  1  0.74716184  0.87445568  0.68359140  1
  F  F46  1  0.73697552  0.39540744  0.45712820  1
  F  F47  1  0.81999728  0.42530844  0.94494625  1
  F  F48  1  0.74201723  0.25513003  0.73160082  1
  F  F49  1  0.74716184  0.62554432  0.18359140  1
  F  F50  1  0.81999728  0.07469156  0.44494625  1
  F  F51  1  0.74201723  0.24486997  0.23160082  1
  F  F52  1  0.88628887  0.76988249  0.94026744  1
  F  F53  1  0.88628887  0.73011751  0.44026744  1
  F  F54  1  0.95342855  0.55594936  0.68988593  1
  F  F55  1  0.95342855  0.94405064  0.18988593  1
