# generated using pymatgen
data_LiFeF3
_symmetry_space_group_name_H-M   'P 1'
_cell_length_a   5.83756565
_cell_length_b   5.83756565
_cell_length_c   12.30118358
_cell_angle_alpha   76.21494814
_cell_angle_beta   103.78505186
_cell_angle_gamma   120.31436650
_symmetry_Int_Tables_number   1
_chemical_formula_structural   LiFeF3
_chemical_formula_sum   'Li6 Fe6 F18'
_cell_volume   347.95124868
_cell_formula_units_Z   6
loop_
 _symmetry_equiv_pos_site_id
 _symmetry_equiv_pos_as_xyz
  1  'x, y, z'
loop_
 _atom_site_type_symbol
 _atom_site_label
 _atom_site_symmetry_multiplicity
 _atom_site_fract_x
 _atom_site_fract_y
 _atom_site_fract_z
 _atom_site_occupancy
  Li  Li0  1  0.43324229  0.75161356  0.74952360  1
  Li  Li1  1  0.06807362  0.06807362  0.75000000  1
  Li  Li2  1  0.24838644  0.56675771  0.24952360  1
  Li  Li3  1  0.75161356  0.43324229  0.75047640  1
  Li  Li4  1  0.93192638  0.93192638  0.25000000  1
  Li  Li5  1  0.56675771  0.24838644  0.25047640  1
  Fe  Fe6  1  0.00000000  0.50000000  0.50000000  1
  Fe  Fe7  1  0.65725781  0.84352590  0.46930637  1
  Fe  Fe8  1  0.84352590  0.65725781  0.03069363  1
  Fe  Fe9  1  0.15647410  0.34274219  0.96930637  1
  Fe  Fe10  1  0.34274219  0.15647410  0.53069363  1
  Fe  Fe11  1  0.50000000  0.00000000  0.00000000  1
  F  F12  1  0.36825049  0.78580025  0.57463367  1
  F  F13  1  0.50865313  0.71806195  0.92446086  1
  F  F14  1  0.09825198  0.40783619  0.78498317  1
  F  F15  1  0.21419975  0.63174951  0.07463367  1
  F  F16  1  0.28193805  0.49134687  0.42446086  1
  F  F17  1  0.98939553  0.13005049  0.57502085  1
  F  F18  1  0.74986995  0.74986995  0.75000000  1
  F  F19  1  0.13005049  0.98939553  0.92497915  1
  F  F20  1  0.59216381  0.90174802  0.28498317  1
  F  F21  1  0.40783619  0.09825198  0.71501683  1
  F  F22  1  0.86994951  0.01060447  0.07502085  1
  F  F23  1  0.25013005  0.25013005  0.25000000  1
  F  F24  1  0.01060447  0.86994951  0.42497915  1
  F  F25  1  0.71806195  0.50865313  0.57553914  1
  F  F26  1  0.78580025  0.36825049  0.92536633  1
  F  F27  1  0.90174802  0.59216381  0.21501683  1
  F  F28  1  0.49134687  0.28193805  0.07553914  1
  F  F29  1  0.63174951  0.21419975  0.42536633  1
