# generated using pymatgen
data_Ba3Y2Br12
_symmetry_space_group_name_H-M   'P 1'
_cell_length_a   12.87532842
_cell_length_b   13.40670652
_cell_length_c   17.00351383
_cell_angle_alpha   90.00000000
_cell_angle_beta   93.94923351
_cell_angle_gamma   90.00000000
_symmetry_Int_Tables_number   1
_chemical_formula_structural   Ba3Y2Br12
_chemical_formula_sum   'Ba12 Y8 Br48'
_cell_volume   2928.10484855
_cell_formula_units_Z   4
loop_
 _symmetry_equiv_pos_site_id
 _symmetry_equiv_pos_as_xyz
  1  'x, y, z'
loop_
 _atom_site_type_symbol
 _atom_site_label
 _atom_site_symmetry_multiplicity
 _atom_site_fract_x
 _atom_site_fract_y
 _atom_site_fract_z
 _atom_site_occupancy
  Ba  Ba0  1  0.03670682  0.20471457  0.47092329  1
  Ba  Ba1  1  0.13020341  0.13008577  0.84717296  1
  Ba  Ba2  1  0.12660210  0.33973626  0.09940156  1
  Ba  Ba3  1  0.36979659  0.63008577  0.65282704  1
  Ba  Ba4  1  0.37339790  0.83973626  0.40059844  1
  Ba  Ba5  1  0.46329318  0.70471457  0.02907671  1
  Ba  Ba6  1  0.53670682  0.29528543  0.97092329  1
  Ba  Ba7  1  0.62660210  0.16026374  0.59940156  1
  Ba  Ba8  1  0.63020341  0.36991423  0.34717296  1
  Ba  Ba9  1  0.87339790  0.66026374  0.90059844  1
  Ba  Ba10  1  0.86979659  0.86991423  0.15282704  1
  Ba  Ba11  1  0.96329318  0.79528543  0.52907671  1
  Y  Y12  1  0.23962430  0.47979405  0.86785995  1
  Y  Y13  1  0.26037570  0.97979405  0.63214005  1
  Y  Y14  1  0.24420438  0.52587950  0.36050492  1
  Y  Y15  1  0.25579562  0.02587950  0.13949508  1
  Y  Y16  1  0.74420438  0.97412050  0.86050492  1
  Y  Y17  1  0.75579562  0.47412050  0.63949508  1
  Y  Y18  1  0.73962430  0.02020595  0.36785995  1
  Y  Y19  1  0.76037570  0.52020595  0.13214005  1
  Br  Br20  1  0.12456143  0.62919705  0.93177121  1
  Br  Br21  1  0.11358426  0.63499198  0.45790360  1
  Br  Br22  1  0.15077602  0.80048059  0.66636628  1
  Br  Br23  1  0.10343994  0.92160819  0.21320808  1
  Br  Br24  1  0.10308502  0.12251629  0.64920232  1
  Br  Br25  1  0.07590790  0.35279218  0.90373211  1
  Br  Br26  1  0.09074332  0.10736795  0.03287684  1
  Br  Br27  1  0.08959438  0.47649831  0.24798280  1
  Br  Br28  1  0.21128534  0.19124847  0.23208526  1
  Br  Br29  1  0.21862750  0.35941124  0.45697701  1
  Br  Br30  1  0.30793667  0.98892725  0.79081602  1
  Br  Br31  1  0.34011438  0.45556789  0.02580492  1
  Br  Br32  1  0.19206333  0.48892725  0.70918398  1
  Br  Br33  1  0.15988562  0.95556789  0.47419508  1
  Br  Br34  1  0.28137250  0.85941124  0.04302299  1
  Br  Br35  1  0.28871466  0.69124847  0.26791574  1
  Br  Br36  1  0.40925668  0.60736795  0.46712316  1
  Br  Br37  1  0.42409210  0.85279218  0.59626789  1
  Br  Br38  1  0.41040562  0.97649831  0.25201720  1
  Br  Br39  1  0.39691498  0.62251629  0.85079768  1
  Br  Br40  1  0.34922398  0.30048059  0.83363372  1
  Br  Br41  1  0.37543857  0.12919705  0.56822879  1
  Br  Br42  1  0.39656006  0.42160819  0.28679192  1
  Br  Br43  1  0.38641574  0.13499198  0.04209640  1
  Br  Br44  1  0.61358426  0.86500802  0.95790360  1
  Br  Br45  1  0.60343994  0.57839181  0.71320808  1
  Br  Br46  1  0.62456143  0.87080295  0.43177121  1
  Br  Br47  1  0.65077602  0.69951941  0.16636628  1
  Br  Br48  1  0.60308502  0.37748371  0.14920232  1
  Br  Br49  1  0.58959438  0.02350169  0.74798280  1
  Br  Br50  1  0.57590790  0.14720782  0.40373211  1
  Br  Br51  1  0.59074332  0.39263205  0.53287684  1
  Br  Br52  1  0.71128534  0.30875153  0.73208526  1
  Br  Br53  1  0.71862750  0.14058876  0.95697701  1
  Br  Br54  1  0.84011438  0.04443211  0.52580492  1
  Br  Br55  1  0.80793667  0.51107275  0.29081602  1
  Br  Br56  1  0.65988562  0.54443211  0.97419508  1
  Br  Br57  1  0.69206333  0.01107275  0.20918398  1
  Br  Br58  1  0.78137250  0.64058876  0.54302299  1
  Br  Br59  1  0.78871466  0.80875153  0.76791474  1
  Br  Br60  1  0.91040562  0.52350169  0.75201720  1
  Br  Br61  1  0.90925668  0.89263205  0.96712316  1
  Br  Br62  1  0.92409210  0.64720782  0.09626789  1
  Br  Br63  1  0.89691498  0.87748371  0.35079768  1
  Br  Br64  1  0.89656006  0.07839181  0.78679192  1
  Br  Br65  1  0.84922398  0.19951941  0.33363372  1
  Br  Br66  1  0.88641574  0.36500802  0.54209640  1
  Br  Br67  1  0.87543857  0.37080295  0.06822879  1
