# generated using pymatgen
data_MnOF
_symmetry_space_group_name_H-M   'P 1'
_cell_length_a   6.93492760
_cell_length_b   5.69216489
_cell_length_c   6.90688974
_cell_angle_alpha   91.33721364
_cell_angle_beta   96.53797108
_cell_angle_gamma   90.79871313
_symmetry_Int_Tables_number   1
_chemical_formula_structural   MnOF
_chemical_formula_sum   'Mn8 O8 F8'
_cell_volume   270.76304284
_cell_formula_units_Z   8
loop_
 _symmetry_equiv_pos_site_id
 _symmetry_equiv_pos_as_xyz
  1  'x, y, z'
loop_
 _atom_site_type_symbol
 _atom_site_label
 _atom_site_symmetry_multiplicity
 _atom_site_fract_x
 _atom_site_fract_y
 _atom_site_fract_z
 _atom_site_occupancy
  Mn  Mn0  1  0.37714249  0.34625691  0.14149393  1
  Mn  Mn1  1  0.12173089  0.61150813  0.40181929  1
  Mn  Mn2  1  0.90056081  0.19415290  0.11347916  1
  Mn  Mn3  1  0.38835113  0.14499336  0.62227324  1
  Mn  Mn4  1  0.14818625  0.85047597  0.87692844  1
  Mn  Mn5  1  0.62741621  0.84735629  0.36511432  1
  Mn  Mn6  1  0.62050231  0.66267287  0.88580999  1
  Mn  Mn7  1  0.86403550  0.35010460  0.62833757  1
  O  O8  1  0.16907538  0.12122741  0.06698293  1
  O  O9  1  0.32124129  0.38188495  0.41490910  1
  O  O10  1  0.56624711  0.61463749  0.16020014  1
  O  O11  1  0.06859573  0.61154743  0.66164435  1
  O  O12  1  0.41320499  0.89009134  0.81588003  1
  O  O13  1  0.64896950  0.11294400  0.55380260  1
  O  O14  1  0.92332781  0.38675801  0.35976119  1
  O  O15  1  0.80374233  0.40103368  0.89140327  1
  F  F16  1  0.14977923  0.61064196  0.11375659  1
  F  F17  1  0.32796553  0.86050866  0.40995434  1
  F  F18  1  0.10742341  0.11747191  0.65880849  1
  F  F19  1  0.61349891  0.10456254  0.16041761  1
  F  F20  1  0.92249827  0.86572236  0.32996271  1
  F  F21  1  0.40318560  0.38755380  0.85770038  1
  F  F22  1  0.65143439  0.63029165  0.59423503  1
  F  F23  1  0.86188594  0.89560075  0.91532329  1
