# generated using pymatgen
data_Li3Fe4(OF3)3
_symmetry_space_group_name_H-M   'P 1'
_cell_length_a   5.99895421
_cell_length_b   5.98986105
_cell_length_c   6.03112370
_cell_angle_alpha   99.10400522
_cell_angle_beta   98.69824923
_cell_angle_gamma   98.84908447
_symmetry_Int_Tables_number   1
_chemical_formula_structural   Li3Fe4(OF3)3
_chemical_formula_sum   'Li3 Fe4 O3 F9'
_cell_volume   207.98698201
_cell_formula_units_Z   1
loop_
 _symmetry_equiv_pos_site_id
 _symmetry_equiv_pos_as_xyz
  1  'x, y, z'
loop_
 _atom_site_type_symbol
 _atom_site_label
 _atom_site_symmetry_multiplicity
 _atom_site_fract_x
 _atom_site_fract_y
 _atom_site_fract_z
 _atom_site_occupancy
  Li  Li0  1  0.58371952  0.30544044  0.12467745  1
  Li  Li1  1  0.34459457  0.14120094  0.61555609  1
  Li  Li2  1  0.84897277  0.38953037  0.66228924  1
  Fe  Fe3  1  0.16422817  0.60814032  0.35592870  1
  Fe  Fe4  1  0.64052749  0.85507837  0.38006710  1
  Fe  Fe5  1  0.42341843  0.67982387  0.87535191  1
  Fe  Fe6  1  0.98839042  0.00094648  0.99508290  1
  O  O7  1  0.41548108  0.80257709  0.59307407  1
  O  O8  1  0.40278499  0.59498024  0.17946127  1
  O  O9  1  0.69080396  0.89392503  0.06159731  1
  F  F10  1  0.11549576  0.93445699  0.30127851  1
  F  F11  1  0.06948616  0.69527197  0.87788903  1
  F  F12  1  0.17298599  0.39247309  0.57444099  1
  F  F13  1  0.84042416  0.61972568  0.43163797  1
  F  F14  1  0.29454088  0.11465369  0.94408926  1
  F  F15  1  0.59385985  0.42746383  0.81844920  1
  F  F16  1  0.58034875  0.17479049  0.40224571  1
  F  F17  1  0.95966190  0.32520358  0.12486445  1
  F  F18  1  0.87027417  0.04431752  0.68201881  1
