# generated using pymatgen
data_Li2Cr(PO3)4
_symmetry_space_group_name_H-M   'P 1'
_cell_length_a   7.93545700
_cell_length_b   11.15171891
_cell_length_c   13.85584255
_cell_angle_alpha   90.00000000
_cell_angle_beta   63.88381779
_cell_angle_gamma   90.00000000
_symmetry_Int_Tables_number   1
_chemical_formula_structural   Li2Cr(PO3)4
_chemical_formula_sum   'Li8 Cr4 P16 O48'
_cell_volume   1100.97195791
_cell_formula_units_Z   4
loop_
 _symmetry_equiv_pos_site_id
 _symmetry_equiv_pos_as_xyz
  1  'x, y, z'
loop_
 _atom_site_type_symbol
 _atom_site_label
 _atom_site_symmetry_multiplicity
 _atom_site_fract_x
 _atom_site_fract_y
 _atom_site_fract_z
 _atom_site_occupancy
  Li  Li0  1  0.23967439  0.12419342  0.21697087  1
  Li  Li1  1  0.26032561  0.62419342  0.28302913  1
  Li  Li2  1  0.15746550  0.96105539  0.42856560  1
  Li  Li3  1  0.34253450  0.46105539  0.07143440  1
  Li  Li4  1  0.65746550  0.53894461  0.92856560  1
  Li  Li5  1  0.84253450  0.03894461  0.57143440  1
  Li  Li6  1  0.73967439  0.37580658  0.71697087  1
  Li  Li7  1  0.76032561  0.87580658  0.78302913  1
  Cr  Cr8  1  0.29576648  0.26055366  0.68201526  1
  Cr  Cr9  1  0.20423352  0.76055366  0.81798474  1
  Cr  Cr10  1  0.79576648  0.23944634  0.18201526  1
  Cr  Cr11  1  0.70423352  0.73944634  0.31798474  1
  P  P12  1  0.99727895  0.73983010  0.06755412  1
  P  P13  1  0.07686938  0.37772559  0.29119686  1
  P  P14  1  0.41518350  0.76492857  0.01106298  1
  P  P15  1  0.08481650  0.26492857  0.48893702  1
  P  P16  1  0.00272105  0.26016990  0.93244588  1
  P  P17  1  0.42313062  0.87772559  0.20880314  1
  P  P18  1  0.19579887  0.04328631  0.82532183  1
  P  P19  1  0.30420113  0.54328631  0.67467817  1
  P  P20  1  0.50272105  0.23983010  0.43244588  1
  P  P21  1  0.49727895  0.76016990  0.56755412  1
  P  P22  1  0.69579887  0.45671369  0.32532183  1
  P  P23  1  0.80420113  0.95671369  0.17467817  1
  P  P24  1  0.57686938  0.12227441  0.79119686  1
  P  P25  1  0.91518350  0.73507143  0.51106298  1
  P  P26  1  0.58481650  0.23507143  0.98893702  1
  P  P27  1  0.92313062  0.62227441  0.70880314  1
  O  O28  1  0.19422691  0.79334941  0.05568952  1
  O  O29  1  0.04333188  0.36062022  0.41390007  1
  O  O30  1  0.24855610  0.45377673  0.22812517  1
  O  O31  1  0.05987089  0.13520269  0.46296046  1
  O  O32  1  0.97598822  0.30636234  0.60229618  1
  O  O33  1  0.44012911  0.63520269  0.03703954  1
  O  O34  1  0.94384187  0.74130057  0.75382802  1
  O  O35  1  0.09225023  0.53177253  0.69082560  1
  O  O36  1  0.25144390  0.95377673  0.27187483  1
  O  O37  1  0.09706879  0.32919544  0.82909892  1
  O  O38  1  0.02436758  0.68112923  0.96417729  1
  O  O39  1  0.45666812  0.86062022  0.08609993  1
  O  O40  1  0.30577309  0.29334941  0.44431048  1
  O  O41  1  0.10040100  0.92615051  0.86480621  1
  O  O42  1  0.11577565  0.13770805  0.92312711  1
  O  O43  1  0.18693735  0.09499463  0.72726259  1
  O  O44  1  0.31306265  0.59499463  0.77273741  1
  O  O45  1  0.47598822  0.19363766  0.10229618  1
  O  O46  1  0.38422435  0.63770805  0.57687289  1
  O  O47  1  0.39959900  0.42615051  0.63519379  1
  O  O48  1  0.44384187  0.75869943  0.25382802  1
  O  O49  1  0.59225023  0.96822747  0.19082560  1
  O  O50  1  0.47563242  0.18112923  0.53582271  1
  O  O51  1  0.40293121  0.82919544  0.67090108  1
  O  O52  1  0.59706879  0.17080456  0.32909892  1
  O  O53  1  0.52436758  0.81887077  0.46417729  1
  O  O54  1  0.40774977  0.03177253  0.80917440  1
  O  O55  1  0.55615813  0.24130057  0.74617198  1
  O  O56  1  0.60040100  0.57384949  0.36480621  1
  O  O57  1  0.61577565  0.36229195  0.42312711  1
  O  O58  1  0.52401178  0.80636234  0.89770382  1
  O  O59  1  0.68693735  0.40500537  0.22726259  1
  O  O60  1  0.81306265  0.90500537  0.27273741  1
  O  O61  1  0.88422435  0.86229195  0.07687289  1
  O  O62  1  0.89959900  0.07384949  0.13519379  1
  O  O63  1  0.69422691  0.70665059  0.55568952  1
  O  O64  1  0.54333188  0.13937978  0.91390007  1
  O  O65  1  0.97563242  0.31887077  0.03582271  1
  O  O66  1  0.90293121  0.67080456  0.17090108  1
  O  O67  1  0.74855610  0.04622327  0.72812517  1
  O  O68  1  0.90774977  0.46822747  0.30917440  1
  O  O69  1  0.05615813  0.25869943  0.24617198  1
  O  O70  1  0.55987089  0.36479731  0.96296046  1
  O  O71  1  0.02401178  0.69363766  0.39770382  1
  O  O72  1  0.94012911  0.86479731  0.53703954  1
  O  O73  1  0.75144390  0.54622327  0.77187483  1
  O  O74  1  0.95666812  0.63937978  0.58609993  1
  O  O75  1  0.80577309  0.20665059  0.94431048  1
