# generated using pymatgen
data_Li4Sn2P4H3O16
_symmetry_space_group_name_H-M   'P 1'
_cell_length_a   4.94517961
_cell_length_b   8.91272133
_cell_length_c   8.14587335
_cell_angle_alpha   89.30608434
_cell_angle_beta   100.74503167
_cell_angle_gamma   88.56406827
_symmetry_Int_Tables_number   1
_chemical_formula_structural   Li4Sn2P4H3O16
_chemical_formula_sum   'Li4 Sn2 P4 H3 O16'
_cell_volume   352.57216002
_cell_formula_units_Z   1
loop_
 _symmetry_equiv_pos_site_id
 _symmetry_equiv_pos_as_xyz
  1  'x, y, z'
loop_
 _atom_site_type_symbol
 _atom_site_label
 _atom_site_symmetry_multiplicity
 _atom_site_fract_x
 _atom_site_fract_y
 _atom_site_fract_z
 _atom_site_occupancy
  Li  Li0  1  0.10707613  0.34759599  0.68447797  1
  Li  Li1  1  0.40425865  0.87431984  0.84178366  1
  Li  Li2  1  0.61434344  0.13378772  0.15441296  1
  Li  Li3  1  0.87740254  0.65438761  0.31127048  1
  Sn  Sn4  1  0.99901040  0.00435071  0.50594610  1
  Sn  Sn5  1  0.49469482  0.49867756  0.99457005  1
  P  P6  1  0.12694693  0.33377297  0.27405998  1
  P  P7  1  0.36377908  0.85834300  0.23021305  1
  P  P8  1  0.62004302  0.14536817  0.77464409  1
  P  P9  1  0.87395061  0.67001884  0.72260913  1
  H  H10  1  0.46121377  0.36012792  0.49187871  1
  H  H11  1  0.53430184  0.61956633  0.51460175  1
  H  H12  1  0.04121887  0.98034357  0.02208462  1
  O  O13  1  0.05629631  0.53521158  0.79550156  1
  O  O14  1  0.96614557  0.19248646  0.30594718  1
  O  O15  1  0.13178382  0.82679793  0.33131539  1
  O  O16  1  0.26734001  0.39295940  0.46126115  1
  O  O17  1  0.40988484  0.03571729  0.67259789  1
  O  O18  1  0.47668158  0.29761750  0.79736514  1
  O  O19  1  0.22801676  0.92584412  0.04787168  1
  O  O20  1  0.35845912  0.29955986  0.17857519  1
  O  O21  1  0.63991207  0.70450316  0.81574492  1
  O  O22  1  0.74066477  0.06825313  0.94368041  1
  O  O23  1  0.51217678  0.71312793  0.19671297  1
  O  O24  1  0.55938465  0.97773621  0.31677280  1
  O  O25  1  0.73557988  0.61729422  0.53281776  1
  O  O26  1  0.84790137  0.17821431  0.66657651  1
  O  O27  1  0.04334005  0.80844343  0.69475124  1
  O  O28  1  0.93707631  0.46547324  0.20185567  1
