# generated using pymatgen
data_LiFeF3
_symmetry_space_group_name_H-M   'P 1'
_cell_length_a   6.30477552
_cell_length_b   6.30375326
_cell_length_c   3.23539558
_cell_angle_alpha   90.18555137
_cell_angle_beta   90.19839319
_cell_angle_gamma   70.40473778
_symmetry_Int_Tables_number   1
_chemical_formula_structural   LiFeF3
_chemical_formula_sum   'Li2 Fe2 F6'
_cell_volume   121.13865249
_cell_formula_units_Z   2
loop_
 _symmetry_equiv_pos_site_id
 _symmetry_equiv_pos_as_xyz
  1  'x, y, z'
loop_
 _atom_site_type_symbol
 _atom_site_label
 _atom_site_symmetry_multiplicity
 _atom_site_fract_x
 _atom_site_fract_y
 _atom_site_fract_z
 _atom_site_occupancy
  Li  Li0  1  0.99501693  0.00012015  0.50111759  1
  Li  Li1  1  0.50158900  0.49899562  0.50031518  1
  Fe  Fe2  1  0.00070284  0.49767842  0.00242026  1
  Fe  Fe3  1  0.50070457  0.00014570  0.00246919  1
  F  F4  1  0.18663112  0.55325771  0.50154910  1
  F  F5  1  0.44736618  0.81365845  0.50363434  1
  F  F6  1  0.86225477  0.85738211  0.01155576  1
  F  F7  1  0.14216400  0.13728782  0.01130979  1
  F  F8  1  0.81868249  0.43621704  0.50400125  1
  F  F9  1  0.56435611  0.18140197  0.50203952  1
