# generated using pymatgen
data_Mn8O13F3
_symmetry_space_group_name_H-M   'P 1'
_cell_length_a   7.16515474
_cell_length_b   7.04808329
_cell_length_c   4.98112354
_cell_angle_alpha   89.89700154
_cell_angle_beta   89.68309396
_cell_angle_gamma   101.77883067
_symmetry_Int_Tables_number   1
_chemical_formula_structural   Mn8O13F3
_chemical_formula_sum   'Mn8 O13 F3'
_cell_volume   246.24798326
_cell_formula_units_Z   1
loop_
 _symmetry_equiv_pos_site_id
 _symmetry_equiv_pos_as_xyz
  1  'x, y, z'
loop_
 _atom_site_type_symbol
 _atom_site_label
 _atom_site_symmetry_multiplicity
 _atom_site_fract_x
 _atom_site_fract_y
 _atom_site_fract_z
 _atom_site_occupancy
  Mn  Mn0  1  0.42889085  0.06593076  0.26806775  1
  Mn  Mn1  1  0.08457645  0.41970365  0.74109079  1
  Mn  Mn2  1  0.93349364  0.07745404  0.23849580  1
  Mn  Mn3  1  0.56939234  0.43281095  0.72248634  1
  Mn  Mn4  1  0.42222800  0.58848832  0.24084382  1
  Mn  Mn5  1  0.08650534  0.91937742  0.75608846  1
  Mn  Mn6  1  0.56619315  0.93036376  0.76814304  1
  Mn  Mn7  1  0.93200570  0.57759616  0.26079610  1
  O  O8  1  0.05895031  0.16857161  0.91668912  1
  O  O9  1  0.17165751  0.06052796  0.42440440  1
  O  O10  1  0.67250675  0.06162163  0.08868519  1
  O  O11  1  0.05605495  0.66782439  0.58087064  1
  O  O12  1  0.16705548  0.55658711  0.07306899  1
  O  O13  1  0.56091372  0.17469581  0.58583523  1
  O  O14  1  0.33361371  0.44300561  0.56206353  1
  O  O15  1  0.56004351  0.67249737  0.91128701  1
  O  O16  1  0.67238090  0.56075189  0.40643517  1
  O  O17  1  0.33639420  0.93800881  0.94286626  1
  O  O18  1  0.43832387  0.83462892  0.44226795  1
  O  O19  1  0.93855545  0.32593236  0.41910769  1
  O  O20  1  0.93977027  0.82611451  0.08163955  1
  F  F21  1  0.43776310  0.31640829  0.06758293  1
  F  F22  1  0.81575346  0.43996138  0.92488468  1
  F  F23  1  0.81697736  0.94113629  0.57629856  1
