# generated using pymatgen
data_Li4Ti3Fe2Sn3O16
_symmetry_space_group_name_H-M   'P 1'
_cell_length_a   6.14592116
_cell_length_b   6.13150037
_cell_length_c   9.93491888
_cell_angle_alpha   90.16256851
_cell_angle_beta   89.09324579
_cell_angle_gamma   119.96993443
_symmetry_Int_Tables_number   1
_chemical_formula_structural   Li4Ti3Fe2Sn3O16
_chemical_formula_sum   'Li4 Ti3 Fe2 Sn3 O16'
_cell_volume   324.27866220
_cell_formula_units_Z   1
loop_
 _symmetry_equiv_pos_site_id
 _symmetry_equiv_pos_as_xyz
  1  'x, y, z'
loop_
 _atom_site_type_symbol
 _atom_site_label
 _atom_site_symmetry_multiplicity
 _atom_site_fract_x
 _atom_site_fract_y
 _atom_site_fract_z
 _atom_site_occupancy
  Li  Li0  1  0.33724520  0.66889519  0.88644696  1
  Li  Li1  1  0.98236492  0.99036149  0.99652894  1
  Li  Li2  1  0.98829619  0.99390393  0.50151722  1
  Li  Li3  1  0.66972823  0.33521190  0.39125185  1
  Ti  Ti4  1  0.66216627  0.83167889  0.21768988  1
  Ti  Ti5  1  0.83032525  0.16704645  0.71591626  1
  Ti  Ti6  1  0.82946002  0.66210405  0.71591156  1
  Fe  Fe7  1  0.33690957  0.66828456  0.49746633  1
  Fe  Fe8  1  0.67119550  0.33605502  0.99238145  1
  Sn  Sn9  1  0.16814404  0.83020446  0.21415629  1
  Sn  Sn10  1  0.16912367  0.33779810  0.21475249  1
  Sn  Sn11  1  0.33915962  0.16948713  0.71343169  1
  O  O12  1  0.15030207  0.83776586  0.60377725  1
  O  O13  1  0.03114638  0.51617160  0.33649758  1
  O  O14  1  0.34971232  0.67379891  0.09870977  1
  O  O15  1  0.98731689  0.99401539  0.31949620  1
  O  O16  1  0.98736828  0.99467793  0.81477081  1
  O  O17  1  0.15054546  0.31286048  0.60409447  1
  O  O18  1  0.49205652  0.96709444  0.33143280  1
  O  O19  1  0.49250544  0.52582910  0.33159635  1
  O  O20  1  0.31230355  0.15582262  0.09640882  1
  O  O21  1  0.68897250  0.84440717  0.61356619  1
  O  O22  1  0.52843294  0.49422938  0.82913796  1
  O  O23  1  0.52859324  0.03586026  0.82970854  1
  O  O24  1  0.68789007  0.34347801  0.60343635  1
  O  O25  1  0.83349634  0.68550026  0.10613905  1
  O  O26  1  0.96160787  0.48100036  0.82515458  1
  O  O27  1  0.83363067  0.14675603  0.10646233  1
