# generated using pymatgen
data_Mn6O5F7
_symmetry_space_group_name_H-M   'P 1'
_cell_length_a   4.72850430
_cell_length_b   7.90600411
_cell_length_c   5.70740063
_cell_angle_alpha   93.80043403
_cell_angle_beta   91.31480988
_cell_angle_gamma   88.85619675
_symmetry_Int_Tables_number   1
_chemical_formula_structural   Mn6O5F7
_chemical_formula_sum   'Mn6 O5 F7'
_cell_volume   212.80141972
_cell_formula_units_Z   1
loop_
 _symmetry_equiv_pos_site_id
 _symmetry_equiv_pos_as_xyz
  1  'x, y, z'
loop_
 _atom_site_type_symbol
 _atom_site_label
 _atom_site_symmetry_multiplicity
 _atom_site_fract_x
 _atom_site_fract_y
 _atom_site_fract_z
 _atom_site_occupancy
  Mn  Mn0  1  0.52325871  0.00143025  0.49203500  1
  Mn  Mn1  1  0.52136485  0.67064186  0.15845348  1
  Mn  Mn2  1  0.46409331  0.34581749  0.81639851  1
  Mn  Mn3  1  0.99439541  0.67444676  0.67663315  1
  Mn  Mn4  1  0.00614878  0.31083330  0.34571828  1
  Mn  Mn5  1  0.97674647  0.99357918  0.00925031  1
  O  O6  1  0.80393433  0.78065377  0.95778221  1
  O  O7  1  0.81051769  0.09388261  0.29169880  1
  O  O8  1  0.69438684  0.76952187  0.46133869  1
  O  O9  1  0.30150075  0.57467166  0.87703709  1
  O  O10  1  0.31319833  0.22492676  0.52319895  1
  F  F11  1  0.80817476  0.43362744  0.63585054  1
  F  F12  1  0.69424276  0.12007090  0.80129854  1
  F  F13  1  0.70516603  0.42136538  0.13603278  1
  F  F14  1  0.30027213  0.89626138  0.20425497  1
  F  F15  1  0.19199434  0.55735407  0.37468202  1
  F  F16  1  0.18898442  0.21297968  0.02488886  1
  F  F17  1  0.20162007  0.91793663  0.71344783  1
