# generated using pymatgen
data_LiFeF4
_symmetry_space_group_name_H-M   'P 1'
_cell_length_a   6.00400932
_cell_length_b   7.82270611
_cell_length_c   7.82270611
_cell_angle_alpha   98.46863935
_cell_angle_beta   112.56648343
_cell_angle_gamma   67.43351657
_symmetry_Int_Tables_number   1
_chemical_formula_structural   LiFeF4
_chemical_formula_sum   'Li4 Fe4 F16'
_cell_volume   313.30542864
_cell_formula_units_Z   4
loop_
 _symmetry_equiv_pos_site_id
 _symmetry_equiv_pos_as_xyz
  1  'x, y, z'
loop_
 _atom_site_type_symbol
 _atom_site_label
 _atom_site_symmetry_multiplicity
 _atom_site_fract_x
 _atom_site_fract_y
 _atom_site_fract_z
 _atom_site_occupancy
  Li  Li0  1  0.43759029  0.68740971  0.81259029  1
  Li  Li1  1  0.87500000  0.81259029  0.31259029  1
  Li  Li2  1  0.37500000  0.18740971  0.68740971  1
  Li  Li3  1  0.31240971  0.31259029  0.18740971  1
  Fe  Fe4  1  0.91069714  0.21430286  0.28569714  1
  Fe  Fe5  1  0.87500000  0.28569714  0.78569714  1
  Fe  Fe6  1  0.37500000  0.71430286  0.21430286  1
  Fe  Fe7  1  0.83930286  0.78569714  0.71430286  1
  F  F8  1  0.12507692  0.94845290  0.26675711  1
  F  F9  1  0.65746389  0.10553800  0.24166712  1
  F  F10  1  0.22866523  0.25833288  0.39446200  1
  F  F11  1  0.94322829  0.23324289  0.55154710  1
  F  F12  1  0.60831981  0.44845290  0.23324289  1
  F  F13  1  0.14168019  0.73324289  0.94845290  1
  F  F14  1  0.23699811  0.24166712  0.89446200  1
  F  F15  1  0.51300189  0.39446200  0.74166712  1
  F  F16  1  0.58420423  0.75833288  0.10553800  1
  F  F17  1  0.16579577  0.60553800  0.25833288  1
  F  F18  1  0.82352882  0.55154710  0.76675711  1
  F  F19  1  0.92647118  0.26675711  0.05154710  1
  F  F20  1  0.62492308  0.76675711  0.44845290  1
  F  F21  1  0.09253611  0.74166712  0.60553800  1
  F  F22  1  0.52133477  0.89446200  0.75833288  1
  F  F23  1  0.80677171  0.05154710  0.73324289  1
