# generated using pymatgen
data_LiFeF3
_symmetry_space_group_name_H-M   'P 1'
_cell_length_a   3.99799841
_cell_length_b   9.91315115
_cell_length_c   6.46731392
_cell_angle_alpha   90.00000000
_cell_angle_beta   89.34643171
_cell_angle_gamma   90.00000000
_symmetry_Int_Tables_number   1
_chemical_formula_structural   LiFeF3
_chemical_formula_sum   'Li4 Fe4 F12'
_cell_volume   256.30084119
_cell_formula_units_Z   4
loop_
 _symmetry_equiv_pos_site_id
 _symmetry_equiv_pos_as_xyz
  1  'x, y, z'
loop_
 _atom_site_type_symbol
 _atom_site_label
 _atom_site_symmetry_multiplicity
 _atom_site_fract_x
 _atom_site_fract_y
 _atom_site_fract_z
 _atom_site_occupancy
  Li  Li0  1  0.24865599  0.44154922  0.77945304  1
  Li  Li1  1  0.24865599  0.05845078  0.27945304  1
  Li  Li2  1  0.75134401  0.94154922  0.72054696  1
  Li  Li3  1  0.75134401  0.55845078  0.22054696  1
  Fe  Fe4  1  0.25023692  0.75803929  0.92535395  1
  Fe  Fe5  1  0.25023692  0.74196071  0.42535395  1
  Fe  Fe6  1  0.74976308  0.25803929  0.57464605  1
  Fe  Fe7  1  0.74976308  0.24196071  0.07464605  1
  F  F8  1  0.24823327  0.89606138  0.65489366  1
  F  F9  1  0.24823327  0.60393862  0.15489366  1
  F  F10  1  0.24970558  0.61818894  0.68690917  1
  F  F11  1  0.25071510  0.28526578  0.59753261  1
  F  F12  1  0.24970558  0.88181106  0.18690917  1
  F  F13  1  0.25071510  0.21473422  0.09753261  1
  F  F14  1  0.74928490  0.78526578  0.90246739  1
  F  F15  1  0.75029442  0.11818894  0.81309083  1
  F  F16  1  0.74928490  0.71473422  0.40246739  1
  F  F17  1  0.75029442  0.38181106  0.31309083  1
  F  F18  1  0.75176673  0.39606138  0.84510634  1
  F  F19  1  0.75176673  0.10393862  0.34510634  1
