# generated using pymatgen
data_Li2Cr(PO3)4
_symmetry_space_group_name_H-M   'P 1'
_cell_length_a   8.14405026
_cell_length_b   8.14405026
_cell_length_c   8.21540729
_cell_angle_alpha   83.26034382
_cell_angle_beta   96.73965618
_cell_angle_gamma   76.64351921
_symmetry_Int_Tables_number   1
_chemical_formula_structural   Li2Cr(PO3)4
_chemical_formula_sum   'Li4 Cr2 P8 O24'
_cell_volume   520.57118127
_cell_formula_units_Z   2
loop_
 _symmetry_equiv_pos_site_id
 _symmetry_equiv_pos_as_xyz
  1  'x, y, z'
loop_
 _atom_site_type_symbol
 _atom_site_label
 _atom_site_symmetry_multiplicity
 _atom_site_fract_x
 _atom_site_fract_y
 _atom_site_fract_z
 _atom_site_occupancy
  Li  Li0  1  0.55276956  0.81823087  0.93260555  1
  Li  Li1  1  0.18176913  0.44723044  0.43260555  1
  Li  Li2  1  0.82364329  0.54793443  0.56903822  1
  Li  Li3  1  0.45206557  0.17635671  0.06903822  1
  Cr  Cr4  1  0.18125842  0.10820124  0.74228569  1
  Cr  Cr5  1  0.89179876  0.81874158  0.24228569  1
  P  P6  1  0.07367439  0.75782705  0.68805879  1
  P  P7  1  0.24217295  0.92632561  0.18805879  1
  P  P8  1  0.17877549  0.44791414  0.92709407  1
  P  P9  1  0.55208586  0.82122451  0.42709407  1
  P  P10  1  0.50781936  0.14480037  0.57588520  1
  P  P11  1  0.85519963  0.49218064  0.07588520  1
  P  P12  1  0.82446393  0.02168138  0.81727174  1
  P  P13  1  0.97831862  0.17553607  0.31727174  1
  O  O14  1  0.16718649  0.89030515  0.64377414  1
  O  O15  1  0.02984531  0.64848396  0.56053492  1
  O  O16  1  0.10969485  0.83281351  0.14377414  1
  O  O17  1  0.35151604  0.97015469  0.06053492  1
  O  O18  1  0.18618228  0.63851284  0.85313908  1
  O  O19  1  0.36148716  0.81381772  0.35313908  1
  O  O20  1  0.72342662  0.98393150  0.95341109  1
  O  O21  1  0.21897859  0.33699993  0.79543842  1
  O  O22  1  0.01606850  0.27657338  0.45341109  1
  O  O23  1  0.60601053  0.70926656  0.59090884  1
  O  O24  1  0.66300007  0.78102141  0.29543842  1
  O  O25  1  0.29073344  0.39398947  0.09090884  1
  O  O26  1  0.89749091  0.84088729  0.75314849  1
  O  O27  1  0.67839572  0.57439506  0.99304906  1
  O  O28  1  0.15911271  0.10250909  0.25314849  1
  O  O29  1  0.42560494  0.32160428  0.49304906  1
  O  O30  1  0.43206333  0.05565068  0.70954881  1
  O  O31  1  0.97633620  0.46864437  0.93215460  1
  O  O32  1  0.94434932  0.56793667  0.20954881  1
  O  O33  1  0.53135563  0.02366380  0.43215460  1
  O  O34  1  0.70202612  0.13526103  0.65372488  1
  O  O35  1  0.86473897  0.29797388  0.15372488  1
  O  O36  1  0.96268990  0.11277458  0.84831041  1
  O  O37  1  0.88722542  0.03731010  0.34831041  1
