# generated using pymatgen
data_LiFeF4
_symmetry_space_group_name_H-M   'P 1'
_cell_length_a   6.99605390
_cell_length_b   8.23369023
_cell_length_c   9.72179512
_cell_angle_alpha   97.23823466
_cell_angle_beta   106.75934897
_cell_angle_gamma   101.53607144
_symmetry_Int_Tables_number   1
_chemical_formula_structural   LiFeF4
_chemical_formula_sum   'Li6 Fe6 F24'
_cell_volume   515.22330848
_cell_formula_units_Z   6
loop_
 _symmetry_equiv_pos_site_id
 _symmetry_equiv_pos_as_xyz
  1  'x, y, z'
loop_
 _atom_site_type_symbol
 _atom_site_label
 _atom_site_symmetry_multiplicity
 _atom_site_fract_x
 _atom_site_fract_y
 _atom_site_fract_z
 _atom_site_occupancy
  Li  Li0  1  0.00672666  0.00360722  0.26562952  1
  Li  Li1  1  0.19437750  0.60429011  0.35154892  1
  Li  Li2  1  0.47829951  0.68702443  0.86165108  1
  Li  Li3  1  0.52170049  0.31297557  0.13834892  1
  Li  Li4  1  0.80562250  0.39570989  0.64845108  1
  Li  Li5  1  0.99327334  0.99639278  0.73437048  1
  Fe  Fe6  1  0.02172931  0.69727264  0.98556481  1
  Fe  Fe7  1  0.23248336  0.30408804  0.57259598  1
  Fe  Fe8  1  0.46790642  0.88304976  0.21452431  1
  Fe  Fe9  1  0.53209358  0.11695024  0.78547569  1
  Fe  Fe10  1  0.76751664  0.69591196  0.42740402  1
  Fe  Fe11  1  0.97827069  0.30272736  0.01443519  1
  F  F12  1  0.05416179  0.83928051  0.85623202  1
  F  F13  1  0.04126149  0.71370055  0.43441684  1
  F  F14  1  0.04650982  0.52997618  0.13569304  1
  F  F15  1  0.15996653  0.86931554  0.17166883  1
  F  F16  1  0.25612418  0.13783502  0.74526612  1
  F  F17  1  0.35180397  0.48283988  0.73672281  1
  F  F18  1  0.47920809  0.88996065  0.78312613  1
  F  F19  1  0.18462630  0.09474345  0.44919025  1
  F  F20  1  0.26512815  0.42757410  0.42890790  1
  F  F21  1  0.44987336  0.74899013  0.35691924  1
  F  F22  1  0.35246994  0.72904397  0.02741988  1
  F  F23  1  0.24481083  0.29698831  0.02635519  1
  F  F24  1  0.75518917  0.70301169  0.97364481  1
  F  F25  1  0.64753006  0.27095603  0.97258012  1
  F  F26  1  0.55012664  0.25100987  0.64308076  1
  F  F27  1  0.73487185  0.57242590  0.57109210  1
  F  F28  1  0.81537370  0.90525655  0.55080975  1
  F  F29  1  0.52079191  0.11003935  0.21687387  1
  F  F30  1  0.64819603  0.51716012  0.26327719  1
  F  F31  1  0.74387582  0.86216498  0.25473388  1
  F  F32  1  0.84003347  0.13068446  0.82833117  1
  F  F33  1  0.95349018  0.47002382  0.86430696  1
  F  F34  1  0.95873851  0.28629945  0.56558316  1
  F  F35  1  0.94583821  0.16071949  0.14376798  1
