# generated using pymatgen
data_Mn7Cr(PO4)12
_symmetry_space_group_name_H-M   'P 1'
_cell_length_a   8.49689027
_cell_length_b   8.46250869
_cell_length_c   11.80664137
_cell_angle_alpha   90.05509235
_cell_angle_beta   89.96760695
_cell_angle_gamma   90.08703178
_symmetry_Int_Tables_number   1
_chemical_formula_structural   Mn7Cr(PO4)12
_chemical_formula_sum   'Mn7 Cr1 P12 O48'
_cell_volume   848.95513170
_cell_formula_units_Z   1
loop_
 _symmetry_equiv_pos_site_id
 _symmetry_equiv_pos_as_xyz
  1  'x, y, z'
loop_
 _atom_site_type_symbol
 _atom_site_label
 _atom_site_symmetry_multiplicity
 _atom_site_fract_x
 _atom_site_fract_y
 _atom_site_fract_z
 _atom_site_occupancy
  Mn  Mn0  1  0.24974233  0.96682358  0.61852387  1
  Mn  Mn1  1  0.25097744  0.53442810  0.38125825  1
  Mn  Mn2  1  0.24950339  0.03457401  0.11807361  1
  Mn  Mn3  1  0.25055445  0.46510757  0.88284529  1
  Mn  Mn4  1  0.75067049  0.53482861  0.11862481  1
  Mn  Mn5  1  0.75062223  0.96618787  0.88246506  1
  Mn  Mn6  1  0.74875218  0.03456486  0.38217833  1
  Cr  Cr7  1  0.74851254  0.46755160  0.61924339  1
  P  P8  1  0.03538993  0.24919446  0.49940964  1
  P  P9  1  0.46454076  0.75012932  0.00030692  1
  P  P10  1  0.53612827  0.25029882  0.00037562  1
  P  P11  1  0.96487629  0.75114440  0.49957083  1
  P  P12  1  0.10584251  0.39169172  0.14535167  1
  P  P13  1  0.10650209  0.10823794  0.85524083  1
  P  P14  1  0.39194288  0.60821316  0.64505922  1
  P  P15  1  0.39308219  0.89224288  0.35494676  1
  P  P16  1  0.60655574  0.10729191  0.64519246  1
  P  P17  1  0.60583524  0.39207825  0.35503546  1
  P  P18  1  0.89481155  0.60977358  0.85576989  1
  P  P19  1  0.89364385  0.89192346  0.14538404  1
  O  O20  1  0.06151749  0.64214155  0.42307507  1
  O  O21  1  0.05923992  0.85755068  0.57958996  1
  O  O22  1  0.07492000  0.90015985  0.15953770  1
  O  O23  1  0.07520655  0.59853815  0.83942260  1
  O  O24  1  0.14348134  0.16080264  0.58313791  1
  O  O25  1  0.14290095  0.34209218  0.41823086  1
  O  O26  1  0.15750563  0.43936576  0.02651519  1
  O  O27  1  0.15920249  0.06021219  0.97351747  1
  O  O28  1  0.14975028  0.22109527  0.17564893  1
  O  O29  1  0.15094613  0.27885984  0.82464266  1
  O  O30  1  0.18080600  0.51352020  0.22686100  1
  O  O31  1  0.17976833  0.98626652  0.77293964  1
  O  O32  1  0.32047644  0.01389045  0.27276630  1
  O  O33  1  0.32089952  0.48582093  0.72731312  1
  O  O34  1  0.35312496  0.77972114  0.67552624  1
  O  O35  1  0.34950081  0.72148966  0.32392305  1
  O  O36  1  0.34245483  0.56190348  0.52582701  1
  O  O37  1  0.33973644  0.94013921  0.47325381  1
  O  O38  1  0.35504849  0.84083459  0.08229117  1
  O  O39  1  0.35471733  0.65903335  0.91875054  1
  O  O40  1  0.42570842  0.10207819  0.66019603  1
  O  O41  1  0.42463113  0.39748728  0.34307532  1
  O  O42  1  0.43958262  0.14151288  0.07736768  1
  O  O43  1  0.44003921  0.35883466  0.92290527  1
  O  O44  1  0.56098343  0.64157672  0.07728583  1
  O  O45  1  0.56048442  0.85873065  0.92264798  1
  O  O46  1  0.57267700  0.59133169  0.65801069  1
  O  O47  1  0.57414830  0.90024069  0.34116189  1
  O  O48  1  0.64536776  0.34065640  0.08258150  1
  O  O49  1  0.64487046  0.16002158  0.91784553  1
  O  O50  1  0.65777726  0.06069486  0.52615471  1
  O  O51  1  0.66031953  0.43908357  0.47329349  1
  O  O52  1  0.65165017  0.22205210  0.32480659  1
  O  O53  1  0.65296480  0.27857250  0.67224259  1
  O  O54  1  0.67920042  0.51502972  0.27393227  1
  O  O55  1  0.68347476  0.98820897  0.72680979  1
  O  O56  1  0.81966114  0.01318839  0.22754291  1
  O  O57  1  0.82374002  0.49165274  0.76985007  1
  O  O58  1  0.85006621  0.72112358  0.17571320  1
  O  O59  1  0.84908401  0.77929931  0.82452382  1
  O  O60  1  0.84036247  0.55826870  0.97248401  1
  O  O61  1  0.84149547  0.93917544  0.02689198  1
  O  O62  1  0.85566444  0.65497483  0.57731557  1
  O  O63  1  0.85261749  0.83975397  0.41915367  1
  O  O64  1  0.92521600  0.10054947  0.84171027  1
  O  O65  1  0.92487193  0.40052792  0.16005866  1
  O  O66  1  0.93963310  0.13952365  0.42252558  1
  O  O67  1  0.93401273  0.35612680  0.57428590  1
