# generated using pymatgen
data_Mn6O5F7
_symmetry_space_group_name_H-M   'P 1'
_cell_length_a   4.64883957
_cell_length_b   7.95124328
_cell_length_c   5.70498011
_cell_angle_alpha   93.07788484
_cell_angle_beta   91.31554923
_cell_angle_gamma   89.12974909
_symmetry_Int_Tables_number   1
_chemical_formula_structural   Mn6O5F7
_chemical_formula_sum   'Mn6 O5 F7'
_cell_volume   210.49892020
_cell_formula_units_Z   1
loop_
 _symmetry_equiv_pos_site_id
 _symmetry_equiv_pos_as_xyz
  1  'x, y, z'
loop_
 _atom_site_type_symbol
 _atom_site_label
 _atom_site_symmetry_multiplicity
 _atom_site_fract_x
 _atom_site_fract_y
 _atom_site_fract_z
 _atom_site_occupancy
  Mn  Mn0  1  0.49660083  0.00542069  0.50023191  1
  Mn  Mn1  1  0.52674959  0.64774935  0.18966501  1
  Mn  Mn2  1  0.50071753  0.33747468  0.82928167  1
  Mn  Mn3  1  0.00059550  0.69713868  0.65199648  1
  Mn  Mn4  1  0.97920178  0.31375616  0.33603730  1
  Mn  Mn5  1  0.00496069  0.99664769  0.00390935  1
  O  O6  1  0.81678467  0.09157470  0.28497575  1
  O  O7  1  0.69137224  0.78061289  0.47405852  1
  O  O8  1  0.69628641  0.41971082  0.12115479  1
  O  O9  1  0.31602537  0.23423802  0.53633379  1
  O  O10  1  0.19306356  0.90783298  0.71907630  1
  F  F11  1  0.79641210  0.45793973  0.63735614  1
  F  F12  1  0.79208739  0.77003114  0.96952148  1
  F  F13  1  0.71894134  0.10930464  0.80092181  1
  F  F14  1  0.28846194  0.57738080  0.85770504  1
  F  F15  1  0.29121702  0.87837093  0.20119433  1
  F  F16  1  0.17512353  0.54876392  0.36100170  1
  F  F17  1  0.21539851  0.22605218  0.02557759  1
