# generated using pymatgen
data_Li4Fe(TeO4)3
_symmetry_space_group_name_H-M   'P 1'
_cell_length_a   5.48990362
_cell_length_b   10.94882015
_cell_length_c   9.64212240
_cell_angle_alpha   28.43430851
_cell_angle_beta   51.41996203
_cell_angle_gamma   56.74676949
_symmetry_Int_Tables_number   1
_chemical_formula_structural   Li4Fe(TeO4)3
_chemical_formula_sum   'Li4 Fe1 Te3 O12'
_cell_volume   215.72990543
_cell_formula_units_Z   1
loop_
 _symmetry_equiv_pos_site_id
 _symmetry_equiv_pos_as_xyz
  1  'x, y, z'
loop_
 _atom_site_type_symbol
 _atom_site_label
 _atom_site_symmetry_multiplicity
 _atom_site_fract_x
 _atom_site_fract_y
 _atom_site_fract_z
 _atom_site_occupancy
  Li  Li0  1  0.32060266  0.00359924  0.25899736  1
  Li  Li1  1  0.24760544  0.49491480  0.31161735  1
  Li  Li2  1  0.78245158  0.99388012  0.81613675  1
  Li  Li3  1  0.77640610  0.50542774  0.74158464  1
  Fe  Fe4  1  0.01524536  0.99832691  0.00335251  1
  Te  Te5  1  0.99533821  0.50064035  0.00366375  1
  Te  Te6  1  0.50199268  -0.00002576  0.50178773  1
  Te  Te7  1  0.50014966  0.50017663  0.50077333  1
  O  O8  1  0.38441192  0.30538379  0.11754823  1
  O  O9  1  0.24671044  0.12533905  0.61504313  1
  O  O10  1  0.14009973  0.32637575  0.72132456  1
  O  O11  1  0.88488196  0.18658305  0.23642635  1
  O  O12  1  0.38146236  0.79179914  0.13720412  1
  O  O13  1  0.73796258  0.36105270  0.38958323  1
  O  O14  1  0.23294239  0.63571452  0.61282982  1
  O  O15  1  0.62925403  0.19528317  0.85387734  1
  O  O16  1  0.11517850  0.82365189  0.74104828  1
  O  O17  1  0.85633162  0.69427600  0.24216055  1
  O  O18  1  0.71425279  0.87885410  0.38028095  1
  O  O19  1  0.60791901  0.67874680  0.88596001  1
