# generated using pymatgen
data_Li2CoBO4
_symmetry_space_group_name_H-M   'P 1'
_cell_length_a   5.79570173
_cell_length_b   10.62062777
_cell_length_c   4.77538568
_cell_angle_alpha   90.00608112
_cell_angle_beta   89.99996117
_cell_angle_gamma   90.00000825
_symmetry_Int_Tables_number   1
_chemical_formula_structural   Li2CoBO4
_chemical_formula_sum   'Li8 Co4 B4 O16'
_cell_volume   293.94404421
_cell_formula_units_Z   4
loop_
 _symmetry_equiv_pos_site_id
 _symmetry_equiv_pos_as_xyz
  1  'x, y, z'
loop_
 _atom_site_type_symbol
 _atom_site_label
 _atom_site_symmetry_multiplicity
 _atom_site_fract_x
 _atom_site_fract_y
 _atom_site_fract_z
 _atom_site_occupancy
  Li  Li0  1  0.99867232  0.41655194  0.20100737  1
  Li  Li1  1  0.99862208  0.91654310  0.29897267  1
  Li  Li2  1  0.50137792  0.91654310  0.29897190  1
  Li  Li3  1  0.50132796  0.41655179  0.20100752  1
  Li  Li4  1  0.49862664  0.08344138  0.70102598  1
  Li  Li5  1  0.49862641  0.58347262  0.79899355  1
  Li  Li6  1  0.00137363  0.58347278  0.79899356  1
  Li  Li7  1  0.00137345  0.08344139  0.70102606  1
  Co  Co8  1  0.24999983  0.17567702  0.19248604  1
  Co  Co9  1  0.25000027  0.67568228  0.30750066  1
  Co  Co10  1  0.75000002  0.32430372  0.69248270  1
  Co  Co11  1  0.74999953  0.82433308  0.80749823  1
  B  B12  1  0.24999935  0.33137264  0.68744964  1
  B  B13  1  0.24999981  0.83136819  0.81256826  1
  B  B14  1  0.75000067  0.66862797  0.31254850  1
  B  B15  1  0.74999978  0.16862726  0.18744630  1
  O  O16  1  0.03713127  0.39989335  0.78301546  1
  O  O17  1  0.03713914  0.89989134  0.71699989  1
  O  O18  1  0.24999852  0.32987013  0.37808454  1
  O  O19  1  0.24999960  0.69936168  0.70065422  1
  O  O20  1  0.24999948  0.82986946  0.12192559  1
  O  O21  1  0.24999982  0.19936331  0.79933899  1
  O  O22  1  0.46286166  0.89989127  0.71699943  1
  O  O23  1  0.46286691  0.39989286  0.78301573  1
  O  O24  1  0.53713705  0.10010592  0.28301253  1
  O  O25  1  0.53713081  0.60010595  0.21698535  1
  O  O26  1  0.75000048  0.67013487  0.62190999  1
  O  O27  1  0.74999964  0.17012472  0.87808555  1
  O  O28  1  0.75000045  0.30064150  0.29934338  1
  O  O29  1  0.75000010  0.80063221  0.20065234  1
  O  O30  1  0.96287056  0.60010596  0.21698505  1
  O  O31  1  0.96286482  0.10010521  0.28301301  1
