# generated using pymatgen
data_Li2FeF4
_symmetry_space_group_name_H-M   'P 1'
_cell_length_a   9.79552262
_cell_length_b   7.39964895
_cell_length_c   8.91004167
_cell_angle_alpha   89.98378410
_cell_angle_beta   89.96327513
_cell_angle_gamma   89.99400845
_symmetry_Int_Tables_number   1
_chemical_formula_structural   Li2FeF4
_chemical_formula_sum   'Li16 Fe8 F32'
_cell_volume   645.83020834
_cell_formula_units_Z   8
loop_
 _symmetry_equiv_pos_site_id
 _symmetry_equiv_pos_as_xyz
  1  'x, y, z'
loop_
 _atom_site_type_symbol
 _atom_site_label
 _atom_site_symmetry_multiplicity
 _atom_site_fract_x
 _atom_site_fract_y
 _atom_site_fract_z
 _atom_site_occupancy
  Li  Li0  1  0.08552188  0.80960798  0.25219367  1
  Li  Li1  1  0.10132166  0.20992249  0.24998414  1
  Li  Li2  1  0.14026256  0.78382393  0.92032922  1
  Li  Li3  1  0.16214110  0.26684334  0.92139982  1
  Li  Li4  1  0.33794980  0.76647306  0.42124576  1
  Li  Li5  1  0.35986926  0.28373502  0.42068913  1
  Li  Li6  1  0.39865658  0.70946968  0.75030573  1
  Li  Li7  1  0.41431271  0.30968130  0.75234217  1
  Li  Li8  1  0.58550161  0.69019774  0.25207721  1
  Li  Li9  1  0.60139190  0.29042779  0.25021277  1
  Li  Li10  1  0.64020955  0.71628707  0.92057100  1
  Li  Li11  1  0.66206424  0.23329999  0.92143250  1
  Li  Li12  1  0.83799869  0.73344600  0.42120202  1
  Li  Li13  1  0.85990885  0.21607092  0.42030916  1
  Li  Li14  1  0.89860175  0.79041451  0.75029506  1
  Li  Li15  1  0.91438951  0.19052811  0.75232046  1
  Fe  Fe16  1  0.11593710  0.47711969  0.57933259  1
  Fe  Fe17  1  0.20219278  0.98023340  0.63892838  1
  Fe  Fe18  1  0.29754757  0.48051778  0.13945617  1
  Fe  Fe19  1  0.38420166  0.97743917  0.07935079  1
  Fe  Fe20  1  0.61583125  0.02284863  0.57938421  1
  Fe  Fe21  1  0.70208311  0.51965524  0.63877678  1
  Fe  Fe22  1  0.79785271  0.01961658  0.13918191  1
  Fe  Fe23  1  0.88414918  0.52258609  0.07928286  1
  F  F24  1  0.99589132  0.01727355  0.18857870  1
  F  F25  1  0.04055799  0.28367485  0.43544680  1
  F  F26  1  0.05470962  0.35538657  0.76896800  1
  F  F27  1  0.08691685  0.39040682  0.09559380  1
  F  F28  1  0.16686120  0.87996653  0.42865182  1
  F  F29  1  0.23451089  0.02257814  0.91025581  1
  F  F30  1  0.21924733  0.73539916  0.11083565  1
  F  F31  1  0.20232578  0.69888909  0.71930785  1
  F  F32  1  0.29795405  0.19987101  0.21920925  1
  F  F33  1  0.28085880  0.23647664  0.61110271  1
  F  F34  1  0.26579670  0.52237035  0.40996318  1
  F  F35  1  0.33292230  0.38039024  0.92881854  1
  F  F36  1  0.41222322  0.89056391  0.59591233  1
  F  F37  1  0.44517996  0.85525303  0.26865206  1
  F  F38  1  0.45951761  0.78373867  0.93548016  1
  F  F39  1  0.50415055  0.51722490  0.68839517  1
  F  F40  1  0.49573617  0.48226440  0.18886817  1
  F  F41  1  0.54049859  0.21610871  0.43544490  1
  F  F42  1  0.55463240  0.14463083  0.76896057  1
  F  F43  1  0.58758602  0.10925370  0.09584563  1
  F  F44  1  0.66708125  0.62029234  0.42836522  1
  F  F45  1  0.73433842  0.47742534  0.91028444  1
  F  F46  1  0.71922921  0.76396618  0.11120416  1
  F  F47  1  0.70217541  0.80090597  0.71924705  1
  F  F48  1  0.79776661  0.30087138  0.21929161  1
  F  F49  1  0.78091616  0.26393048  0.61095753  1
  F  F50  1  0.76562551  0.97759225  0.40995924  1
  F  F51  1  0.83316360  0.11968255  0.92866875  1
  F  F52  1  0.91247618  0.60952922  0.59560992  1
  F  F53  1  0.94548166  0.64450243  0.26864218  1
  F  F54  1  0.95961665  0.71634382  0.93551756  1
  F  F55  1  0.00415497  0.98299142  0.68816174  1
