# generated using pymatgen
data_Li3Fe(OF)2
_symmetry_space_group_name_H-M   'P 1'
_cell_length_a   5.12667396
_cell_length_b   5.94111480
_cell_length_c   5.11165657
_cell_angle_alpha   90.00000000
_cell_angle_beta   108.71310360
_cell_angle_gamma   90.00000000
_symmetry_Int_Tables_number   1
_chemical_formula_structural   Li3Fe(OF)2
_chemical_formula_sum   'Li6 Fe2 O4 F4'
_cell_volume   147.46130766
_cell_formula_units_Z   2
loop_
 _symmetry_equiv_pos_site_id
 _symmetry_equiv_pos_as_xyz
  1  'x, y, z'
loop_
 _atom_site_type_symbol
 _atom_site_label
 _atom_site_symmetry_multiplicity
 _atom_site_fract_x
 _atom_site_fract_y
 _atom_site_fract_z
 _atom_site_occupancy
  Li  Li0  1  0.25000000  0.11784495  0.50000000  1
  Li  Li1  1  0.25000000  0.63880196  0.50000000  1
  Li  Li2  1  0.25000000  0.37408797  0.00000000  1
  Li  Li3  1  0.75000000  0.36119804  0.50000000  1
  Li  Li4  1  0.75000000  0.88215505  0.50000000  1
  Li  Li5  1  0.75000000  0.62591303  0.00000000  1
  Fe  Fe6  1  0.25000000  0.90008177  0.00000000  1
  Fe  Fe7  1  0.75000000  0.09991823  0.00000000  1
  O  O8  1  0.00784345  0.87683608  0.23234077  1
  O  O9  1  0.49215655  0.87683608  0.76765923  1
  O  O10  1  0.50784345  0.12316392  0.23234077  1
  O  O11  1  0.99215655  0.12316392  0.76765923  1
  F  F12  1  0.00893357  0.62377313  0.75306240  1
  F  F13  1  0.50893357  0.37622687  0.75306240  1
  F  F14  1  0.49106643  0.62377313  0.24693760  1
  F  F15  1  0.99106643  0.37622687  0.24693760  1
