# generated using pymatgen
data_Li3MnV(PO4)3
_symmetry_space_group_name_H-M   'P 1'
_cell_length_a   8.47626187
_cell_length_b   8.47626196
_cell_length_c   8.67556353
_cell_angle_alpha   61.73388597
_cell_angle_beta   61.73388834
_cell_angle_gamma   63.47522934
_symmetry_Int_Tables_number   1
_chemical_formula_structural   Li3MnV(PO4)3
_chemical_formula_sum   'Li6 Mn2 V2 P6 O24'
_cell_volume   463.24285139
_cell_formula_units_Z   2
loop_
 _symmetry_equiv_pos_site_id
 _symmetry_equiv_pos_as_xyz
  1  'x, y, z'
loop_
 _atom_site_type_symbol
 _atom_site_label
 _atom_site_symmetry_multiplicity
 _atom_site_fract_x
 _atom_site_fract_y
 _atom_site_fract_z
 _atom_site_occupancy
  Li  Li0  1  0.87215572  0.74656011  0.15714062  1
  Li  Li1  1  0.49871822  0.00446023  0.00100493  1
  Li  Li2  1  0.74415348  0.87232920  0.65678629  1
  Li  Li3  1  0.25343989  0.12784428  0.34285938  1
  Li  Li4  1  0.99554077  0.50128178  0.49899507  1
  Li  Li5  1  0.12767080  0.25584652  0.84321371  1
  Mn  Mn6  1  0.63803717  0.14302755  0.15038841  1
  Mn  Mn7  1  0.85697245  0.36196283  0.34961159  1
  V  V8  1  0.14445454  0.63786492  0.64414769  1
  V  V9  1  0.36213508  0.85554546  0.85585231  1
  P  P10  1  0.24704741  0.44998037  0.03498886  1
  P  P11  1  0.95173446  0.04826554  0.75000000  1
  P  P12  1  0.55001963  0.75295259  0.46501114  1
  P  P13  1  0.45007968  0.25166506  0.53622777  1
  P  P14  1  0.05661398  0.94338602  0.25000000  1
  P  P15  1  0.74833494  0.54992032  0.96377223  1
  O  O16  1  0.80952604  0.54171246  0.10999163  1
  O  O17  1  0.89284277  0.96794974  0.20044124  1
  O  O18  1  0.67896187  0.38334379  0.02779519  1
  O  O19  1  0.94443412  0.23369274  0.58100132  1
  O  O20  1  0.38715160  0.25357930  0.07501739  1
  O  O21  1  0.74642070  0.61284840  0.42498261  1
  O  O22  1  0.54163318  0.91913102  0.27457271  1
  O  O23  1  0.98011491  0.88297307  0.69892231  1
  O  O24  1  0.24284724  0.93180108  0.08221386  1
  O  O25  1  0.61665621  0.32103813  0.47220481  1
  O  O26  1  0.91096854  0.54607249  0.77457590  1
  O  O27  1  0.45828754  0.19047396  0.39000837  1
  O  O28  1  0.52952968  0.81935896  0.61259981  1
  O  O29  1  0.08086898  0.45836682  0.22542729  1
  O  O30  1  0.38788050  0.68201285  0.52389874  1
  O  O31  1  0.76630726  0.05556588  0.91899868  1
  O  O32  1  0.03205026  0.10715723  0.29955876  1
  O  O33  1  0.45392751  0.08903146  0.72542410  1
  O  O34  1  0.25613415  0.39750329  0.57891597  1
  O  O35  1  0.60249671  0.74386585  0.92108403  1
  O  O36  1  0.06819892  0.75715276  0.41778614  1
  O  O37  1  0.31798715  0.61211950  0.97610126  1
  O  O38  1  0.11702693  0.01988509  0.80107769  1
  O  O39  1  0.18064104  0.47047032  0.88740019  1
