# generated using pymatgen
data_LaSmO3
_symmetry_space_group_name_H-M   'P 1'
_cell_length_a   6.21450192
_cell_length_b   6.03017724
_cell_length_c   8.73191203
_cell_angle_alpha   90.00000000
_cell_angle_beta   90.00000000
_cell_angle_gamma   90.00000000
_symmetry_Int_Tables_number   1
_chemical_formula_structural   LaSmO3
_chemical_formula_sum   'La4 Sm4 O12'
_cell_volume   327.22445681
_cell_formula_units_Z   4
loop_
 _symmetry_equiv_pos_site_id
 _symmetry_equiv_pos_as_xyz
  1  'x, y, z'
loop_
 _atom_site_type_symbol
 _atom_site_label
 _atom_site_symmetry_multiplicity
 _atom_site_fract_x
 _atom_site_fract_y
 _atom_site_fract_z
 _atom_site_occupancy
  La  La0  1  0.04166409  0.49184691  0.48346460  1
  La  La1  1  0.45833591  0.99184691  0.98346460  1
  La  La2  1  0.54166409  0.00815309  0.48346460  1
  La  La3  1  0.95833591  0.50815309  0.98346460  1
  Sm  Sm4  1  0.00592945  0.99996462  0.74002402  1
  Sm  Sm5  1  0.49407055  0.49996462  0.24002402  1
  Sm  Sm6  1  0.50592945  0.50003538  0.74002402  1
  Sm  Sm7  1  0.99407055  0.00003538  0.24002402  1
  O  O8  1  0.07563632  0.13688049  0.99326879  1
  O  O9  1  0.16178315  0.66725317  0.18313002  1
  O  O10  1  0.20218773  0.69192762  0.82391257  1
  O  O11  1  0.29781227  0.19192762  0.32391257  1
  O  O12  1  0.33821685  0.16725317  0.68313002  1
  O  O13  1  0.42436368  0.63688049  0.49326879  1
  O  O14  1  0.57563632  0.36311951  0.99326879  1
  O  O15  1  0.66178315  0.83274683  0.18313002  1
  O  O16  1  0.70218773  0.80807238  0.82391257  1
  O  O17  1  0.79781227  0.30807238  0.32391257  1
  O  O18  1  0.83821685  0.33274683  0.68313002  1
  O  O19  1  0.92436368  0.86311951  0.49326879  1
