# generated using pymatgen
data_Fe10O11F9
_symmetry_space_group_name_H-M   'P 1'
_cell_length_a   4.73555037
_cell_length_b   4.75059885
_cell_length_c   15.37415887
_cell_angle_alpha   90.00000000
_cell_angle_beta   90.00000000
_cell_angle_gamma   92.34701288
_symmetry_Int_Tables_number   1
_chemical_formula_structural   Fe10O11F9
_chemical_formula_sum   'Fe10 O11 F9'
_cell_volume   345.57770378
_cell_formula_units_Z   1
loop_
 _symmetry_equiv_pos_site_id
 _symmetry_equiv_pos_as_xyz
  1  'x, y, z'
loop_
 _atom_site_type_symbol
 _atom_site_label
 _atom_site_symmetry_multiplicity
 _atom_site_fract_x
 _atom_site_fract_y
 _atom_site_fract_z
 _atom_site_occupancy
  Fe  Fe0  1  0.00078578  0.98527897  0.99701129  1
  Fe  Fe1  1  0.00078578  0.98527897  0.20298871  1
  Fe  Fe2  1  0.04283233  0.99828801  0.39941373  1
  Fe  Fe3  1  0.04451184  0.98927484  0.60000000  1
  Fe  Fe4  1  0.04283233  0.99828801  0.80058627  1
  Fe  Fe5  1  0.50204291  0.49051084  0.10000000  1
  Fe  Fe6  1  0.46205209  0.49755234  0.49712824  1
  Fe  Fe7  1  0.46484898  0.51142567  0.29125833  1
  Fe  Fe8  1  0.46205209  0.49755234  0.70287176  1
  Fe  Fe9  1  0.46484898  0.51142567  0.90874167  1
  O  O10  1  0.18986590  0.81052258  0.29693585  1
  O  O11  1  0.20154436  0.80901744  0.49857605  1
  O  O12  1  0.20154436  0.80901744  0.70142395  1
  O  O13  1  0.18986590  0.81052258  0.90306415  1
  O  O14  1  0.30127699  0.29757988  0.00811556  1
  O  O15  1  0.30127699  0.29757988  0.19188444  1
  O  O16  1  0.30964267  0.31617084  0.39460143  1
  O  O17  1  0.30890528  0.31159451  0.60000000  1
  O  O18  1  0.30964267  0.31617084  0.80539857  1
  O  O19  1  0.69042175  0.68759126  0.00667549  1
  O  O20  1  0.69042175  0.68759126  0.19332451  1
  F  F21  1  0.18660790  0.79900096  0.10000000  1
  F  F22  1  0.70032463  0.70550047  0.39661023  1
  F  F23  1  0.70210372  0.70168214  0.60000000  1
  F  F24  1  0.70032463  0.70550047  0.80338977  1
  F  F25  1  0.80943280  0.17977771  0.10000000  1
  F  F26  1  0.80776734  0.19882766  0.49766960  1
  F  F27  1  0.80183595  0.19632237  0.29862990  1
  F  F28  1  0.80183595  0.19632237  0.90137010  1
  F  F29  1  0.80776734  0.19882766  0.70233040  1
