# generated using pymatgen
data_Mn8O13F3
_symmetry_space_group_name_H-M   'P 1'
_cell_length_a   4.49561143
_cell_length_b   11.05410140
_cell_length_c   4.97141371
_cell_angle_alpha   90.44611433
_cell_angle_beta   90.58147572
_cell_angle_gamma   87.76096935
_symmetry_Int_Tables_number   1
_chemical_formula_structural   Mn8O13F3
_chemical_formula_sum   'Mn8 O13 F3'
_cell_volume   246.84604758
_cell_formula_units_Z   1
loop_
 _symmetry_equiv_pos_site_id
 _symmetry_equiv_pos_as_xyz
  1  'x, y, z'
loop_
 _atom_site_type_symbol
 _atom_site_label
 _atom_site_symmetry_multiplicity
 _atom_site_fract_x
 _atom_site_fract_y
 _atom_site_fract_z
 _atom_site_occupancy
  Mn  Mn0  1  0.01768928  0.43344532  0.75310836  1
  Mn  Mn1  1  0.01196780  0.08352410  0.25585966  1
  Mn  Mn2  1  0.98173429  0.56540925  0.24855121  1
  Mn  Mn3  1  0.00951446  0.92600019  0.73452000  1
  Mn  Mn4  1  0.49739691  0.82652556  0.25377662  1
  Mn  Mn5  1  0.51051381  0.67768204  0.76481756  1
  Mn  Mn6  1  0.49120086  0.16743158  0.75537349  1
  Mn  Mn7  1  0.49358766  0.32476897  0.23705669  1
  O  O8  1  0.22828567  0.05437004  0.92260376  1
  O  O9  1  0.23304689  0.44393511  0.42049644  1
  O  O10  1  0.22842599  0.55574962  0.92963450  1
  O  O11  1  0.22618383  0.94420741  0.41734978  1
  O  O12  1  0.27613702  0.19514354  0.42162593  1
  O  O13  1  0.26907609  0.30725607  0.91379091  1
  O  O14  1  0.26366162  0.80554081  0.92098084  1
  O  O15  1  0.73263390  0.19467814  0.07663159  1
  O  O16  1  0.73025650  0.69221811  0.08743337  1
  O  O17  1  0.72522052  0.80482254  0.58393669  1
  O  O18  1  0.77379778  0.44382217  0.07186728  1
  O  O19  1  0.77027411  0.05642059  0.57254759  1
  O  O20  1  0.76224587  0.55440929  0.58044601  1
  F  F21  1  0.24810543  0.68379687  0.43257710  1
  F  F22  1  0.74558366  0.31141156  0.57852161  1
  F  F23  1  0.77346204  0.94743213  0.06649499  1
