# generated using pymatgen
data_Li5V6O5F19
_symmetry_space_group_name_H-M   'P 1'
_cell_length_a   5.21695384
_cell_length_b   5.40783065
_cell_length_c   16.13730955
_cell_angle_alpha   80.90703762
_cell_angle_beta   89.71064012
_cell_angle_gamma   89.40513477
_symmetry_Int_Tables_number   1
_chemical_formula_structural   Li5V6O5F19
_chemical_formula_sum   'Li5 V6 O5 F19'
_cell_volume   449.52406546
_cell_formula_units_Z   1
loop_
 _symmetry_equiv_pos_site_id
 _symmetry_equiv_pos_as_xyz
  1  'x, y, z'
loop_
 _atom_site_type_symbol
 _atom_site_label
 _atom_site_symmetry_multiplicity
 _atom_site_fract_x
 _atom_site_fract_y
 _atom_site_fract_z
 _atom_site_occupancy
  Li  Li0  1  0.96514249  0.04383960  0.77294576  1
  Li  Li1  1  0.17264379  0.69612071  0.15213010  1
  Li  Li2  1  0.54247117  0.50563358  0.78666697  1
  Li  Li3  1  0.02253717  0.62897395  0.90049856  1
  Li  Li4  1  0.26262469  0.99216287  0.48348235  1
  V  V5  1  0.47659210  0.13293829  0.66624883  1
  V  V6  1  0.02462652  0.30277786  0.33421964  1
  V  V7  1  0.96921572  0.04416703  0.99614831  1
  V  V8  1  0.47141788  0.51775272  0.00661477  1
  V  V9  1  0.02295974  0.63494305  0.66494068  1
  V  V10  1  0.50708536  0.83011358  0.33051229  1
  O  O11  1  0.21733873  0.03702734  0.35243134  1
  O  O12  1  0.19722661  0.36269598  0.69457824  1
  O  O13  1  0.21082061  0.70200357  0.01863194  1
  O  O14  1  0.80213405  0.31601668  0.96868486  1
  O  O15  1  0.29890192  0.86609457  0.69463078  1
  F  F16  1  0.29201428  0.19496095  0.02648463  1
  F  F17  1  0.71240422  0.12778040  0.30771635  1
  F  F18  1  0.08180899  0.00893479  0.88154400  1
  F  F19  1  0.41725398  0.20297042  0.55218431  1
  F  F20  1  0.59581292  0.46386890  0.11318342  1
  F  F21  1  0.92605111  0.28159166  0.44547813  1
  F  F22  1  0.08546506  0.39879019  0.21853420  1
  F  F23  1  0.61691234  0.15996772  0.77618113  1
  F  F24  1  0.30292057  0.53117178  0.35631658  1
  F  F25  1  0.69244078  0.47844127  0.64742891  1
  F  F26  1  0.80273856  0.62659856  0.31477700  1
  F  F27  1  0.37451359  0.53021920  0.88473593  1
  F  F28  1  0.91624436  0.94163464  0.11025720  1
  F  F29  1  0.41292095  0.85508057  0.22156108  1
  F  F30  1  0.88871589  0.65070375  0.78073292  1
  F  F31  1  0.08878991  0.72658704  0.55235915  1
  F  F32  1  0.56745346  0.80522935  0.44211630  1
  F  F33  1  0.71350963  0.79880568  0.96897109  1
  F  F34  1  0.81295482  0.97311576  0.65043424  1
