# generated using pymatgen
data_LiMnF5
_symmetry_space_group_name_H-M   'P 1'
_cell_length_a   5.27488499
_cell_length_b   9.02964735
_cell_length_c   9.19939360
_cell_angle_alpha   90.00000000
_cell_angle_beta   58.55979065
_cell_angle_gamma   90.00000000
_symmetry_Int_Tables_number   1
_chemical_formula_structural   LiMnF5
_chemical_formula_sum   'Li4 Mn4 F20'
_cell_volume   373.84034702
_cell_formula_units_Z   4
loop_
 _symmetry_equiv_pos_site_id
 _symmetry_equiv_pos_as_xyz
  1  'x, y, z'
loop_
 _atom_site_type_symbol
 _atom_site_label
 _atom_site_symmetry_multiplicity
 _atom_site_fract_x
 _atom_site_fract_y
 _atom_site_fract_z
 _atom_site_occupancy
  Li  Li0  1  0.17699555  0.40052367  0.71072393  1
  Li  Li1  1  0.17699555  0.09947633  0.21072393  1
  Li  Li2  1  0.82300445  0.90052367  0.78927607  1
  Li  Li3  1  0.82300445  0.59947633  0.28927607  1
  Mn  Mn4  1  0.50010357  0.62172938  0.87756842  1
  Mn  Mn5  1  0.49989643  0.12172938  0.62243158  1
  Mn  Mn6  1  0.50010357  0.87827062  0.37756842  1
  Mn  Mn7  1  0.49989643  0.37827062  0.12243158  1
  F  F8  1  0.20939140  0.71642812  0.87645707  1
  F  F9  1  0.18787773  0.20120172  0.80798025  1
  F  F10  1  0.45531923  0.22787410  0.00540765  1
  F  F11  1  0.52777052  0.97599299  0.75043873  1
  F  F12  1  0.77336866  0.48480264  0.90658400  1
  F  F13  1  0.22663134  0.98480264  0.59341600  1
  F  F14  1  0.47222948  0.47599299  0.74956127  1
  F  F15  1  0.20939140  0.78357188  0.37645707  1
  F  F16  1  0.54468077  0.72787410  0.49459235  1
  F  F17  1  0.18787773  0.29879828  0.30798025  1
  F  F18  1  0.81212227  0.70120172  0.69201975  1
  F  F19  1  0.45531923  0.27212590  0.50540765  1
  F  F20  1  0.79060860  0.21642812  0.62354293  1
  F  F21  1  0.52777052  0.52400701  0.25043873  1
  F  F22  1  0.77336866  0.01519736  0.40658400  1
  F  F23  1  0.22663134  0.51519736  0.09341600  1
  F  F24  1  0.47222948  0.02400701  0.24956127  1
  F  F25  1  0.54468077  0.77212590  0.99459235  1
  F  F26  1  0.81212227  0.79879828  0.19201975  1
  F  F27  1  0.79060860  0.28357188  0.12354293  1
