# generated using pymatgen
data_Gd2W2O9
_symmetry_space_group_name_H-M   'P 1'
_cell_length_a   5.50792861
_cell_length_b   5.40389039
_cell_length_c   23.83693355
_cell_angle_alpha   90.00000000
_cell_angle_beta   90.00000000
_cell_angle_gamma   90.00000000
_symmetry_Int_Tables_number   1
_chemical_formula_structural   Gd2W2O9
_chemical_formula_sum   'Gd8 W8 O36'
_cell_volume   709.48827027
_cell_formula_units_Z   4
loop_
 _symmetry_equiv_pos_site_id
 _symmetry_equiv_pos_as_xyz
  1  'x, y, z'
loop_
 _atom_site_type_symbol
 _atom_site_label
 _atom_site_symmetry_multiplicity
 _atom_site_fract_x
 _atom_site_fract_y
 _atom_site_fract_z
 _atom_site_occupancy
  Gd  Gd0  1  0.12167729  0.47759569  0.29446222  1
  Gd  Gd1  1  0.12283383  0.97724747  0.39232396  1
  Gd  Gd2  1  0.37716617  0.47724747  0.89232396  1
  Gd  Gd3  1  0.37832271  0.97759569  0.79446222  1
  Gd  Gd4  1  0.62167729  0.02240431  0.29446222  1
  Gd  Gd5  1  0.62283383  0.52275253  0.39232396  1
  Gd  Gd6  1  0.87716617  0.02275253  0.89232396  1
  Gd  Gd7  1  0.87832271  0.52240431  0.79446222  1
  W  W8  1  0.17542486  0.99911117  0.17131993  1
  W  W9  1  0.18616303  0.49945943  0.51606585  1
  W  W10  1  0.31383697  -0.00054057  0.01606585  1
  W  W11  1  0.32457514  0.49911117  0.67131993  1
  W  W12  1  0.67542486  0.50088883  0.17131993  1
  W  W13  1  0.68616303  0.00054057  0.51606585  1
  W  W14  1  0.81383697  0.50054057  0.01606585  1
  W  W15  1  0.82457514  0.00088883  0.67131993  1
  O  O16  1  0.01089022  0.21225697  0.49692828  1
  O  O17  1  0.99836266  0.28914346  0.69029985  1
  O  O18  1  0.11685085  0.74536871  0.85134628  1
  O  O19  1  0.07059545  0.29767770  0.03255938  1
  O  O20  1  0.11748147  0.24525805  0.83553786  1
  O  O21  1  0.08301635  0.79968821  0.65510425  1
  O  O22  1  0.22428555  0.10707559  0.24468526  1
  O  O23  1  0.23430186  0.60951977  0.44283898  1
  O  O24  1  0.25494019  0.41507577  0.59372689  1
  O  O25  1  0.24505981  0.91507577  0.09372689  1
  O  O26  1  0.26569814  0.10951977  0.94283898  1
  O  O27  1  0.27571445  0.60707559  0.74468526  1
  O  O28  1  0.41698365  0.29968821  0.15510425  1
  O  O29  1  0.38251853  0.74525805  0.33553786  1
  O  O30  1  0.42940455  0.79767770  0.53255938  1
  O  O31  1  0.38314915  0.24536871  0.35134628  1
  O  O32  1  0.50163734  0.78914346  0.19029985  1
  O  O33  1  0.48910978  0.71225697  0.99692828  1
  O  O34  1  0.51089022  0.28774303  0.49692828  1
  O  O35  1  0.49836266  0.21085654  0.69029985  1
  O  O36  1  0.61685085  0.75463129  0.85134628  1
  O  O37  1  0.57059545  0.20232230  0.03255938  1
  O  O38  1  0.61748147  0.25474195  0.83553786  1
  O  O39  1  0.58301635  0.70031179  0.65510425  1
  O  O40  1  0.72428555  0.39292441  0.24468526  1
  O  O41  1  0.73430186  0.89048023  0.44283898  1
  O  O42  1  0.75494019  0.08492423  0.59372689  1
  O  O43  1  0.74505981  0.58492423  0.09372689  1
  O  O44  1  0.76569814  0.39048023  0.94283898  1
  O  O45  1  0.77571445  0.89292441  0.74468526  1
  O  O46  1  0.91698365  0.20031179  0.15510425  1
  O  O47  1  0.88251853  0.75474195  0.33553786  1
  O  O48  1  0.92940455  0.70232230  0.53255938  1
  O  O49  1  0.88314915  0.25463129  0.35134628  1
  O  O50  1  0.00163734  0.71085654  0.19029985  1
  O  O51  1  0.98910978  0.78774303  0.99692828  1
