# generated using pymatgen
data_LiFePCO7
_symmetry_space_group_name_H-M   'P 1'
_cell_length_a   8.39358942
_cell_length_b   5.15334740
_cell_length_c   19.40322823
_cell_angle_alpha   90.07466739
_cell_angle_beta   89.76289882
_cell_angle_gamma   84.97315413
_symmetry_Int_Tables_number   1
_chemical_formula_structural   LiFePCO7
_chemical_formula_sum   'Li6 Fe6 P6 C6 O42'
_cell_volume   836.05179433
_cell_formula_units_Z   6
loop_
 _symmetry_equiv_pos_site_id
 _symmetry_equiv_pos_as_xyz
  1  'x, y, z'
loop_
 _atom_site_type_symbol
 _atom_site_label
 _atom_site_symmetry_multiplicity
 _atom_site_fract_x
 _atom_site_fract_y
 _atom_site_fract_z
 _atom_site_occupancy
  Li  Li0  1  0.10790505  0.76922073  0.08354940  1
  Li  Li1  1  0.10838870  0.76883459  0.41756360  1
  Li  Li2  1  0.28106054  0.24491261  0.81863032  1
  Li  Li3  1  0.89138030  0.22614632  0.91738360  1
  Li  Li4  1  0.89135093  0.23089933  0.25017290  1
  Li  Li5  1  0.89138868  0.23228660  0.58524241  1
  Fe  Fe6  1  0.33612427  0.80242325  0.91896237  1
  Fe  Fe7  1  0.33199689  0.80324391  0.25059882  1
  Fe  Fe8  1  0.33150326  0.80565213  0.58410527  1
  Fe  Fe9  1  0.66667665  0.19534733  0.08407677  1
  Fe  Fe10  1  0.66649664  0.19970770  0.74945339  1
  Fe  Fe11  1  0.66753624  0.19648870  0.41655420  1
  P  P12  1  0.42400279  0.73260813  0.75054756  1
  P  P13  1  0.42286684  0.72661585  0.08408502  1
  P  P14  1  0.42268453  0.72792459  0.41689139  1
  P  P15  1  0.57646994  0.27218254  0.25015950  1
  P  P16  1  0.57495138  0.27591542  0.58202420  1
  P  P17  1  0.57940837  0.27548532  0.91677888  1
  C  C18  1  0.04240365  0.70776325  0.25026383  1
  C  C19  1  0.04360757  0.70862730  0.58445918  1
  C  C20  1  0.04592918  0.70533259  0.91293999  1
  C  C21  1  0.95709865  0.29193925  0.08286533  1
  C  C22  1  0.95733079  0.29187524  0.41651681  1
  C  C23  1  0.95620907  0.28556722  0.75243508  1
  O  O24  1  0.07301678  0.95003756  0.25046579  1
  O  O25  1  0.07517166  0.95034978  0.58342583  1
  O  O26  1  0.07511903  0.94779428  0.91666500  1
  O  O27  1  0.09265170  0.37889200  0.08259560  1
  O  O28  1  0.09300457  0.37726947  0.41677551  1
  O  O29  1  0.09902251  0.33451243  0.75869004  1
  O  O30  1  0.16877795  0.53928590  0.58470030  1
  O  O31  1  0.16835396  0.53922314  0.25058902  1
  O  O32  1  0.17390168  0.53852492  0.90896634  1
  O  O33  1  0.31216757  0.79478766  0.02123781  1
  O  O34  1  0.30865978  0.79573067  0.14563346  1
  O  O35  1  0.31032264  0.79494523  0.35492911  1
  O  O36  1  0.30945970  0.79491315  0.47891382  1
  O  O37  1  0.31864469  0.83321717  0.81269073  1
  O  O38  1  0.32172693  0.79346475  0.68652906  1
  O  O39  1  0.42133116  0.13942725  0.91217469  1
  O  O40  1  0.42476421  0.12527766  0.25035622  1
  O  O41  1  0.42335837  0.12919536  0.58144544  1
  O  O42  1  0.47810660  0.43243475  0.08388361  1
  O  O43  1  0.47954609  0.43397228  0.41668249  1
  O  O44  1  0.46734391  0.43156935  0.75885522  1
  O  O45  1  0.52029012  0.56617241  0.25002054  1
  O  O46  1  0.52005136  0.56980802  0.57978029  1
  O  O47  1  0.52599695  0.57099256  0.91775306  1
  O  O48  1  0.57493526  0.87250862  0.08436130  1
  O  O49  1  0.58095523  0.86833145  0.74865359  1
  O  O50  1  0.57481710  0.87467974  0.41654766  1
  O  O51  1  0.68964708  0.20447261  0.18797975  1
  O  O52  1  0.68944489  0.20534200  0.31202425  1
  O  O53  1  0.69088524  0.20432622  0.52111462  1
  O  O54  1  0.68278945  0.21780065  0.64572088  1
  O  O55  1  0.69202617  0.20868999  0.85478826  1
  O  O56  1  0.68555808  0.19627311  0.97936892  1
  O  O57  1  0.83044581  0.45900563  0.08264068  1
  O  O58  1  0.83870331  0.46635621  0.74914020  1
  O  O59  1  0.83138151  0.46005266  0.41654131  1
  O  O60  1  0.91031899  0.61829927  0.91497467  1
  O  O61  1  0.90643136  0.62240004  0.24975251  1
  O  O62  1  0.90740848  0.62501771  0.58385936  1
  O  O63  1  0.92745155  0.04940594  0.08331265  1
  O  O64  1  0.90870761  0.05297242  0.74901676  1
  O  O65  1  0.92671304  0.04974911  0.41619181  1
