# generated using pymatgen
data_Na4Bi2P(CO4)4
_symmetry_space_group_name_H-M   'P 1'
_cell_length_a   10.53701012
_cell_length_b   10.22585321
_cell_length_c   10.53700933
_cell_angle_alpha   61.69402277
_cell_angle_beta   94.56814597
_cell_angle_gamma   61.69401670
_symmetry_Int_Tables_number   1
_chemical_formula_structural   Na4Bi2P(CO4)4
_chemical_formula_sum   'Na8 Bi4 P2 C8 O32'
_cell_volume   809.33661135
_cell_formula_units_Z   2
loop_
 _symmetry_equiv_pos_site_id
 _symmetry_equiv_pos_as_xyz
  1  'x, y, z'
loop_
 _atom_site_type_symbol
 _atom_site_label
 _atom_site_symmetry_multiplicity
 _atom_site_fract_x
 _atom_site_fract_y
 _atom_site_fract_z
 _atom_site_occupancy
  Na  Na0  1  0.07660729  0.84678443  0.82660729  1
  Na  Na1  1  0.07771803  0.25000000  0.82771803  1
  Na  Na2  1  0.32771803  0.75000000  0.57771803  1
  Na  Na3  1  0.32660729  0.34678443  0.57660729  1
  Na  Na4  1  0.67339271  0.65321557  0.42339271  1
  Na  Na5  1  0.67228197  0.25000000  0.42228197  1
  Na  Na6  1  0.92228197  0.75000000  0.17228197  1
  Na  Na7  1  0.92339271  0.15321557  0.17339271  1
  Bi  Bi8  1  0.00000000  0.50000000  0.00000000  1
  Bi  Bi9  1  0.50000000  0.00000000  0.50000000  1
  Bi  Bi10  1  0.50000000  0.50000000  0.00000000  1
  Bi  Bi11  1  0.50000000  0.00000000  0.00000000  1
  P  P12  1  0.12500000  0.75000000  0.37500000  1
  P  P13  1  0.87500000  0.25000000  0.62500000  1
  C  C14  1  0.33838237  0.94385224  0.76786603  1
  C  C15  1  0.26786603  0.44385224  0.83838237  1
  C  C16  1  0.71776539  0.94385224  0.78828273  1
  C  C17  1  0.71171727  0.55614776  0.78223461  1
  C  C18  1  0.28828273  0.44385224  0.21776539  1
  C  C19  1  0.28223461  0.05614776  0.21171727  1
  C  C20  1  0.73213397  0.55614776  0.16161763  1
  C  C21  1  0.66161763  0.05614776  0.23213397  1
  O  O22  1  0.33044292  0.82142921  0.88051661  1
  O  O23  1  0.06821913  0.87717226  0.42958908  1
  O  O24  1  0.35094909  0.94179131  0.64773269  1
  O  O25  1  0.14773269  0.44179131  0.85094909  1
  O  O26  1  0.70725860  0.94179131  0.91047600  1
  O  O27  1  0.27692675  0.56964841  0.83308282  1
  O  O28  1  0.05460861  0.87717226  0.19323866  1
  O  O29  1  0.07041092  0.62282774  0.43178087  1
  O  O30  1  0.40273123  0.93035159  0.34657516  1
  O  O31  1  0.58952400  0.55820869  0.79274140  1
  O  O32  1  0.38051661  0.32142921  0.83044292  1
  O  O33  1  0.30676134  0.62282774  0.44539139  1
  O  O34  1  0.84812787  0.82142921  0.79805417  1
  O  O35  1  0.70194583  0.67857079  0.65187213  1
  O  O36  1  0.33308282  0.06964841  0.77692675  1
  O  O37  1  0.15342484  0.56964841  0.09726877  1
  O  O38  1  0.84657516  0.43035159  0.90273123  1
  O  O39  1  0.66691718  0.93035159  0.22307325  1
  O  O40  1  0.29805417  0.32142921  0.34812787  1
  O  O41  1  0.15187213  0.17857079  0.20194583  1
  O  O42  1  0.69323866  0.37717226  0.55460861  1
  O  O43  1  0.61948339  0.67857079  0.16955708  1
  O  O44  1  0.41047600  0.44179131  0.20725860  1
  O  O45  1  0.59726877  0.06964841  0.65342484  1
  O  O46  1  0.92958908  0.37717226  0.56821913  1
  O  O47  1  0.94539139  0.12282774  0.80676134  1
  O  O48  1  0.72307325  0.43035159  0.16691718  1
  O  O49  1  0.29274140  0.05820869  0.08952400  1
  O  O50  1  0.85226731  0.55820869  0.14905091  1
  O  O51  1  0.64905091  0.05820869  0.35226731  1
  O  O52  1  0.93178087  0.12282774  0.57041092  1
  O  O53  1  0.66955708  0.17857079  0.11948339  1
