# generated using pymatgen
data_Li3MnV(PO4)3
_symmetry_space_group_name_H-M   'P 1'
_cell_length_a   9.86210451
_cell_length_b   9.86210504
_cell_length_c   9.77312357
_cell_angle_alpha   87.11581276
_cell_angle_beta   92.88418642
_cell_angle_gamma   95.62879081
_symmetry_Int_Tables_number   1
_chemical_formula_structural   Li3MnV(PO4)3
_chemical_formula_sum   'Li12 Mn4 V4 P12 O48'
_cell_volume   943.77794477
_cell_formula_units_Z   4
loop_
 _symmetry_equiv_pos_site_id
 _symmetry_equiv_pos_as_xyz
  1  'x, y, z'
loop_
 _atom_site_type_symbol
 _atom_site_label
 _atom_site_symmetry_multiplicity
 _atom_site_fract_x
 _atom_site_fract_y
 _atom_site_fract_z
 _atom_site_occupancy
  Li  Li0  1  0.01173963  0.50688744  0.24130934  1
  Li  Li1  1  0.98843621  0.25401796  0.38754478  1
  Li  Li2  1  0.21539128  0.56500056  0.46602400  1
  Li  Li3  1  0.23069883  0.73337509  0.17770065  1
  Li  Li4  1  0.25401796  0.98843621  0.61245522  1
  Li  Li5  1  0.36856962  0.74794297  0.80315113  1
  Li  Li6  1  0.50688744  0.01173963  0.75869066  1
  Li  Li7  1  0.56500056  0.21539128  0.53397600  1
  Li  Li8  1  0.70132146  0.92531430  0.97560829  1
  Li  Li9  1  0.73337509  0.23069883  0.82229935  1
  Li  Li10  1  0.74794297  0.36856962  0.19684887  1
  Li  Li11  1  0.92531430  0.70132146  0.02439171  1
  Mn  Mn12  1  0.24323606  0.24323606  1.00000000  1
  Mn  Mn13  1  0.73886457  0.97405737  0.27769702  1
  Mn  Mn14  1  0.75603827  0.75603827  0.50000000  1
  Mn  Mn15  1  0.97405737  0.73886457  0.72230298  1
  V  V16  1  0.02694962  0.25138963  0.78027261  1
  V  V17  1  0.25138963  0.02694962  0.21972739  1
  V  V18  1  0.46973749  0.46973749  1.00000000  1
  V  V19  1  0.53332047  0.53332047  0.50000000  1
  P  P20  1  0.05411765  0.81605629  0.40613647  1
  P  P21  1  0.17231402  0.94684692  0.90389210  1
  P  P22  1  0.15971482  0.54951165  0.92782394  1
  P  P23  1  0.31948367  0.34095321  0.30142974  1
  P  P24  1  0.34095321  0.31948367  0.69857026  1
  P  P25  1  0.44280392  0.83784602  0.42624409  1
  P  P26  1  0.54951165  0.15971482  0.07217606  1
  P  P27  1  0.65027064  0.68540118  0.80117884  1
  P  P28  1  0.68540118  0.65027064  0.19882116  1
  P  P29  1  0.83784602  0.44280392  0.57375591  1
  P  P30  1  0.81605629  0.05411765  0.59386353  1
  P  P31  1  0.94684692  0.17231402  0.09610790  1
  O  O32  1  0.03106729  0.87100824  0.86954114  1
  O  O33  1  0.09182691  0.82226550  0.56086205  1
  O  O34  1  0.12637804  0.62044246  0.79061188  1
  O  O35  1  0.11144822  0.95380292  0.33823665  1
  O  O36  1  0.10494460  0.69227378  0.34063501  1
  O  O37  1  0.11931892  0.39344164  0.92163623  1
  O  O38  1  0.10020794  0.60444250  0.05411534  1
  O  O39  1  0.10687794  0.15920751  0.12457587  1
  O  O40  1  0.15920751  0.10687794  0.87542413  1
  O  O41  1  0.18473802  0.31211108  0.67239705  1
  O  O42  1  0.20410997  0.91183263  0.05816088  1
  O  O43  1  0.19356858  0.40273011  0.34870825  1
  O  O44  1  0.28626860  0.91491158  0.81367591  1
  O  O45  1  0.32334768  0.57787393  0.94448193  1
  O  O46  1  0.31211108  0.18473802  0.32760295  1
  O  O47  1  0.32873395  0.37533565  0.13806501  1
  O  O48  1  0.36856562  0.87851707  0.28884698  1
  O  O49  1  0.40300249  0.90677658  0.55232692  1
  O  O50  1  0.37533565  0.32873395  0.86193499  1
  O  O51  1  0.39681148  0.45715976  0.63274439  1
  O  O52  1  0.40858765  0.67745540  0.44337409  1
  O  O53  1  0.40273011  0.19356858  0.65129175  1
  O  O54  1  0.39344164  0.11931892  0.07836377  1
  O  O55  1  0.45715976  0.39681148  0.36725561  1
  O  O56  1  0.57450631  0.80511038  0.84080303  1
  O  O57  1  0.54646667  0.58330028  0.13863826  1
  O  O58  1  0.58330028  0.54646667  0.86136174  1
  O  O59  1  0.60004772  0.87401301  0.41016335  1
  O  O60  1  0.62767179  0.67107809  0.63990110  1
  O  O61  1  0.60444250  0.10020794  0.94588466  1
  O  O62  1  0.57787393  0.32334768  0.05551807  1
  O  O63  1  0.62044246  0.12637804  0.20938812  1
  O  O64  1  0.67107809  0.62767179  0.36009890  1
  O  O65  1  0.69833213  0.80184575  0.15149410  1
  O  O66  1  0.67745540  0.40858765  0.55662591  1
  O  O67  1  0.69227378  0.10494460  0.65936499  1
  O  O68  1  0.80184575  0.69833213  0.84850590  1
  O  O69  1  0.81652910  0.89489569  0.62468005  1
  O  O70  1  0.80511038  0.57450631  0.15919697  1
  O  O71  1  0.82226550  0.09182691  0.43913795  1
  O  O72  1  0.87401301  0.60004772  0.58983665  1
  O  O73  1  0.89489569  0.81652910  0.37531995  1
  O  O74  1  0.87851707  0.36856562  0.71115302  1
  O  O75  1  0.91183263  0.20410997  0.94183912  1
  O  O76  1  0.90677658  0.40300249  0.44767308  1
  O  O77  1  0.87100824  0.03106729  0.13045886  1
  O  O78  1  0.91491158  0.28626860  0.18632409  1
  O  O79  1  0.95380292  0.11144822  0.66176335  1
