# generated using pymatgen
data_La3B5O12
_symmetry_space_group_name_H-M   'P 1'
_cell_length_a   6.63351805
_cell_length_b   8.05690956
_cell_length_c   18.32339582
_cell_angle_alpha   90.00000000
_cell_angle_beta   90.00000000
_cell_angle_gamma   90.00000000
_symmetry_Int_Tables_number   1
_chemical_formula_structural   La3B5O12
_chemical_formula_sum   'La12 B20 O48'
_cell_volume   979.30589130
_cell_formula_units_Z   4
loop_
 _symmetry_equiv_pos_site_id
 _symmetry_equiv_pos_as_xyz
  1  'x, y, z'
loop_
 _atom_site_type_symbol
 _atom_site_label
 _atom_site_symmetry_multiplicity
 _atom_site_fract_x
 _atom_site_fract_y
 _atom_site_fract_z
 _atom_site_occupancy
  La  La0  1  0.01768878  0.01078048  0.89853079  1
  La  La1  1  0.01768878  0.48921952  0.89853079  1
  La  La2  1  0.01023352  0.75000000  0.32001193  1
  La  La3  1  0.48976648  0.25000000  0.82001193  1
  La  La4  1  0.48231122  0.51078048  0.39853079  1
  La  La5  1  0.48231122  0.98921952  0.39853079  1
  La  La6  1  0.51768878  0.01078048  0.60146921  1
  La  La7  1  0.51768878  0.48921952  0.60146921  1
  La  La8  1  0.51023352  0.75000000  0.17998807  1
  La  La9  1  0.98976648  0.25000000  0.67998807  1
  La  La10  1  0.98231122  0.51078048  0.10146921  1
  La  La11  1  0.98231122  0.98921952  0.10146921  1
  B  B12  1  0.06627301  0.25000000  0.38749569  1
  B  B13  1  0.12341826  0.09894987  0.26536268  1
  B  B14  1  0.12341826  0.40105013  0.26536268  1
  B  B15  1  0.15933120  0.25000000  0.51987539  1
  B  B16  1  0.21472091  0.75000000  0.51509562  1
  B  B17  1  0.28527909  0.25000000  0.01509562  1
  B  B18  1  0.34066880  0.75000000  0.01987539  1
  B  B19  1  0.37658174  0.59894987  0.76536268  1
  B  B20  1  0.37658174  0.90105013  0.76536268  1
  B  B21  1  0.43372699  0.75000000  0.88749569  1
  B  B22  1  0.56627301  0.25000000  0.11250431  1
  B  B23  1  0.62341826  0.09894987  0.23463732  1
  B  B24  1  0.62341826  0.40105013  0.23463732  1
  B  B25  1  0.65933120  0.25000000  0.98012461  1
  B  B26  1  0.71472091  0.75000000  0.98490438  1
  B  B27  1  0.78527909  0.25000000  0.48490438  1
  B  B28  1  0.84066880  0.75000000  0.48012461  1
  B  B29  1  0.87658174  0.90105013  0.73463732  1
  B  B30  1  0.87658174  0.59894987  0.73463732  1
  B  B31  1  0.93372699  0.75000000  0.61250431  1
  O  O32  1  0.04020632  0.75000000  0.46158030  1
  O  O33  1  0.12252291  0.09720371  0.34103280  1
  O  O34  1  0.12252291  0.40279629  0.34103280  1
  O  O35  1  0.09244941  0.25000000  0.22819888  1
  O  O36  1  0.13582103  0.75000000  0.59142239  1
  O  O37  1  0.14854307  0.54354665  0.22786419  1
  O  O38  1  0.14854307  0.95645335  0.22786419  1
  O  O39  1  0.17174414  0.25000000  0.84737271  1
  O  O40  1  0.16655571  0.10042867  0.00337855  1
  O  O41  1  0.16655571  0.39957133  0.00337855  1
  O  O42  1  0.21179376  0.75000000  0.07888304  1
  O  O43  1  0.22139509  0.25000000  0.44685049  1
  O  O44  1  0.27860491  0.75000000  0.94685049  1
  O  O45  1  0.28820624  0.25000000  0.57888304  1
  O  O46  1  0.33344429  0.60042867  0.50337855  1
  O  O47  1  0.33344429  0.89957133  0.50337855  1
  O  O48  1  0.32825586  0.75000000  0.34737271  1
  O  O49  1  0.35145693  0.45645335  0.72786419  1
  O  O50  1  0.35145693  0.04354665  0.72786419  1
  O  O51  1  0.36417897  0.25000000  0.09142239  1
  O  O52  1  0.40755059  0.75000000  0.72819888  1
  O  O53  1  0.37747709  0.59720371  0.84103280  1
  O  O54  1  0.37747709  0.90279629  0.84103280  1
  O  O55  1  0.45979368  0.25000000  0.96158030  1
  O  O56  1  0.54020632  0.75000000  0.03841970  1
  O  O57  1  0.62252291  0.09720371  0.15896720  1
  O  O58  1  0.62252291  0.40279629  0.15896720  1
  O  O59  1  0.59244941  0.25000000  0.27180112  1
  O  O60  1  0.63582103  0.75000000  0.90857761  1
  O  O61  1  0.64854307  0.54354665  0.27213581  1
  O  O62  1  0.64854307  0.95645335  0.27213581  1
  O  O63  1  0.67174414  0.25000000  0.65262729  1
  O  O64  1  0.66655571  0.10042867  0.49662145  1
  O  O65  1  0.66655571  0.39957133  0.49662145  1
  O  O66  1  0.71179376  0.75000000  0.42111696  1
  O  O67  1  0.72139509  0.25000000  0.05314951  1
  O  O68  1  0.77860491  0.75000000  0.55314951  1
  O  O69  1  0.78820624  0.25000000  0.92111696  1
  O  O70  1  0.83344429  0.89957133  0.99662145  1
  O  O71  1  0.83344429  0.60042867  0.99662145  1
  O  O72  1  0.82825586  0.75000000  0.15262729  1
  O  O73  1  0.85145693  0.04354665  0.77213581  1
  O  O74  1  0.85145693  0.45645335  0.77213581  1
  O  O75  1  0.86417897  0.25000000  0.40857761  1
  O  O76  1  0.90755059  0.75000000  0.77180112  1
  O  O77  1  0.87747709  0.90279629  0.65896720  1
  O  O78  1  0.87747709  0.59720371  0.65896720  1
  O  O79  1  0.95979368  0.25000000  0.53841970  1
