# generated using pymatgen
data_LiMnP2HO7
_symmetry_space_group_name_H-M   'P 1'
_cell_length_a   9.94216501
_cell_length_b   8.73044336
_cell_length_c   6.45219894
_cell_angle_alpha   77.89547540
_cell_angle_beta   107.86096203
_cell_angle_gamma   88.47698269
_symmetry_Int_Tables_number   1
_chemical_formula_structural   LiMnP2HO7
_chemical_formula_sum   'Li4 Mn4 P8 H4 O28'
_cell_volume   518.71197135
_cell_formula_units_Z   4
loop_
 _symmetry_equiv_pos_site_id
 _symmetry_equiv_pos_as_xyz
  1  'x, y, z'
loop_
 _atom_site_type_symbol
 _atom_site_label
 _atom_site_symmetry_multiplicity
 _atom_site_fract_x
 _atom_site_fract_y
 _atom_site_fract_z
 _atom_site_occupancy
  Li  Li0  1  0.12451096  0.22975750  0.27526685  1
  Li  Li1  1  0.37548904  0.27024250  0.72473315  1
  Li  Li2  1  0.63410406  0.74339722  0.31417791  1
  Li  Li3  1  0.86589594  0.75660278  0.68582209  1
  Mn  Mn4  1  0.05915903  0.82710885  0.20729259  1
  Mn  Mn5  1  0.53472079  0.28148992  0.35854850  1
  Mn  Mn6  1  0.44084097  0.67289115  0.79270741  1
  Mn  Mn7  1  0.96527921  0.21851008  0.64145150  1
  P  P8  1  0.38447820  0.00299797  0.19520597  1
  P  P9  1  0.11552180  0.49700203  0.80479403  1
  P  P10  1  0.31177412  0.53848985  0.24041107  1
  P  P11  1  0.81537125  0.02651014  0.25366291  1
  P  P12  1  0.18822588  0.96151015  0.75958893  1
  P  P13  1  0.68462875  0.47348986  0.74633709  1
  P  P14  1  0.87741953  0.50688152  0.18299122  1
  P  P15  1  0.62258047  0.99311848  0.81700878  1
  H  H16  1  0.23832140  0.54380423  0.56622855  1
  H  H17  1  0.75353593  0.03005284  0.59122806  1
  H  H18  1  0.26167860  0.95619577  0.43377145  1
  H  H19  1  0.74646407  0.46994716  0.40877194  1
  O  O20  1  0.24799051  0.02314536  0.27542206  1
  O  O21  1  0.17949400  0.13389880  0.63500993  1
  O  O22  1  0.07676531  0.33344066  0.89432277  1
  O  O23  1  0.00317241  0.61348911  0.63417986  1
  O  O24  1  0.42323469  0.16655934  0.10567723  1
  O  O25  1  0.51230488  0.11812402  0.64344085  1
  O  O26  1  0.32050600  0.36610120  0.36499007  1
  O  O27  1  0.25200949  0.47685464  0.72457794  1
  O  O28  1  0.17881562  0.57550280  0.01372760  1
  O  O29  1  0.05346677  0.93545913  0.82733354  1
  O  O30  1  0.26660206  0.65390378  0.36559407  1
  O  O31  1  0.68947663  0.08163158  0.01617693  1
  O  O32  1  0.54094274  0.45348215  0.78755942  1
  O  O33  1  0.78363668  0.14213414  0.39299832  1
  O  O34  1  0.23339794  0.84609622  0.63440593  1
  O  O35  1  0.44653323  0.56454087  0.17266646  1
  O  O36  1  0.32118438  0.92449720  0.98627240  1
  O  O37  1  0.71636332  0.35786586  0.60700168  1
  O  O38  1  0.95905726  0.04651785  0.21244058  1
  O  O39  1  0.81052337  0.41836842  0.98382307  1
  O  O40  1  0.74864125  0.54447944  0.26459588  1
  O  O41  1  0.69670929  0.64218926  0.64429525  1
  O  O42  1  0.49682759  0.88651089  0.36582014  1
  O  O43  1  0.57040600  0.84091391  0.90960288  1
  O  O44  1  0.98769512  0.38187598  0.35655915  1
  O  O45  1  0.92959400  0.65908609  0.09039712  1
  O  O46  1  0.80329071  0.85781074  0.35570475  1
  O  O47  1  0.75135875  0.95552056  0.73540412  1
