# generated using pymatgen
data_Mn6O7F5
_symmetry_space_group_name_H-M   'P 1'
_cell_length_a   4.69724734
_cell_length_b   7.75104121
_cell_length_c   5.58230092
_cell_angle_alpha   94.07908550
_cell_angle_beta   91.56921268
_cell_angle_gamma   88.59358828
_symmetry_Int_Tables_number   1
_chemical_formula_structural   Mn6O7F5
_chemical_formula_sum   'Mn6 O7 F5'
_cell_volume   202.60059903
_cell_formula_units_Z   1
loop_
 _symmetry_equiv_pos_site_id
 _symmetry_equiv_pos_as_xyz
  1  'x, y, z'
loop_
 _atom_site_type_symbol
 _atom_site_label
 _atom_site_symmetry_multiplicity
 _atom_site_fract_x
 _atom_site_fract_y
 _atom_site_fract_z
 _atom_site_occupancy
  Mn  Mn0  1  0.45894119  0.00590944  0.51294116  1
  Mn  Mn1  1  0.51575087  0.67500682  0.15500599  1
  Mn  Mn2  1  0.54294577  0.32773335  0.82216592  1
  Mn  Mn3  1  0.99247988  0.66772180  0.67622509  1
  Mn  Mn4  1  0.98983314  0.33670216  0.34104713  1
  Mn  Mn5  1  0.99907986  0.98572600  0.99281264  1
  O  O6  1  0.81033099  0.44645881  0.62332046  1
  O  O7  1  0.81123577  0.76528131  0.96476136  1
  O  O8  1  0.69777202  0.09496090  0.79267201  1
  O  O9  1  0.69567706  0.43530293  0.12514002  1
  O  O10  1  0.30737215  0.23835586  0.53979239  1
  O  O11  1  0.30394519  0.90085210  0.20596605  1
  O  O12  1  0.18468182  0.88968452  0.71433709  1
  F  F13  1  0.80369318  0.08671539  0.28726797  1
  F  F14  1  0.68834827  0.78157607  0.47626589  1
  F  F15  1  0.30586370  0.55007069  0.85895777  1
  F  F16  1  0.20633990  0.58427543  0.37157084  1
  F  F17  1  0.18571023  0.22766644  0.03975022  1
