# generated using pymatgen
data_Fe10O11F9
_symmetry_space_group_name_H-M   'P 1'
_cell_length_a   4.72765170
_cell_length_b   4.73878896
_cell_length_c   15.38357312
_cell_angle_alpha   89.84588095
_cell_angle_beta   90.32664414
_cell_angle_gamma   91.15819259
_symmetry_Int_Tables_number   1
_chemical_formula_structural   Fe10O11F9
_chemical_formula_sum   'Fe10 O11 F9'
_cell_volume   344.56632189
_cell_formula_units_Z   1
loop_
 _symmetry_equiv_pos_site_id
 _symmetry_equiv_pos_as_xyz
  1  'x, y, z'
loop_
 _atom_site_type_symbol
 _atom_site_label
 _atom_site_symmetry_multiplicity
 _atom_site_fract_x
 _atom_site_fract_y
 _atom_site_fract_z
 _atom_site_occupancy
  Fe  Fe0  1  0.97542343  0.96561187  0.00111288  1
  Fe  Fe1  1  0.01024315  0.00439197  0.19973604  1
  Fe  Fe2  1  0.98517463  0.95308663  0.39843585  1
  Fe  Fe3  1  0.04441432  0.00420225  0.59888106  1
  Fe  Fe4  1  0.04737675  0.00317006  0.80085142  1
  Fe  Fe5  1  0.54621430  0.47274516  0.10591610  1
  Fe  Fe6  1  0.47619397  0.51937925  0.49757406  1
  Fe  Fe7  1  0.48423869  0.53427470  0.29331905  1
  Fe  Fe8  1  0.46105712  0.49942816  0.70041313  1
  Fe  Fe9  1  0.47348153  0.52498548  0.90306059  1
  O  O10  1  0.18405170  0.81625890  0.29614783  1
  O  O11  1  0.18586734  0.80643045  0.49822097  1
  O  O12  1  0.20182373  0.81696044  0.69991988  1
  O  O13  1  0.18817592  0.81168478  0.90334904  1
  O  O14  1  0.31194793  0.30036917  0.19968330  1
  O  O15  1  0.31233835  0.31753406  0.59712168  1
  O  O16  1  0.31156451  0.31965544  0.80351670  1
  O  O17  1  0.68956747  0.67097404  0.00184945  1
  O  O18  1  0.71203574  0.70087674  0.19975430  1
  O  O19  1  0.67245377  0.68649294  0.39799161  1
  O  O20  1  0.82818582  0.17519655  0.10210327  1
  F  F21  1  0.20766681  0.78879965  0.09900911  1
  F  F22  1  0.30230589  0.28726248  0.00256697  1
  F  F23  1  0.28322043  0.30052118  0.39762751  1
  F  F24  1  0.70022775  0.70999319  0.60017983  1
  F  F25  1  0.70020597  0.71121090  0.80020824  1
  F  F26  1  0.79851083  0.19677315  0.49830159  1
  F  F27  1  0.79716755  0.19850706  0.30208092  1
  F  F28  1  0.79937932  0.19440884  0.90093723  1
  F  F29  1  0.80948630  0.20881253  0.70013241  1
