# generated using pymatgen
data_Na3FeO4
_symmetry_space_group_name_H-M   'P 1'
_cell_length_a   7.02791281
_cell_length_b   8.21153889
_cell_length_c   7.44571282
_cell_angle_alpha   90.00000000
_cell_angle_beta   90.00000000
_cell_angle_gamma   90.00000000
_symmetry_Int_Tables_number   1
_chemical_formula_structural   Na3FeO4
_chemical_formula_sum   'Na12 Fe4 O16'
_cell_volume   429.69193312
_cell_formula_units_Z   4
loop_
 _symmetry_equiv_pos_site_id
 _symmetry_equiv_pos_as_xyz
  1  'x, y, z'
loop_
 _atom_site_type_symbol
 _atom_site_label
 _atom_site_symmetry_multiplicity
 _atom_site_fract_x
 _atom_site_fract_y
 _atom_site_fract_z
 _atom_site_occupancy
  Na  Na0  1  0.04337622  0.03694051  0.27011081  1
  Na  Na1  1  0.04337622  0.46305949  0.27011081  1
  Na  Na2  1  0.17181883  0.75000000  0.04854964  1
  Na  Na3  1  0.32818117  0.25000000  0.54854964  1
  Na  Na4  1  0.45662378  0.53694051  0.77011081  1
  Na  Na5  1  0.45662378  0.96305949  0.77011081  1
  Na  Na6  1  0.54337622  0.03694051  0.22988919  1
  Na  Na7  1  0.54337622  0.46305949  0.22988919  1
  Na  Na8  1  0.67181883  0.75000000  0.45145036  1
  Na  Na9  1  0.82818117  0.25000000  0.95145036  1
  Na  Na10  1  0.95662378  0.53694051  0.72988919  1
  Na  Na11  1  0.95662378  0.96305949  0.72988919  1
  Fe  Fe12  1  0.21669052  0.75000000  0.50321583  1
  Fe  Fe13  1  0.28330948  0.25000000  0.00321583  1
  Fe  Fe14  1  0.71669052  0.75000000  0.99678417  1
  Fe  Fe15  1  0.78330948  0.25000000  0.49678417  1
  O  O16  1  0.00009752  0.75000000  0.38781420  1
  O  O17  1  0.17959841  0.06192512  0.95476295  1
  O  O18  1  0.17959841  0.43807488  0.95476295  1
  O  O19  1  0.19857255  0.75000000  0.73911852  1
  O  O20  1  0.30142745  0.25000000  0.23911852  1
  O  O21  1  0.32040159  0.56192512  0.45476295  1
  O  O22  1  0.32040159  0.93807488  0.45476295  1
  O  O23  1  0.49990248  0.25000000  0.88781420  1
  O  O24  1  0.50009752  0.75000000  0.11218580  1
  O  O25  1  0.67959841  0.06192512  0.54523705  1
  O  O26  1  0.67959841  0.43807488  0.54523705  1
  O  O27  1  0.69857255  0.75000000  0.76088148  1
  O  O28  1  0.80142745  0.25000000  0.26088148  1
  O  O29  1  0.82040159  0.56192512  0.04523705  1
  O  O30  1  0.82040159  0.93807488  0.04523705  1
  O  O31  1  0.99990248  0.25000000  0.61218580  1
