# generated using pymatgen
data_Mn8O13F3
_symmetry_space_group_name_H-M   'P 1'
_cell_length_a   4.51754180
_cell_length_b   5.55272225
_cell_length_c   9.96303591
_cell_angle_alpha   90.34155276
_cell_angle_beta   90.41912787
_cell_angle_gamma   87.49677549
_symmetry_Int_Tables_number   1
_chemical_formula_structural   Mn8O13F3
_chemical_formula_sum   'Mn8 O13 F3'
_cell_volume   249.67017354
_cell_formula_units_Z   1
loop_
 _symmetry_equiv_pos_site_id
 _symmetry_equiv_pos_as_xyz
  1  'x, y, z'
loop_
 _atom_site_type_symbol
 _atom_site_label
 _atom_site_symmetry_multiplicity
 _atom_site_fract_x
 _atom_site_fract_y
 _atom_site_fract_z
 _atom_site_occupancy
  Mn  Mn0  1  0.01533381  0.16114124  0.62825679  1
  Mn  Mn1  1  0.00391967  0.85380133  0.36894544  1
  Mn  Mn2  1  0.98032107  0.13788056  0.12347694  1
  Mn  Mn3  1  0.02111112  0.86331546  0.87540560  1
  Mn  Mn4  1  0.49773069  0.33903187  0.88127965  1
  Mn  Mn5  1  0.50606382  0.35091639  0.37938155  1
  Mn  Mn6  1  0.51308752  0.66128902  0.12193764  1
  Mn  Mn7  1  0.47713758  0.63994033  0.62338678  1
  O  O8  1  0.22747555  0.11067889  0.46038689  1
  O  O9  1  0.22670905  0.10490889  0.96656668  1
  O  O10  1  0.22537681  0.88668630  0.21026374  1
  O  O11  1  0.23901206  0.88771364  0.70963589  1
  O  O12  1  0.25608001  0.60690439  0.46003429  1
  O  O13  1  0.27492811  0.39171049  0.71372385  1
  O  O14  1  0.27486540  0.61747985  0.96033260  1
  O  O15  1  0.73485220  0.38387557  0.04106157  1
  O  O16  1  0.72655118  0.61201220  0.29003079  1
  O  O17  1  0.72883985  0.38931643  0.54067786  1
  O  O18  1  0.75645210  0.10849782  0.28877730  1
  O  O19  1  0.77445396  0.89573275  0.03333446  1
  O  O20  1  0.77887115  0.11616341  0.78829987  1
  F  F21  1  0.25424461  0.37420970  0.21146467  1
  F  F22  1  0.74721170  0.62734931  0.78519048  1
  F  F23  1  0.75937200  0.87944516  0.53814766  1
