# generated using pymatgen
data_Li6Cu2C4SO16
_symmetry_space_group_name_H-M   'P 1'
_cell_length_a   9.35200582
_cell_length_b   9.35200659
_cell_length_c   9.35200628
_cell_angle_alpha   60.00000038
_cell_angle_beta   59.99999809
_cell_angle_gamma   59.99999920
_symmetry_Int_Tables_number   1
_chemical_formula_structural   Li6Cu2C4SO16
_chemical_formula_sum   'Li12 Cu4 C8 S2 O32'
_cell_volume   578.36147555
_cell_formula_units_Z   2
loop_
 _symmetry_equiv_pos_site_id
 _symmetry_equiv_pos_as_xyz
  1  'x, y, z'
loop_
 _atom_site_type_symbol
 _atom_site_label
 _atom_site_symmetry_multiplicity
 _atom_site_fract_x
 _atom_site_fract_y
 _atom_site_fract_z
 _atom_site_occupancy
  Li  Li0  1  0.09465201  0.65534799  0.09465201  1
  Li  Li1  1  0.09465201  0.09465201  0.65534799  1
  Li  Li2  1  0.09465201  0.65534799  0.65534799  1
  Li  Li3  1  0.65534799  0.09465201  0.09465201  1
  Li  Li4  1  0.34465201  0.90534799  0.34465201  1
  Li  Li5  1  0.34465201  0.34465201  0.90534799  1
  Li  Li6  1  0.65534799  0.65534799  0.09465201  1
  Li  Li7  1  0.65534799  0.09465201  0.65534799  1
  Li  Li8  1  0.90534799  0.34465201  0.34465201  1
  Li  Li9  1  0.34465201  0.90534799  0.90534799  1
  Li  Li10  1  0.90534799  0.34465201  0.90534799  1
  Li  Li11  1  0.90534799  0.90534799  0.34465201  1
  Cu  Cu12  1  0.00000000  0.50000000  0.50000000  1
  Cu  Cu13  1  0.50000000  0.00000000  0.50000000  1
  Cu  Cu14  1  0.50000000  0.50000000  0.00000000  1
  Cu  Cu15  1  0.50000000  0.50000000  0.50000000  1
  C  C16  1  0.27584257  0.27584257  0.27584257  1
  C  C17  1  0.27584257  0.27584257  0.67247129  1
  C  C18  1  0.27584257  0.67247129  0.27584257  1
  C  C19  1  0.67247129  0.27584257  0.27584257  1
  C  C20  1  0.32752871  0.72415743  0.72415743  1
  C  C21  1  0.72415743  0.32752871  0.72415743  1
  C  C22  1  0.72415743  0.72415743  0.32752871  1
  C  C23  1  0.72415743  0.72415743  0.72415743  1
  S  S24  1  0.12500000  0.12500000  0.12500000  1
  S  S25  1  0.87500000  0.87500000  0.87500000  1
  O  O26  1  0.05977200  0.05977200  0.05977200  1
  O  O27  1  0.05977200  0.32068501  0.05977200  1
  O  O28  1  0.05977200  0.05977200  0.32068501  1
  O  O29  1  0.32068501  0.05977200  0.05977200  1
  O  O30  1  0.13179353  0.40865166  0.28542714  1
  O  O31  1  0.28542714  0.13179353  0.40865166  1
  O  O32  1  0.13179353  0.28542714  0.67412866  1
  O  O33  1  0.40865166  0.28542714  0.13179353  1
  O  O34  1  0.13179353  0.67412866  0.40865166  1
  O  O35  1  0.28542714  0.67412866  0.13179353  1
  O  O36  1  0.40865166  0.13179353  0.67412866  1
  O  O37  1  0.28542714  0.40865166  0.67412866  1
  O  O38  1  0.67412866  0.13179353  0.28542714  1
  O  O39  1  0.40865166  0.67412866  0.28542714  1
  O  O40  1  0.67412866  0.40865166  0.13179353  1
  O  O41  1  0.32587134  0.71457286  0.59134834  1
  O  O42  1  0.67412866  0.28542714  0.40865166  1
  O  O43  1  0.32587134  0.59134834  0.86820647  1
  O  O44  1  0.59134834  0.32587134  0.71457286  1
  O  O45  1  0.32587134  0.86820647  0.71457286  1
  O  O46  1  0.71457286  0.59134834  0.32587134  1
  O  O47  1  0.59134834  0.86820647  0.32587134  1
  O  O48  1  0.71457286  0.32587134  0.86820647  1
  O  O49  1  0.86820647  0.32587134  0.59134834  1
  O  O50  1  0.59134834  0.71457286  0.86820647  1
  O  O51  1  0.86820647  0.71457286  0.32587134  1
  O  O52  1  0.71457286  0.86820647  0.59134834  1
  O  O53  1  0.86820647  0.59134834  0.71457286  1
  O  O54  1  0.67931499  0.94022800  0.94022800  1
  O  O55  1  0.94022800  0.94022800  0.67931499  1
  O  O56  1  0.94022800  0.67931499  0.94022800  1
  O  O57  1  0.94022800  0.94022800  0.94022800  1
