# generated using pymatgen
data_Dy2Ge2O7
_symmetry_space_group_name_H-M   'P 1'
_cell_length_a   7.78841975
_cell_length_b   8.11062463
_cell_length_c   5.37250691
_cell_angle_alpha   90.00000000
_cell_angle_beta   111.81944603
_cell_angle_gamma   90.00000000
_symmetry_Int_Tables_number   1
_chemical_formula_structural   Dy2Ge2O7
_chemical_formula_sum   'Dy4 Ge4 O14'
_cell_volume   315.06265527
_cell_formula_units_Z   2
loop_
 _symmetry_equiv_pos_site_id
 _symmetry_equiv_pos_as_xyz
  1  'x, y, z'
loop_
 _atom_site_type_symbol
 _atom_site_label
 _atom_site_symmetry_multiplicity
 _atom_site_fract_x
 _atom_site_fract_y
 _atom_site_fract_z
 _atom_site_occupancy
  Dy  Dy0  1  0.00000000  0.00000000  0.00000000  1
  Dy  Dy1  1  0.00000000  0.50000000  0.00000000  1
  Dy  Dy2  1  0.50000000  0.00000000  0.00000000  1
  Dy  Dy3  1  0.50000000  0.50000000  0.00000000  1
  Ge  Ge4  1  0.11322889  0.25000000  0.57610730  1
  Ge  Ge5  1  0.32409167  0.75000000  0.42235937  1
  Ge  Ge6  1  0.67590833  0.25000000  0.57764063  1
  Ge  Ge7  1  0.88677111  0.75000000  0.42389270  1
  O  O8  1  0.07422799  0.75000000  0.30639628  1
  O  O9  1  0.20775488  0.06486885  0.73612862  1
  O  O10  1  0.20775488  0.43513115  0.73612862  1
  O  O11  1  0.05303863  0.25000000  0.22865151  1
  O  O12  1  0.32939374  0.56990818  0.24350755  1
  O  O13  1  0.32939374  0.93009182  0.24350755  1
  O  O14  1  0.44439684  0.75000000  0.77023723  1
  O  O15  1  0.55560316  0.25000000  0.22976277  1
  O  O16  1  0.67060626  0.06990818  0.75649245  1
  O  O17  1  0.67060626  0.43009182  0.75649245  1
  O  O18  1  0.94696137  0.75000000  0.77134849  1
  O  O19  1  0.79224512  0.56486885  0.26387138  1
  O  O20  1  0.79224512  0.93513115  0.26387138  1
  O  O21  1  0.92577201  0.25000000  0.69360372  1
