# generated using pymatgen
data_YMn2O4
_symmetry_space_group_name_H-M   'P 1'
_cell_length_a   6.39070717
_cell_length_b   6.39070724
_cell_length_c   6.39070771
_cell_angle_alpha   60.12915074
_cell_angle_beta   60.12915286
_cell_angle_gamma   60.12914954
_symmetry_Int_Tables_number   1
_chemical_formula_structural   YMn2O4
_chemical_formula_sum   'Y2 Mn4 O8'
_cell_volume   185.09751787
_cell_formula_units_Z   2
loop_
 _symmetry_equiv_pos_site_id
 _symmetry_equiv_pos_as_xyz
  1  'x, y, z'
loop_
 _atom_site_type_symbol
 _atom_site_label
 _atom_site_symmetry_multiplicity
 _atom_site_fract_x
 _atom_site_fract_y
 _atom_site_fract_z
 _atom_site_occupancy
  Y  Y0  1  0.61775609  0.61775609  0.61775609  1
  Y  Y1  1  0.38224391  0.38224391  0.38224391  1
  Mn  Mn2  1  0.00000000  0.50000000  0.00000000  1
  Mn  Mn3  1  0.00000000  0.00000000  0.00000000  1
  Mn  Mn4  1  0.50000000  0.00000000  0.00000000  1
  Mn  Mn5  1  0.00000000  0.00000000  0.50000000  1
  O  O6  1  0.19923504  0.75770547  0.75770547  1
  O  O7  1  0.24229453  0.24229453  0.80076496  1
  O  O8  1  0.24229453  0.80076496  0.24229453  1
  O  O9  1  0.24765906  0.24765906  0.24765906  1
  O  O10  1  0.75770547  0.75770547  0.19923504  1
  O  O11  1  0.80076496  0.24229453  0.24229453  1
  O  O12  1  0.75770547  0.19923504  0.75770547  1
  O  O13  1  0.75234094  0.75234094  0.75234094  1
