# generated using pymatgen
data_Fe5O3F7
_symmetry_space_group_name_H-M   'P 1'
_cell_length_a   4.81453118
_cell_length_b   4.80851613
_cell_length_c   15.61526123
_cell_angle_alpha   89.78812729
_cell_angle_beta   90.12936247
_cell_angle_gamma   90.63391092
_symmetry_Int_Tables_number   1
_chemical_formula_structural   Fe5O3F7
_chemical_formula_sum   'Fe10 O6 F14'
_cell_volume   361.47953660
_cell_formula_units_Z   2
loop_
 _symmetry_equiv_pos_site_id
 _symmetry_equiv_pos_as_xyz
  1  'x, y, z'
loop_
 _atom_site_type_symbol
 _atom_site_label
 _atom_site_symmetry_multiplicity
 _atom_site_fract_x
 _atom_site_fract_y
 _atom_site_fract_z
 _atom_site_occupancy
  Fe  Fe0  1  0.99764656  0.99598428  0.99889269  1
  Fe  Fe1  1  0.02262945  0.03821851  0.19355951  1
  Fe  Fe2  1  0.96309544  0.96292192  0.39984912  1
  Fe  Fe3  1  0.04097136  0.02126543  0.60617707  1
  Fe  Fe4  1  0.01778498  0.97674034  0.80170388  1
  Fe  Fe5  1  0.52809227  0.46366153  0.10529015  1
  Fe  Fe6  1  0.49982980  0.49272014  0.50003279  1
  Fe  Fe7  1  0.49326096  0.49995461  0.29967755  1
  Fe  Fe8  1  0.47478389  0.51783507  0.69422920  1
  Fe  Fe9  1  0.47289555  0.52545732  0.90045786  1
  O  O10  1  0.18553445  0.82198236  0.70147357  1
  O  O11  1  0.17372565  0.81728631  0.90278681  1
  O  O12  1  0.30910362  0.30823060  0.20929580  1
  O  O13  1  0.31124197  0.30557532  0.59034479  1
  O  O14  1  0.66587706  0.66550738  0.39964938  1
  O  O15  1  0.83046801  0.17828257  0.09632564  1
  F  F16  1  0.21124625  0.79847892  0.10091322  1
  F  F17  1  0.19375468  0.80279523  0.29463496  1
  F  F18  1  0.19986514  0.79959972  0.50395765  1
  F  F19  1  0.29855760  0.29140016  0.00033459  1
  F  F20  1  0.28360636  0.28419893  0.39989319  1
  F  F21  1  0.28917356  0.29881655  0.79994773  1
  F  F22  1  0.70137130  0.69963770  0.00236920  1
  F  F23  1  0.71512478  0.71397071  0.20953435  1
  F  F24  1  0.71729520  0.71473525  0.59008556  1
  F  F25  1  0.69806298  0.70557362  0.79839745  1
  F  F26  1  0.80472377  0.19436453  0.50546227  1
  F  F27  1  0.80044559  0.19894623  0.29548276  1
  F  F28  1  0.79382322  0.20042800  0.89818427  1
  F  F29  1  0.80600954  0.20543275  0.70105600  1
