# generated using pymatgen
data_LiMn2(BO3)2
_symmetry_space_group_name_H-M   'P 1'
_cell_length_a   5.79127256
_cell_length_b   9.16134575
_cell_length_c   12.45248149
_cell_angle_alpha   75.20887397
_cell_angle_beta   91.93687077
_cell_angle_gamma   103.95542741
_symmetry_Int_Tables_number   1
_chemical_formula_structural   LiMn2(BO3)2
_chemical_formula_sum   'Li5 Mn10 B10 O30'
_cell_volume   619.65794942
_cell_formula_units_Z   5
loop_
 _symmetry_equiv_pos_site_id
 _symmetry_equiv_pos_as_xyz
  1  'x, y, z'
loop_
 _atom_site_type_symbol
 _atom_site_label
 _atom_site_symmetry_multiplicity
 _atom_site_fract_x
 _atom_site_fract_y
 _atom_site_fract_z
 _atom_site_occupancy
  Li  Li0  1  0.96411517  0.33800651  0.70830645  1
  Li  Li1  1  0.83128822  0.05553106  0.50011800  1
  Li  Li2  1  0.23451118  0.25441905  0.09793862  1
  Li  Li3  1  0.44209955  0.85602170  0.89855370  1
  Li  Li4  1  0.03747395  0.65688612  0.29708699  1
  Mn  Mn5  1  0.83328159  0.43758969  0.91332547  1
  Mn  Mn6  1  0.75251663  0.37796265  0.49700773  1
  Mn  Mn7  1  0.96645473  0.97205989  0.28980319  1
  Mn  Mn8  1  0.43947551  0.23273977  0.31435403  1
  Mn  Mn9  1  0.64580184  0.83261244  0.10926829  1
  Mn  Mn10  1  0.36970356  0.17673397  0.88563014  1
  Mn  Mn11  1  0.55803863  0.74432315  0.69633366  1
  Mn  Mn12  1  0.03804153  0.00587015  0.71494028  1
  Mn  Mn13  1  0.25160669  0.63308017  0.50648402  1
  Mn  Mn14  1  0.15799317  0.57197074  0.09536707  1
  B  B15  1  0.96078573  0.31482942  0.29134479  1
  B  B16  1  0.83811149  0.09342279  0.90407584  1
  B  B17  1  0.56765513  0.09969860  0.69036815  1
  B  B18  1  0.77307259  0.72215719  0.48446453  1
  B  B19  1  0.62790882  0.48850358  0.11048645  1
  B  B20  1  0.35973220  0.51523979  0.89574557  1
  B  B21  1  0.22471746  0.28741214  0.51735694  1
  B  B22  1  0.43616363  0.89101257  0.30594924  1
  B  B23  1  0.16744164  0.91826055  0.08569555  1
  B  B24  1  0.03749935  0.67226090  0.71124303  1
  O  O25  1  0.97962622  0.51754410  0.75494219  1
  O  O26  1  0.79522678  0.25084182  0.38124948  1
  O  O27  1  0.00236742  0.85093200  0.17637258  1
  O  O28  1  0.66930331  0.99685149  0.65611298  1
  O  O29  1  0.87507501  0.62019047  0.44672273  1
  O  O30  1  0.71153149  0.19854047  0.92059589  1
  O  O31  1  0.89936236  0.76907639  0.73176932  1
  O  O32  1  0.83373411  0.55421678  0.04107237  1
  O  O33  1  0.64483788  0.25812247  0.65021387  1
  O  O34  1  0.84042120  0.87998043  0.44346352  1
  O  O35  1  0.54897915  0.33389424  0.15106043  1
  O  O36  1  0.76280780  0.93900424  0.94580618  1
  O  O37  1  0.39425923  0.04139844  0.77802127  1
  O  O38  1  0.60156325  0.65916699  0.56991583  1
  O  O39  1  0.47448829  0.41506323  0.86677316  1
  O  O40  1  0.50068119  0.59443380  0.12553071  1
  O  O41  1  0.42521555  0.35325440  0.44456929  1
  O  O42  1  0.64279041  0.95465563  0.23712760  1
  O  O43  1  0.22336403  0.07546166  0.04159586  1
  O  O44  1  0.42266129  0.67293826  0.84934868  1
  O  O45  1  0.14655785  0.13270264  0.55577860  1
  O  O46  1  0.35701793  0.73567638  0.34526402  1
  O  O47  1  0.18410885  0.45110841  0.98082389  1
  O  O48  1  0.06855338  0.21722443  0.25250142  1
  O  O49  1  0.27383439  0.81864290  0.04863707  1
  O  O50  1  0.09825716  0.39097567  0.54257860  1
  O  O51  1  0.30709209  0.99493155  0.32295842  1
  O  O52  1  0.03776026  0.15970246  0.82771075  1
  O  O53  1  0.23752640  0.74368242  0.63936070  1
  O  O54  1  0.02204172  0.47322823  0.24879584  1
