# generated using pymatgen
data_Li4Ti3V3(TeO8)2
_symmetry_space_group_name_H-M   'P 1'
_cell_length_a   6.09156892
_cell_length_b   5.92307764
_cell_length_c   10.27539529
_cell_angle_alpha   90.04665728
_cell_angle_beta   90.04081735
_cell_angle_gamma   119.06638842
_symmetry_Int_Tables_number   1
_chemical_formula_structural   Li4Ti3V3(TeO8)2
_chemical_formula_sum   'Li4 Ti3 V3 Te2 O16'
_cell_volume   324.05190058
_cell_formula_units_Z   1
loop_
 _symmetry_equiv_pos_site_id
 _symmetry_equiv_pos_as_xyz
  1  'x, y, z'
loop_
 _atom_site_type_symbol
 _atom_site_label
 _atom_site_symmetry_multiplicity
 _atom_site_fract_x
 _atom_site_fract_y
 _atom_site_fract_z
 _atom_site_occupancy
  Li  Li0  1  0.32465842  0.66292897  0.90302106  1
  Li  Li1  1  0.01030326  0.00490896  0.98640072  1
  Li  Li2  1  0.00147394  0.00116387  0.49493188  1
  Li  Li3  1  0.67381626  0.33676420  0.39964355  1
  Ti  Ti4  1  0.18483443  0.84052012  0.22146903  1
  Ti  Ti5  1  0.18518442  0.34423466  0.22097835  1
  Ti  Ti6  1  0.35257027  0.17642203  0.73075673  1
  V  V7  1  0.66215541  0.83139595  0.20876099  1
  V  V8  1  0.82731490  0.64835409  0.71540201  1
  V  V9  1  0.82764342  0.17900735  0.71550158  1
  Te  Te10  1  0.33879973  0.66865680  0.51091669  1
  Te  Te11  1  0.68925706  0.34464385  0.99577063  1
  O  O12  1  0.16727742  0.83206697  0.60068824  1
  O  O13  1  0.03016696  0.51453581  0.32158196  1
  O  O14  1  0.31841549  0.65941578  0.11001350  1
  O  O15  1  0.00190248  0.00070436  0.31197262  1
  O  O16  1  0.01328119  0.00694897  0.80246510  1
  O  O17  1  0.16719546  0.33465055  0.60075031  1
  O  O18  1  0.48579549  0.98388939  0.31501327  1
  O  O19  1  0.48631624  0.50141153  0.31395745  1
  O  O20  1  0.28624865  0.14267587  0.11118696  1
  O  O21  1  0.67782442  0.83983703  0.59810935  1
  O  O22  1  0.49818698  0.47818977  0.83211756  1
  O  O23  1  0.49865222  0.02056168  0.83240904  1
  O  O24  1  0.63378878  0.31711169  0.60571228  1
  O  O25  1  0.84974414  0.68408852  0.09568796  1
  O  O26  1  0.95801730  0.47943797  0.85684720  1
  O  O27  1  0.84917628  0.16577323  0.09577596  1
