# generated using pymatgen
data_LiMn2(BO3)2
_symmetry_space_group_name_H-M   'P 1'
_cell_length_a   5.79107210
_cell_length_b   9.17793304
_cell_length_c   9.81469899
_cell_angle_alpha   98.76319790
_cell_angle_beta   79.84416267
_cell_angle_gamma   104.13941849
_symmetry_Int_Tables_number   1
_chemical_formula_structural   LiMn2(BO3)2
_chemical_formula_sum   'Li4 Mn8 B8 O24'
_cell_volume   494.64847610
_cell_formula_units_Z   4
loop_
 _symmetry_equiv_pos_site_id
 _symmetry_equiv_pos_as_xyz
  1  'x, y, z'
loop_
 _atom_site_type_symbol
 _atom_site_label
 _atom_site_symmetry_multiplicity
 _atom_site_fract_x
 _atom_site_fract_y
 _atom_site_fract_z
 _atom_site_occupancy
  Li  Li0  1  0.95420900  0.80576611  0.37598330  1
  Li  Li1  1  0.46830138  0.80500739  0.87438604  1
  Li  Li2  1  0.03977752  0.19126379  0.63616803  1
  Li  Li3  1  0.20963850  0.30495097  0.11693182  1
  Mn  Mn4  1  0.85152072  0.39423831  0.89189134  1
  Mn  Mn5  1  0.87835307  0.12722641  0.37305907  1
  Mn  Mn6  1  0.39709359  0.11794947  0.85617983  1
  Mn  Mn7  1  0.63335395  0.58923357  0.62073815  1
  Mn  Mn8  1  0.37375758  0.38720434  0.38000063  1
  Mn  Mn9  1  0.61764038  0.89531210  0.13951410  1
  Mn  Mn10  1  0.10988313  0.86086824  0.64269602  1
  Mn  Mn11  1  0.14085530  0.62496186  0.11508828  1
  B  B12  1  0.86113725  0.04533222  0.87937423  1
  B  B13  1  0.90084163  0.46226716  0.35569842  1
  B  B14  1  0.38333301  0.46108864  0.86932962  1
  B  B15  1  0.64590943  0.94148864  0.61351895  1
  B  B16  1  0.34464353  0.04786955  0.39706953  1
  B  B17  1  0.60543870  0.55056113  0.13311123  1
  B  B18  1  0.10932004  0.52582088  0.63918788  1
  B  B19  1  0.14325650  0.96425552  0.10981428  1
  O  O20  1  0.73051721  0.15837528  0.89708399  1
  O  O21  1  0.96567316  0.63244108  0.66340216  1
  O  O22  1  0.73513805  0.07916653  0.56284020  1
  O  O23  1  0.97968877  0.60005155  0.30641352  1
  O  O24  1  0.77525065  0.91434127  0.93420968  1
  O  O25  1  0.70530636  0.44026106  0.46111178  1
  O  O26  1  0.95478670  0.94499867  0.22293923  1
  O  O27  1  0.50277733  0.34528800  0.83194219  1
  O  O28  1  0.75454895  0.82103485  0.57113436  1
  O  O29  1  0.56515476  0.07696392  0.30698406  1
  O  O30  1  0.83099883  0.58286706  0.04928022  1
  O  O31  1  0.46228400  0.59612825  0.81265255  1
  O  O32  1  0.51577540  0.41420770  0.17932200  1
  O  O33  1  0.18718395  0.44184110  0.97629667  1
  O  O34  1  0.44943501  0.92807465  0.72282816  1
  O  O35  1  0.21331285  0.16452419  0.42751486  1
  O  O36  1  0.47351991  0.66303928  0.15371821  1
  O  O37  1  0.08116664  0.07203570  0.78459506  1
  O  O38  1  0.32867540  0.56188284  0.55044093  1
  O  O39  1  0.21439838  0.09773522  0.05196245  1
  O  O40  1  0.04019514  0.39375147  0.69397059  1
  O  O41  1  0.25472837  0.91384216  0.44568039  1
  O  O42  1  0.01349151  0.34164428  0.30844140  1
  O  O43  1  0.26243045  0.84684361  0.06376056  1
