# generated using pymatgen
data_Mn12O5F19
_symmetry_space_group_name_H-M   'P 1'
_cell_length_a   5.01867444
_cell_length_b   5.60863436
_cell_length_c   15.75024325
_cell_angle_alpha   87.62355558
_cell_angle_beta   91.42982409
_cell_angle_gamma   95.45316566
_symmetry_Int_Tables_number   1
_chemical_formula_structural   Mn12O5F19
_chemical_formula_sum   'Mn12 O5 F19'
_cell_volume   440.85201141
_cell_formula_units_Z   1
loop_
 _symmetry_equiv_pos_site_id
 _symmetry_equiv_pos_as_xyz
  1  'x, y, z'
loop_
 _atom_site_type_symbol
 _atom_site_label
 _atom_site_symmetry_multiplicity
 _atom_site_fract_x
 _atom_site_fract_y
 _atom_site_fract_z
 _atom_site_occupancy
  Mn  Mn0  1  0.98553733  0.93512931  0.99736688  1
  Mn  Mn1  1  0.98648747  0.56130366  0.15298285  1
  Mn  Mn2  1  0.03576534  0.90835231  0.33919212  1
  Mn  Mn3  1  -0.00002073  0.55751463  0.50414910  1
  Mn  Mn4  1  0.94696297  0.98328396  0.66562077  1
  Mn  Mn5  1  0.00814035  0.53960575  0.82327471  1
  Mn  Mn6  1  0.50031281  0.04851948  0.17854770  1
  Mn  Mn7  1  0.49188040  0.43062740  0.99977180  1
  Mn  Mn8  1  0.52635341  0.44125465  0.65444052  1
  Mn  Mn9  1  0.49848818  0.06325306  0.50135436  1
  Mn  Mn10  1  0.48804570  0.39670367  0.32938692  1
  Mn  Mn11  1  0.45573824  0.06160789  0.84654787  1
  O  O12  1  0.27558809  0.14288513  0.28075952  1
  O  O13  1  0.21310919  0.85121899  0.44763443  1
  O  O14  1  0.24889977  0.17745600  0.95000959  1
  O  O15  1  0.74821511  0.29385163  0.55820943  1
  O  O16  1  0.76714785  0.65950728  0.04659990  1
  F  F17  1  0.22280496  0.87121989  0.09932037  1
  F  F18  1  0.27006677  0.13990698  0.59886761  1
  F  F19  1  0.21517133  0.85212250  0.76525244  1
  F  F20  1  0.30445314  0.37638306  0.11086605  1
  F  F21  1  0.26931739  0.65053029  0.26387005  1
  F  F22  1  0.20171967  0.63562876  0.61276257  1
  F  F23  1  0.26424649  0.68175314  0.93060690  1
  F  F24  1  0.27771594  0.33903109  0.76586543  1
  F  F25  1  0.28442191  0.36112380  0.43875886  1
  F  F26  1  0.71500705  0.36829258  0.90157547  1
  F  F27  1  0.74012555  0.35195489  0.23410740  1
  F  F28  1  0.77848059  0.61374570  0.38516017  1
  F  F29  1  0.72804148  0.69293135  0.73124585  1
  F  F30  1  0.71832296  0.11127212  0.39394404  1
  F  F31  1  0.74965114  0.15932853  0.07104818  1
  F  F32  1  0.75226011  0.20621377  0.74280481  1
  F  F33  1  0.72253499  0.79693435  0.55915937  1
  F  F34  1  0.79597610  0.88610405  0.88862901  1
  F  F35  1  0.81303094  0.85344434  0.23030794  1
