# generated using pymatgen
data_Zn(CoS2)4
_symmetry_space_group_name_H-M   'P 1'
_cell_length_a   7.04434000
_cell_length_b   7.04433976
_cell_length_c   7.04434085
_cell_angle_alpha   55.90503474
_cell_angle_beta   55.90502952
_cell_angle_gamma   55.90503569
_symmetry_Int_Tables_number   1
_chemical_formula_structural   Zn(CoS2)4
_chemical_formula_sum   'Zn1 Co4 S8'
_cell_volume   223.71663289
_cell_formula_units_Z   1
loop_
 _symmetry_equiv_pos_site_id
 _symmetry_equiv_pos_as_xyz
  1  'x, y, z'
loop_
 _atom_site_type_symbol
 _atom_site_label
 _atom_site_symmetry_multiplicity
 _atom_site_fract_x
 _atom_site_fract_y
 _atom_site_fract_z
 _atom_site_occupancy
  Zn  Zn0  1  0.50000000  0.50000100  0.49999900  1
  Co  Co1  1  0.50000100  0.99999900  0.50000100  1
  Co  Co2  1  0.99999900  0.50000000  0.50000100  1
  Co  Co3  1  0.50000000  0.50000000  0.00000000  1
  Co  Co4  1  0.00000000  0.00000000  0.00000000  1
  S  S5  1  0.76143885  0.27255546  0.76143884  1
  S  S6  1  0.23856016  0.23856115  0.72744455  1
  S  S7  1  0.23856015  0.72744554  0.23856016  1
  S  S8  1  0.72744354  0.23856115  0.23856116  1
  S  S9  1  0.26466695  0.26466796  0.26466695  1
  S  S10  1  0.73533305  0.73533304  0.73533305  1
  S  S11  1  0.27255646  0.76143985  0.76143884  1
  S  S12  1  0.76143984  0.76143985  0.27255545  1
