# generated using pymatgen
data_Li5CoO4
_symmetry_space_group_name_H-M   'P 1'
_cell_length_a   9.72075741
_cell_length_b   5.08305240
_cell_length_c   16.13645074
_cell_angle_alpha   90.00000000
_cell_angle_beta   90.00000000
_cell_angle_gamma   90.00000000
_symmetry_Int_Tables_number   1
_chemical_formula_structural   Li5CoO4
_chemical_formula_sum   'Li40 Co8 O32'
_cell_volume   797.32009231
_cell_formula_units_Z   8
loop_
 _symmetry_equiv_pos_site_id
 _symmetry_equiv_pos_as_xyz
  1  'x, y, z'
loop_
 _atom_site_type_symbol
 _atom_site_label
 _atom_site_symmetry_multiplicity
 _atom_site_fract_x
 _atom_site_fract_y
 _atom_site_fract_z
 _atom_site_occupancy
  Li  Li0  1  0.05962547  0.08113170  0.42969560  1
  Li  Li1  1  0.05962547  0.41886830  0.92969560  1
  Li  Li2  1  0.04368929  0.96967848  0.27284188  1
  Li  Li3  1  0.04368929  0.53032152  0.77284188  1
  Li  Li4  1  0.19593673  0.60113803  0.48143757  1
  Li  Li5  1  0.19593673  0.89886197  0.98143757  1
  Li  Li6  1  0.18553790  0.40463249  0.32127994  1
  Li  Li7  1  0.18553790  0.09536751  0.82127994  1
  Li  Li8  1  0.19116817  0.60476434  0.16581636  1
  Li  Li9  1  0.19116817  0.89523566  0.66581636  1
  Li  Li10  1  0.30883183  0.10476434  0.16581636  1
  Li  Li11  1  0.30883183  0.39523566  0.66581636  1
  Li  Li12  1  0.31446210  0.59536751  0.82127994  1
  Li  Li13  1  0.31446210  0.90463249  0.32127994  1
  Li  Li14  1  0.30406327  0.10113803  0.48143757  1
  Li  Li15  1  0.30406327  0.39886197  0.98143757  1
  Li  Li16  1  0.45631071  0.46967848  0.27284188  1
  Li  Li17  1  0.45631071  0.03032152  0.77284188  1
  Li  Li18  1  0.44037453  0.91886830  0.92969560  1
  Li  Li19  1  0.44037453  0.58113170  0.42969560  1
  Li  Li20  1  0.55962547  0.08113170  0.07030440  1
  Li  Li21  1  0.55962547  0.41886830  0.57030440  1
  Li  Li22  1  0.54368929  0.53032152  0.72715812  1
  Li  Li23  1  0.54368929  0.96967848  0.22715812  1
  Li  Li24  1  0.69593673  0.60113803  0.01856243  1
  Li  Li25  1  0.69593673  0.89886197  0.51856243  1
  Li  Li26  1  0.68553790  0.40463249  0.17872006  1
  Li  Li27  1  0.68553790  0.09536751  0.67872006  1
  Li  Li28  1  0.69116817  0.89523566  0.83418364  1
  Li  Li29  1  0.69116817  0.60476434  0.33418364  1
  Li  Li30  1  0.80883183  0.10476434  0.33418364  1
  Li  Li31  1  0.80883183  0.39523566  0.83418364  1
  Li  Li32  1  0.81446210  0.59536751  0.67872006  1
  Li  Li33  1  0.81446210  0.90463249  0.17872006  1
  Li  Li34  1  0.80406327  0.39886197  0.51856243  1
  Li  Li35  1  0.80406327  0.10113803  0.01856243  1
  Li  Li36  1  0.95631071  0.03032152  0.72715812  1
  Li  Li37  1  0.95631071  0.46967848  0.22715812  1
  Li  Li38  1  0.94037453  0.91886830  0.57030440  1
  Li  Li39  1  0.94037453  0.58113170  0.07030440  1
  Co  Co40  1  0.04710154  0.12470411  0.11594051  1
  Co  Co41  1  0.04710154  0.37529589  0.61594051  1
  Co  Co42  1  0.45289846  0.62470411  0.11594051  1
  Co  Co43  1  0.45289846  0.87529589  0.61594051  1
  Co  Co44  1  0.54710154  0.12470411  0.38405949  1
  Co  Co45  1  0.54710154  0.37529589  0.88405949  1
  Co  Co46  1  0.95289846  0.62470411  0.38405949  1
  Co  Co47  1  0.95289846  0.87529589  0.88405949  1
  O  O48  1  0.02226011  0.78806916  0.15165576  1
  O  O49  1  0.02226011  0.71193084  0.65165576  1
  O  O50  1  0.14646020  0.26810736  0.20859308  1
  O  O51  1  0.14646020  0.23189264  0.70859308  1
  O  O52  1  0.13431465  0.24680178  0.02363888  1
  O  O53  1  0.13431465  0.25319822  0.52363888  1
  O  O54  1  0.13891032  0.73138533  0.87510330  1
  O  O55  1  0.13891032  0.76861467  0.37510330  1
  O  O56  1  0.36108968  0.26861467  0.37510330  1
  O  O57  1  0.36108968  0.23138533  0.87510330  1
  O  O58  1  0.36568535  0.74680178  0.02363888  1
  O  O59  1  0.36568535  0.75319822  0.52363888  1
  O  O60  1  0.35353980  0.76810736  0.20859308  1
  O  O61  1  0.35353980  0.73189264  0.70859308  1
  O  O62  1  0.47773989  0.28806916  0.15165576  1
  O  O63  1  0.47773989  0.21193084  0.65165576  1
  O  O64  1  0.52226011  0.78806916  0.34834424  1
  O  O65  1  0.52226011  0.71193084  0.84834424  1
  O  O66  1  0.64646020  0.23189264  0.79140692  1
  O  O67  1  0.64646020  0.26810736  0.29140692  1
  O  O68  1  0.63431465  0.25319822  0.97636112  1
  O  O69  1  0.63431465  0.24680178  0.47636112  1
  O  O70  1  0.63891032  0.73138533  0.62489670  1
  O  O71  1  0.63891032  0.76861467  0.12489670  1
  O  O72  1  0.86108968  0.23138533  0.62489670  1
  O  O73  1  0.86108968  0.26861467  0.12489670  1
  O  O74  1  0.86568535  0.74680178  0.47636112  1
  O  O75  1  0.86568535  0.75319822  0.97636112  1
  O  O76  1  0.85353980  0.73189264  0.79140692  1
  O  O77  1  0.85353980  0.76810736  0.29140692  1
  O  O78  1  0.97773989  0.21193084  0.84834424  1
  O  O79  1  0.97773989  0.28806916  0.34834424  1
