# generated using pymatgen
data_VO2F
_symmetry_space_group_name_H-M   'P 1'
_cell_length_a   5.10839936
_cell_length_b   9.00808554
_cell_length_c   5.07810133
_cell_angle_alpha   103.99180883
_cell_angle_beta   117.81061281
_cell_angle_gamma   76.52114528
_symmetry_Int_Tables_number   1
_chemical_formula_structural   VO2F
_chemical_formula_sum   'V4 O8 F4'
_cell_volume   198.57562119
_cell_formula_units_Z   4
loop_
 _symmetry_equiv_pos_site_id
 _symmetry_equiv_pos_as_xyz
  1  'x, y, z'
loop_
 _atom_site_type_symbol
 _atom_site_label
 _atom_site_symmetry_multiplicity
 _atom_site_fract_x
 _atom_site_fract_y
 _atom_site_fract_z
 _atom_site_occupancy
  V  V0  1  0.00000000  0.00000000  0.00000000  1
  V  V1  1  0.68510757  0.74965300  0.20690283  1
  V  V2  1  0.50000000  0.50000000  0.50000000  1
  V  V3  1  0.31489243  0.25034700  0.79309717  1
  O  O4  1  0.37455080  0.87604233  0.20130342  1
  O  O5  1  0.46325880  0.37320900  0.12628710  1
  O  O6  1  0.81691896  0.87411009  0.05985550  1
  O  O7  1  0.29724468  0.37655381  0.54578088  1
  O  O8  1  0.70275532  0.62344619  0.45421912  1
  O  O9  1  0.18308104  0.12588991  0.94014450  1
  O  O10  1  0.53674120  0.62679100  0.87371290  1
  O  O11  1  0.62544920  0.12395767  0.79869658  1
  F  F12  1  0.13641378  0.62340231  0.29101363  1
  F  F13  1  0.03686970  0.12534632  0.37239591  1
  F  F14  1  0.96313030  0.87465368  0.62760409  1
  F  F15  1  0.86358622  0.37659769  0.70898637  1
