# generated using pymatgen
data_V3OF11
_symmetry_space_group_name_H-M   'P 1'
_cell_length_a   5.44345348
_cell_length_b   5.27070957
_cell_length_c   14.61490182
_cell_angle_alpha   89.95823044
_cell_angle_beta   100.45789023
_cell_angle_gamma   90.03945391
_symmetry_Int_Tables_number   1
_chemical_formula_structural   V3OF11
_chemical_formula_sum   'V6 O2 F22'
_cell_volume   412.34855601
_cell_formula_units_Z   2
loop_
 _symmetry_equiv_pos_site_id
 _symmetry_equiv_pos_as_xyz
  1  'x, y, z'
loop_
 _atom_site_type_symbol
 _atom_site_label
 _atom_site_symmetry_multiplicity
 _atom_site_fract_x
 _atom_site_fract_y
 _atom_site_fract_z
 _atom_site_occupancy
  V  V0  1  0.99896178  0.99823308  0.99889705  1
  V  V1  1  0.16666516  0.49999862  0.33333046  1
  V  V2  1  0.33437813  0.00177352  0.66777874  1
  V  V3  1  0.50104226  0.49312220  0.00576024  1
  V  V4  1  0.66666809  0.00000076  0.33333124  1
  V  V5  1  0.83228535  0.50688513  0.66089232  1
  O  O6  1  0.54336438  0.41812504  0.11505466  1
  O  O7  1  0.78996832  0.58186879  0.55161634  1
  F  F8  1  0.02648667  0.20457902  0.64223038  1
  F  F9  1  0.19582218  0.29906349  0.97421097  1
  F  F10  1  0.13749810  0.70093453  0.69245329  1
  F  F11  1  0.04315481  0.08588095  0.11752983  1
  F  F12  1  0.21020186  0.41355979  0.45193349  1
  F  F13  1  0.37704479  0.08430138  0.78570154  1
  F  F14  1  0.12313306  0.58642552  0.21472869  1
  F  F15  1  0.29017621  0.91412974  0.54915021  1
  F  F16  1  0.45628594  0.58798323  0.88276405  1
  F  F17  1  0.35786722  0.20037018  0.30835585  1
  F  F18  1  0.52897087  0.29861475  0.64188747  1
  F  F19  1  0.69224213  0.20597451  0.97418169  1
  F  F20  1  0.30685300  0.79542302  0.02443990  1
  F  F21  1  0.47520521  0.70046408  0.35829126  1
  F  F22  1  0.64109376  0.79401175  0.69248562  1
  F  F23  1  0.71009754  0.08604433  0.45190806  1
  F  F24  1  0.87705120  0.41202040  0.78390915  1
  F  F25  1  0.62323602  0.91396320  0.21475251  1
  F  F26  1  0.95628531  0.91569083  0.88096197  1
  F  F27  1  0.85812024  0.29955473  0.30837123  1
  F  F28  1  0.80437697  0.70138527  0.02478493  1
  F  F29  1  0.97546345  0.79961816  0.35830686  1
