# generated using pymatgen
data_Mn2OF3
_symmetry_space_group_name_H-M   'P 1'
_cell_length_a   4.85058927
_cell_length_b   13.68611821
_cell_length_c   5.81328447
_cell_angle_alpha   101.49195658
_cell_angle_beta   91.55022081
_cell_angle_gamma   88.76880215
_symmetry_Int_Tables_number   1
_chemical_formula_structural   Mn2OF3
_chemical_formula_sum   'Mn10 O5 F15'
_cell_volume   377.99307736
_cell_formula_units_Z   5
loop_
 _symmetry_equiv_pos_site_id
 _symmetry_equiv_pos_as_xyz
  1  'x, y, z'
loop_
 _atom_site_type_symbol
 _atom_site_label
 _atom_site_symmetry_multiplicity
 _atom_site_fract_x
 _atom_site_fract_y
 _atom_site_fract_z
 _atom_site_occupancy
  Mn  Mn0  1  0.47260960  0.01255689  0.50125542  1
  Mn  Mn1  1  0.50272202  0.40037359  0.30051806  1
  Mn  Mn2  1  0.49964524  0.59917782  0.69349412  1
  Mn  Mn3  1  0.49578225  0.20079234  0.90586834  1
  Mn  Mn4  1  0.54577429  0.79263711  0.08738290  1
  Mn  Mn5  1  0.99470227  0.20187396  0.39798783  1
  Mn  Mn6  1  0.99879018  0.39998926  0.80191146  1
  Mn  Mn7  1  0.98188779  0.80232060  0.61196380  1
  Mn  Mn8  1  0.01624849  0.60156005  0.20009325  1
  Mn  Mn9  1  0.98750301  0.98947542  0.00276007  1
  O  O10  1  0.80467653  0.85670253  0.92179082  1
  O  O11  1  0.68379313  0.26270743  0.20783208  1
  O  O12  1  0.69358154  0.65790485  0.99477836  1
  O  O13  1  0.30231798  0.14663065  0.60082678  1
  O  O14  1  0.31806619  0.53595714  0.39219779  1
  F  F15  1  0.79496304  0.26091664  0.71706261  1
  F  F16  1  0.79722111  0.65985746  0.50800284  1
  F  F17  1  0.80425334  0.05942317  0.32515010  1
  F  F18  1  0.80233340  0.46091767  0.12345450  1
  F  F19  1  0.69737138  0.06328102  0.82745894  1
  F  F20  1  0.69482496  0.46052225  0.62323999  1
  F  F21  1  0.68921893  0.87170106  0.43295813  1
  F  F22  1  0.30382013  0.33869720  0.97942839  1
  F  F23  1  0.32043418  0.93075409  0.16926644  1
  F  F24  1  0.29603457  0.73477869  0.76711138  1
  F  F25  1  0.20686585  0.53847036  0.88186002  1
  F  F26  1  0.19613656  0.34073940  0.47618405  1
  F  F27  1  0.19591832  0.13100792  0.08321936  1
  F  F28  1  0.19701233  0.94140033  0.67841478  1
  F  F29  1  0.20549038  0.74687410  0.28652839  1
