# generated using pymatgen
data_SmH8S3N3O10
_symmetry_space_group_name_H-M   'P 1'
_cell_length_a   6.88543108
_cell_length_b   9.61747763
_cell_length_c   9.52340715
_cell_angle_alpha   67.57314317
_cell_angle_beta   74.50078523
_cell_angle_gamma   81.72745544
_symmetry_Int_Tables_number   1
_chemical_formula_structural   SmH8S3N3O10
_chemical_formula_sum   'Sm2 H16 S6 N6 O20'
_cell_volume   561.12499731
_cell_formula_units_Z   2
loop_
 _symmetry_equiv_pos_site_id
 _symmetry_equiv_pos_as_xyz
  1  'x, y, z'
loop_
 _atom_site_type_symbol
 _atom_site_label
 _atom_site_symmetry_multiplicity
 _atom_site_fract_x
 _atom_site_fract_y
 _atom_site_fract_z
 _atom_site_occupancy
  Sm  Sm0  1  0.12935009  0.18393364  0.07830373  1
  Sm  Sm1  1  0.87064991  0.81606636  0.92169627  1
  H  H2  1  0.01331157  0.72410621  0.38098427  1
  H  H3  1  0.15369335  0.12658347  0.41283304  1
  H  H4  1  0.20380350  0.31877379  0.48737319  1
  H  H5  1  0.33724098  0.02112739  0.35717072  1
  H  H6  1  0.37992441  0.55119062  0.24840721  1
  H  H7  1  0.39026031  0.68285372  0.32208206  1
  H  H8  1  0.54284511  0.27108291  0.37809572  1
  H  H9  1  0.58229568  0.30752867  0.18644430  1
  H  H10  1  0.41770432  0.69247133  0.81355570  1
  H  H11  1  0.45715489  0.72891709  0.62190428  1
  H  H12  1  0.60973969  0.31714628  0.67791794  1
  H  H13  1  0.62007559  0.44880938  0.75159279  1
  H  H14  1  0.66275902  0.97887261  0.64282928  1
  H  H15  1  0.79619650  0.68122621  0.51262681  1
  H  H16  1  0.84630665  0.87341653  0.58716696  1
  H  H17  1  0.98668843  0.27589379  0.61901573  1
  S  S18  1  0.30822969  0.78449912  0.08985935  1
  S  S19  1  0.24779171  0.11420198  0.69061151  1
  S  S20  1  0.21944157  0.56297534  0.75774534  1
  S  S21  1  0.78055843  0.43702466  0.24225466  1
  S  S22  1  0.75220829  0.88579802  0.30938849  1
  S  S23  1  0.69177031  0.21550088  0.91014065  1
  N  N24  1  0.11673550  0.23149359  0.56450661  1
  N  N25  1  0.31587332  0.65193409  0.25944575  1
  N  N26  1  0.56870405  0.35482099  0.26905848  1
  N  N27  1  0.43129595  0.64517901  0.73094152  1
  N  N28  1  0.68412668  0.34806591  0.74055425  1
  N  N29  1  0.88326450  0.76850641  0.43549239  1
  O  O30  1  0.17032205  0.72945876  0.03091586  1
  O  O31  1  0.23076335  0.09783508  0.32358106  1
  O  O32  1  0.04447412  0.67085556  0.77211476  1
  O  O33  1  0.22966738  0.91855989  0.12960222  1
  O  O34  1  0.49342695  0.19200263  0.02159703  1
  O  O35  1  0.24709209  0.52298559  0.62164610  1
  O  O36  1  0.22119243  0.16162532  0.82466966  1
  O  O37  1  0.16559484  0.96591706  0.73919789  1
  O  O38  1  0.21021395  0.43590714  0.90709153  1
  O  O39  1  0.45660102  0.12382067  0.59764974  1
  O  O40  1  0.54339898  0.87617933  0.40235026  1
  O  O41  1  0.78978605  0.56409286  0.09290847  1
  O  O42  1  0.83440516  0.03408294  0.26080211  1
  O  O43  1  0.77880757  0.83837468  0.17533034  1
  O  O44  1  0.75290791  0.47701441  0.37835390  1
  O  O45  1  0.50657305  0.80799737  0.97840297  1
  O  O46  1  0.77033262  0.08144011  0.87039778  1
  O  O47  1  0.95552588  0.32914444  0.22788524  1
  O  O48  1  0.76923665  0.90216492  0.67641894  1
  O  O49  1  0.82967795  0.27054124  0.96908414  1
