# generated using pymatgen
data_V3Cr2Ni(PO4)6
_symmetry_space_group_name_H-M   'P 1'
_cell_length_a   8.46129040
_cell_length_b   8.60490963
_cell_length_c   8.60490931
_cell_angle_alpha   60.00000007
_cell_angle_beta   59.43691275
_cell_angle_gamma   59.43690806
_symmetry_Int_Tables_number   1
_chemical_formula_structural   V3Cr2Ni(PO4)6
_chemical_formula_sum   'V3 Cr2 Ni1 P6 O24'
_cell_volume   439.20267491
_cell_formula_units_Z   1
loop_
 _symmetry_equiv_pos_site_id
 _symmetry_equiv_pos_as_xyz
  1  'x, y, z'
loop_
 _atom_site_type_symbol
 _atom_site_label
 _atom_site_symmetry_multiplicity
 _atom_site_fract_x
 _atom_site_fract_y
 _atom_site_fract_z
 _atom_site_occupancy
  V  V0  1  0.06496852  0.64501016  0.64501016  1
  V  V1  1  0.42886680  0.85704407  0.85704407  1
  V  V2  1  0.93189563  0.35603446  0.35603446  1
  Cr  Cr3  1  0.99575416  0.00141561  0.00141561  1
  Cr  Cr4  1  0.49667681  0.50110773  0.50110773  1
  Ni  Ni5  1  0.56865192  0.14378269  0.14378269  1
  P  P6  1  0.25077584  0.24800112  0.54549194  1
  P  P7  1  0.25077584  0.95573110  0.24800112  1
  P  P8  1  0.25077584  0.54549194  0.95573110  1
  P  P9  1  0.75110200  0.45444343  0.04417775  1
  P  P10  1  0.75110200  0.04417775  0.75027681  1
  P  P11  1  0.75110200  0.75027681  0.45444343  1
  O  O12  1  0.06562040  0.11373111  0.31657964  1
  O  O13  1  0.06562040  0.50406885  0.11373111  1
  O  O14  1  0.06562040  0.31657964  0.50406885  1
  O  O15  1  0.21603988  0.09226996  0.74970080  1
  O  O16  1  0.43737114  0.18237990  0.39570765  1
  O  O17  1  0.26541242  0.41060563  0.56986449  1
  O  O18  1  0.21603988  0.94198836  0.09226996  1
  O  O19  1  0.26541242  0.75411746  0.41060563  1
  O  O20  1  0.56822862  0.61009642  0.00467208  1
  O  O21  1  0.26541242  0.56986449  0.75411746  1
  O  O22  1  0.78906309  0.25495938  0.05138521  1
  O  O23  1  0.56822862  0.00467208  0.81700288  1
  O  O24  1  0.43737114  0.98454032  0.18237990  1
  O  O25  1  0.21603988  0.74970080  0.94198836  1
  O  O26  1  0.72696134  0.43957141  0.24399101  1
  O  O27  1  0.43737114  0.39570765  0.98454032  1
  O  O28  1  0.72696134  0.24399101  0.58947524  1
  O  O29  1  0.78906309  0.05138521  0.90459331  1
  O  O30  1  0.72696134  0.58947524  0.43957141  1
  O  O31  1  0.56822862  0.81700288  0.61009642  1
  O  O32  1  0.78906309  0.90459331  0.25495938  1
  O  O33  1  0.93381998  0.67304264  0.50563315  1
  O  O34  1  0.93381998  0.50563315  0.88750423  1
  O  O35  1  0.93381998  0.88750423  0.67304264  1
