# generated using pymatgen
data_NaFeO3
_symmetry_space_group_name_H-M   'P 1'
_cell_length_a   5.08775914
_cell_length_b   6.04125105
_cell_length_c   5.08775983
_cell_angle_alpha   114.90310217
_cell_angle_beta   59.99999783
_cell_angle_gamma   114.90310590
_symmetry_Int_Tables_number   1
_chemical_formula_structural   NaFeO3
_chemical_formula_sum   'Na2 Fe2 O6'
_cell_volume   118.34198754
_cell_formula_units_Z   2
loop_
 _symmetry_equiv_pos_site_id
 _symmetry_equiv_pos_as_xyz
  1  'x, y, z'
loop_
 _atom_site_type_symbol
 _atom_site_label
 _atom_site_symmetry_multiplicity
 _atom_site_fract_x
 _atom_site_fract_y
 _atom_site_fract_z
 _atom_site_occupancy
  Na  Na0  1  0.63971989  0.91916068  0.63971989  1
  Na  Na1  1  0.36027911  0.08083932  0.36027911  1
  Fe  Fe2  1  0.16310187  0.48930660  0.16310187  1
  Fe  Fe3  1  0.83689813  0.51069340  0.83689813  1
  O  O4  1  0.03851918  0.29860064  0.43981799  1
  O  O5  1  0.56018201  0.70139936  0.17973652  1
  O  O6  1  0.17973652  0.70139936  0.96148082  1
  O  O7  1  0.82026348  0.29860064  0.03851918  1
  O  O8  1  0.43981799  0.29860064  0.82026348  1
  O  O9  1  0.96148082  0.70139936  0.56018201  1
