# generated using pymatgen
data_LiMn2(BO3)2
_symmetry_space_group_name_H-M   'P 1'
_cell_length_a   5.78873479
_cell_length_b   9.79249853
_cell_length_c   9.12736512
_cell_angle_alpha   97.89385471
_cell_angle_beta   102.13515687
_cell_angle_gamma   80.85835856
_symmetry_Int_Tables_number   1
_chemical_formula_structural   LiMn2(BO3)2
_chemical_formula_sum   'Li4 Mn8 B8 O24'
_cell_volume   496.50520860
_cell_formula_units_Z   4
loop_
 _symmetry_equiv_pos_site_id
 _symmetry_equiv_pos_as_xyz
  1  'x, y, z'
loop_
 _atom_site_type_symbol
 _atom_site_label
 _atom_site_symmetry_multiplicity
 _atom_site_fract_x
 _atom_site_fract_y
 _atom_site_fract_z
 _atom_site_occupancy
  Li  Li0  1  0.70836711  0.96680113  0.53477974  1
  Li  Li1  1  0.79093307  0.54087391  0.47014815  1
  Li  Li2  1  0.54902054  0.78827657  0.96969073  1
  Li  Li3  1  0.04578033  0.28704186  0.97528060  1
  Mn  Mn4  1  0.77393982  0.98276766  0.18340633  1
  Mn  Mn5  1  0.00070427  0.25603500  0.32043653  1
  Mn  Mn6  1  0.73247706  0.51876004  0.82019591  1
  Mn  Mn7  1  0.47176310  0.77950285  0.30646582  1
  Mn  Mn8  1  0.50120209  0.24232230  0.69122555  1
  Mn  Mn9  1  0.26602767  0.48343014  0.20818425  1
  Mn  Mn10  1  0.03038405  0.72278631  0.70606212  1
  Mn  Mn11  1  0.23912070  0.01699027  0.78924476  1
  B  B12  1  0.97277464  0.28232780  0.63627686  1
  B  B13  1  0.72969225  0.52496710  0.14077748  1
  B  B14  1  0.76660436  0.97301761  0.84971126  1
  B  B15  1  0.49084862  0.76663271  0.63630885  1
  B  B16  1  0.53016427  0.21827740  0.36952518  1
  B  B17  1  0.23205798  0.02423260  0.11837760  1
  B  B18  1  0.26421111  0.47425087  0.87564568  1
  B  B19  1  0.00841154  0.73474689  0.36930025  1
  O  O20  1  0.91054630  0.41365134  0.15396963  1
  O  O21  1  0.80395603  0.83677350  0.34259191  1
  O  O22  1  0.91977207  0.95028331  0.74206402  1
  O  O23  1  0.92182711  0.35400411  0.51166875  1
  O  O24  1  0.67239196  0.60144121  0.01888775  1
  O  O25  1  0.80673485  0.89696979  0.96688788  1
  O  O26  1  0.84666349  0.32022031  0.75459275  1
  O  O27  1  0.60631813  0.56904527  0.26028757  1
  O  O28  1  0.66415410  0.65248672  0.64907008  1
  O  O29  1  0.41367819  0.91134269  0.13576188  1
  O  O30  1  0.68364186  0.19857171  0.26576136  1
  O  O31  1  0.45093348  0.84672639  0.51927823  1
  O  O32  1  0.58408445  0.14700304  0.49116032  1
  O  O33  1  0.36628007  0.80943985  0.75600733  1
  O  O34  1  0.56108228  0.06751723  0.81449389  1
  O  O35  1  0.31917630  0.31045421  0.33746812  1
  O  O36  1  0.41858302  0.45989033  0.77229572  1
  O  O37  1  0.16241377  0.71214988  0.26542271  1
  O  O38  1  0.17958693  0.09524672  0.99471956  1
  O  O39  1  0.30365064  0.39806942  0.99200954  1
  O  O40  1  0.04410967  0.65666932  0.48448336  1
  O  O41  1  0.10616124  0.06507173  0.23498527  1
  O  O42  1  0.15846142  0.17571645  0.65583649  1
  O  O43  1  0.05464305  0.56685040  0.84052122  1
