# generated using pymatgen
data_SmH10S3N3O11
_symmetry_space_group_name_H-M   'P 1'
_cell_length_a   7.92462907
_cell_length_b   9.17616030
_cell_length_c   9.24946097
_cell_angle_alpha   117.47905142
_cell_angle_beta   95.12145770
_cell_angle_gamma   92.41094339
_symmetry_Int_Tables_number   1
_chemical_formula_structural   SmH10S3N3O11
_chemical_formula_sum   'Sm2 H20 S6 N6 O22'
_cell_volume   591.69006863
_cell_formula_units_Z   2
loop_
 _symmetry_equiv_pos_site_id
 _symmetry_equiv_pos_as_xyz
  1  'x, y, z'
loop_
 _atom_site_type_symbol
 _atom_site_label
 _atom_site_symmetry_multiplicity
 _atom_site_fract_x
 _atom_site_fract_y
 _atom_site_fract_z
 _atom_site_occupancy
  Sm  Sm0  1  0.21774517  0.38197311  0.21996435  1
  Sm  Sm1  1  0.78225483  0.61802689  0.78003565  1
  H  H2  1  0.12841938  0.96468503  0.32689653  1
  H  H3  1  0.14137267  0.24636617  0.62572807  1
  H  H4  1  0.20097189  0.44887173  0.74540405  1
  H  H5  1  0.32048233  0.32753395  0.88497875  1
  H  H6  1  0.32328332  0.89660790  0.32353244  1
  H  H7  1  0.36721621  0.78850118  0.78574716  1
  H  H8  1  0.27092560  0.02949264  0.14480155  1
  H  H9  1  0.29367393  0.03591243  0.97495542  1
  H  H10  1  0.39988111  0.88207216  0.67210617  1
  H  H11  1  0.49485934  0.33927253  0.99556009  1
  H  H12  1  0.50514066  0.66072747  0.00443991  1
  H  H13  1  0.60011889  0.11792784  0.32789383  1
  H  H14  1  0.70632607  0.96408757  0.02504458  1
  H  H15  1  0.72907440  0.97050736  0.85519845  1
  H  H16  1  0.63278379  0.21149882  0.21425284  1
  H  H17  1  0.67671668  0.10339210  0.67646756  1
  H  H18  1  0.67951767  0.67246605  0.11502125  1
  H  H19  1  0.79902811  0.55112827  0.25459595  1
  H  H20  1  0.85862733  0.75363383  0.37427193  1
  H  H21  1  0.87158062  0.03531497  0.67310347  1
  S  S22  1  0.13474680  0.76211685  0.61913092  1
  S  S23  1  0.14510050  0.72121869  0.10446685  1
  S  S24  1  0.39906789  0.32232747  0.58434860  1
  S  S25  1  0.60093211  0.67767253  0.41565140  1
  S  S26  1  0.85489950  0.27878131  0.89553315  1
  S  S27  1  0.86525320  0.23788315  0.38086908  1
  N  N28  1  0.24159826  0.33277882  0.69634672  1
  N  N29  1  0.22070939  0.90789027  0.25339672  1
  N  N30  1  0.31501600  0.86185512  0.74050260  1
  N  N31  1  0.68498400  0.13814488  0.25949740  1
  N  N32  1  0.77929061  0.09210973  0.74660328  1
  N  N33  1  0.75840174  0.66722118  0.30365328  1
  O  O34  1  0.02089142  0.25213898  0.95905314  1
  O  O35  1  0.03493664  0.72982112  0.73026031  1
  O  O36  1  0.06354012  0.87426200  0.56416357  1
  O  O37  1  0.12539923  0.60700016  0.17546984  1
  O  O38  1  0.17306777  0.60526217  0.48350860  1
  O  O39  1  0.27059743  0.67369305  0.98801062  1
  O  O40  1  0.37020329  0.33567917  0.99176364  1
  O  O41  1  0.32606994  0.29795842  0.42186596  1
  O  O42  1  0.29784984  0.10280584  0.09514490  1
  O  O43  1  0.49727316  0.48487850  0.68170212  1
  O  O44  1  0.48945804  0.18290064  0.57063074  1
  O  O45  1  0.51054196  0.81709936  0.42936926  1
  O  O46  1  0.50272684  0.51512150  0.31829788  1
  O  O47  1  0.70215016  0.89719416  0.90485510  1
  O  O48  1  0.67393006  0.70204158  0.57813404  1
  O  O49  1  0.62979671  0.66432083  0.00823636  1
  O  O50  1  0.72940257  0.32630695  0.01198938  1
  O  O51  1  0.82693223  0.39473783  0.51649140  1
  O  O52  1  0.87460077  0.39299984  0.82453016  1
  O  O53  1  0.93645988  0.12573800  0.43583643  1
  O  O54  1  0.96506336  0.27017888  0.26973969  1
  O  O55  1  0.97910858  0.74786102  0.04094686  1
