# generated using pymatgen
data_LiV4O5F7
_symmetry_space_group_name_H-M   'P 1'
_cell_length_a   5.26575827
_cell_length_b   5.45422832
_cell_length_c   7.25544419
_cell_angle_alpha   86.23096146
_cell_angle_beta   89.57327996
_cell_angle_gamma   90.64881534
_symmetry_Int_Tables_number   1
_chemical_formula_structural   LiV4O5F7
_chemical_formula_sum   'Li1 V4 O5 F7'
_cell_volume   207.91001837
_cell_formula_units_Z   1
loop_
 _symmetry_equiv_pos_site_id
 _symmetry_equiv_pos_as_xyz
  1  'x, y, z'
loop_
 _atom_site_type_symbol
 _atom_site_label
 _atom_site_symmetry_multiplicity
 _atom_site_fract_x
 _atom_site_fract_y
 _atom_site_fract_z
 _atom_site_occupancy
  Li  Li0  1  0.01993139  0.41930491  0.20052435  1
  V  V1  1  0.49019560  0.50595042  0.47878584  1
  V  V2  1  0.51752928  0.50647993  0.97515869  1
  V  V3  1  0.98800156  0.96858192  0.02052069  1
  V  V4  1  0.99745385  0.00253201  0.51620120  1
  O  O5  1  0.07675726  0.01861200  0.25423761  1
  O  O6  1  0.40463817  0.50003570  0.25196007  1
  O  O7  1  0.57417836  0.49653479  0.74472522  1
  O  O8  1  0.81513968  0.68452337  0.04747301  1
  O  O9  1  0.92935449  0.00821636  0.74774680  1
  F  F10  1  0.18571829  0.68838334  0.54563924  1
  F  F11  1  0.19100967  0.30907571  0.96839973  1
  F  F12  1  0.30933790  0.80455081  0.96005909  1
  F  F13  1  0.31748407  0.19150380  0.54545696  1
  F  F14  1  0.68560169  0.81440968  0.45467660  1
  F  F15  1  0.70039184  0.20078661  0.05380145  1
  F  F16  1  0.81768087  0.32888365  0.44119447  1
