# generated using pymatgen
data_LiCrPO5
_symmetry_space_group_name_H-M   'P 1'
_cell_length_a   7.60206352
_cell_length_b   6.04002591
_cell_length_c   7.76738059
_cell_angle_alpha   90.00379587
_cell_angle_beta   89.99477934
_cell_angle_gamma   89.99869755
_symmetry_Int_Tables_number   1
_chemical_formula_structural   LiCrPO5
_chemical_formula_sum   'Li4 Cr4 P4 O20'
_cell_volume   356.65217643
_cell_formula_units_Z   4
loop_
 _symmetry_equiv_pos_site_id
 _symmetry_equiv_pos_as_xyz
  1  'x, y, z'
loop_
 _atom_site_type_symbol
 _atom_site_label
 _atom_site_symmetry_multiplicity
 _atom_site_fract_x
 _atom_site_fract_y
 _atom_site_fract_z
 _atom_site_occupancy
  Li  Li0  1  0.14006282  0.24998716  0.66412927  1
  Li  Li1  1  0.35992834  0.75000207  0.16413865  1
  Li  Li2  1  0.64006143  0.25000078  0.83585875  1
  Li  Li3  1  0.85993501  0.75003246  0.33587832  1
  Cr  Cr4  1  0.00003412  0.00000854  0.99997311  1
  Cr  Cr5  1  0.99995251  0.50001010  0.00004114  1
  Cr  Cr6  1  0.50000915  -0.00000217  0.50001041  1
  Cr  Cr7  1  0.50001849  0.50003816  0.49996167  1
  P  P8  1  0.13990539  0.74995880  0.66578356  1
  P  P9  1  0.36018637  0.24998618  0.16574973  1
  P  P10  1  0.63981461  0.74999326  0.83422392  1
  P  P11  1  0.86011941  0.24997267  0.33420495  1
  O  O12  1  0.99914270  0.24999974  0.46941160  1
  O  O13  1  0.11298939  0.74999491  0.08911752  1
  O  O14  1  0.13336822  0.53924149  0.78299799  1
  O  O15  1  0.13340071  0.96074506  0.78298518  1
  O  O16  1  0.16875690  0.24999965  0.07989865  1
  O  O17  1  0.33124528  0.74999869  0.57987231  1
  O  O18  1  0.36662084  0.03926578  0.28299256  1
  O  O19  1  0.36660594  0.46073595  0.28299109  1
  O  O20  1  0.38701089  0.25001868  0.58910735  1
  O  O21  1  0.50088202  0.75000146  0.96933664  1
  O  O22  1  0.49910820  0.24999273  0.03066468  1
  O  O23  1  0.61301005  0.74999883  0.41088701  1
  O  O24  1  0.63338994  0.53924959  0.71699380  1
  O  O25  1  0.63338829  0.96074089  0.71701603  1
  O  O26  1  0.66876996  0.24999787  0.42010590  1
  O  O27  1  0.83122921  0.75000711  0.92010900  1
  O  O28  1  0.86660448  0.03927097  0.21700601  1
  O  O29  1  0.86658454  0.46074539  0.21705730  1
  O  O30  1  0.88700573  0.25000169  0.91089406  1
  O  O31  1  0.00085907  0.75000551  0.53060184  1
