# generated using pymatgen
data_Li17Cr2O12
_symmetry_space_group_name_H-M   'P 1'
_cell_length_a   5.93237874
_cell_length_b   5.47705082
_cell_length_c   8.07882794
_cell_angle_alpha   89.97045537
_cell_angle_beta   83.35321149
_cell_angle_gamma   90.29982886
_symmetry_Int_Tables_number   1
_chemical_formula_structural   Li17Cr2O12
_chemical_formula_sum   'Li17 Cr2 O12'
_cell_volume   260.72870288
_cell_formula_units_Z   1
loop_
 _symmetry_equiv_pos_site_id
 _symmetry_equiv_pos_as_xyz
  1  'x, y, z'
loop_
 _atom_site_type_symbol
 _atom_site_label
 _atom_site_symmetry_multiplicity
 _atom_site_fract_x
 _atom_site_fract_y
 _atom_site_fract_z
 _atom_site_occupancy
  Li  Li0  1  0.32085434  0.99424250  0.15856767  1
  Li  Li1  1  0.72960397  0.86472190  0.62207699  1
  Li  Li2  1  0.42185244  0.82307838  0.92091293  1
  Li  Li3  1  0.04342904  0.79760849  0.30133156  1
  Li  Li4  1  0.08534600  0.67048490  0.57126948  1
  Li  Li5  1  0.45896215  0.65444050  0.21032787  1
  Li  Li6  1  0.77674090  0.64633779  0.87108112  1
  Li  Li7  1  0.17467886  0.48690636  0.84295182  1
  Li  Li8  1  0.83087110  0.51436067  0.14891928  1
  Li  Li9  1  0.21753646  0.37385250  0.12465682  1
  Li  Li10  1  0.91431890  0.32867627  0.42987626  1
  Li  Li11  1  0.55855971  0.30900706  0.79555824  1
  Li  Li12  1  0.93824597  0.19655102  0.70719815  1
  Li  Li13  1  0.60680810  0.18835743  0.05656984  1
  Li  Li14  1  0.26311621  0.14508204  0.39818192  1
  Li  Li15  1  0.31698741  0.99952381  0.66334640  1
  Li  Li16  1  0.67253055  0.00759526  0.33779770  1
  Cr  Cr17  1  0.50099726  0.49732459  0.50417302  1
  Cr  Cr18  1  0.99560244  0.00217090  0.99647503  1
  O  O19  1  0.99847194  0.86173340  0.76072925  1
  O  O20  1  0.67710410  0.84356230  0.07248093  1
  O  O21  1  0.33752921  0.80110307  0.41857246  1
  O  O22  1  0.16789065  0.70111485  0.07876882  1
  O  O23  1  0.79366218  0.65118336  0.42750908  1
  O  O24  1  0.50323827  0.64300300  0.72501534  1
  O  O25  1  0.19833538  0.34813942  0.57858898  1
  O  O26  1  0.49520664  0.33064475  0.27056147  1
  O  O27  1  0.84958026  0.32171854  0.92425561  1
  O  O28  1  0.65677460  0.19845871  0.57454629  1
  O  O29  1  0.31804808  0.15871865  0.93855979  1
  O  O30  1  0.01596387  0.13782556  0.23944789  1
