# generated using pymatgen
data_Li2Cu(PO3)4
_symmetry_space_group_name_H-M   'P 1'
_cell_length_a   7.69317886
_cell_length_b   9.05903222
_cell_length_c   7.89035052
_cell_angle_alpha   90.00000000
_cell_angle_beta   114.64568854
_cell_angle_gamma   90.00000000
_symmetry_Int_Tables_number   1
_chemical_formula_structural   Li2Cu(PO3)4
_chemical_formula_sum   'Li4 Cu2 P8 O24'
_cell_volume   499.80648144
_cell_formula_units_Z   2
loop_
 _symmetry_equiv_pos_site_id
 _symmetry_equiv_pos_as_xyz
  1  'x, y, z'
loop_
 _atom_site_type_symbol
 _atom_site_label
 _atom_site_symmetry_multiplicity
 _atom_site_fract_x
 _atom_site_fract_y
 _atom_site_fract_z
 _atom_site_occupancy
  Li  Li0  1  0.11567650  0.69610794  0.35461405  1
  Li  Li1  1  0.61567650  0.80389206  0.85461405  1
  Li  Li2  1  0.38432350  0.19610794  0.14538595  1
  Li  Li3  1  0.88432350  0.30389206  0.64538595  1
  Cu  Cu4  1  0.00000000  0.00000000  0.00000000  1
  Cu  Cu5  1  0.50000000  0.50000000  0.50000000  1
  P  P6  1  0.17729596  0.58495951  0.74140025  1
  P  P7  1  0.32270404  0.08495951  0.75859975  1
  P  P8  1  0.17823960  0.21373240  0.36554297  1
  P  P9  1  0.32176040  0.71373240  0.13445703  1
  P  P10  1  0.67823960  0.28626760  0.86554297  1
  P  P11  1  0.82176040  0.78626760  0.63445703  1
  P  P12  1  0.67729596  0.91504049  0.24140025  1
  P  P13  1  0.82270404  0.41504049  0.25859975  1
  O  O14  1  0.02975037  0.72345172  0.68781019  1
  O  O15  1  0.19631160  0.11540024  0.85686546  1
  O  O16  1  0.07843064  0.44168768  0.72288553  1
  O  O17  1  0.30192745  0.61293237  0.96280442  1
  O  O18  1  0.19807255  0.11293237  0.53719558  1
  O  O19  1  0.17742287  0.11372493  0.21106851  1
  O  O20  1  0.42156936  0.94168768  0.77711447  1
  O  O21  1  0.30368840  0.61540024  0.64313454  1
  O  O22  1  0.16749787  0.82678866  0.08985817  1
  O  O23  1  0.47024963  0.22345172  0.81218981  1
  O  O24  1  0.33250213  0.32678866  0.41014183  1
  O  O25  1  0.32257713  0.61372493  0.28893149  1
  O  O26  1  0.67742287  0.38627507  0.71106851  1
  O  O27  1  0.66749787  0.67321134  0.58985817  1
  O  O28  1  0.52975037  0.77654828  0.18781019  1
  O  O29  1  0.83250213  0.17321134  0.91014183  1
  O  O30  1  0.69631160  0.38459976  0.35686546  1
  O  O31  1  0.57843064  0.05831232  0.22288553  1
  O  O32  1  0.82257713  0.88627507  0.78893149  1
  O  O33  1  0.80192745  0.88706763  0.46280442  1
  O  O34  1  0.69807255  0.38706763  0.03719558  1
  O  O35  1  0.92156936  0.55831232  0.27711447  1
  O  O36  1  0.80368840  0.88459976  0.14313454  1
  O  O37  1  0.97024963  0.27654828  0.31218981  1
