# generated using pymatgen
data_Li3FePCO7
_symmetry_space_group_name_H-M   'P 1'
_cell_length_a   5.28731284
_cell_length_b   6.53186500
_cell_length_c   8.33234467
_cell_angle_alpha   89.90792836
_cell_angle_beta   90.12406192
_cell_angle_gamma   90.01213670
_symmetry_Int_Tables_number   1
_chemical_formula_structural   Li3FePCO7
_chemical_formula_sum   'Li6 Fe2 P2 C2 O14'
_cell_volume   287.76491697
_cell_formula_units_Z   2
loop_
 _symmetry_equiv_pos_site_id
 _symmetry_equiv_pos_as_xyz
  1  'x, y, z'
loop_
 _atom_site_type_symbol
 _atom_site_label
 _atom_site_symmetry_multiplicity
 _atom_site_fract_x
 _atom_site_fract_y
 _atom_site_fract_z
 _atom_site_occupancy
  Li  Li0  1  0.39984155  0.26777531  0.03449088  1
  Li  Li1  1  0.40025514  0.73249544  0.03520645  1
  Li  Li2  1  0.96827583  0.49948339  0.23919821  1
  Li  Li3  1  0.46907447  0.00043635  0.39353942  1
  Li  Li4  1  0.89961928  0.76742522  0.59810231  1
  Li  Li5  1  0.89902220  0.23203586  0.59866172  1
  Fe  Fe6  1  0.47805206  0.50004697  0.63974837  1
  Fe  Fe7  1  0.97851137  0.00008233  0.99309255  1
  P  P8  1  0.53148704  -0.00003437  0.72641295  1
  P  P9  1  0.03268129  0.50007779  0.90618754  1
  C  C10  1  0.98985759  0.00014185  0.30387887  1
  C  C11  1  0.49178289  0.49983564  0.32907739  1
  O  O12  1  0.98846798  0.31219947  0.01834154  1
  O  O13  1  0.98623023  0.68782286  0.01781607  1
  O  O14  1  0.20099939  0.99928369  0.22058710  1
  O  O15  1  0.77433436  0.00112179  0.22799932  1
  O  O16  1  0.50323426  0.49985860  0.17477102  1
  O  O17  1  0.99947465  0.00004462  0.45799160  1
  O  O18  1  0.27568247  0.49904405  0.40343219  1
  O  O19  1  0.70237568  0.50060534  0.41354509  1
  O  O20  1  0.48718884  0.18785657  0.61437421  1
  O  O21  1  0.48426030  0.81231826  0.61483963  1
  O  O22  1  0.32046926  0.50121916  0.86503763  1
  O  O23  1  0.87481890  0.49896243  0.75052248  1
  O  O24  1  0.37441931  0.00114506  0.88214833  1
  O  O25  1  0.81961266  0.99870733  0.76785014  1
