# generated using pymatgen
data_Fe10O9F11
_symmetry_space_group_name_H-M   'P 1'
_cell_length_a   4.77003576
_cell_length_b   4.77003576
_cell_length_c   15.48464094
_cell_angle_alpha   90.25721042
_cell_angle_beta   90.25721042
_cell_angle_gamma   91.40222563
_symmetry_Int_Tables_number   1
_chemical_formula_structural   Fe10O9F11
_chemical_formula_sum   'Fe10 O9 F11'
_cell_volume   352.21298624
_cell_formula_units_Z   1
loop_
 _symmetry_equiv_pos_site_id
 _symmetry_equiv_pos_as_xyz
  1  'x, y, z'
loop_
 _atom_site_type_symbol
 _atom_site_label
 _atom_site_symmetry_multiplicity
 _atom_site_fract_x
 _atom_site_fract_y
 _atom_site_fract_z
 _atom_site_occupancy
  Fe  Fe0  1  0.99949258  0.00050742  0.00000000  1
  Fe  Fe1  1  0.97572570  0.95677859  0.20697602  1
  Fe  Fe2  1  0.05631020  0.01122302  0.40196186  1
  Fe  Fe3  1  0.98877698  0.94368980  0.59803814  1
  Fe  Fe4  1  0.04322141  0.02427430  0.79302398  1
  Fe  Fe5  1  0.51562603  0.50778915  0.09281672  1
  Fe  Fe6  1  0.48141156  0.51858844  0.50000000  1
  Fe  Fe7  1  0.47291751  0.52069255  0.29861431  1
  Fe  Fe8  1  0.47930745  0.52708249  0.70138569  1
  Fe  Fe9  1  0.49221085  0.48437397  0.90718328  1
  O  O10  1  0.19066765  0.81017987  0.30126542  1
  O  O11  1  0.19434870  0.80565130  0.50000000  1
  O  O12  1  0.18982013  0.80933235  0.69873458  1
  O  O13  1  0.30875295  0.30272938  0.00252823  1
  O  O14  1  0.32294749  0.32101945  0.39974579  1
  O  O15  1  0.31998829  0.32041499  0.79889473  1
  O  O16  1  0.69727062  0.69124705  0.99747177  1
  O  O17  1  0.67958501  0.68001171  0.20110527  1
  O  O18  1  0.67898055  0.67705251  0.60025421  1
  F  F19  1  0.19275854  0.79127885  0.10918995  1
  F  F20  1  0.20872115  0.80724146  0.89081005  1
  F  F21  1  0.28605166  0.29063391  0.20124284  1
  F  F22  1  0.28914792  0.29552107  0.59968966  1
  F  F23  1  0.70447893  0.71085208  0.40031034  1
  F  F24  1  0.70936609  0.71394834  0.79875716  1
  F  F25  1  0.79700742  0.18883296  0.11169392  1
  F  F26  1  0.80713909  0.19286091  0.50000000  1
  F  F27  1  0.80426869  0.19747020  0.30311912  1
  F  F28  1  0.81116704  0.20299258  0.88830608  1
  F  F29  1  0.80252980  0.19573131  0.69688088  1
