# generated using pymatgen
data_Li2Mn2(SiO3)3
_symmetry_space_group_name_H-M   'P 1'
_cell_length_a   12.45932613
_cell_length_b   9.73064627
_cell_length_c   6.35629118
_cell_angle_alpha   90.00000000
_cell_angle_beta   90.00000000
_cell_angle_gamma   90.00000000
_symmetry_Int_Tables_number   1
_chemical_formula_structural   Li2Mn2(SiO3)3
_chemical_formula_sum   'Li8 Mn8 Si12 O36'
_cell_volume   770.61955102
_cell_formula_units_Z   4
loop_
 _symmetry_equiv_pos_site_id
 _symmetry_equiv_pos_as_xyz
  1  'x, y, z'
loop_
 _atom_site_type_symbol
 _atom_site_label
 _atom_site_symmetry_multiplicity
 _atom_site_fract_x
 _atom_site_fract_y
 _atom_site_fract_z
 _atom_site_occupancy
  Li  Li0  1  0.08638850  0.55827761  0.14031538  1
  Li  Li1  1  0.08638850  0.94172239  0.14031538  1
  Li  Li2  1  0.41361150  0.05827761  0.64031538  1
  Li  Li3  1  0.41361150  0.44172239  0.64031538  1
  Li  Li4  1  0.58638850  0.55827761  0.35968462  1
  Li  Li5  1  0.58638850  0.94172239  0.35968462  1
  Li  Li6  1  0.91361150  0.05827761  0.85968462  1
  Li  Li7  1  0.91361150  0.44172239  0.85968462  1
  Mn  Mn8  1  0.15636492  0.49543300  0.69242048  1
  Mn  Mn9  1  0.15636492  0.00456700  0.69242048  1
  Mn  Mn10  1  0.34363508  0.99543300  0.19242048  1
  Mn  Mn11  1  0.34363508  0.50456700  0.19242048  1
  Mn  Mn12  1  0.65636492  0.49543300  0.80757952  1
  Mn  Mn13  1  0.65636492  0.00456700  0.80757952  1
  Mn  Mn14  1  0.84363508  0.99543300  0.30757952  1
  Mn  Mn15  1  0.84363508  0.50456700  0.30757952  1
  Si  Si16  1  0.03281753  0.75000000  0.52207667  1
  Si  Si17  1  0.07652123  0.25000000  0.04348351  1
  Si  Si18  1  0.21722342  0.25000000  0.42718703  1
  Si  Si19  1  0.28277658  0.75000000  0.92718703  1
  Si  Si20  1  0.42347877  0.75000000  0.54348351  1
  Si  Si21  1  0.46718247  0.25000000  0.02207667  1
  Si  Si22  1  0.53281753  0.75000000  0.97792333  1
  Si  Si23  1  0.57652123  0.25000000  0.45651649  1
  Si  Si24  1  0.71722342  0.25000000  0.07281297  1
  Si  Si25  1  0.78277658  0.75000000  0.57281297  1
  Si  Si26  1  0.92347877  0.75000000  0.95651649  1
  Si  Si27  1  0.96718247  0.25000000  0.47792333  1
  O  O28  1  0.02518246  0.75000000  0.78484313  1
  O  O29  1  0.06688795  0.10517481  0.92128371  1
  O  O30  1  0.06688795  0.39482519  0.92128371  1
  O  O31  1  0.09075908  0.60929849  0.44745508  1
  O  O32  1  0.09075908  0.89070151  0.44745508  1
  O  O33  1  0.09815511  0.25000000  0.54506806  1
  O  O34  1  0.22448992  0.89440166  0.98968442  1
  O  O35  1  0.22448992  0.60559834  0.98968442  1
  O  O36  1  0.19322726  0.25000000  0.17192681  1
  O  O37  1  0.30677274  0.75000000  0.67192681  1
  O  O38  1  0.27551008  0.10559834  0.48968442  1
  O  O39  1  0.27551008  0.39440166  0.48968442  1
  O  O40  1  0.40184489  0.75000000  0.04506806  1
  O  O41  1  0.40924092  0.10929849  0.94745508  1
  O  O42  1  0.40924092  0.39070151  0.94745508  1
  O  O43  1  0.43311205  0.60517481  0.42128371  1
  O  O44  1  0.43311205  0.89482519  0.42128371  1
  O  O45  1  0.47481754  0.25000000  0.28484313  1
  O  O46  1  0.52518246  0.75000000  0.71515687  1
  O  O47  1  0.56688795  0.10517481  0.57871629  1
  O  O48  1  0.56688795  0.39482519  0.57871629  1
  O  O49  1  0.59075908  0.60929849  0.05254492  1
  O  O50  1  0.59075908  0.89070151  0.05254492  1
  O  O51  1  0.59815511  0.25000000  0.95493194  1
  O  O52  1  0.72448992  0.60559834  0.51031558  1
  O  O53  1  0.72448992  0.89440166  0.51031558  1
  O  O54  1  0.69322726  0.25000000  0.32807319  1
  O  O55  1  0.80677274  0.75000000  0.82807319  1
  O  O56  1  0.77551008  0.10559834  0.01031558  1
  O  O57  1  0.77551008  0.39440166  0.01031558  1
  O  O58  1  0.90184489  0.75000000  0.45493194  1
  O  O59  1  0.90924092  0.10929849  0.55254492  1
  O  O60  1  0.90924092  0.39070151  0.55254492  1
  O  O61  1  0.93311205  0.60517481  0.07871629  1
  O  O62  1  0.93311205  0.89482519  0.07871629  1
  O  O63  1  0.97481754  0.25000000  0.21515687  1
