# generated using pymatgen
data_ZnP2H15C4NO8
_symmetry_space_group_name_H-M   'P 1'
_cell_length_a   8.55076159
_cell_length_b   13.93829021
_cell_length_c   10.27423100
_cell_angle_alpha   90.00000000
_cell_angle_beta   91.00232567
_cell_angle_gamma   90.00000000
_symmetry_Int_Tables_number   1
_chemical_formula_structural   ZnP2H15C4NO8
_chemical_formula_sum   'Zn4 P8 H60 C16 N4 O32'
_cell_volume   1224.32627013
_cell_formula_units_Z   4
loop_
 _symmetry_equiv_pos_site_id
 _symmetry_equiv_pos_as_xyz
  1  'x, y, z'
loop_
 _atom_site_type_symbol
 _atom_site_label
 _atom_site_symmetry_multiplicity
 _atom_site_fract_x
 _atom_site_fract_y
 _atom_site_fract_z
 _atom_site_occupancy
  Zn  Zn0  1  0.21703454  0.57514253  0.97450141  1
  Zn  Zn1  1  0.21703454  0.42485747  0.47450141  1
  Zn  Zn2  1  0.71854193  0.13143118  0.58468139  1
  Zn  Zn3  1  0.71854193  0.86856882  0.08468139  1
  P  P4  1  0.24594627  0.61391166  0.65863224  1
  P  P5  1  0.24594627  0.38608834  0.15863224  1
  P  P6  1  0.40745136  0.77381670  0.99202430  1
  P  P7  1  0.40745136  0.22618330  0.49202430  1
  P  P8  1  0.74956242  0.96328893  0.79317550  1
  P  P9  1  0.74956242  0.03671107  0.29317550  1
  P  P10  1  0.90775822  0.69463087  0.96244334  1
  P  P11  1  0.90775822  0.30536913  0.46244334  1
  H  H12  1  0.09052003  0.22208089  0.78544897  1
  H  H13  1  0.09317670  0.05595701  0.71936494  1
  H  H14  1  0.09052003  0.77791911  0.28544897  1
  H  H15  1  0.11432941  0.85988077  0.55594498  1
  H  H16  1  0.09317670  0.94404299  0.21936494  1
  H  H17  1  0.11421064  0.98371281  0.50458473  1
  H  H18  1  0.11432941  0.14011923  0.05594498  1
  H  H19  1  0.11421064  0.01628719  0.00458473  1
  H  H20  1  0.21894013  0.26221518  0.91537615  1
  H  H21  1  0.22452978  0.97281201  0.79896572  1
  H  H22  1  0.21894013  0.73778482  0.41537615  1
  H  H23  1  0.22452978  0.02718799  0.29896572  1
  H  H24  1  0.29668491  0.22955467  0.75932749  1
  H  H25  1  0.30126165  0.06502912  0.69414528  1
  H  H26  1  0.29668491  0.77044533  0.25932749  1
  H  H27  1  0.30126165  0.93497088  0.19414528  1
  H  H28  1  0.39035012  0.02622527  0.97827331  1
  H  H29  1  0.39035012  0.97377473  0.47827331  1
  H  H30  1  0.39292074  0.84868283  0.52144283  1
  H  H31  1  0.39292074  0.15131717  0.02144283  1
  H  H32  1  0.47230724  0.11183587  0.86848994  1
  H  H33  1  0.47230724  0.88816413  0.36848994  1
  H  H34  1  0.47820876  0.37935872  0.88386731  1
  H  H35  1  0.47820876  0.62064128  0.38386731  1
  H  H36  1  0.57989929  0.47547124  0.80835249  1
  H  H37  1  0.59117043  0.35631437  0.74043249  1
  H  H38  1  0.57989929  0.52452876  0.30835249  1
  H  H39  1  0.59117043  0.64368563  0.24043249  1
  H  H40  1  0.60611162  0.58698228  0.58738348  1
  H  H41  1  0.62478419  0.25495379  0.99820464  1
  H  H42  1  0.60611162  0.41301772  0.08738348  1
  H  H43  1  0.62478419  0.74504621  0.49820464  1
  H  H44  1  0.71135806  0.48872246  0.51405947  1
  H  H45  1  0.71135806  0.51127754  0.01405947  1
  H  H46  1  0.73992065  0.23278054  0.85608101  1
  H  H47  1  0.73992065  0.76721946  0.35608101  1
  H  H48  1  0.81677274  0.58176768  0.59924001  1
  H  H49  1  0.81677274  0.41823232  0.09924001  1
  H  H50  1  0.83385471  0.73873492  0.50964151  1
  H  H51  1  0.83385471  0.26126508  0.00964151  1
  H  H52  1  0.86269408  0.48446442  0.82479627  1
  H  H53  1  0.86269408  0.51553558  0.32479627  1
  H  H54  1  0.87499434  0.36607339  0.75356848  1
  H  H55  1  0.87499434  0.63392661  0.25356848  1
  H  H56  1  0.97051555  0.39267270  0.90810042  1
  H  H57  1  0.97051555  0.60732730  0.40810042  1
  H  H58  1  0.98562389  0.10031416  0.92634530  1
  H  H59  1  0.98562389  0.89968584  0.42634530  1
  H  H60  1  0.05030922  0.70163728  0.72950260  1
  H  H61  1  0.05030922  0.29836272  0.22950260  1
  H  H62  1  0.16281795  0.80692010  0.92823736  1
  H  H63  1  0.16281795  0.19307990  0.42823736  1
  H  H64  1  0.42123511  0.71892207  0.73713737  1
  H  H65  1  0.42123511  0.28107793  0.23713737  1
  H  H66  1  0.54887409  0.86653326  0.78555629  1
  H  H67  1  0.54887409  0.13346674  0.28555629  1
  H  H68  1  0.66468811  0.69487721  0.87930879  1
  H  H69  1  0.66468811  0.30512279  0.37930879  1
  H  H70  1  0.92335056  0.84597669  0.78583687  1
  H  H71  1  0.92335056  0.15402331  0.28583687  1
  C  C72  1  0.10034328  0.09093790  0.97354444  1
  C  C73  1  0.10034328  0.90906210  0.47354444  1
  C  C74  1  0.20670230  0.21456476  0.83102793  1
  C  C75  1  0.20985778  0.04630714  0.76299398  1
  C  C76  1  0.20670230  0.78543524  0.33102793  1
  C  C77  1  0.20985778  0.95369286  0.26299398  1
  C  C78  1  0.38241607  0.09977656  0.94129400  1
  C  C79  1  0.38241607  0.90022344  0.44129400  1
  C  C80  1  0.58303521  0.39859211  0.83005511  1
  C  C81  1  0.58303521  0.60140789  0.33005511  1
  C  C82  1  0.71343260  0.56508352  0.53897542  1
  C  C83  1  0.73130973  0.27386468  0.94663065  1
  C  C84  1  0.71343260  0.43491648  0.03897542  1
  C  C85  1  0.73130973  0.72613532  0.44663065  1
  C  C86  1  0.86948450  0.40740191  0.84423058  1
  C  C87  1  0.86948450  0.59259809  0.34423058  1
  N  N88  1  0.22488042  0.11294988  0.87712159  1
  N  N89  1  0.22488042  0.88705012  0.37712159  1
  N  N90  1  0.72434980  0.37870862  0.91466690  1
  N  N91  1  0.72434980  0.62129038  0.41466690  1
  O  O92  1  0.00337340  0.75603366  0.86391540  1
  O  O93  1  0.00337340  0.24396634  0.36391540  1
  O  O94  1  0.08359460  0.67019037  0.64480813  1
  O  O95  1  0.08359460  0.32980963  0.14480813  1
  O  O96  1  0.25885647  0.84145296  0.96283592  1
  O  O97  1  0.25646714  0.55979602  0.78665793  1
  O  O98  1  0.25885647  0.15854704  0.46283592  1
  O  O99  1  0.25646714  0.44020398  0.28665793  1
  O  O100  1  0.26213724  0.55428337  0.53610216  1
  O  O101  1  0.26213724  0.44571663  0.03610216  1
  O  O102  1  0.35402483  0.32402682  0.54168534  1
  O  O103  1  0.35402483  0.67597318  0.04168534  1
  O  O104  1  0.38093093  0.69283994  0.64986511  1
  O  O105  1  0.38093093  0.30716006  0.14986511  1
  O  O106  1  0.50209308  0.76561863  0.86341349  1
  O  O107  1  0.50107161  0.17277019  0.59832947  1
  O  O108  1  0.50209308  0.23438137  0.36341349  1
  O  O109  1  0.50107161  0.82722981  0.09832947  1
  O  O110  1  0.58486407  0.92629351  0.73860762  1
  O  O111  1  0.58486407  0.07370649  0.23860762  1
  O  O112  1  0.75980489  0.95486779  0.94069122  1
  O  O113  1  0.75872592  0.65149765  0.88472081  1
  O  O114  1  0.75980489  0.04513221  0.44069122  1
  O  O115  1  0.75872592  0.34850235  0.38472081  1
  O  O116  1  0.77093393  0.06622387  0.74769229  1
  O  O117  1  0.77093393  0.93377613  0.24769229  1
  O  O118  1  0.85212277  0.24530150  0.57799673  1
  O  O119  1  0.85212277  0.75469850  0.07799673  1
  O  O120  1  0.88151922  0.89959357  0.72824039  1
  O  O121  1  0.88151922  0.10040643  0.22824039  1
  O  O122  1  0.99945877  0.39317537  0.50912470  1
  O  O123  1  0.99945877  0.60682463  0.00912470  1
