# generated using pymatgen
data_Ca3(CuO3)2
_symmetry_space_group_name_H-M   'P 1'
_cell_length_a   6.77976597
_cell_length_b   3.70558471
_cell_length_c   6.56494717
_cell_angle_alpha   106.39304786
_cell_angle_beta   105.14282872
_cell_angle_gamma   90.00000260
_symmetry_Int_Tables_number   1
_chemical_formula_structural   Ca3(CuO3)2
_chemical_formula_sum   'Ca3 Cu2 O6'
_cell_volume   152.24761387
_cell_formula_units_Z   1
loop_
 _symmetry_equiv_pos_site_id
 _symmetry_equiv_pos_as_xyz
  1  'x, y, z'
loop_
 _atom_site_type_symbol
 _atom_site_label
 _atom_site_symmetry_multiplicity
 _atom_site_fract_x
 _atom_site_fract_y
 _atom_site_fract_z
 _atom_site_occupancy
  Ca  Ca0  1  0.18024850  0.84309150  0.68618301  1
  Ca  Ca1  1  0.66046217  0.84172168  0.68344336  1
  Ca  Ca2  1  0.82714057  0.14840916  0.29681832  1
  Cu  Cu3  1  0.01590808  0.50705518  0.01411036  1
  Cu  Cu4  1  0.49384218  0.51288531  0.02577063  1
  O  O5  1  0.97459140  0.98677412  0.97354824  1
  O  O6  1  0.51350066  0.99117756  0.98235513  1
  O  O7  1  0.41644575  0.35711224  0.71422349  1
  O  O8  1  0.93327619  0.34624565  0.69249031  1
  O  O9  1  0.04562021  0.65546806  0.31093712  1
  O  O10  1  0.61438728  0.66090552  0.32181204  1
