# generated using pymatgen
data_Bi2TeO2
_symmetry_space_group_name_H-M   'P 1'
_cell_length_a   4.01921997
_cell_length_b   7.00816344
_cell_length_c   4.01761861
_cell_angle_alpha   73.26626052
_cell_angle_beta   90.00197266
_cell_angle_gamma   106.46084330
_symmetry_Int_Tables_number   1
_chemical_formula_structural   Bi2TeO2
_chemical_formula_sum   'Bi2 Te1 O2'
_cell_volume   103.52105925
_cell_formula_units_Z   1
loop_
 _symmetry_equiv_pos_site_id
 _symmetry_equiv_pos_as_xyz
  1  'x, y, z'
loop_
 _atom_site_type_symbol
 _atom_site_label
 _atom_site_symmetry_multiplicity
 _atom_site_fract_x
 _atom_site_fract_y
 _atom_site_fract_z
 _atom_site_occupancy
  Bi  Bi0  1  0.65486138  0.30758656  0.34871578  1
  Bi  Bi1  1  0.34485490  0.69644257  0.65309419  1
  Te  Te2  1  0.00472015  0.00147647  0.99754911  1
  O  O3  1  0.25131832  0.50173729  0.24982994  1
  O  O4  1  0.75163525  0.50180611  0.74959798  1
