# generated using pymatgen
data_Li4Cr3Co3(WO8)2
_symmetry_space_group_name_H-M   'P 1'
_cell_length_a   5.94218283
_cell_length_b   5.95156680
_cell_length_c   9.67372077
_cell_angle_alpha   89.99253146
_cell_angle_beta   90.42718836
_cell_angle_gamma   120.07010030
_symmetry_Int_Tables_number   1
_chemical_formula_structural   Li4Cr3Co3(WO8)2
_chemical_formula_sum   'Li4 Cr3 Co3 W2 O16'
_cell_volume   296.05912551
_cell_formula_units_Z   1
loop_
 _symmetry_equiv_pos_site_id
 _symmetry_equiv_pos_as_xyz
  1  'x, y, z'
loop_
 _atom_site_type_symbol
 _atom_site_label
 _atom_site_symmetry_multiplicity
 _atom_site_fract_x
 _atom_site_fract_y
 _atom_site_fract_z
 _atom_site_occupancy
  Li  Li0  1  0.34183105  0.67085633  0.90906162  1
  Li  Li1  1  0.99447942  0.99721343  0.98655574  1
  Li  Li2  1  0.99480190  0.99730617  0.49330843  1
  Li  Li3  1  0.67039351  0.33523290  0.40340728  1
  Cr  Cr4  1  0.16767263  0.83139396  0.21306821  1
  Cr  Cr5  1  0.16767176  0.33625119  0.21304164  1
  Cr  Cr6  1  0.34417469  0.17207657  0.71398142  1
  Co  Co7  1  0.65600241  0.82800940  0.21375735  1
  Co  Co8  1  0.83346011  0.65804728  0.71443325  1
  Co  Co9  1  0.83340753  0.17545217  0.71443584  1
  W  W10  1  0.33895741  0.66955330  0.48718638  1
  W  W11  1  0.66630349  0.33316745  0.98660430  1
  O  O12  1  0.19045368  0.84148508  0.58371296  1
  O  O13  1  0.04178653  0.52081397  0.34197598  1
  O  O14  1  0.33744552  0.66876455  0.11227335  1
  O  O15  1  0.98978307  0.99481282  0.30548916  1
  O  O16  1  -0.00029002  -0.00007399  0.79888364  1
  O  O17  1  0.19040936  0.34892863  0.58376914  1
  O  O18  1  0.48500254  0.95801808  0.33727534  1
  O  O19  1  0.48490298  0.52695469  0.33731663  1
  O  O20  1  0.33494905  0.16749623  0.09749723  1
  O  O21  1  0.65698404  0.82854393  0.57889959  1
  O  O22  1  0.50460413  0.46644154  0.85463388  1
  O  O23  1  0.50461261  0.03817995  0.85459842  1
  O  O24  1  0.66874613  0.33440708  0.60891539  1
  O  O25  1  0.81767050  0.66029509  0.09657864  1
  O  O26  1  0.96607307  0.48325628  0.87064998  1
  O  O27  1  0.81771091  0.15741492  0.09652922  1
