# generated using pymatgen
data_Li4Mn3Co2Sb3O16
_symmetry_space_group_name_H-M   'P 1'
_cell_length_a   6.18106866
_cell_length_b   6.09679424
_cell_length_c   9.81489348
_cell_angle_alpha   90.00488029
_cell_angle_beta   90.69202906
_cell_angle_gamma   119.55690130
_symmetry_Int_Tables_number   1
_chemical_formula_structural   Li4Mn3Co2Sb3O16
_chemical_formula_sum   'Li4 Mn3 Co2 Sb3 O16'
_cell_volume   321.70736894
_cell_formula_units_Z   1
loop_
 _symmetry_equiv_pos_site_id
 _symmetry_equiv_pos_as_xyz
  1  'x, y, z'
loop_
 _atom_site_type_symbol
 _atom_site_label
 _atom_site_symmetry_multiplicity
 _atom_site_fract_x
 _atom_site_fract_y
 _atom_site_fract_z
 _atom_site_occupancy
  Li  Li0  1  0.32600090  0.66300225  0.87574586  1
  Li  Li1  1  0.97453218  0.98724514  0.99271461  1
  Li  Li2  1  0.99053144  0.99529576  0.50614356  1
  Li  Li3  1  0.65314944  0.32660374  0.39672493  1
  Mn  Mn4  1  0.66327939  0.83165131  0.21696113  1
  Mn  Mn5  1  0.83249470  0.66330600  0.71507445  1
  Mn  Mn6  1  0.83251385  0.16921122  0.71514397  1
  Co  Co7  1  0.34606823  0.67304152  0.51152970  1
  Co  Co8  1  0.68623586  0.34314893  0.98137272  1
  Sb  Sb9  1  0.16909640  0.83114001  0.21521065  1
  Sb  Sb10  1  0.16908854  0.33800672  0.21519144  1
  Sb  Sb11  1  0.34384212  0.17191267  0.71506348  1
  O  O12  1  0.16972206  0.84910260  0.60169205  1
  O  O13  1  0.02801591  0.51402864  0.33216108  1
  O  O14  1  0.30603237  0.65304587  0.09665634  1
  O  O15  1  0.02462157  0.01235006  0.32248243  1
  O  O16  1  0.02143055  0.01043308  0.81472182  1
  O  O17  1  0.16949522  0.32059304  0.60181696  1
  O  O18  1  0.47495268  0.96343374  0.32972680  1
  O  O19  1  0.47492400  0.51153511  0.32973161  1
  O  O20  1  0.30849104  0.15425746  0.10169519  1
  O  O21  1  0.69302481  0.84647397  0.61133777  1
  O  O22  1  0.51618441  0.48105083  0.83674303  1
  O  O23  1  0.51643705  0.03518103  0.83665314  1
  O  O24  1  0.65066956  0.32555945  0.59922632  1
  O  O25  1  0.85129446  0.68721147  0.10632193  1
  O  O26  1  0.95656829  0.47836233  0.82370700  1
  O  O27  1  0.85130397  0.16411903  0.10628905  1
