# generated using pymatgen
data_Mn6O7F5
_symmetry_space_group_name_H-M   'P 1'
_cell_length_a   4.67392691
_cell_length_b   5.69043474
_cell_length_c   15.19510299
_cell_angle_alpha   90.26996798
_cell_angle_beta   90.13499667
_cell_angle_gamma   85.61255721
_symmetry_Int_Tables_number   1
_chemical_formula_structural   Mn6O7F5
_chemical_formula_sum   'Mn12 O14 F10'
_cell_volume   402.94963836
_cell_formula_units_Z   2
loop_
 _symmetry_equiv_pos_site_id
 _symmetry_equiv_pos_as_xyz
  1  'x, y, z'
loop_
 _atom_site_type_symbol
 _atom_site_label
 _atom_site_symmetry_multiplicity
 _atom_site_fract_x
 _atom_site_fract_y
 _atom_site_fract_z
 _atom_site_occupancy
  Mn  Mn0  1  0.01804309  0.16890539  0.42171810  1
  Mn  Mn1  1  0.02580189  0.85358637  0.24521214  1
  Mn  Mn2  1  0.98664883  0.14928879  0.08360590  1
  Mn  Mn3  1  0.01986574  0.16846748  0.74766990  1
  Mn  Mn4  1  0.02121187  0.84197092  0.58317864  1
  Mn  Mn5  1  0.03323672  0.85583097  0.91223236  1
  Mn  Mn6  1  0.46830129  0.34239126  0.59037568  1
  Mn  Mn7  1  0.46735306  0.34158552  0.92345599  1
  Mn  Mn8  1  0.53284966  0.35180726  0.25536583  1
  Mn  Mn9  1  0.48211392  0.64882807  0.07839526  1
  Mn  Mn10  1  0.47787059  0.63999578  0.41629410  1
  Mn  Mn11  1  0.48704034  0.63101405  0.75191038  1
  O  O12  1  0.21093939  0.11108471  0.63828760  1
  O  O13  1  0.20602787  0.10879083  0.97228937  1
  O  O14  1  0.22878404  0.88477969  0.13493686  1
  O  O15  1  0.22470886  0.88711857  0.47333556  1
  O  O16  1  0.23672841  0.88815599  0.80543623  1
  O  O17  1  0.28431805  0.61388869  0.30447192  1
  O  O18  1  0.27215235  0.39172917  0.48029121  1
  O  O19  1  0.26956677  0.60830307  0.64542745  1
  O  O20  1  0.28503876  0.39650691  0.81112585  1
  O  O21  1  0.25954776  0.61547085  0.97261122  1
  O  O22  1  0.70456108  0.37723369  0.02658085  1
  O  O23  1  0.73972366  0.39595418  0.36423289  1
  O  O24  1  0.71755156  0.37827096  0.69338107  1
  O  O25  1  0.78274321  0.11490489  0.19476224  1
  F  F26  1  0.25649189  0.11350082  0.30979666  1
  F  F27  1  0.27426606  0.38049483  0.14994331  1
  F  F28  1  0.73569504  0.62156663  0.18295491  1
  F  F29  1  0.72985080  0.62282838  0.52598324  1
  F  F30  1  0.74779963  0.62972104  0.85687100  1
  F  F31  1  0.74168748  0.11324959  0.53101758  1
  F  F32  1  0.78487853  0.89189366  0.35688129  1
  F  F33  1  0.76504314  0.87366758  0.01147540  1
  F  F34  1  0.76609905  0.12486795  0.85667433  1
  F  F35  1  0.75545562  0.86234548  0.69181569  1
