# generated using pymatgen
data_LiFe4(BO3)4
_symmetry_space_group_name_H-M   'P 1'
_cell_length_a   5.23888296
_cell_length_b   5.26686487
_cell_length_c   20.11006102
_cell_angle_alpha   89.51946319
_cell_angle_beta   90.06612261
_cell_angle_gamma   61.05736919
_symmetry_Int_Tables_number   1
_chemical_formula_structural   LiFe4(BO3)4
_chemical_formula_sum   'Li2 Fe8 B8 O24'
_cell_volume   485.55820427
_cell_formula_units_Z   2
loop_
 _symmetry_equiv_pos_site_id
 _symmetry_equiv_pos_as_xyz
  1  'x, y, z'
loop_
 _atom_site_type_symbol
 _atom_site_label
 _atom_site_symmetry_multiplicity
 _atom_site_fract_x
 _atom_site_fract_y
 _atom_site_fract_z
 _atom_site_occupancy
  Li  Li0  1  0.33514603  0.64246612  0.17135981  1
  Li  Li1  1  0.65528820  0.34554149  0.54991223  1
  Fe  Fe2  1  0.99454684  0.67548400  0.81074917  1
  Fe  Fe3  1  0.00118868  0.67242202  0.31013507  1
  Fe  Fe4  1  0.67178551  0.99703702  0.93493792  1
  Fe  Fe5  1  0.67526083  0.99398899  0.43573278  1
  Fe  Fe6  1  0.31668780  0.99692323  0.56153123  1
  Fe  Fe7  1  0.32172774  0.01880025  0.06147326  1
  Fe  Fe8  1  0.00567877  0.33184835  0.68491188  1
  Fe  Fe9  1  0.99411683  0.31424948  0.18812260  1
  B  B10  1  0.99949837  0.33959913  0.93582785  1
  B  B11  1  0.00236324  0.33784716  0.43684323  1
  B  B12  1  0.33379340  0.00691873  0.81134207  1
  B  B13  1  0.34137021  0.00349967  0.31182226  1
  B  B14  1  0.66035568  -0.00037108  0.68585545  1
  B  B15  1  0.66371857  0.99477366  0.18604142  1
  B  B16  1  0.99837552  0.66492528  0.56008438  1
  B  B17  1  0.98948899  0.66946579  0.06247488  1
  O  O18  1  0.11944357  0.27385200  0.78564920  1
  O  O19  1  0.12006379  0.27172230  0.29015000  1
  O  O20  1  0.26674529  0.12353816  0.96204774  1
  O  O21  1  0.98770510  0.59679204  0.91232526  1
  O  O22  1  0.27343364  0.11614249  0.45657309  1
  O  O23  1  0.98029921  0.59836348  0.41299627  1
  O  O24  1  0.59387276  0.99112014  0.83526375  1
  O  O25  1  0.26240983  0.65261523  0.56023703  1
  O  O26  1  0.60539929  0.98506830  0.33361937  1
  O  O27  1  0.21378791  0.72653489  0.07339907  1
  O  O28  1  0.29174845  0.77324178  0.81330334  1
  O  O29  1  0.30573628  0.76395944  0.30934192  1
  O  O30  1  0.71461526  0.22524576  0.67837679  1
  O  O31  1  0.65003903  0.25815303  0.18488862  1
  O  O32  1  0.76517525  0.29681147  0.93392254  1
  O  O33  1  0.39563267  0.02435442  0.66550587  1
  O  O34  1  0.75979132  0.30499146  0.44481836  1
  O  O35  1  0.42484481  0.96587000  0.16275435  1
  O  O36  1  0.96762615  0.42673369  0.58288364  1
  O  O37  1  0.01642582  0.40495007  0.08271368  1
  O  O38  1  0.74399845  0.91274492  0.53727086  1
  O  O39  1  0.72715824  0.87824958  0.03399390  1
  O  O40  1  0.87222122  0.73315816  0.71274395  1
  O  O41  1  0.91378845  0.74295989  0.20909794  1
