# generated using pymatgen
data_CaNi2S5
_symmetry_space_group_name_H-M   'P 1'
_cell_length_a   3.92711849
_cell_length_b   6.83794886
_cell_length_c   13.11459942
_cell_angle_alpha   90.01457211
_cell_angle_beta   90.00034690
_cell_angle_gamma   90.00011708
_symmetry_Int_Tables_number   1
_chemical_formula_structural   CaNi2S5
_chemical_formula_sum   'Ca2 Ni4 S10'
_cell_volume   352.17203702
_cell_formula_units_Z   2
loop_
 _symmetry_equiv_pos_site_id
 _symmetry_equiv_pos_as_xyz
  1  'x, y, z'
loop_
 _atom_site_type_symbol
 _atom_site_label
 _atom_site_symmetry_multiplicity
 _atom_site_fract_x
 _atom_site_fract_y
 _atom_site_fract_z
 _atom_site_occupancy
  Ca  Ca0  1  0.74999864  0.87939213  0.24998127  1
  Ca  Ca1  1  0.24999975  0.12061470  0.75006251  1
  Ni  Ni2  1  0.24999954  0.44493699  0.10121623  1
  Ni  Ni3  1  0.74999887  0.55496565  0.89877028  1
  Ni  Ni4  1  0.75000197  0.55513286  0.60119854  1
  Ni  Ni5  1  0.25000067  0.44502440  0.39878023  1
  S  S6  1  0.75000985  0.40719684  0.75000742  1
  S  S7  1  0.24999555  0.59279675  0.24995928  1
  S  S8  1  0.74999863  0.59551946  0.06493108  1
  S  S9  1  0.24999990  0.40427896  0.93503651  1
  S  S10  1  0.75000052  0.59550591  0.43509493  1
  S  S11  1  0.25000124  0.40465423  0.56484765  1
  S  S12  1  0.24999998  0.14141626  0.32986037  1
  S  S13  1  0.74999827  0.85856424  0.67018512  1
  S  S14  1  0.74998948  0.85855184  0.82986634  1
  S  S15  1  0.24999913  0.14144879  0.17020124  1
