# generated using pymatgen
data_Mn8O13F3
_symmetry_space_group_name_H-M   'P 1'
_cell_length_a   9.01737728
_cell_length_b   5.53659195
_cell_length_c   5.00523465
_cell_angle_alpha   90.31851059
_cell_angle_beta   90.49577207
_cell_angle_gamma   89.24659464
_symmetry_Int_Tables_number   1
_chemical_formula_structural   Mn8O13F3
_chemical_formula_sum   'Mn8 O13 F3'
_cell_volume   249.85437252
_cell_formula_units_Z   1
loop_
 _symmetry_equiv_pos_site_id
 _symmetry_equiv_pos_as_xyz
  1  'x, y, z'
loop_
 _atom_site_type_symbol
 _atom_site_label
 _atom_site_symmetry_multiplicity
 _atom_site_fract_x
 _atom_site_fract_y
 _atom_site_fract_z
 _atom_site_occupancy
  Mn  Mn0  1  0.00524921  0.17094936  0.25056630  1
  Mn  Mn1  1  0.00549919  0.86018829  0.73480588  1
  Mn  Mn2  1  0.24727945  0.35587902  0.73708097  1
  Mn  Mn3  1  0.24749496  0.66498201  0.25289624  1
  Mn  Mn4  1  0.49931467  0.85081152  0.75238014  1
  Mn  Mn5  1  0.49943700  0.11643305  0.25311997  1
  Mn  Mn6  1  0.75542005  0.35384845  0.76674703  1
  Mn  Mn7  1  0.74641762  0.65259336  0.25375123  1
  O  O8  1  0.11660930  0.11908917  0.91503313  1
  O  O9  1  0.11116751  0.89711269  0.41430402  1
  O  O10  1  0.13747534  0.39769380  0.41184810  1
  O  O11  1  0.13687899  0.61743796  0.91632052  1
  O  O12  1  0.36766913  0.61076007  0.57566161  1
  O  O13  1  0.38321226  0.10543782  0.57555907  1
  O  O14  1  0.38529423  0.88558662  0.07513660  1
  O  O15  1  0.61654868  0.10143005  0.93185073  1
  O  O16  1  0.61319042  0.88100623  0.43025173  1
  O  O17  1  0.62923456  0.60510159  0.92495674  1
  O  O18  1  0.86381119  0.39313183  0.08775030  1
  O  O19  1  0.86240289  0.61343590  0.58386759  1
  O  O20  1  0.88478321  0.11725148  0.57524401  1
  F  F21  1  0.37407959  0.37270258  0.08214982  1
  F  F22  1  0.62494154  0.36084796  0.43253982  1
  F  F23  1  0.88658900  0.89628820  0.06617843  1
