# generated using pymatgen
data_CrPO4
_symmetry_space_group_name_H-M   'P 1'
_cell_length_a   5.57789780
_cell_length_b   11.17098519
_cell_length_c   9.84195708
_cell_angle_alpha   90.00000000
_cell_angle_beta   91.78898254
_cell_angle_gamma   90.00000000
_symmetry_Int_Tables_number   1
_chemical_formula_structural   CrPO4
_chemical_formula_sum   'Cr8 P8 O32'
_cell_volume   612.95947249
_cell_formula_units_Z   8
loop_
 _symmetry_equiv_pos_site_id
 _symmetry_equiv_pos_as_xyz
  1  'x, y, z'
loop_
 _atom_site_type_symbol
 _atom_site_label
 _atom_site_symmetry_multiplicity
 _atom_site_fract_x
 _atom_site_fract_y
 _atom_site_fract_z
 _atom_site_occupancy
  Cr  Cr0  1  0.15870155  0.90307244  0.74177046  1
  Cr  Cr1  1  0.15870155  0.59692756  0.24177046  1
  Cr  Cr2  1  0.34813365  0.37822014  0.98958349  1
  Cr  Cr3  1  0.34813365  0.12177986  0.48958349  1
  Cr  Cr4  1  0.65186635  0.87822014  0.51041651  1
  Cr  Cr5  1  0.65186635  0.62177986  0.01041651  1
  Cr  Cr6  1  0.84129845  0.40307244  0.75822954  1
  Cr  Cr7  1  0.84129845  0.09692756  0.25822954  1
  P  P8  1  0.09479728  0.63840317  0.91444222  1
  P  P9  1  0.09479728  0.86159683  0.41444222  1
  P  P10  1  0.39071119  0.38612476  0.66373872  1
  P  P11  1  0.39071119  0.11387524  0.16373872  1
  P  P12  1  0.60928881  0.88612476  0.83626128  1
  P  P13  1  0.60928881  0.61387524  0.33626128  1
  P  P14  1  0.90520272  0.13840317  0.58555778  1
  P  P15  1  0.90520272  0.36159683  0.08555778  1
  O  O16  1  0.99890755  0.83592529  0.56266826  1
  O  O17  1  0.13025243  0.06699861  0.64430345  1
  O  O18  1  0.99890755  0.66407471  0.06266826  1
  O  O19  1  0.13025243  0.43300139  0.14430345  1
  O  O20  1  0.15093797  0.44979233  0.68197438  1
  O  O21  1  0.14719838  0.74568188  0.83220827  1
  O  O22  1  0.15093797  0.05020767  0.18197438  1
  O  O23  1  0.14719838  0.75431812  0.33220827  1
  O  O24  1  0.32656619  0.55832535  0.93309641  1
  O  O25  1  0.32656619  0.94167465  0.43309641  1
  O  O26  1  0.49720800  0.34303836  0.81285300  1
  O  O27  1  0.49720800  0.15696164  0.31285300  1
  O  O28  1  0.36932620  0.28025861  0.56663231  1
  O  O29  1  0.39773137  0.96899978  0.87306089  1
  O  O30  1  0.36932620  0.21974139  0.06663231  1
  O  O31  1  0.39773137  0.53100022  0.37306089  1
  O  O32  1  0.60226863  0.46899978  0.62693911  1
  O  O33  1  0.63067380  0.78025861  0.93336769  1
  O  O34  1  0.60226863  0.03100022  0.12693911  1
  O  O35  1  0.63067380  0.71974139  0.43336769  1
  O  O36  1  0.50279200  0.84303836  0.68714700  1
  O  O37  1  0.50279200  0.65696164  0.18714700  1
  O  O38  1  0.67343381  0.05832535  0.56690359  1
  O  O39  1  0.67343381  0.44167465  0.06690359  1
  O  O40  1  0.85280162  0.24568188  0.66779173  1
  O  O41  1  0.84906203  0.94979233  0.81802562  1
  O  O42  1  0.85280162  0.25431812  0.16779173  1
  O  O43  1  0.84906203  0.55020767  0.31802562  1
  O  O44  1  0.86974757  0.56699861  0.85569655  1
  O  O45  1  0.00109245  0.33592529  0.93733174  1
  O  O46  1  0.86974757  0.93300139  0.35569655  1
  O  O47  1  0.00109245  0.16407471  0.43733174  1
