# generated using pymatgen
data_LiFe8(BO3)8
_symmetry_space_group_name_H-M   'P 1'
_cell_length_a   5.25035330
_cell_length_b   5.22315818
_cell_length_c   20.19616675
_cell_angle_alpha   90.51626384
_cell_angle_beta   90.56706833
_cell_angle_gamma   61.10228623
_symmetry_Int_Tables_number   1
_chemical_formula_structural   LiFe8(BO3)8
_chemical_formula_sum   'Li1 Fe8 B8 O24'
_cell_volume   484.85562609
_cell_formula_units_Z   1
loop_
 _symmetry_equiv_pos_site_id
 _symmetry_equiv_pos_as_xyz
  1  'x, y, z'
loop_
 _atom_site_type_symbol
 _atom_site_label
 _atom_site_symmetry_multiplicity
 _atom_site_fract_x
 _atom_site_fract_y
 _atom_site_fract_z
 _atom_site_occupancy
  Li  Li0  1  0.35615090  0.66918852  0.92130310  1
  Fe  Fe1  1  0.98073747  0.67862317  0.81165498  1
  Fe  Fe2  1  0.99335043  0.67656157  0.31154683  1
  Fe  Fe3  1  0.68505113  0.00788400  0.93879066  1
  Fe  Fe4  1  0.67253440  0.99693743  0.43620313  1
  Fe  Fe5  1  0.32632959  0.00336916  0.56064448  1
  Fe  Fe6  1  0.32663690  0.00217657  0.06097662  1
  Fe  Fe7  1  0.00431602  0.32695610  0.68490074  1
  Fe  Fe8  1  0.00197906  0.32555423  0.18598580  1
  B  B9  1  0.00417395  0.33924256  0.93616432  1
  B  B10  1  0.00278979  0.33949089  0.43642842  1
  B  B11  1  0.33152709  0.01039559  0.81221270  1
  B  B12  1  0.33612478  0.00522411  0.31170611  1
  B  B13  1  0.66145843  0.99925204  0.68568873  1
  B  B14  1  0.65696665  0.99803420  0.18668152  1
  B  B15  1  0.99551795  0.66176496  0.56110248  1
  B  B16  1  0.99533944  0.66269025  0.06218356  1
  O  O17  1  0.12226523  0.27111095  0.78322479  1
  O  O18  1  0.12559511  0.27038020  0.28450303  1
  O  O19  1  0.25512929  0.09111379  0.95968365  1
  O  O20  1  0.03362947  0.57687847  0.91207448  1
  O  O21  1  0.26885181  0.12868221  0.46338196  1
  O  O22  1  0.98901095  0.59635875  0.41182450  1
  O  O23  1  0.59436291  0.98669922  0.83277551  1
  O  O24  1  0.22860040  0.70550715  0.56302265  1
  O  O25  1  0.59321219  0.99251772  0.33640735  1
  O  O26  1  0.23622720  0.69643462  0.05896099  1
  O  O27  1  0.27565866  0.78486115  0.82301810  1
  O  O28  1  0.29207432  0.77179272  0.31431662  1
  O  O29  1  0.70226264  0.23503645  0.68355538  1
  O  O30  1  0.70230716  0.23112237  0.18428672  1
  O  O31  1  0.74022195  0.35375598  0.93533668  1
  O  O32  1  0.40512875  0.00882649  0.66151766  1
  O  O33  1  0.77009502  0.29510599  0.43498532  1
  O  O34  1  0.40002632  0.00855368  0.16294041  1
  O  O35  1  0.00961596  0.40410109  0.58560705  1
  O  O36  1  0.01516921  0.40113730  0.08583040  1
  O  O37  1  0.72993693  0.87241463  0.53428753  1
  O  O38  1  0.72770824  0.87995371  0.03993413  1
  O  O39  1  0.87680901  0.73347702  0.71218973  1
  O  O40  1  0.86989428  0.73236201  0.21373819  1
