# generated using pymatgen
data_LiMn2(BO3)2
_symmetry_space_group_name_H-M   'P 1'
_cell_length_a   9.08453820
_cell_length_b   9.18735413
_cell_length_c   10.47190773
_cell_angle_alpha   89.99999966
_cell_angle_beta   90.37796829
_cell_angle_gamma   59.62490447
_symmetry_Int_Tables_number   1
_chemical_formula_structural   LiMn2(BO3)2
_chemical_formula_sum   'Li6 Mn12 B12 O36'
_cell_volume   754.02041855
_cell_formula_units_Z   6
loop_
 _symmetry_equiv_pos_site_id
 _symmetry_equiv_pos_as_xyz
  1  'x, y, z'
loop_
 _atom_site_type_symbol
 _atom_site_label
 _atom_site_symmetry_multiplicity
 _atom_site_fract_x
 _atom_site_fract_y
 _atom_site_fract_z
 _atom_site_occupancy
  Li  Li0  1  0.41416581  0.28353154  0.67628958  1
  Li  Li1  1  0.41416581  0.30230165  0.17628958  1
  Li  Li2  1  0.90983895  0.05415444  0.91597927  1
  Li  Li3  1  0.90983895  0.03600762  0.41597927  1
  Li  Li4  1  0.76999083  0.59483226  0.66898055  1
  Li  Li5  1  0.76999083  0.63517790  0.16898055  1
  Mn  Mn6  1  0.08198610  0.25294273  0.12517101  1
  Mn  Mn7  1  0.25455779  0.07516613  0.87662453  1
  Mn  Mn8  1  0.08198610  0.66507117  0.62517101  1
  Mn  Mn9  1  0.54603496  0.05136223  0.37893943  1
  Mn  Mn10  1  0.25455779  0.67027607  0.37662453  1
  Mn  Mn11  1  0.54603496  0.40260281  0.87893943  1
  Mn  Mn12  1  0.42692658  0.64293027  0.12055402  1
  Mn  Mn13  1  0.42692658  0.93014315  0.62055402  1
  Mn  Mn14  1  0.79161869  0.25298736  0.63412634  1
  Mn  Mn15  1  0.89627746  0.40181506  0.39300302  1
  Mn  Mn16  1  0.89627746  0.70190647  0.89300302  1
  Mn  Mn17  1  0.79161869  0.95539394  0.13412634  1
  B  B18  1  0.21131402  0.03900381  0.36595957  1
  B  B19  1  0.10804958  0.30489134  0.64340692  1
  B  B20  1  0.10804958  0.58705808  0.14340692  1
  B  B21  1  0.21131402  0.74968217  0.86595957  1
  B  B22  1  0.57578211  0.04653050  0.87284614  1
  B  B23  1  0.45365005  0.58807627  0.63022438  1
  B  B24  1  0.57578211  0.37768639  0.37284614  1
  B  B25  1  0.76429326  0.29785502  0.10848462  1
  B  B26  1  0.45365005  0.95827368  0.13022438  1
  B  B27  1  0.88673280  0.37145769  0.87547204  1
  B  B28  1  0.76429326  0.93785273  0.60848462  1
  B  B29  1  0.88673280  0.74180951  0.37547204  1
  O  O30  1  0.04690531  0.27864806  0.93735643  1
  O  O31  1  0.20036673  0.13790536  0.69585540  1
  O  O32  1  0.11643283  0.19951451  0.30689895  1
  O  O33  1  0.29659466  0.05516371  0.06636167  1
  O  O34  1  0.17761789  0.40375358  0.63973020  1
  O  O35  1  0.04690531  0.67444663  0.43735643  1
  O  O36  1  0.17761789  0.41862853  0.13973020  1
  O  O37  1  0.11643283  0.68405266  0.80689895  1
  O  O38  1  0.20036673  0.66172791  0.19585540  1
  O  O39  1  0.52074102  0.05064964  0.18979354  1
  O  O40  1  0.14943204  0.91694380  0.87565463  1
  O  O41  1  0.48987120  0.21672300  0.85378828  1
  O  O42  1  0.59066742  0.02905580  0.56853508  1
  O  O43  1  0.14943204  0.93362415  0.37565463  1
  O  O44  1  0.29659466  0.64824163  0.56636167  1
  O  O45  1  0.48987120  0.29340580  0.35378828  1
  O  O46  1  0.36789734  0.63351421  0.92198861  1
  O  O47  1  0.52074102  0.42860934  0.68979354  1
  O  O48  1  0.49586579  0.55020507  0.33678931  1
  O  O49  1  0.59066742  0.38027679  0.06853508  1
  O  O50  1  0.36789734  0.99858845  0.42198861  1
  O  O51  1  0.86700230  0.00524888  0.60547218  1
  O  O52  1  0.53507576  0.67546016  0.63180119  1
  O  O53  1  0.73902224  0.29995840  0.42557545  1
  O  O54  1  0.80448696  0.28184960  0.84230594  1
  O  O55  1  0.86700230  0.12774882  0.10547218  1
  O  O56  1  0.53507576  0.78946508  0.13180119  1
  O  O57  1  0.49586579  0.95393014  0.83678931  1
  O  O58  1  0.83317813  0.39756612  0.14796304  1
  O  O59  1  0.82081998  0.53556143  0.84823666  1
  O  O60  1  0.94452840  0.35854835  0.59426502  1
  O  O61  1  0.82081998  0.64361759  0.34823666  1
  O  O62  1  0.73902224  0.96101836  0.92557545  1
  O  O63  1  0.83317813  0.76925575  0.64796304  1
  O  O64  1  0.80448696  0.91366444  0.34230594  1
  O  O65  1  0.94452840  0.69692426  0.09426502  1
