# generated using pymatgen
data_K8Li9Cr4O16
_symmetry_space_group_name_H-M   'P 1'
_cell_length_a   5.60777699
_cell_length_b   9.12650968
_cell_length_c   10.48474937
_cell_angle_alpha   91.69184852
_cell_angle_beta   80.97756644
_cell_angle_gamma   90.34351927
_symmetry_Int_Tables_number   1
_chemical_formula_structural   K8Li9Cr4O16
_chemical_formula_sum   'K8 Li9 Cr4 O16'
_cell_volume   529.73258493
_cell_formula_units_Z   1
loop_
 _symmetry_equiv_pos_site_id
 _symmetry_equiv_pos_as_xyz
  1  'x, y, z'
loop_
 _atom_site_type_symbol
 _atom_site_label
 _atom_site_symmetry_multiplicity
 _atom_site_fract_x
 _atom_site_fract_y
 _atom_site_fract_z
 _atom_site_occupancy
  K  K0  1  0.17315486  0.99707593  0.12847985  1
  K  K1  1  0.10904213  0.28484653  0.62592742  1
  K  K2  1  0.37496831  0.49296394  0.35040699  1
  K  K3  1  0.64692779  0.26506964  0.13029394  1
  K  K4  1  0.35093481  0.72813645  0.87511928  1
  K  K5  1  0.64106257  0.50683869  0.64760008  1
  K  K6  1  0.89523107  0.72936006  0.37952316  1
  K  K7  1  0.83195206  0.99158339  0.86266255  1
  Li  Li8  1  0.07203346  0.24866906  0.29870636  1
  Li  Li9  1  0.27420187  0.51683101  0.07561930  1
  Li  Li10  1  0.16881649  0.01495354  0.44193220  1
  Li  Li11  1  0.41924609  0.74902991  0.19095595  1
  Li  Li12  1  0.41794789  0.02809930  0.69723033  1
  Li  Li13  1  0.61407054  0.97018065  0.29364457  1
  Li  Li14  1  0.58834143  0.25325702  0.80765466  1
  Li  Li15  1  0.71055253  0.48877872  0.93030416  1
  Li  Li16  1  0.91758929  0.75225523  0.69587318  1
  Cr  Cr17  1  0.17177428  0.28241726  0.93961486  1
  Cr  Cr18  1  0.34413176  0.78977041  0.55356656  1
  Cr  Cr19  1  0.66317761  0.20234139  0.45101025  1
  Cr  Cr20  1  0.82977167  0.71322684  0.05826226  1
  O  O21  1  0.12065224  0.71003046  0.13025758  1
  O  O22  1  0.14812051  0.30251384  0.11411752  1
  O  O23  1  0.14714847  0.93899641  0.62467002  1
  O  O24  1  0.17355768  0.62371854  0.58360910  1
  O  O25  1  0.38899179  0.82195082  0.38022663  1
  O  O26  1  0.39031242  0.18149811  0.37499298  1
  O  O27  1  0.32784464  0.11262390  0.87975472  1
  O  O28  1  0.59116738  0.56449922  0.11103764  1
  O  O29  1  0.38794528  0.42273475  0.88071323  1
  O  O30  1  0.68131286  0.89892186  0.12180123  1
  O  O31  1  0.60203480  0.80171148  0.63560452  1
  O  O32  1  0.59926365  0.20207591  0.62513391  1
  O  O33  1  0.81564036  0.37219425  0.40884222  1
  O  O34  1  0.87991837  0.07025274  0.36573175  1
  O  O35  1  0.84058036  0.68463523  0.87411289  1
  O  O36  1  0.88562164  0.29286450  0.88060413  1
