# generated using pymatgen
data_Tb5Ti5O17
_symmetry_space_group_name_H-M   'P 1'
_cell_length_a   3.86182152
_cell_length_b   5.45309659
_cell_length_c   31.98657471
_cell_angle_alpha   90.00000000
_cell_angle_beta   96.95148981
_cell_angle_gamma   90.00000000
_symmetry_Int_Tables_number   1
_chemical_formula_structural   Tb5Ti5O17
_chemical_formula_sum   'Tb10 Ti10 O34'
_cell_volume   668.64996306
_cell_formula_units_Z   2
loop_
 _symmetry_equiv_pos_site_id
 _symmetry_equiv_pos_as_xyz
  1  'x, y, z'
loop_
 _atom_site_type_symbol
 _atom_site_label
 _atom_site_symmetry_multiplicity
 _atom_site_fract_x
 _atom_site_fract_y
 _atom_site_fract_z
 _atom_site_occupancy
  Tb  Tb0  1  0.03216194  0.81973016  0.51676540  1
  Tb  Tb1  1  0.03216194  0.18026984  0.01676540  1
  Tb  Tb2  1  0.71435724  0.73173340  0.69888405  1
  Tb  Tb3  1  0.80732595  0.26466781  0.79285392  1
  Tb  Tb4  1  0.58657985  0.32054499  0.57093795  1
  Tb  Tb5  1  0.90607532  0.79321716  0.89069495  1
  Tb  Tb6  1  0.71435724  0.26826660  0.19888405  1
  Tb  Tb7  1  0.80732595  0.73533219  0.29285392  1
  Tb  Tb8  1  0.58657985  0.67945501  0.07093795  1
  Tb  Tb9  1  0.90607532  0.20678284  0.39069495  1
  Ti  Ti10  1  0.13414584  0.77097873  0.61913079  1
  Ti  Ti11  1  0.22058951  0.24272226  0.70574277  1
  Ti  Ti12  1  0.31194050  0.73973483  0.79674124  1
  Ti  Ti13  1  0.39751871  0.24364323  0.88243721  1
  Ti  Ti14  1  0.48457021  0.72011507  0.96894937  1
  Ti  Ti15  1  0.13414584  0.22902127  0.11913079  1
  Ti  Ti16  1  0.22058951  0.75727774  0.20574277  1
  Ti  Ti17  1  0.31194050  0.26026517  0.29674124  1
  Ti  Ti18  1  0.39751871  0.75635677  0.38243721  1
  Ti  Ti19  1  0.48457021  0.27988493  0.46894937  1
  O  O20  1  0.97983687  0.75785465  0.96436359  1
  O  O21  1  0.36553642  0.89540308  0.85043427  1
  O  O22  1  0.34000289  0.39707957  0.82518664  1
  O  O23  1  0.44344135  0.01967989  0.92795075  1
  O  O24  1  0.42773620  0.54033524  0.91291603  1
  O  O25  1  0.97983687  0.24214535  0.46436359  1
  O  O26  1  0.09720839  0.03853409  0.58187908  1
  O  O27  1  0.08571600  0.54541866  0.57029690  1
  O  O28  1  0.19126901  0.92591252  0.67621251  1
  O  O29  1  0.17655814  0.45477747  0.66162532  1
  O  O30  1  0.25805265  0.54091714  0.74259647  1
  O  O31  1  0.28066665  0.03481891  0.76628970  1
  O  O32  1  0.36553642  0.10459692  0.35043427  1
  O  O33  1  0.34000289  0.60292043  0.32518664  1
  O  O34  1  0.44344135  0.98032011  0.42795075  1
  O  O35  1  0.42773620  0.45966476  0.41291603  1
  O  O36  1  0.53348893  0.05116147  0.51802582  1
  O  O37  1  0.52261472  0.54792039  0.50754590  1
  O  O38  1  0.64063271  0.72321348  0.62555220  1
  O  O39  1  0.73104505  0.19956800  0.71624465  1
  O  O40  1  0.81369810  0.69817985  0.79858763  1
  O  O41  1  0.88722985  0.21456259  0.87220789  1
  O  O42  1  0.08571600  0.45458134  0.07029690  1
  O  O43  1  0.09720839  0.96146591  0.08187908  1
  O  O44  1  0.17655814  0.54522253  0.16162532  1
  O  O45  1  0.19126901  0.07408748  0.17621251  1
  O  O46  1  0.28066665  0.96518109  0.26628970  1
  O  O47  1  0.25805265  0.45908286  0.24259647  1
  O  O48  1  0.52261472  0.45207961  0.00754590  1
  O  O49  1  0.53348893  0.94883953  0.01802582  1
  O  O50  1  0.64063271  0.27678652  0.12555220  1
  O  O51  1  0.73104505  0.80043200  0.21624465  1
  O  O52  1  0.81369810  0.30182015  0.29858763  1
  O  O53  1  0.88722985  0.78543741  0.37220789  1
