# generated using pymatgen
data_Na6Co2B4SO16
_symmetry_space_group_name_H-M   'P 1'
_cell_length_a   9.78172721
_cell_length_b   9.78172716
_cell_length_c   9.78172763
_cell_angle_alpha   59.99999946
_cell_angle_beta   60.00000139
_cell_angle_gamma   59.99999981
_symmetry_Int_Tables_number   1
_chemical_formula_structural   Na6Co2B4SO16
_chemical_formula_sum   'Na12 Co4 B8 S2 O32'
_cell_volume   661.80746626
_cell_formula_units_Z   2
loop_
 _symmetry_equiv_pos_site_id
 _symmetry_equiv_pos_as_xyz
  1  'x, y, z'
loop_
 _atom_site_type_symbol
 _atom_site_label
 _atom_site_symmetry_multiplicity
 _atom_site_fract_x
 _atom_site_fract_y
 _atom_site_fract_z
 _atom_site_occupancy
  Na  Na0  1  0.09330731  0.65669269  0.09330731  1
  Na  Na1  1  0.09330731  0.09330731  0.65669269  1
  Na  Na2  1  0.65669269  0.09330731  0.09330731  1
  Na  Na3  1  0.09330731  0.65669269  0.65669269  1
  Na  Na4  1  0.34330731  0.90669269  0.34330731  1
  Na  Na5  1  0.34330731  0.34330731  0.90669269  1
  Na  Na6  1  0.65669269  0.65669269  0.09330731  1
  Na  Na7  1  0.65669269  0.09330731  0.65669269  1
  Na  Na8  1  0.90669269  0.34330731  0.34330731  1
  Na  Na9  1  0.34330731  0.90669269  0.90669269  1
  Na  Na10  1  0.90669269  0.34330731  0.90669269  1
  Na  Na11  1  0.90669269  0.90669269  0.34330731  1
  Co  Co12  1  0.00000000  0.50000000  0.50000000  1
  Co  Co13  1  0.50000000  0.50000000  0.00000000  1
  Co  Co14  1  0.50000000  0.00000000  0.50000000  1
  Co  Co15  1  0.50000000  0.50000000  0.50000000  1
  B  B16  1  0.29077594  0.29077594  0.29077594  1
  B  B17  1  0.29077594  0.29077594  0.62767317  1
  B  B18  1  0.29077594  0.62767317  0.29077594  1
  B  B19  1  0.62767317  0.29077594  0.29077594  1
  B  B20  1  0.37232683  0.70922406  0.70922406  1
  B  B21  1  0.70922406  0.37232683  0.70922406  1
  B  B22  1  0.70922406  0.70922406  0.37232683  1
  B  B23  1  0.70922406  0.70922406  0.70922406  1
  S  S24  1  0.12500000  0.12500000  0.12500000  1
  S  S25  1  0.87500000  0.87500000  0.87500000  1
  O  O26  1  0.06250998  0.06250998  0.06250998  1
  O  O27  1  0.06250998  0.31247105  0.06250998  1
  O  O28  1  0.06250998  0.06250998  0.31247105  1
  O  O29  1  0.31247105  0.06250998  0.06250998  1
  O  O30  1  0.13294701  0.40907686  0.32084470  1
  O  O31  1  0.32084470  0.13294701  0.40907686  1
  O  O32  1  0.13294701  0.32084470  0.63713143  1
  O  O33  1  0.40907686  0.32084470  0.13294701  1
  O  O34  1  0.13294701  0.63713143  0.40907686  1
  O  O35  1  0.32084470  0.63713143  0.13294701  1
  O  O36  1  0.40907686  0.13294701  0.63713143  1
  O  O37  1  0.32084470  0.40907686  0.63713143  1
  O  O38  1  0.63713143  0.13294701  0.32084470  1
  O  O39  1  0.40907686  0.63713143  0.32084470  1
  O  O40  1  0.63713143  0.40907686  0.13294701  1
  O  O41  1  0.36286857  0.67915530  0.59092314  1
  O  O42  1  0.63713143  0.32084470  0.40907686  1
  O  O43  1  0.36286857  0.59092314  0.86705299  1
  O  O44  1  0.59092314  0.36286857  0.67915530  1
  O  O45  1  0.36286857  0.86705299  0.67915530  1
  O  O46  1  0.67915530  0.59092314  0.36286857  1
  O  O47  1  0.59092314  0.86705299  0.36286857  1
  O  O48  1  0.67915530  0.36286857  0.86705299  1
  O  O49  1  0.86705299  0.36286857  0.59092314  1
  O  O50  1  0.59092314  0.67915530  0.86705299  1
  O  O51  1  0.86705299  0.67915530  0.36286857  1
  O  O52  1  0.67915530  0.86705299  0.59092314  1
  O  O53  1  0.86705299  0.59092314  0.67915530  1
  O  O54  1  0.68752895  0.93749002  0.93749002  1
  O  O55  1  0.93749002  0.68752895  0.93749002  1
  O  O56  1  0.93749002  0.93749002  0.68752895  1
  O  O57  1  0.93749002  0.93749002  0.93749002  1
