# generated using pymatgen
data_LiCo2OF3
_symmetry_space_group_name_H-M   'P 1'
_cell_length_a   6.12915499
_cell_length_b   6.13179171
_cell_length_c   8.52072518
_cell_angle_alpha   89.83026518
_cell_angle_beta   90.18617869
_cell_angle_gamma   90.05092664
_symmetry_Int_Tables_number   1
_chemical_formula_structural   LiCo2OF3
_chemical_formula_sum   'Li4 Co8 O4 F12'
_cell_volume   320.22865376
_cell_formula_units_Z   4
loop_
 _symmetry_equiv_pos_site_id
 _symmetry_equiv_pos_as_xyz
  1  'x, y, z'
loop_
 _atom_site_type_symbol
 _atom_site_label
 _atom_site_symmetry_multiplicity
 _atom_site_fract_x
 _atom_site_fract_y
 _atom_site_fract_z
 _atom_site_occupancy
  Li  Li0  1  0.98743236  0.75086426  0.50117374  1
  Li  Li1  1  0.50486548  0.74964212  0.49269462  1
  Li  Li2  1  0.75164073  0.98615610  0.25736726  1
  Li  Li3  1  0.75192166  0.51361835  0.25711029  1
  Co  Co4  1  0.01779685  0.25399788  0.99566540  1
  Co  Co5  1  0.21899154  0.50913934  0.75824389  1
  Co  Co6  1  0.21943176  0.99336708  0.76027183  1
  Co  Co7  1  0.25079167  0.24997946  0.37626156  1
  Co  Co8  1  0.25192971  0.74971145  0.11752668  1
  Co  Co9  1  0.48267223  0.24961678  0.00840987  1
  Co  Co10  1  0.77001506  0.25007964  0.62080422  1
  Co  Co11  1  0.76311619  0.75044432  0.86573320  1
  O  O12  1  0.01630373  0.24766331  0.75707460  1
  O  O13  1  0.00860886  0.74703180  0.73631370  1
  O  O14  1  0.25794575  0.48110756  0.99601092  1
  O  O15  1  0.26097793  0.01522151  0.99291672  1
  F  F16  1  0.25434622  0.51505394  0.50328570  1
  F  F17  1  0.25431585  0.98395576  0.50307177  1
  F  F18  1  0.48980910  0.25165899  0.74700194  1
  F  F19  1  0.48657776  0.74939286  0.73696942  1
  F  F20  1  0.52366436  0.24997837  0.25442533  1
  F  F21  1  0.51760879  0.74974445  0.25884180  1
  F  F22  1  0.74607431  0.98714633  0.48817196  1
  F  F23  1  0.74969443  0.01819687  0.01079087  1
  F  F24  1  0.74645460  0.48416454  0.01219470  1
  F  F25  1  0.74656240  0.51307872  0.48765493  1
  F  F26  1  0.98436870  0.24974427  0.24570780  1
  F  F27  1  0.98608195  0.75024192  0.25830729  1
