# generated using pymatgen
data_Y(NiO2)2
_symmetry_space_group_name_H-M   'P 1'
_cell_length_a   6.20203761
_cell_length_b   6.20203711
_cell_length_c   6.20203780
_cell_angle_alpha   60.10606278
_cell_angle_beta   60.10606900
_cell_angle_gamma   60.10606633
_symmetry_Int_Tables_number   1
_chemical_formula_structural   Y(NiO2)2
_chemical_formula_sum   'Y2 Ni4 O8'
_cell_volume   169.09493481
_cell_formula_units_Z   2
loop_
 _symmetry_equiv_pos_site_id
 _symmetry_equiv_pos_as_xyz
  1  'x, y, z'
loop_
 _atom_site_type_symbol
 _atom_site_label
 _atom_site_symmetry_multiplicity
 _atom_site_fract_x
 _atom_site_fract_y
 _atom_site_fract_z
 _atom_site_occupancy
  Y  Y0  1  0.62343330  0.62343330  0.62343330  1
  Y  Y1  1  0.37656670  0.37656670  0.37656670  1
  Ni  Ni2  1  0.00000000  0.50000000  0.00000000  1
  Ni  Ni3  1  0.00000000  0.00000000  0.00000000  1
  Ni  Ni4  1  0.50000000  0.00000000  0.00000000  1
  Ni  Ni5  1  0.00000000  0.00000000  0.50000000  1
  O  O6  1  0.20046214  0.76506953  0.76506953  1
  O  O7  1  0.23493047  0.23493047  0.79953786  1
  O  O8  1  0.23493047  0.79953786  0.23493047  1
  O  O9  1  0.23606259  0.23606259  0.23606259  1
  O  O10  1  0.76506953  0.76506953  0.20046214  1
  O  O11  1  0.79953786  0.23493047  0.23493047  1
  O  O12  1  0.76506953  0.20046214  0.76506953  1
  O  O13  1  0.76393741  0.76393741  0.76393741  1
