# generated using pymatgen
data_Li9Cr19O48
_symmetry_space_group_name_H-M   'P 1'
_cell_length_a   5.05405385
_cell_length_b   10.18300039
_cell_length_c   17.29302583
_cell_angle_alpha   89.99226263
_cell_angle_beta   90.17613142
_cell_angle_gamma   90.03301943
_symmetry_Int_Tables_number   1
_chemical_formula_structural   Li9Cr19O48
_chemical_formula_sum   'Li9 Cr19 O48'
_cell_volume   889.98869000
_cell_formula_units_Z   1
loop_
 _symmetry_equiv_pos_site_id
 _symmetry_equiv_pos_as_xyz
  1  'x, y, z'
loop_
 _atom_site_type_symbol
 _atom_site_label
 _atom_site_symmetry_multiplicity
 _atom_site_fract_x
 _atom_site_fract_y
 _atom_site_fract_z
 _atom_site_occupancy
  Li  Li0  1  0.25398300  0.42088772  0.97035102  1
  Li  Li1  1  0.24560817  0.75125514  0.30148515  1
  Li  Li2  1  0.25389942  0.24621628  0.80329784  1
  Li  Li3  1  0.24870801  0.58019309  0.47131443  1
  Li  Li4  1  0.40177580  0.74981178  0.75162141  1
  Li  Li5  1  0.59689375  0.25014595  0.24855858  1
  Li  Li6  1  0.75121228  0.08027205  0.52879725  1
  Li  Li7  1  0.74597281  0.75280687  0.19827666  1
  Li  Li8  1  0.75665550  0.24713507  0.69984461  1
  Cr  Cr9  1  0.09609145  0.24881342  0.25222410  1
  Cr  Cr10  1  0.20642681  0.74784712  0.94164180  1
  Cr  Cr11  1  0.22165279  0.02601388  0.65611292  1
  Cr  Cr12  1  0.21996010  0.47289720  0.65333429  1
  Cr  Cr13  1  0.25444549  0.07036717  0.97328635  1
  Cr  Cr14  1  0.24847494  0.93091634  0.47622072  1
  Cr  Cr15  1  0.27308203  0.52707638  0.15361003  1
  Cr  Cr16  1  0.27802271  0.97238448  0.15563345  1
  Cr  Cr17  1  0.27973826  0.25142945  0.44373744  1
  Cr  Cr18  1  0.72009768  0.75112754  0.55605562  1
  Cr  Cr19  1  0.72129623  0.02582342  0.84406712  1
  Cr  Cr20  1  0.72860013  0.47491027  0.84453732  1
  Cr  Cr21  1  0.75127528  0.43081786  0.52406142  1
  Cr  Cr22  1  0.74179470  0.56904998  0.02493906  1
  Cr  Cr23  1  0.74694931  0.92761257  0.02643837  1
  Cr  Cr24  1  0.77843824  0.52624625  0.34393598  1
  Cr  Cr25  1  0.77992533  0.97326736  0.34653141  1
  Cr  Cr26  1  0.79888614  0.24827218  0.05807933  1
  Cr  Cr27  1  0.90273573  0.75105297  0.74743016  1
  O  O28  1  0.05653931  0.24212283  0.99265044  1
  O  O29  1  0.04618164  0.60804794  0.36851713  1
  O  O30  1  0.05705508  0.89100473  0.37510218  1
  O  O31  1  0.10159269  0.62411811  0.20805267  1
  O  O32  1  0.09371035  0.87291894  0.20916794  1
  O  O33  1  0.09824726  0.11136731  0.46625411  1
  O  O34  1  0.07297766  0.38087684  0.46677538  1
  O  O35  1  0.07976424  0.00667874  0.07310367  1
  O  O36  1  0.08039811  0.49744351  0.07609469  1
  O  O37  1  0.13780260  0.74936922  0.84425061  1
  O  O38  1  0.14499585  0.61292848  0.70114735  1
  O  O39  1  0.14445434  0.88534166  0.70420193  1
  O  O40  1  0.33371080  0.11733896  0.20453500  1
  O  O41  1  0.33023119  0.38509378  0.20202429  1
  O  O42  1  0.33070467  0.25088468  0.34401922  1
  O  O43  1  0.40574071  0.99033627  0.57627217  1
  O  O44  1  0.41630763  0.50515443  0.57713588  1
  O  O45  1  0.41320958  0.89091465  0.96616531  1
  O  O46  1  0.42040853  0.62091046  0.96871625  1
  O  O47  1  0.41198376  0.11818035  0.71024368  1
  O  O48  1  0.39432553  0.37696398  0.70853392  1
  O  O49  1  0.43077220  0.10749763  0.87381179  1
  O  O50  1  0.45526795  0.39697017  0.86763132  1
  O  O51  1  0.44619057  0.76030446  0.49410869  1
  O  O52  1  0.55345570  0.26015346  0.50567027  1
  O  O53  1  0.55835089  0.60424787  0.12684375  1
  O  O54  1  0.55979694  0.88880067  0.12644477  1
  O  O55  1  0.59106229  0.61992311  0.28975725  1
  O  O56  1  0.60507802  0.87878781  0.29027811  1
  O  O57  1  0.58375077  0.11246242  0.03451933  1
  O  O58  1  0.60218612  0.38425931  0.03495064  1
  O  O59  1  0.58350293  0.00512149  0.42256727  1
  O  O60  1  0.59427350  0.49058877  0.42365096  1
  O  O61  1  0.66875632  0.75008313  0.65553877  1
  O  O62  1  0.66377639  0.61593719  0.79511277  1
  O  O63  1  0.66472930  0.87998293  0.79688830  1
  O  O64  1  0.85519122  0.11346768  0.29878529  1
  O  O65  1  0.85467295  0.38579911  0.29551534  1
  O  O66  1  0.85915103  0.24929815  0.15595694  1
  O  O67  1  0.90879084  0.51297469  0.92559156  1
  O  O68  1  0.91917448  0.98889690  0.92890551  1
  O  O69  1  0.90173764  0.61126320  0.53357583  1
  O  O70  1  0.92704373  0.88097634  0.53335804  1
  O  O71  1  0.90792731  0.12958939  0.79562157  1
  O  O72  1  0.91318444  0.38080308  0.79106022  1
  O  O73  1  0.95493150  0.10833952  0.63149877  1
  O  O74  1  0.94130757  0.39082858  0.62515176  1
  O  O75  1  0.92299177  0.74999629  0.00881547  1
