# generated using pymatgen
data_Fe10O9F11
_symmetry_space_group_name_H-M   'P 1'
_cell_length_a   4.73647740
_cell_length_b   4.73785770
_cell_length_c   15.65390767
_cell_angle_alpha   90.10669308
_cell_angle_beta   90.30269230
_cell_angle_gamma   92.77081687
_symmetry_Int_Tables_number   1
_chemical_formula_structural   Fe10O9F11
_chemical_formula_sum   'Fe10 O9 F11'
_cell_volume   350.86914384
_cell_formula_units_Z   1
loop_
 _symmetry_equiv_pos_site_id
 _symmetry_equiv_pos_as_xyz
  1  'x, y, z'
loop_
 _atom_site_type_symbol
 _atom_site_label
 _atom_site_symmetry_multiplicity
 _atom_site_fract_x
 _atom_site_fract_y
 _atom_site_fract_z
 _atom_site_occupancy
  Fe  Fe0  1  0.00882075  0.99113903  0.99260175  1
  Fe  Fe1  1  0.00543393  0.00641112  0.20017124  1
  Fe  Fe2  1  0.97922415  0.95988327  0.40764299  1
  Fe  Fe3  1  0.05347244  0.00021644  0.60147046  1
  Fe  Fe4  1  0.02330886  0.97186888  0.79818063  1
  Fe  Fe5  1  0.50403362  0.49762766  0.10207755  1
  Fe  Fe6  1  0.47452928  0.52008028  0.49683197  1
  Fe  Fe7  1  0.51480735  0.50935071  0.29130141  1
  Fe  Fe8  1  0.48071028  0.50442764  0.69595078  1
  Fe  Fe9  1  0.47495580  0.52391560  0.91415801  1
  O  O10  1  0.18911584  0.80499684  0.49758566  1
  O  O11  1  0.19626285  0.81549087  0.70191912  1
  O  O12  1  0.19014319  0.80705831  0.89862696  1
  O  O13  1  0.29864246  0.30154685  0.00522250  1
  O  O14  1  0.30382738  0.30036207  0.20216872  1
  O  O15  1  0.31358970  0.30980119  0.58939713  1
  O  O16  1  0.69904896  0.70220841  0.00520009  1
  O  O17  1  0.70917206  0.70535432  0.19973481  1
  O  O18  1  0.67820370  0.68067195  0.39540834  1
  F  F19  1  0.19658850  0.80911523  0.10290009  1
  F  F20  1  0.18895531  0.80342948  0.30079311  1
  F  F21  1  0.28559872  0.28948453  0.39382407  1
  F  F22  1  0.29852364  0.30636318  0.80834708  1
  F  F23  1  0.71040521  0.71615202  0.59210818  1
  F  F24  1  0.69117814  0.69453145  0.80662103  1
  F  F25  1  0.81168285  0.19396207  0.10212230  1
  F  F26  1  0.80035919  0.19664269  0.49700804  1
  F  F27  1  0.80648638  0.18757217  0.30162851  1
  F  F28  1  0.79996606  0.19636657  0.89681733  1
  F  F29  1  0.81295339  0.19396817  0.70217813  1
