# generated using pymatgen
data_Ni3OF5
_symmetry_space_group_name_H-M   'P 1'
_cell_length_a   7.32502019
_cell_length_b   5.62569892
_cell_length_c   5.62176267
_cell_angle_alpha   72.36261204
_cell_angle_beta   72.25820216
_cell_angle_gamma   72.28285397
_symmetry_Int_Tables_number   1
_chemical_formula_structural   Ni3OF5
_chemical_formula_sum   'Ni6 O2 F10'
_cell_volume   204.45842423
_cell_formula_units_Z   2
loop_
 _symmetry_equiv_pos_site_id
 _symmetry_equiv_pos_as_xyz
  1  'x, y, z'
loop_
 _atom_site_type_symbol
 _atom_site_label
 _atom_site_symmetry_multiplicity
 _atom_site_fract_x
 _atom_site_fract_y
 _atom_site_fract_z
 _atom_site_occupancy
  Ni  Ni0  1  0.83790098  0.65733502  0.66680509  1
  Ni  Ni1  1  0.33469602  0.66754711  0.67060484  1
  Ni  Ni2  1  0.66493087  0.32507210  0.32762897  1
  Ni  Ni3  1  0.16247077  0.33226507  0.34293637  1
  Ni  Ni4  1  0.50504387  0.00244407  0.00400426  1
  Ni  Ni5  1  0.99372860  0.01225468  0.99105263  1
  O  O6  1  0.70340772  0.10208398  0.09765473  1
  O  O7  1  0.99897290  0.30532571  0.69515710  1
  F  F8  1  0.66947265  0.02319987  0.63635379  1
  F  F9  1  0.33004509  0.36383848  0.97522581  1
  F  F10  1  0.29778887  0.90307037  0.90177339  1
  F  F11  1  0.63264142  0.56002346  0.56178354  1
  F  F12  1  0.96412707  0.23451031  0.23292722  1
  F  F13  1  0.03721481  0.76741911  0.76670403  1
  F  F14  1  0.36781647  0.43526235  0.43723196  1
  F  F15  1  0.33360613  0.96932339  0.36601950  1
  F  F16  1  0.66599855  0.63504456  0.02905694  1
  F  F17  1  0.00013722  0.70398135  0.29707782  1
