# generated using pymatgen
data_LiNiPO4
_symmetry_space_group_name_H-M   'P 1'
_cell_length_a   7.54752760
_cell_length_b   4.85470608
_cell_length_c   18.00687128
_cell_angle_alpha   90.00000000
_cell_angle_beta   88.91782016
_cell_angle_gamma   90.00000000
_symmetry_Int_Tables_number   1
_chemical_formula_structural   LiNiPO4
_chemical_formula_sum   'Li8 Ni8 P8 O32'
_cell_volume   659.67259323
_cell_formula_units_Z   8
loop_
 _symmetry_equiv_pos_site_id
 _symmetry_equiv_pos_as_xyz
  1  'x, y, z'
loop_
 _atom_site_type_symbol
 _atom_site_label
 _atom_site_symmetry_multiplicity
 _atom_site_fract_x
 _atom_site_fract_y
 _atom_site_fract_z
 _atom_site_occupancy
  Li  Li0  1  0.01418487  0.76632306  0.58805867  1
  Li  Li1  1  0.01418487  0.73367694  0.08805867  1
  Li  Li2  1  0.50643042  0.35802440  0.81926141  1
  Li  Li3  1  0.50643042  0.14197560  0.31926141  1
  Li  Li4  1  0.49356958  0.85802440  0.68073859  1
  Li  Li5  1  0.49356958  0.64197560  0.18073859  1
  Li  Li6  1  0.98581513  0.26632306  0.91194133  1
  Li  Li7  1  0.98581513  0.23367694  0.41194133  1
  Ni  Ni8  1  0.16461116  0.77591712  0.77140670  1
  Ni  Ni9  1  0.16461116  0.72408288  0.27140670  1
  Ni  Ni10  1  0.34953301  0.22753484  0.51501520  1
  Ni  Ni11  1  0.34953301  0.27246516  0.01501520  1
  Ni  Ni12  1  0.65046699  0.72753484  0.98498480  1
  Ni  Ni13  1  0.65046699  0.77246516  0.48498480  1
  Ni  Ni14  1  0.83538884  0.27591712  0.72859330  1
  Ni  Ni15  1  0.83538884  0.22408288  0.22859330  1
  P  P16  1  0.24117676  0.35119834  0.68054443  1
  P  P17  1  0.24117676  0.14880166  0.18054443  1
  P  P18  1  0.24934592  0.70686882  0.93463932  1
  P  P19  1  0.24934592  0.79313118  0.43463932  1
  P  P20  1  0.75065408  0.20686882  0.56536068  1
  P  P21  1  0.75065408  0.29313118  0.06536068  1
  P  P22  1  0.75882324  0.85119834  0.81945557  1
  P  P23  1  0.75882324  0.64880166  0.31945557  1
  O  O24  1  0.05948530  0.47653452  0.70987927  1
  O  O25  1  0.05948530  0.02346548  0.20987927  1
  O  O26  1  0.17886237  0.58772826  0.00929994  1
  O  O27  1  0.13998589  0.58965540  0.86965652  1
  O  O28  1  0.25280410  0.43636982  0.59826942  1
  O  O29  1  0.25443611  0.03775171  0.69243106  1
  O  O30  1  0.17886237  0.91227174  0.50929994  1
  O  O31  1  0.13998589  0.91034460  0.36965652  1
  O  O32  1  0.25280410  0.06363018  0.09826942  1
  O  O33  1  0.25443611  0.46224829  0.19243106  1
  O  O34  1  0.24829814  0.02526195  0.93353255  1
  O  O35  1  0.24829814  0.47473805  0.43353255  1
  O  O36  1  0.38098217  0.50781656  0.72830255  1
  O  O37  1  0.38098217  0.99218344  0.22830255  1
  O  O38  1  0.44301158  0.57856853  0.92565989  1
  O  O39  1  0.44301158  0.92143147  0.42565989  1
  O  O40  1  0.55698842  0.07856853  0.57434011  1
  O  O41  1  0.55698842  0.42143147  0.07434011  1
  O  O42  1  0.61901783  0.00781656  0.77169745  1
  O  O43  1  0.61901783  0.49218344  0.27169745  1
  O  O44  1  0.75170186  0.52526195  0.56646745  1
  O  O45  1  0.75170186  0.97473805  0.06646745  1
  O  O46  1  0.74556389  0.53775171  0.80756894  1
  O  O47  1  0.74719590  0.93636982  0.90173058  1
  O  O48  1  0.86001411  0.08965540  0.63034348  1
  O  O49  1  0.82113763  0.08772826  0.49070006  1
  O  O50  1  0.74556389  0.96224829  0.30756894  1
  O  O51  1  0.74719590  0.56363018  0.40173058  1
  O  O52  1  0.86001411  0.41034460  0.13034348  1
  O  O53  1  0.82113763  0.41227174  0.99070006  1
  O  O54  1  0.94051470  0.97653452  0.79012073  1
  O  O55  1  0.94051470  0.52346548  0.29012073  1
