# generated using pymatgen
data_Fe10O9F11
_symmetry_space_group_name_H-M   'P 1'
_cell_length_a   4.76279443
_cell_length_b   4.77013093
_cell_length_c   15.51832111
_cell_angle_alpha   89.97635455
_cell_angle_beta   90.04132355
_cell_angle_gamma   91.27951849
_symmetry_Int_Tables_number   1
_chemical_formula_structural   Fe10O9F11
_chemical_formula_sum   'Fe10 O9 F11'
_cell_volume   352.47508300
_cell_formula_units_Z   1
loop_
 _symmetry_equiv_pos_site_id
 _symmetry_equiv_pos_as_xyz
  1  'x, y, z'
loop_
 _atom_site_type_symbol
 _atom_site_label
 _atom_site_symmetry_multiplicity
 _atom_site_fract_x
 _atom_site_fract_y
 _atom_site_fract_z
 _atom_site_occupancy
  Fe  Fe0  1  0.98671328  0.98849957  0.00089448  1
  Fe  Fe1  1  0.04088892  0.02257775  0.20636371  1
  Fe  Fe2  1  0.98815316  0.94341507  0.40082767  1
  Fe  Fe3  1  0.04996858  0.00312004  0.59726717  1
  Fe  Fe4  1  0.03281044  0.01338764  0.79400675  1
  Fe  Fe5  1  0.48947751  0.48303478  0.09346146  1
  Fe  Fe6  1  0.48223951  0.51745274  0.49957608  1
  Fe  Fe7  1  0.47959873  0.52446158  0.29790615  1
  Fe  Fe8  1  0.45646398  0.50450817  0.70136218  1
  Fe  Fe9  1  0.49030350  0.48274915  0.90771860  1
  O  O10  1  0.18901285  0.80805467  0.30071799  1
  O  O11  1  0.19140605  0.80071704  0.49911909  1
  O  O12  1  0.19793693  0.81699607  0.69851587  1
  O  O13  1  0.29748456  0.29243007  0.00066778  1
  O  O14  1  0.31638326  0.31801840  0.20092061  1
  O  O15  1  0.31579223  0.31628632  0.59797014  1
  O  O16  1  0.30920463  0.31303690  0.80101776  1
  O  O17  1  0.68490159  0.67971907  0.00062728  1
  O  O18  1  0.67772997  0.67679936  0.39963129  1
  F  F19  1  0.20020145  0.80416252  0.10802831  1
  F  F20  1  0.19448514  0.79954886  0.89292549  1
  F  F21  1  0.29028865  0.29214875  0.39966429  1
  F  F22  1  0.70823737  0.71180661  0.20053948  1
  F  F23  1  0.70220703  0.70707762  0.60057560  1
  F  F24  1  0.70374911  0.70541079  0.79864922  1
  F  F25  1  0.80696394  0.19476611  0.11016481  1
  F  F26  1  0.80448604  0.18939589  0.49916852  1
  F  F27  1  0.80038383  0.19620143  0.30312870  1
  F  F28  1  0.80296362  0.18859159  0.89105637  1
  F  F29  1  0.80956216  0.20562545  0.69752415  1
