# generated using pymatgen
data_MnPO4
_symmetry_space_group_name_H-M   'P 1'
_cell_length_a   8.45519725
_cell_length_b   8.46417360
_cell_length_c   7.18398990
_cell_angle_alpha   86.44829615
_cell_angle_beta   86.24753546
_cell_angle_gamma   59.49794159
_symmetry_Int_Tables_number   1
_chemical_formula_structural   MnPO4
_chemical_formula_sum   'Mn6 P6 O24'
_cell_volume   441.78453876
_cell_formula_units_Z   6
loop_
 _symmetry_equiv_pos_site_id
 _symmetry_equiv_pos_as_xyz
  1  'x, y, z'
loop_
 _atom_site_type_symbol
 _atom_site_label
 _atom_site_symmetry_multiplicity
 _atom_site_fract_x
 _atom_site_fract_y
 _atom_site_fract_z
 _atom_site_occupancy
  Mn  Mn0  1  0.00086193  0.99957423  0.24703084  1
  Mn  Mn1  1  0.99996701  0.99935505  0.74556091  1
  Mn  Mn2  1  0.34311335  0.32798495  0.19677336  1
  Mn  Mn3  1  0.32458840  0.33697256  0.79650826  1
  Mn  Mn4  1  0.65692650  0.67247024  0.29670588  1
  Mn  Mn5  1  0.67516988  0.66255933  0.69675985  1
  P  P6  1  0.32234272  0.03800989  0.50549399  1
  P  P7  1  0.04277715  0.63590887  0.49174788  1
  P  P8  1  0.36309030  0.67814489  0.00282028  1
  P  P9  1  0.63709002  0.32214780  0.49094781  1
  P  P10  1  0.95717584  0.36427736  0.00187250  1
  P  P11  1  0.67738569  0.96164312  0.98648274  1
  O  O12  1  0.03039921  0.15757141  0.02211109  1
  O  O13  1  0.12401075  0.39897831  0.98707562  1
  O  O14  1  0.28757774  0.15759351  0.32459770  1
  O  O15  1  0.29370569  0.14463917  0.67930496  1
  O  O16  1  0.15726064  0.56454861  0.66773516  1
  O  O17  1  0.15896319  0.54556398  0.31475734  1
  O  O18  1  0.47467923  0.13303665  0.00004130  1
  O  O19  1  0.15470971  0.81457869  0.99778000  1
  O  O20  1  0.39932788  0.47677281  0.00956131  1
  O  O21  1  0.18811956  0.96528890  0.51491102  1
  O  O22  1  0.56996869  0.27786954  0.31849808  1
  O  O23  1  0.54675540  0.29426861  0.67293365  1
  O  O24  1  0.42999377  0.72472808  0.17434580  1
  O  O25  1  0.45320508  0.70478783  0.81996902  1
  O  O26  1  0.81219176  0.03357938  0.97548132  1
  O  O27  1  0.60120925  0.52364031  0.48526094  1
  O  O28  1  0.84537984  0.18556340  0.49633653  1
  O  O29  1  0.52551342  0.86686127  0.49268234  1
  O  O30  1  0.84424487  0.43537211  0.82485668  1
  O  O31  1  0.83907006  0.45511692  0.17794927  1
  O  O32  1  0.71405977  0.84103577  0.16699364  1
  O  O33  1  0.70426073  0.85567640  0.81250381  1
  O  O34  1  0.87588004  0.60103656  0.50679426  1
  O  O35  1  0.96882793  0.84284047  0.47250288  1
