# generated using pymatgen
data_Li4Mn3Cu3(WO8)2
_symmetry_space_group_name_H-M   'P 1'
_cell_length_a   5.96257200
_cell_length_b   5.90394276
_cell_length_c   9.90704651
_cell_angle_alpha   89.88744799
_cell_angle_beta   86.06603707
_cell_angle_gamma   119.62445979
_symmetry_Int_Tables_number   1
_chemical_formula_structural   Li4Mn3Cu3(WO8)2
_chemical_formula_sum   'Li4 Mn3 Cu3 W2 O16'
_cell_volume   302.19355346
_cell_formula_units_Z   1
loop_
 _symmetry_equiv_pos_site_id
 _symmetry_equiv_pos_as_xyz
  1  'x, y, z'
loop_
 _atom_site_type_symbol
 _atom_site_label
 _atom_site_symmetry_multiplicity
 _atom_site_fract_x
 _atom_site_fract_y
 _atom_site_fract_z
 _atom_site_occupancy
  Li  Li0  1  0.34032303  0.67103038  0.91412937  1
  Li  Li1  1  0.99318331  0.99675385  0.98656145  1
  Li  Li2  1  0.99703004  0.99835632  0.47971519  1
  Li  Li3  1  0.69046742  0.34501027  0.40780944  1
  Mn  Mn4  1  0.65551315  0.82794737  0.21659036  1
  Mn  Mn5  1  0.82821819  0.66144821  0.71323919  1
  Mn  Mn6  1  0.82874149  0.16736731  0.71363772  1
  Cu  Cu7  1  0.16493180  0.83034696  0.20976101  1
  Cu  Cu8  1  0.16464173  0.33446732  0.20965849  1
  Cu  Cu9  1  0.33560546  0.16764160  0.71288126  1
  W  W10  1  0.34101239  0.67004199  0.48430068  1
  W  W11  1  0.66505010  0.33403531  0.98806005  1
  O  O12  1  0.15773873  0.82092924  0.57978631  1
  O  O13  1  0.06140913  0.53010876  0.35342651  1
  O  O14  1  0.34658345  0.67352034  0.12359707  1
  O  O15  1  0.98382977  0.99174421  0.29254522  1
  O  O16  1  0.98850743  0.99352116  0.79686351  1
  O  O17  1  0.15836771  0.33487211  0.58056119  1
  O  O18  1  0.52267495  0.97499149  0.35175048  1
  O  O19  1  0.52248171  0.54704763  0.35179199  1
  O  O20  1  0.31964289  0.15970448  0.07876485  1
  O  O21  1  0.63834393  0.81917820  0.58825536  1
  O  O22  1  0.53651987  0.49574330  0.85436586  1
  O  O23  1  0.53561288  0.04230905  0.85292728  1
  O  O24  1  0.67679863  0.33888447  0.62035210  1
  O  O25  1  0.78593681  0.64500976  0.09072958  1
  O  O26  1  0.97558456  0.48744758  0.86579367  1
  O  O27  1  0.78525144  0.14084432  0.08998681  1
