# generated using pymatgen
data_Na2Fe(Si2O5)3
_symmetry_space_group_name_H-M   'P 1'
_cell_length_a   11.32227214
_cell_length_b   11.32227214
_cell_length_c   10.22460676
_cell_angle_alpha   90.00000000
_cell_angle_beta   90.00000000
_cell_angle_gamma   77.99351919
_symmetry_Int_Tables_number   1
_chemical_formula_structural   Na2Fe(Si2O5)3
_chemical_formula_sum   'Na8 Fe4 Si24 O60'
_cell_volume   1282.05820315
_cell_formula_units_Z   4
loop_
 _symmetry_equiv_pos_site_id
 _symmetry_equiv_pos_as_xyz
  1  'x, y, z'
loop_
 _atom_site_type_symbol
 _atom_site_label
 _atom_site_symmetry_multiplicity
 _atom_site_fract_x
 _atom_site_fract_y
 _atom_site_fract_z
 _atom_site_occupancy
  Na  Na0  1  0.02611861  0.52611861  0.25000000  1
  Na  Na1  1  0.47388139  0.97388139  0.75000000  1
  Na  Na2  1  0.58373719  0.58373719  0.24914228  1
  Na  Na3  1  0.08373719  0.08373719  0.25085772  1
  Na  Na4  1  0.41626281  0.41626281  0.75085772  1
  Na  Na5  1  0.91626281  0.91626281  0.74914228  1
  Na  Na6  1  0.52611861  0.02611861  0.25000000  1
  Na  Na7  1  0.97388139  0.47388139  0.75000000  1
  Fe  Fe8  1  0.33414784  0.83414784  0.25000000  1
  Fe  Fe9  1  0.16585216  0.66585216  0.75000000  1
  Fe  Fe10  1  0.83414784  0.33414784  0.25000000  1
  Fe  Fe11  1  0.66585216  0.16585216  0.75000000  1
  Si  Si12  1  0.04150293  0.81408573  0.30677215  1
  Si  Si13  1  0.18591427  0.95849707  0.69322785  1
  Si  Si14  1  0.31408573  0.54150293  0.19322785  1
  Si  Si15  1  0.45849707  0.68591427  0.80677215  1
  Si  Si16  1  0.07576529  0.30238737  0.45993785  1
  Si  Si17  1  0.57576529  0.80238737  0.04006215  1
  Si  Si18  1  0.19761263  0.42423471  0.95993785  1
  Si  Si19  1  0.69761263  0.92423471  0.54006215  1
  Si  Si20  1  0.25439453  0.48061084  0.48595534  1
  Si  Si21  1  0.51938916  0.74560547  0.51404466  1
  Si  Si22  1  0.75439453  0.98061084  0.01404466  1
  Si  Si23  1  0.01938916  0.24560547  0.98595534  1
  Si  Si24  1  0.48061084  0.25439453  0.48595534  1
  Si  Si25  1  0.24560547  0.01938916  0.98595534  1
  Si  Si26  1  0.98061084  0.75439453  0.01404466  1
  Si  Si27  1  0.74560547  0.51938916  0.51404466  1
  Si  Si28  1  0.30238737  0.07576529  0.45993785  1
  Si  Si29  1  0.92423471  0.69761263  0.54006215  1
  Si  Si30  1  0.42423471  0.19761263  0.95993785  1
  Si  Si31  1  0.80238737  0.57576529  0.04006215  1
  Si  Si32  1  0.68591427  0.45849707  0.80677215  1
  Si  Si33  1  0.54150293  0.31408573  0.19322785  1
  Si  Si34  1  0.81408573  0.04150293  0.30677215  1
  Si  Si35  1  0.95849707  0.18591427  0.69322785  1
  O  O36  1  0.02766839  0.74719781  0.16606000  1
  O  O37  1  0.25280219  0.97233161  0.83394000  1
  O  O38  1  0.00448942  0.71835979  0.41180717  1
  O  O39  1  0.28164021  0.99551058  0.58819283  1
  O  O40  1  0.15454204  0.82877814  0.66952396  1
  O  O41  1  0.17122186  0.84545796  0.33047604  1
  O  O42  1  0.08391400  0.75225911  0.90668661  1
  O  O43  1  0.24774089  0.91608600  0.09331339  1
  O  O44  1  0.25225911  0.58391400  0.59331339  1
  O  O45  1  0.41608600  0.74774089  0.40668661  1
  O  O46  1  0.32877814  0.65454204  0.83047604  1
  O  O47  1  0.34545796  0.67122186  0.16952396  1
  O  O48  1  0.50133151  0.83647103  0.17324081  1
  O  O49  1  0.00133151  0.33647103  0.32675919  1
  O  O50  1  0.16352897  0.49866849  0.82675919  1
  O  O51  1  0.66352897  0.99866849  0.67324081  1
  O  O52  1  0.21835979  0.50448942  0.08819283  1
  O  O53  1  0.49551058  0.78164021  0.91180717  1
  O  O54  1  0.47233161  0.75280219  0.66606000  1
  O  O55  1  0.24719781  0.52766839  0.33394000  1
  O  O56  1  0.13974597  0.41375431  0.50340957  1
  O  O57  1  0.08624569  0.36025403  0.00340957  1
  O  O58  1  0.63974597  0.91375431  0.99659043  1
  O  O59  1  0.58624569  0.86025403  0.49659043  1
  O  O60  1  0.67794179  0.67794179  0.06635136  1
  O  O61  1  0.12057941  0.12057941  0.01086761  1
  O  O62  1  0.17794179  0.17794179  0.43364864  1
  O  O63  1  0.05698982  0.05698982  0.68978863  1
  O  O64  1  0.44301018  0.44301018  0.18978863  1
  O  O65  1  0.32205821  0.32205821  0.93364864  1
  O  O66  1  0.94301018  0.94301018  0.31021137  1
  O  O67  1  0.37942059  0.37942059  0.51086761  1
  O  O68  1  0.55698982  0.55698982  0.81021137  1
  O  O69  1  0.87942059  0.87942059  0.98913239  1
  O  O70  1  0.62057941  0.62057941  0.48913239  1
  O  O71  1  0.82205821  0.82205821  0.56635136  1
  O  O72  1  0.41375431  0.13974597  0.50340957  1
  O  O73  1  0.36025403  0.08624569  0.00340957  1
  O  O74  1  0.86025403  0.58624569  0.49659043  1
  O  O75  1  0.91375431  0.63974597  0.99659043  1
  O  O76  1  0.52766839  0.24719781  0.33394000  1
  O  O77  1  0.75280219  0.47233161  0.66606000  1
  O  O78  1  0.50448942  0.21835979  0.08819283  1
  O  O79  1  0.78164021  0.49551058  0.91180717  1
  O  O80  1  0.33647103  0.00133151  0.32675919  1
  O  O81  1  0.49866849  0.16352897  0.82675919  1
  O  O82  1  0.99866849  0.66352897  0.67324081  1
  O  O83  1  0.83647103  0.50133151  0.17324081  1
  O  O84  1  0.67122186  0.34545796  0.16952396  1
  O  O85  1  0.65454204  0.32877814  0.83047604  1
  O  O86  1  0.58391400  0.25225911  0.59331339  1
  O  O87  1  0.74774089  0.41608600  0.40668661  1
  O  O88  1  0.75225911  0.08391400  0.90668661  1
  O  O89  1  0.91608600  0.24774089  0.09331339  1
  O  O90  1  0.82877814  0.15454204  0.66952396  1
  O  O91  1  0.84545796  0.17122186  0.33047604  1
  O  O92  1  0.71835979  0.00448942  0.41180717  1
  O  O93  1  0.99551058  0.28164021  0.58819283  1
  O  O94  1  0.74719781  0.02766839  0.16606000  1
  O  O95  1  0.97233161  0.25280219  0.83394000  1
