# generated using pymatgen
data_Li4Ni7(OF7)2
_symmetry_space_group_name_H-M   'P 1'
_cell_length_a   5.95011737
_cell_length_b   5.95011737
_cell_length_c   10.53896593
_cell_angle_alpha   89.11898913
_cell_angle_beta   73.95460018
_cell_angle_gamma   118.89477440
_symmetry_Int_Tables_number   1
_chemical_formula_structural   Li4Ni7(OF7)2
_chemical_formula_sum   'Li4 Ni7 O2 F14'
_cell_volume   308.98686221
_cell_formula_units_Z   1
loop_
 _symmetry_equiv_pos_site_id
 _symmetry_equiv_pos_as_xyz
  1  'x, y, z'
loop_
 _atom_site_type_symbol
 _atom_site_label
 _atom_site_symmetry_multiplicity
 _atom_site_fract_x
 _atom_site_fract_y
 _atom_site_fract_z
 _atom_site_occupancy
  Li  Li0  1  0.99624493  0.99029843  0.01345664  1
  Li  Li1  1  0.25566415  0.64143451  0.10290134  1
  Li  Li2  1  0.25375507  0.13470157  0.61154336  1
  Li  Li3  1  0.99433585  0.48356549  0.52209866  1
  Ni  Ni4  1  0.62655504  0.30317018  0.07027478  1
  Ni  Ni5  1  0.12500000  0.06250000  0.31250000  1
  Ni  Ni6  1  0.62500000  0.06250000  0.81250000  1
  Ni  Ni7  1  0.62500000  0.56250000  0.31250000  1
  Ni  Ni8  1  0.62500000  0.56250000  0.81250000  1
  Ni  Ni9  1  0.62344496  0.82182982  0.55472522  1
  Ni  Ni10  1  0.12500000  0.56250000  0.81250000  1
  O  O11  1  0.85513450  0.42618279  0.71868271  1
  O  O12  1  0.39486550  0.69881721  0.90631729  1
  F  F13  1  0.88514146  0.16900314  0.44015150  1
  F  F14  1  0.85915464  0.45029296  0.18484850  1
  F  F15  1  0.86540214  0.18832311  0.94627475  1
  F  F16  1  0.38244274  0.42799481  0.18956245  1
  F  F17  1  0.86755726  0.69700519  0.43543755  1
  F  F18  1  0.37200215  0.20478277  0.42321508  1
  F  F19  1  0.87799785  0.92021723  0.20178492  1
  F  F20  1  0.85969888  0.66505911  0.94607526  1
  F  F21  1  0.38886563  0.19422586  0.94607526  1
  F  F22  1  0.39084536  0.67470704  0.44015150  1
  F  F23  1  0.86113437  0.93077414  0.67892474  1
  F  F24  1  0.39030112  0.45994089  0.67892474  1
  F  F25  1  0.36485854  0.95599686  0.18484850  1
  F  F26  1  0.38459786  0.93667689  0.67872525  1
