# generated using pymatgen
data_CrCo3O8
_symmetry_space_group_name_H-M   'P 1'
_cell_length_a   5.64230734
_cell_length_b   5.61634662
_cell_length_c   8.83765019
_cell_angle_alpha   89.82665646
_cell_angle_beta   90.08626513
_cell_angle_gamma   119.84791880
_symmetry_Int_Tables_number   1
_chemical_formula_structural   CrCo3O8
_chemical_formula_sum   'Cr2 Co6 O16'
_cell_volume   242.90675892
_cell_formula_units_Z   2
loop_
 _symmetry_equiv_pos_site_id
 _symmetry_equiv_pos_as_xyz
  1  'x, y, z'
loop_
 _atom_site_type_symbol
 _atom_site_label
 _atom_site_symmetry_multiplicity
 _atom_site_fract_x
 _atom_site_fract_y
 _atom_site_fract_z
 _atom_site_occupancy
  Cr  Cr0  1  0.33294949  0.66526613  0.49014280  1
  Cr  Cr1  1  0.66705051  0.33231764  0.99014280  1
  Co  Co2  1  0.16909423  0.83377371  0.20937994  1
  Co  Co3  1  0.16815953  0.33657144  0.21309191  1
  Co  Co4  1  0.66440126  0.83242764  0.20981170  1
  Co  Co5  1  0.33559874  0.16802638  0.70981170  1
  Co  Co6  1  0.83090577  0.66467948  0.70937994  1
  Co  Co7  1  0.83184047  0.16841291  0.71309091  1
  O  O8  1  0.16530390  0.83615715  0.60697315  1
  O  O9  1  0.04080273  0.52109094  0.33405571  1
  O  O10  1  0.33112193  0.66188783  0.10131137  1
  O  O11  1  0.00238413  0.00504170  0.31605497  1
  O  O12  1  0.99761587  0.00265757  0.81605497  1
  O  O13  1  0.16792874  0.33301351  0.60564013  1
  O  O14  1  0.47848793  0.95727456  0.33190298  1
  O  O15  1  0.47978680  0.51971598  0.33388749  1
  O  O16  1  0.33123717  0.16370635  0.10560786  1
  O  O17  1  0.66876283  0.83247018  0.60560786  1
  O  O18  1  0.52151207  0.47878662  0.83190298  1
  O  O19  1  0.52021320  0.03992918  0.83388749  1
  O  O20  1  0.66887807  0.33076489  0.60131137  1
  O  O21  1  0.83469610  0.67085325  0.10697315  1
  O  O22  1  0.95919727  0.48028821  0.83405571  1
  O  O23  1  0.83207126  0.16508577  0.10564013  1
