# generated using pymatgen
data_GaHO2
_symmetry_space_group_name_H-M   'P 1'
_cell_length_a   13.57149774
_cell_length_b   3.05493987
_cell_length_c   3.82170539
_cell_angle_alpha   90.00000000
_cell_angle_beta   90.00000000
_cell_angle_gamma   90.00000000
_symmetry_Int_Tables_number   1
_chemical_formula_structural   GaHO2
_chemical_formula_sum   'Ga4 H4 O8'
_cell_volume   158.44832410
_cell_formula_units_Z   4
loop_
 _symmetry_equiv_pos_site_id
 _symmetry_equiv_pos_as_xyz
  1  'x, y, z'
loop_
 _atom_site_type_symbol
 _atom_site_label
 _atom_site_symmetry_multiplicity
 _atom_site_fract_x
 _atom_site_fract_y
 _atom_site_fract_z
 _atom_site_occupancy
  Ga  Ga0  1  0.18199137  0.75000000  0.24806878  1
  Ga  Ga1  1  0.31800863  0.25000000  0.74806878  1
  Ga  Ga2  1  0.68199137  0.75000000  0.25193122  1
  Ga  Ga3  1  0.81800863  0.25000000  0.75193122  1
  H  H4  1  0.06018794  0.25000000  0.50627779  1
  H  H5  1  0.43981206  0.75000000  0.00627779  1
  H  H6  1  0.56018794  0.25000000  0.99372221  1
  H  H7  1  0.93981206  0.75000000  0.49372221  1
  O  O8  1  0.08682903  0.25000000  0.26828180  1
  O  O9  1  0.28724269  0.25000000  0.25035395  1
  O  O10  1  0.21275731  0.75000000  0.75035395  1
  O  O11  1  0.41317097  0.75000000  0.76828180  1
  O  O12  1  0.58682903  0.25000000  0.23171820  1
  O  O13  1  0.78724269  0.25000000  0.24964605  1
  O  O14  1  0.71275731  0.75000000  0.74964605  1
  O  O15  1  0.91317097  0.75000000  0.73171820  1
