# generated using pymatgen
data_Li5Mn(SiO4)2
_symmetry_space_group_name_H-M   'P 1'
_cell_length_a   5.26074768
_cell_length_b   5.26074768
_cell_length_c   6.35842401
_cell_angle_alpha   88.73700479
_cell_angle_beta   91.26299521
_cell_angle_gamma   87.39307718
_symmetry_Int_Tables_number   1
_chemical_formula_structural   Li5Mn(SiO4)2
_chemical_formula_sum   'Li5 Mn1 Si2 O8'
_cell_volume   175.70073373
_cell_formula_units_Z   1
loop_
 _symmetry_equiv_pos_site_id
 _symmetry_equiv_pos_as_xyz
  1  'x, y, z'
loop_
 _atom_site_type_symbol
 _atom_site_label
 _atom_site_symmetry_multiplicity
 _atom_site_fract_x
 _atom_site_fract_y
 _atom_site_fract_z
 _atom_site_occupancy
  Li  Li0  1  0.17668735  0.80417738  0.49168287  1
  Li  Li1  1  0.69394216  0.69394216  0.75000000  1
  Li  Li2  1  0.32823780  0.32823780  0.25000000  1
  Li  Li3  1  0.68358179  0.68358179  0.25000000  1
  Li  Li4  1  0.80417738  0.17668735  0.00831713  1
  Mn  Mn5  1  0.32019606  0.32019606  0.75000000  1
  Si  Si6  1  0.16520305  0.82027301  0.00884338  1
  Si  Si7  1  0.82027301  0.16520305  0.49115662  1
  O  O8  1  0.30635792  0.68784188  0.80017912  1
  O  O9  1  0.30379344  0.70529239  0.22239632  1
  O  O10  1  0.14107144  0.20448634  0.50978573  1
  O  O11  1  0.79958288  0.85927413  0.50176854  1
  O  O12  1  0.20448634  0.14107144  0.99021427  1
  O  O13  1  0.85927413  0.79958288  0.99823146  1
  O  O14  1  0.68784188  0.30635792  0.69982088  1
  O  O15  1  0.70529239  0.30379344  0.27760368  1
