# generated using pymatgen
data_Li2MnV4NiO12
_symmetry_space_group_name_H-M   'P 1'
_cell_length_a   6.96415813
_cell_length_b   6.96415839
_cell_length_c   5.74124871
_cell_angle_alpha   74.38176105
_cell_angle_beta   105.61823122
_cell_angle_gamma   96.65454723
_symmetry_Int_Tables_number   1
_chemical_formula_structural   Li2MnV4NiO12
_chemical_formula_sum   'Li2 Mn1 V4 Ni1 O12'
_cell_volume   257.98213380
_cell_formula_units_Z   1
loop_
 _symmetry_equiv_pos_site_id
 _symmetry_equiv_pos_as_xyz
  1  'x, y, z'
loop_
 _atom_site_type_symbol
 _atom_site_label
 _atom_site_symmetry_multiplicity
 _atom_site_fract_x
 _atom_site_fract_y
 _atom_site_fract_z
 _atom_site_occupancy
  Li  Li0  1  0.24268787  0.24268787  0.25000000  1
  Li  Li1  1  0.75927173  0.75927173  0.75000000  1
  Mn  Mn2  1  0.08737409  0.08737409  0.75000000  1
  V  V3  1  0.20365778  0.61039543  0.76839761  1
  V  V4  1  0.39732472  0.81250705  0.26782179  1
  V  V5  1  0.61039543  0.20365778  0.73160239  1
  V  V6  1  0.81250705  0.39732472  0.23217821  1
  Ni  Ni7  1  0.91397745  0.91397745  0.25000000  1
  O  O8  1  0.02247289  0.79145307  0.64501477  1
  O  O9  1  0.09413062  0.37410475  0.82106179  1
  O  O10  1  0.19647570  0.98044656  0.15232043  1
  O  O11  1  0.35776989  0.63528632  0.56459989  1
  O  O12  1  0.37410475  0.09413062  0.67893821  1
  O  O13  1  0.34962821  0.63455321  0.06056510  1
  O  O14  1  0.63528632  0.35776989  0.93540011  1
  O  O15  1  0.64520402  0.89127861  0.34284577  1
  O  O16  1  0.63455321  0.34962821  0.43943490  1
  O  O17  1  0.79145307  0.02247289  0.85498523  1
  O  O18  1  0.89127861  0.64520402  0.15715423  1
  O  O19  1  0.98044656  0.19647570  0.34767957  1
