# generated using pymatgen
data_FeSb(PO4)2
_symmetry_space_group_name_H-M   'P 1'
_cell_length_a   10.26814038
_cell_length_b   6.51288508
_cell_length_c   4.96984018
_cell_angle_alpha   90.00000000
_cell_angle_beta   84.67535491
_cell_angle_gamma   90.00000000
_symmetry_Int_Tables_number   1
_chemical_formula_structural   FeSb(PO4)2
_chemical_formula_sum   'Fe2 Sb2 P4 O16'
_cell_volume   330.92497522
_cell_formula_units_Z   2
loop_
 _symmetry_equiv_pos_site_id
 _symmetry_equiv_pos_as_xyz
  1  'x, y, z'
loop_
 _atom_site_type_symbol
 _atom_site_label
 _atom_site_symmetry_multiplicity
 _atom_site_fract_x
 _atom_site_fract_y
 _atom_site_fract_z
 _atom_site_occupancy
  Fe  Fe0  1  0.22279612  0.75000000  0.45599165  1
  Fe  Fe1  1  0.77720388  0.25000000  0.54400835  1
  Sb  Sb2  1  0.28417685  0.25000000  0.94909270  1
  Sb  Sb3  1  0.71582315  0.75000000  0.05090730  1
  P  P4  1  0.09713559  0.25000000  0.43046330  1
  P  P5  1  0.39220852  0.75000000  0.85626850  1
  P  P6  1  0.60779148  0.25000000  0.14373150  1
  P  P7  1  0.90286441  0.75000000  0.56953670  1
  O  O8  1  0.04731477  0.75000000  0.62602446  1
  O  O9  1  0.10998133  0.25000000  0.73544192  1
  O  O10  1  0.17209150  0.06300349  0.28094323  1
  O  O11  1  0.17209150  0.43699651  0.28094323  1
  O  O12  1  0.31921595  0.93181151  0.72108880  1
  O  O13  1  0.31921595  0.56818849  0.72108880  1
  O  O14  1  0.35996503  0.75000000  0.16538839  1
  O  O15  1  0.46144481  0.25000000  0.21828023  1
  O  O16  1  0.53855519  0.75000000  0.78171977  1
  O  O17  1  0.64003497  0.25000000  0.83461161  1
  O  O18  1  0.68078405  0.06818849  0.27891120  1
  O  O19  1  0.68078405  0.43181151  0.27891120  1
  O  O20  1  0.82790850  0.56300349  0.71905677  1
  O  O21  1  0.82790850  0.93699651  0.71905677  1
  O  O22  1  0.89001867  0.75000000  0.26455808  1
  O  O23  1  0.95268523  0.25000000  0.37397554  1
