# generated using pymatgen
data_LiCoPO4
_symmetry_space_group_name_H-M   'P 1'
_cell_length_a   10.57721243
_cell_length_b   10.57721266
_cell_length_c   12.35876534
_cell_angle_alpha   90.00000000
_cell_angle_beta   90.00000000
_cell_angle_gamma   120.00000236
_symmetry_Int_Tables_number   1
_chemical_formula_structural   LiCoPO4
_chemical_formula_sum   'Li12 Co12 P12 O48'
_cell_volume   1197.42458480
_cell_formula_units_Z   12
loop_
 _symmetry_equiv_pos_site_id
 _symmetry_equiv_pos_as_xyz
  1  'x, y, z'
loop_
 _atom_site_type_symbol
 _atom_site_label
 _atom_site_symmetry_multiplicity
 _atom_site_fract_x
 _atom_site_fract_y
 _atom_site_fract_z
 _atom_site_occupancy
  Li  Li0  1  0.00000000  0.50000000  0.00560316  1
  Li  Li1  1  0.00000000  0.50000000  0.66106384  1
  Li  Li2  1  0.00000000  0.50000000  0.33333300  1
  Li  Li3  1  0.00000000  0.00000000  0.16666700  1
  Li  Li4  1  0.00000000  0.00000000  0.50000000  1
  Li  Li5  1  0.00000000  0.00000000  0.83333300  1
  Li  Li6  1  0.50000000  0.50000000  0.33893616  1
  Li  Li7  1  0.50000000  0.50000000  0.66666700  1
  Li  Li8  1  0.50000000  0.50000000  0.99439684  1
  Li  Li9  1  0.50000000  0.00000000  0.32773084  1
  Li  Li10  1  0.50000000  0.00000000  0.00000000  1
  Li  Li11  1  0.50000000  0.00000000  0.67226916  1
  Co  Co12  1  1.00000000  0.74945935  0.83333300  1
  Co  Co13  1  0.00000000  0.25054065  0.83333300  1
  Co  Co14  1  0.24943818  0.75056182  0.16666700  1
  Co  Co15  1  0.24943818  0.49887636  0.50000000  1
  Co  Co16  1  0.50112364  0.75056182  0.83333300  1
  Co  Co17  1  0.25054065  0.25054065  0.16666700  1
  Co  Co18  1  0.25054065  0.00000000  0.50000000  1
  Co  Co19  1  0.74945935  0.74945935  0.16666700  1
  Co  Co20  1  0.49887636  0.24943818  0.83333300  1
  Co  Co21  1  0.75056182  0.50112364  0.50000000  1
  Co  Co22  1  0.75056182  0.24943818  0.16666700  1
  Co  Co23  1  0.74945935  1.00000000  0.50000000  1
  P  P24  1  0.00000000  0.75541212  0.33333300  1
  P  P25  1  0.24792311  0.75207689  0.66666700  1
  P  P26  1  0.00000000  0.24458788  0.33333300  1
  P  P27  1  0.24792311  0.49584622  0.00000000  1
  P  P28  1  0.24458788  0.24458788  0.66666700  1
  P  P29  1  0.50415378  0.75207689  0.33333300  1
  P  P30  1  0.24458788  0.00000000  0.00000000  1
  P  P31  1  0.49584622  0.24792311  0.33333300  1
  P  P32  1  0.75541212  0.75541212  0.66666700  1
  P  P33  1  0.75207689  0.50415378  0.00000000  1
  P  P34  1  0.75207689  0.24792311  0.66666700  1
  P  P35  1  0.75541212  0.00000000  0.00000000  1
  O  O36  1  0.06721607  0.87727984  0.42062457  1
  O  O37  1  0.12272016  0.93278393  0.91270843  1
  O  O38  1  0.10362287  0.69810463  0.73080884  1
  O  O39  1  0.11103597  0.71694996  0.28233672  1
  O  O40  1  0.28305004  0.88896403  0.05099728  1
  O  O41  1  0.30189537  0.89637713  0.60252416  1
  O  O42  1  0.20228193  0.61881720  0.59183461  1
  O  O43  1  0.10362287  0.40551824  0.93585716  1
  O  O44  1  0.20228193  0.58346474  0.07483139  1
  O  O45  1  0.11103597  0.39408501  0.38433028  1
  O  O46  1  0.06721607  0.18993523  0.24604143  1
  O  O47  1  0.38118280  0.79771807  0.74149839  1
  O  O48  1  0.41653526  0.79771807  0.25850161  1
  O  O49  1  0.12272016  0.18993523  0.75395857  1
  O  O50  1  0.28305004  0.39408501  0.61566972  1
  O  O51  1  0.38118280  0.58346474  0.92516861  1
  O  O52  1  0.30189537  0.40551824  0.06414284  1
  O  O53  1  0.41653526  0.61881720  0.40816539  1
  O  O54  1  0.18993523  0.12272016  0.57937543  1
  O  O55  1  0.18993523  0.06721607  0.08729157  1
  O  O56  1  0.59448176  0.89637713  0.39747584  1
  O  O57  1  0.60591499  0.88896403  0.94900272  1
  O  O58  1  0.60591499  0.71694996  0.71766328  1
  O  O59  1  0.40551824  0.30189537  0.26919116  1
  O  O60  1  0.59448176  0.69810463  0.26919116  1
  O  O61  1  0.39408501  0.28305004  0.71766328  1
  O  O62  1  0.39408501  0.11103597  0.94900272  1
  O  O63  1  0.40551824  0.10362287  0.39747584  1
  O  O64  1  0.81006477  0.93278393  0.08729157  1
  O  O65  1  0.81006477  0.87727984  0.57937543  1
  O  O66  1  0.58346474  0.38118280  0.40816539  1
  O  O67  1  0.69810463  0.59448176  0.06414284  1
  O  O68  1  0.61881720  0.41653526  0.92516861  1
  O  O69  1  0.71694996  0.60591499  0.61566972  1
  O  O70  1  0.87727984  0.81006477  0.75395857  1
  O  O71  1  0.58346474  0.20228193  0.25850161  1
  O  O72  1  0.61881720  0.20228193  0.74149839  1
  O  O73  1  0.93278393  0.81006477  0.24604143  1
  O  O74  1  0.88896403  0.60591499  0.38433028  1
  O  O75  1  0.79771807  0.41653526  0.07483139  1
  O  O76  1  0.89637713  0.59448176  0.93585716  1
  O  O77  1  0.79771807  0.38118280  0.59183461  1
  O  O78  1  0.69810463  0.10362287  0.60252416  1
  O  O79  1  0.71694996  0.11103597  0.05099728  1
  O  O80  1  0.88896403  0.28305004  0.28233672  1
  O  O81  1  0.89637713  0.30189537  0.73080884  1
  O  O82  1  0.87727984  0.06721607  0.91270843  1
  O  O83  1  0.93278393  0.12272016  0.42062457  1
