# generated using pymatgen
data_Y(NiO2)2
_symmetry_space_group_name_H-M   'P 1'
_cell_length_a   6.18918130
_cell_length_b   6.18918137
_cell_length_c   6.18918180
_cell_angle_alpha   60.38647567
_cell_angle_beta   60.38647772
_cell_angle_gamma   60.38647457
_symmetry_Int_Tables_number   1
_chemical_formula_structural   Y(NiO2)2
_chemical_formula_sum   'Y2 Ni4 O8'
_cell_volume   169.10802961
_cell_formula_units_Z   2
loop_
 _symmetry_equiv_pos_site_id
 _symmetry_equiv_pos_as_xyz
  1  'x, y, z'
loop_
 _atom_site_type_symbol
 _atom_site_label
 _atom_site_symmetry_multiplicity
 _atom_site_fract_x
 _atom_site_fract_y
 _atom_site_fract_z
 _atom_site_occupancy
  Y  Y0  1  0.62089099  0.62089099  0.62089099  1
  Y  Y1  1  0.37910901  0.37910901  0.37910901  1
  Ni  Ni2  1  0.00000000  0.50000000  0.00000000  1
  Ni  Ni3  1  0.00000000  0.00000000  0.00000000  1
  Ni  Ni4  1  0.50000000  0.00000000  0.00000000  1
  Ni  Ni5  1  0.00000000  0.00000000  0.50000000  1
  O  O6  1  0.19802698  0.76423259  0.76423259  1
  O  O7  1  0.23576741  0.23576741  0.80197302  1
  O  O8  1  0.23576741  0.80197302  0.23576741  1
  O  O9  1  0.23846884  0.23846884  0.23846884  1
  O  O10  1  0.76423259  0.76423259  0.19802698  1
  O  O11  1  0.80197302  0.23576741  0.23576741  1
  O  O12  1  0.76423259  0.19802698  0.76423259  1
  O  O13  1  0.76153116  0.76153116  0.76153116  1
