# generated using pymatgen
data_HfBr3
_symmetry_space_group_name_H-M   'P 1'
_cell_length_a   10.37520553
_cell_length_b   10.37515630
_cell_length_c   3.41783030
_cell_angle_alpha   90.00012943
_cell_angle_beta   89.99965777
_cell_angle_gamma   119.99793949
_symmetry_Int_Tables_number   1
_chemical_formula_structural   HfBr3
_chemical_formula_sum   'Hf2 Br6'
_cell_volume   318.62621232
_cell_formula_units_Z   2
loop_
 _symmetry_equiv_pos_site_id
 _symmetry_equiv_pos_as_xyz
  1  'x, y, z'
loop_
 _atom_site_type_symbol
 _atom_site_label
 _atom_site_symmetry_multiplicity
 _atom_site_fract_x
 _atom_site_fract_y
 _atom_site_fract_z
 _atom_site_occupancy
  Hf  Hf0  1  0.33333296  0.66666718  0.75001545  1
  Hf  Hf1  1  0.66666936  0.33332966  0.24998633  1
  Br  Br2  1  0.21844214  0.43688286  0.25001428  1
  Br  Br3  1  0.56311793  0.78156023  0.25001159  1
  Br  Br4  1  0.21843759  0.78156426  0.25002313  1
  Br  Br5  1  0.78154023  0.56309127  0.74997725  1
  Br  Br6  1  0.43690876  0.21845966  0.74997786  1
  Br  Br7  1  0.78155303  0.21844487  0.74998611  1
