# generated using pymatgen
data_K4(CoO2)7
_symmetry_space_group_name_H-M   'P 1'
_cell_length_a   7.84531070
_cell_length_b   7.84531074
_cell_length_c   12.69915127
_cell_angle_alpha   90.00000000
_cell_angle_beta   90.00000000
_cell_angle_gamma   119.99999982
_symmetry_Int_Tables_number   1
_chemical_formula_structural   K4(CoO2)7
_chemical_formula_sum   'K8 Co14 O28'
_cell_volume   676.90173368
_cell_formula_units_Z   2
loop_
 _symmetry_equiv_pos_site_id
 _symmetry_equiv_pos_as_xyz
  1  'x, y, z'
loop_
 _atom_site_type_symbol
 _atom_site_label
 _atom_site_symmetry_multiplicity
 _atom_site_fract_x
 _atom_site_fract_y
 _atom_site_fract_z
 _atom_site_occupancy
  K  K0  1  0.42057358  0.97217010  0.75000000  1
  K  K1  1  0.02782990  0.44840348  0.75000000  1
  K  K2  1  0.57942642  0.02782990  0.25000000  1
  K  K3  1  0.55159652  0.57942642  0.75000000  1
  K  K4  1  0.44840348  0.42057358  0.25000000  1
  K  K5  1  0.00000000  0.00000000  0.75000000  1
  K  K6  1  0.97217010  0.55159652  0.25000000  1
  K  K7  1  0.00000000  0.00000000  0.25000000  1
  Co  Co8  1  0.28345547  0.42930140  0.50588740  1
  Co  Co9  1  0.71654453  0.57069860  0.00588740  1
  Co  Co10  1  0.57069860  0.85415407  0.50588740  1
  Co  Co11  1  0.14584593  0.71654453  0.50588740  1
  Co  Co12  1  0.42930140  0.14584593  0.00588740  1
  Co  Co13  1  0.85415407  0.28345547  0.49411260  1
  Co  Co14  1  0.14584593  0.71654453  0.99411260  1
  Co  Co15  1  0.00000000  0.00000000  0.00000000  1
  Co  Co16  1  0.57069860  0.85415407  0.99411260  1
  Co  Co17  1  0.71654453  0.57069860  0.49411260  1
  Co  Co18  1  0.28345547  0.42930140  0.99411260  1
  Co  Co19  1  0.85415407  0.28345547  0.00588740  1
  Co  Co20  1  0.00000000  0.00000000  0.50000000  1
  Co  Co21  1  0.42930140  0.14584593  0.49411260  1
  O  O22  1  0.66666700  0.33333300  0.09529188  1
  O  O23  1  0.36987940  0.90107193  0.07629895  1
  O  O24  1  0.63012060  0.09892807  0.92370105  1
  O  O25  1  0.33333300  0.66666700  0.90470812  1
  O  O26  1  0.90107193  0.53119253  0.57629895  1
  O  O27  1  0.66666700  0.33333300  0.40470812  1
  O  O28  1  0.04289802  0.21994874  0.91855690  1
  O  O29  1  0.36987940  0.90107193  0.42370105  1
  O  O30  1  0.53119253  0.63012060  0.42370105  1
  O  O31  1  0.78005126  0.82294928  0.91855690  1
  O  O32  1  0.17705072  0.95710198  0.91855690  1
  O  O33  1  0.21994874  0.17705072  0.08144310  1
  O  O34  1  0.46880747  0.36987940  0.57629895  1
  O  O35  1  0.46880747  0.36987940  0.92370105  1
  O  O36  1  0.09892807  0.46880747  0.42370105  1
  O  O37  1  0.53119253  0.63012060  0.07629895  1
  O  O38  1  0.21994874  0.17705072  0.41855690  1
  O  O39  1  0.17705072  0.95710198  0.58144310  1
  O  O40  1  0.82294928  0.04289802  0.08144310  1
  O  O41  1  0.78005126  0.82294928  0.58144310  1
  O  O42  1  0.09892807  0.46880747  0.07629895  1
  O  O43  1  0.95710198  0.78005126  0.41855690  1
  O  O44  1  0.95710198  0.78005126  0.08144310  1
  O  O45  1  0.04289802  0.21994874  0.58144310  1
  O  O46  1  0.82294928  0.04289802  0.41855690  1
  O  O47  1  0.63012060  0.09892807  0.57629895  1
  O  O48  1  0.33333300  0.66666700  0.59529188  1
  O  O49  1  0.90107193  0.53119253  0.92370105  1
