# generated using pymatgen
data_Li2Cu2F7
_symmetry_space_group_name_H-M   'P 1'
_cell_length_a   3.91955130
_cell_length_b   13.06897621
_cell_length_c   5.24549738
_cell_angle_alpha   90.09119659
_cell_angle_beta   90.00074998
_cell_angle_gamma   98.62035738
_symmetry_Int_Tables_number   1
_chemical_formula_structural   Li2Cu2F7
_chemical_formula_sum   'Li4 Cu4 F14'
_cell_volume   265.66232227
_cell_formula_units_Z   2
loop_
 _symmetry_equiv_pos_site_id
 _symmetry_equiv_pos_as_xyz
  1  'x, y, z'
loop_
 _atom_site_type_symbol
 _atom_site_label
 _atom_site_symmetry_multiplicity
 _atom_site_fract_x
 _atom_site_fract_y
 _atom_site_fract_z
 _atom_site_occupancy
  Li  Li0  1  0.42597041  0.85424865  0.04917423  1
  Li  Li1  1  0.27697541  0.54212835  0.52407650  1
  Li  Li2  1  0.72238633  0.45778235  0.02333772  1
  Li  Li3  1  0.57380987  0.14583528  0.55037435  1
  Cu  Cu4  1  0.05228073  0.10330277  0.97636575  1
  Cu  Cu5  1  0.15952142  0.31735832  0.45825007  1
  Cu  Cu6  1  0.84049469  0.68246420  0.95858418  1
  Cu  Cu7  1  0.94786244  0.89705200  0.47736670  1
  F  F8  1  0.01444067  0.03073884  0.30280933  1
  F  F9  1  0.09169059  0.18180929  0.65074015  1
  F  F10  1  0.11646534  0.23102919  0.16002827  1
  F  F11  1  0.20375805  0.40776002  0.74186991  1
  F  F12  1  0.35065402  0.70293992  0.96755966  1
  F  F13  1  0.44833115  0.89799000  0.43200674  1
  F  F14  1  0.22359752  0.43863412  0.24721062  1
  F  F15  1  0.77672747  0.56123339  0.74690867  1
  F  F16  1  0.55173498  0.10219910  0.93051464  1
  F  F17  1  0.64922482  0.29660555  0.46701369  1
  F  F18  1  0.79640405  0.59210397  0.24170582  1
  F  F19  1  0.90813618  0.81810420  0.15118370  1
  F  F20  1  0.88395526  0.76942509  0.66087154  1
  F  F21  1  0.98557959  0.96925440  0.80287978  1
