# generated using pymatgen
data_Rb2U5(PO7)4
_symmetry_space_group_name_H-M   'P 1'
_cell_length_a   10.57785156
_cell_length_b   9.51572844
_cell_length_c   10.32122069
_cell_angle_alpha   64.29902499
_cell_angle_beta   55.29959409
_cell_angle_gamma   61.54705069
_symmetry_Int_Tables_number   1
_chemical_formula_structural   Rb2U5(PO7)4
_chemical_formula_sum   'Rb2 U5 P4 O28'
_cell_volume   731.73605168
_cell_formula_units_Z   1
loop_
 _symmetry_equiv_pos_site_id
 _symmetry_equiv_pos_as_xyz
  1  'x, y, z'
loop_
 _atom_site_type_symbol
 _atom_site_label
 _atom_site_symmetry_multiplicity
 _atom_site_fract_x
 _atom_site_fract_y
 _atom_site_fract_z
 _atom_site_occupancy
  Rb  Rb0  1  0.65107695  0.91607169  0.34892305  1
  Rb  Rb1  1  0.21365841  0.35730206  0.78634159  1
  U  U2  1  0.73158866  0.57133625  0.73522317  1
  U  U3  1  0.26477683  0.03814808  0.26841134  1
  U  U4  1  0.12359900  0.67392271  0.32903739  1
  U  U5  1  0.67096261  0.12655909  0.87640100  1
  U  U6  1  0.71086281  0.37976027  0.28913719  1
  P  P7  1  0.94820141  0.33576905  0.48695860  1
  P  P8  1  0.51304140  0.77092906  0.05179859  1
  P  P9  1  0.85300940  0.96308541  0.52124796  1
  P  P10  1  0.47875204  0.33734278  0.14699060  1
  O  O11  1  0.88151652  0.50239685  0.80063251  1
  O  O12  1  0.19936749  0.18454587  0.11848348  1
  O  O13  1  0.59394677  0.64038753  0.65405499  1
  O  O14  1  0.34594501  0.88838929  0.40605323  1
  O  O15  1  0.11569800  0.20502038  0.44524319  1
  O  O16  1  0.55475681  0.76596156  0.88430200  1
  O  O17  1  0.03770357  0.94081731  0.40149888  1
  O  O18  1  0.59850112  0.38001976  0.96229643  1
  O  O19  1  0.84138945  0.79400588  0.54399036  1
  O  O20  1  0.45600964  0.17938568  0.15861055  1
  O  O21  1  0.95513318  0.50628648  0.46246294  1
  O  O22  1  0.53753706  0.92388260  0.04486682  1
  O  O23  1  0.83264154  0.29862986  0.67282137  1
  O  O24  1  0.32717863  0.80409276  0.16735846  1
  O  O25  1  0.03970880  0.78568676  0.18836082  1
  O  O26  1  0.81163918  0.01375637  0.96029120  1
  O  O27  1  0.19315255  0.56637543  0.48085015  1
  O  O28  1  0.51914985  0.24037813  0.80684745  1
  O  O29  1  0.81440212  0.98189435  0.68210954  1
  O  O30  1  0.31789046  0.47840601  0.18559788  1
  O  O31  1  0.53485925  0.45366039  0.46514075  1
  O  O32  1  0.88691787  0.30372022  0.11308213  1
  O  O33  1  0.87638916  0.34470714  0.38914678  1
  O  O34  1  0.61085322  0.61024308  0.12361084  1
  O  O35  1  0.74454963  0.10372150  0.44658926  1
  O  O36  1  0.55341074  0.29486039  0.25545037  1
  O  O37  1  0.80325181  0.59676012  0.19674819  1
  O  O38  1  0.34947104  0.05768183  0.65052896  1
