# generated using pymatgen
data_CuSi(HO2)2
_symmetry_space_group_name_H-M   'P 1'
_cell_length_a   7.80399339
_cell_length_b   8.91834603
_cell_length_c   8.91834543
_cell_angle_alpha   111.86255940
_cell_angle_beta   106.95874884
_cell_angle_gamma   106.95875053
_symmetry_Int_Tables_number   1
_chemical_formula_structural   CuSi(HO2)2
_chemical_formula_sum   'Cu6 Si6 H12 O24'
_cell_volume   491.81267076
_cell_formula_units_Z   6
loop_
 _symmetry_equiv_pos_site_id
 _symmetry_equiv_pos_as_xyz
  1  'x, y, z'
loop_
 _atom_site_type_symbol
 _atom_site_label
 _atom_site_symmetry_multiplicity
 _atom_site_fract_x
 _atom_site_fract_y
 _atom_site_fract_z
 _atom_site_occupancy
  Cu  Cu0  1  0.66106779  0.19142315  0.60180623  1
  Cu  Cu1  1  0.46964464  0.41038307  0.80857685  1
  Cu  Cu2  1  0.05926156  0.39819377  0.58961693  1
  Cu  Cu3  1  0.33893221  0.80857685  0.39819377  1
  Cu  Cu4  1  0.53035536  0.58961693  0.19142315  1
  Cu  Cu5  1  0.94073844  0.60180623  0.41038307  1
  Si  Si6  1  0.82429151  0.60825899  0.74200716  1
  Si  Si7  1  0.21603253  0.13374818  0.39174101  1
  Si  Si8  1  0.08228435  0.25799284  0.86625182  1
  Si  Si9  1  0.17570849  0.39174101  0.25799284  1
  Si  Si10  1  0.78396747  0.86625182  0.60825899  1
  Si  Si11  1  0.91771565  0.74200716  0.13374818  1
  H  H12  1  0.43134567  0.72625088  0.90914635  1
  H  H13  1  0.70509479  0.18289546  0.27374912  1
  H  H14  1  0.52219932  0.09085365  0.81710454  1
  H  H15  1  0.56865433  0.27374912  0.09085365  1
  H  H16  1  0.29490521  0.81710454  0.72625088  1
  H  H17  1  0.47780068  0.90914635  0.18289546  1
  H  H18  1  0.51820938  0.71386401  0.76238636  1
  H  H19  1  0.80434537  0.04852235  0.28613599  1
  H  H20  1  0.75582302  0.23761364  0.95147765  1
  H  H21  1  0.48179062  0.28613599  0.23761364  1
  H  H22  1  0.19565463  0.95147765  0.71386401  1
  H  H23  1  0.24417698  0.76238636  0.04852235  1
  O  O24  1  0.73758005  0.74942772  0.71157341  1
  O  O25  1  0.98815233  0.96214570  0.25057228  1
  O  O26  1  0.02600663  0.28842659  0.03785430  1
  O  O27  1  0.26241995  0.25057228  0.28842659  1
  O  O28  1  0.01184767  0.03785430  0.74942772  1
  O  O29  1  0.97399337  0.71157341  0.96214570  1
  O  O30  1  0.63464279  0.42188023  0.68094928  1
  O  O31  1  0.21276255  0.25906904  0.57811977  1
  O  O32  1  0.95369351  0.31905072  0.74093096  1
  O  O33  1  0.36535721  0.57811977  0.31905072  1
  O  O34  1  0.78723745  0.74093096  0.42188023  1
  O  O35  1  0.04630649  0.68094928  0.25906904  1
  O  O36  1  0.94889756  0.57298279  0.62600315  1
  O  O37  1  0.37591477  0.05302036  0.42701721  1
  O  O38  1  0.32289441  0.37399685  0.94697964  1
  O  O39  1  0.05110244  0.42701721  0.37399685  1
  O  O40  1  0.62408523  0.94697964  0.57298279  1
  O  O41  1  0.67710559  0.62600315  0.05302036  1
  O  O42  1  0.39566031  0.68236782  0.77862230  1
  O  O43  1  0.71329249  0.09625448  0.31763218  1
  O  O44  1  0.61703801  0.22137770  0.90374552  1
  O  O45  1  0.60433969  0.31763218  0.22137770  1
  O  O46  1  0.28670751  0.90374552  0.68236782  1
  O  O47  1  0.38296199  0.77862230  0.09625448  1
