# generated using pymatgen
data_MgV2O4
_symmetry_space_group_name_H-M   'P 1'
_cell_length_a   5.17611481
_cell_length_b   5.92979208
_cell_length_c   10.31466968
_cell_angle_alpha   89.94283775
_cell_angle_beta   89.98455213
_cell_angle_gamma   89.88983804
_symmetry_Int_Tables_number   1
_chemical_formula_structural   MgV2O4
_chemical_formula_sum   'Mg4 V8 O16'
_cell_volume   316.59033819
_cell_formula_units_Z   4
loop_
 _symmetry_equiv_pos_site_id
 _symmetry_equiv_pos_as_xyz
  1  'x, y, z'
loop_
 _atom_site_type_symbol
 _atom_site_label
 _atom_site_symmetry_multiplicity
 _atom_site_fract_x
 _atom_site_fract_y
 _atom_site_fract_z
 _atom_site_occupancy
  Mg  Mg0  1  0.84455724  0.25035430  0.74999744  1
  Mg  Mg1  1  0.16570032  0.74976436  0.24993865  1
  Mg  Mg2  1  0.51444174  0.24989109  0.25003541  1
  Mg  Mg3  1  0.48240342  0.75000802  0.74993070  1
  V  V4  1  0.51748250  0.74967998  0.48553303  1
  V  V5  1  0.51580437  0.74977254  0.01427661  1
  V  V6  1  0.48369783  0.25004712  0.51474805  1
  V  V7  1  0.48229895  0.25016065  0.98530848  1
  V  V8  1  0.00056904  0.50018115  0.49932736  1
  V  V9  1  0.99910518  0.99974987  0.00073107  1
  V  V10  1  0.00042020  -0.00005379  0.49906324  1
  V  V11  1  0.99876199  0.50018265  0.00101176  1
  O  O12  1  0.86093462  0.74999345  0.39015219  1
  O  O13  1  0.85908800  0.74989790  0.10988531  1
  O  O14  1  0.13970935  0.24977352  0.60855573  1
  O  O15  1  0.13838157  0.25042689  0.89157466  1
  O  O16  1  0.19714688  0.74942488  0.59603822  1
  O  O17  1  0.19565429  0.74966603  0.90389059  1
  O  O18  1  0.80253696  0.25101011  0.40327856  1
  O  O19  1  0.80088783  0.24995763  0.09681732  1
  O  O20  1  0.66383922  0.50436746  0.61485349  1
  O  O21  1  0.66279643  0.99713760  0.88514706  1
  O  O22  1  0.33737191  0.00216569  0.38491033  1
  O  O23  1  0.33623972  0.49647729  0.11512517  1
  O  O24  1  0.33833496  0.49575888  0.38532527  1
  O  O25  1  0.33621216  0.00274523  0.11464570  1
  O  O26  1  0.66357449  0.99772400  0.61447844  1
  O  O27  1  0.66204884  0.50373549  0.88542017  1
