# generated using pymatgen
data_YbNd3
_symmetry_space_group_name_H-M   'P 1'
_cell_length_a   7.41116597
_cell_length_b   7.41116624
_cell_length_c   5.97413841
_cell_angle_alpha   90.00000000
_cell_angle_beta   90.00000000
_cell_angle_gamma   119.99999884
_symmetry_Int_Tables_number   1
_chemical_formula_structural   YbNd3
_chemical_formula_sum   'Yb2 Nd6'
_cell_volume   284.17051294
_cell_formula_units_Z   2
loop_
 _symmetry_equiv_pos_site_id
 _symmetry_equiv_pos_as_xyz
  1  'x, y, z'
loop_
 _atom_site_type_symbol
 _atom_site_label
 _atom_site_symmetry_multiplicity
 _atom_site_fract_x
 _atom_site_fract_y
 _atom_site_fract_z
 _atom_site_occupancy
  Yb  Yb0  1  0.33333300  0.66666700  0.75000000  1
  Yb  Yb1  1  0.66666700  0.33333300  0.25000000  1
  Nd  Nd2  1  0.16438572  0.32877145  0.25000000  1
  Nd  Nd3  1  0.67122855  0.83561328  0.25000000  1
  Nd  Nd4  1  0.16438472  0.83561328  0.25000000  1
  Nd  Nd5  1  0.83561328  0.67122755  0.75000000  1
  Nd  Nd6  1  0.32877145  0.16438572  0.75000000  1
  Nd  Nd7  1  0.83561428  0.16438572  0.75000000  1
