# generated using pymatgen
data_Cr(GaS2)2
_symmetry_space_group_name_H-M   'P 1'
_cell_length_a   3.70318310
_cell_length_b   3.69707355
_cell_length_c   12.08947807
_cell_angle_alpha   89.61919165
_cell_angle_beta   90.29270658
_cell_angle_gamma   120.32664859
_symmetry_Int_Tables_number   1
_chemical_formula_structural   Cr(GaS2)2
_chemical_formula_sum   'Cr1 Ga2 S4'
_cell_volume   142.86375077
_cell_formula_units_Z   1
loop_
 _symmetry_equiv_pos_site_id
 _symmetry_equiv_pos_as_xyz
  1  'x, y, z'
loop_
 _atom_site_type_symbol
 _atom_site_label
 _atom_site_symmetry_multiplicity
 _atom_site_fract_x
 _atom_site_fract_y
 _atom_site_fract_z
 _atom_site_occupancy
  Cr  Cr0  1  -0.00050180  0.00045823  0.49975407  1
  Ga  Ga1  1  0.33371703  0.66613962  0.20709082  1
  Ga  Ga2  1  0.66630514  0.33372614  0.79300366  1
  S  S3  1  0.33340510  0.66655566  0.39609770  1
  S  S4  1  0.66674151  0.33327552  0.60399192  1
  S  S5  1  0.33317727  0.66588264  0.87507810  1
  S  S6  1  0.66685673  0.33396519  0.12498375  1
