# generated using pymatgen
data_VCuO4
_symmetry_space_group_name_H-M   'P 1'
_cell_length_a   6.39874214
_cell_length_b   8.48056539
_cell_length_c   11.74006718
_cell_angle_alpha   90.00000000
_cell_angle_beta   90.59378760
_cell_angle_gamma   90.00000000
_symmetry_Int_Tables_number   1
_chemical_formula_structural   VCuO4
_chemical_formula_sum   'V8 Cu8 O32'
_cell_volume   637.03996053
_cell_formula_units_Z   8
loop_
 _symmetry_equiv_pos_site_id
 _symmetry_equiv_pos_as_xyz
  1  'x, y, z'
loop_
 _atom_site_type_symbol
 _atom_site_label
 _atom_site_symmetry_multiplicity
 _atom_site_fract_x
 _atom_site_fract_y
 _atom_site_fract_z
 _atom_site_occupancy
  V  V0  1  0.10378670  0.45526953  0.84605325  1
  V  V1  1  0.10378670  0.04473047  0.34605325  1
  V  V2  1  0.60063057  0.09289064  0.13586288  1
  V  V3  1  0.89621330  0.95526953  0.65394675  1
  V  V4  1  0.39936943  0.90710936  0.86413712  1
  V  V5  1  0.39936943  0.59289064  0.36413712  1
  V  V6  1  0.60063057  0.40710936  0.63586288  1
  V  V7  1  0.89621330  0.54473047  0.15394675  1
  Cu  Cu8  1  0.77614884  0.17266025  0.87291186  1
  Cu  Cu9  1  0.37260871  0.05554890  0.62738631  1
  Cu  Cu10  1  0.62739129  0.94445110  0.37261369  1
  Cu  Cu11  1  0.22385116  0.82733975  0.12708814  1
  Cu  Cu12  1  0.77614884  0.32733975  0.37291186  1
  Cu  Cu13  1  0.37260871  0.44445110  0.12738631  1
  Cu  Cu14  1  0.22385116  0.67266025  0.62708814  1
  Cu  Cu15  1  0.62739129  0.55554890  0.87261369  1
  O  O16  1  0.03858550  0.24083014  0.38269003  1
  O  O17  1  0.65118248  0.00800290  0.59395501  1
  O  O18  1  0.20668748  0.60274234  0.46225567  1
  O  O19  1  0.79331252  0.10274234  0.03774433  1
  O  O20  1  0.03858550  0.25916986  0.88269003  1
  O  O21  1  0.96141450  0.75916986  0.61730997  1
  O  O22  1  0.08878211  0.09042706  0.60804083  1
  O  O23  1  0.49618490  0.89926216  0.13484342  1
  O  O24  1  0.49618490  0.60073784  0.63484342  1
  O  O25  1  0.31264005  0.87152579  0.71239043  1
  O  O26  1  0.68735995  0.37152579  0.78760957  1
  O  O27  1  0.50381510  0.10073784  0.86515658  1
  O  O28  1  0.91121789  0.90957294  0.39195917  1
  O  O29  1  0.87212668  0.52384799  0.29867629  1
  O  O30  1  0.41917925  0.26797650  0.59928436  1
  O  O31  1  0.41917925  0.23202350  0.09928436  1
  O  O32  1  0.12787332  0.02384799  0.20132371  1
  O  O33  1  0.50381510  0.39926216  0.36515658  1
  O  O34  1  0.12787332  0.47615201  0.70132371  1
  O  O35  1  0.79331252  0.39725766  0.53774433  1
  O  O36  1  0.65118248  0.49199710  0.09395501  1
  O  O37  1  0.68735995  0.12847421  0.28760957  1
  O  O38  1  0.96141450  0.74083014  0.11730997  1
  O  O39  1  0.08878211  0.40957294  0.10804083  1
  O  O40  1  0.20668748  0.89725766  0.96225567  1
  O  O41  1  0.58082075  0.76797650  0.90071564  1
  O  O42  1  0.34881752  0.99199710  0.40604499  1
  O  O43  1  0.34881752  0.50800290  0.90604499  1
  O  O44  1  0.91121789  0.59042706  0.89195917  1
  O  O45  1  0.58082075  0.73202350  0.40071564  1
  O  O46  1  0.31264005  0.62847421  0.21239043  1
  O  O47  1  0.87212668  0.97615201  0.79867629  1
