# generated using pymatgen
data_Mg(FeO2)2
_symmetry_space_group_name_H-M   'P 1'
_cell_length_a   2.93243361
_cell_length_b   8.07664350
_cell_length_c   7.67384119
_cell_angle_alpha   71.05125915
_cell_angle_beta   78.98299832
_cell_angle_gamma   79.53902932
_symmetry_Int_Tables_number   1
_chemical_formula_structural   Mg(FeO2)2
_chemical_formula_sum   'Mg2 Fe4 O8'
_cell_volume   167.32792385
_cell_formula_units_Z   2
loop_
 _symmetry_equiv_pos_site_id
 _symmetry_equiv_pos_as_xyz
  1  'x, y, z'
loop_
 _atom_site_type_symbol
 _atom_site_label
 _atom_site_symmetry_multiplicity
 _atom_site_fract_x
 _atom_site_fract_y
 _atom_site_fract_z
 _atom_site_occupancy
  Mg  Mg0  1  0.30906770  0.15777627  0.22414858  1
  Mg  Mg1  1  0.68647122  0.81977004  0.80731347  1
  Fe  Fe2  1  0.60042497  0.18997563  0.60929401  1
  Fe  Fe3  1  0.14731198  0.50823817  0.19726145  1
  Fe  Fe4  1  0.84816352  0.46921759  0.83444256  1
  Fe  Fe5  1  0.39458985  0.78769969  0.42333310  1
  O  O6  1  0.85258653  0.69134203  0.60374151  1
  O  O7  1  0.44586139  0.33407594  0.77429597  1
  O  O8  1  0.54885528  0.64136246  0.26099787  1
  O  O9  1  0.14313615  0.28518403  0.42874914  1
  O  O10  1  0.13666704  0.00564291  0.72097345  1
  O  O11  1  0.77230903  0.34469242  0.11076265  1
  O  O12  1  0.85970128  0.97174632  0.30908097  1
  O  O13  1  0.22313007  0.63261250  0.92122427  1
