# generated using pymatgen
data_CaMn2(SiO3)4
_symmetry_space_group_name_H-M   'P 1'
_cell_length_a   5.29728291
_cell_length_b   6.68311063
_cell_length_c   6.68311059
_cell_angle_alpha   84.88068349
_cell_angle_beta   76.29059741
_cell_angle_gamma   76.29059043
_symmetry_Int_Tables_number   1
_chemical_formula_structural   CaMn2(SiO3)4
_chemical_formula_sum   'Ca1 Mn2 Si4 O12'
_cell_volume   223.17143027
_cell_formula_units_Z   1
loop_
 _symmetry_equiv_pos_site_id
 _symmetry_equiv_pos_as_xyz
  1  'x, y, z'
loop_
 _atom_site_type_symbol
 _atom_site_label
 _atom_site_symmetry_multiplicity
 _atom_site_fract_x
 _atom_site_fract_y
 _atom_site_fract_z
 _atom_site_occupancy
  Ca  Ca0  1  0.25000000  0.69415558  0.30584342  1
  Mn  Mn1  1  0.75000000  0.90829139  0.09170761  1
  Mn  Mn2  1  0.24999900  0.10838597  0.89161503  1
  Si  Si3  1  0.26663589  0.19976973  0.38459194  1
  Si  Si4  1  0.23336311  0.61540906  0.80022927  1
  Si  Si5  1  0.77730796  0.37986762  0.19873799  1
  Si  Si6  1  0.72269304  0.80126101  0.62013338  1
  O  O7  1  0.49338048  0.34052503  0.35256095  1
  O  O8  1  0.00661952  0.64743905  0.65947597  1
  O  O9  1  0.49471281  0.66760530  0.62891853  1
  O  O10  1  0.00528719  0.37108147  0.33239470  1
  O  O11  1  0.20284775  0.09333348  0.60754825  1
  O  O12  1  0.29715225  0.39245175  0.90666752  1
  O  O13  1  0.81453166  0.88773012  0.38644922  1
  O  O14  1  0.68546634  0.61355078  0.11226988  1
  O  O15  1  0.87939128  0.19062481  0.03711950  1
  O  O16  1  0.62060872  0.96288050  0.80937519  1
  O  O17  1  0.37053167  0.02590959  0.19995024  1
  O  O18  1  0.12947033  0.80004976  0.97409141  1
