# generated using pymatgen
data_CaBiF5
_symmetry_space_group_name_H-M   'P 1'
_cell_length_a   6.08652777
_cell_length_b   6.09113676
_cell_length_c   8.53245655
_cell_angle_alpha   97.13677615
_cell_angle_beta   111.61898433
_cell_angle_gamma   107.98154789
_symmetry_Int_Tables_number   1
_chemical_formula_structural   CaBiF5
_chemical_formula_sum   'Ca2 Bi2 F10'
_cell_volume   269.39432056
_cell_formula_units_Z   2
loop_
 _symmetry_equiv_pos_site_id
 _symmetry_equiv_pos_as_xyz
  1  'x, y, z'
loop_
 _atom_site_type_symbol
 _atom_site_label
 _atom_site_symmetry_multiplicity
 _atom_site_fract_x
 _atom_site_fract_y
 _atom_site_fract_z
 _atom_site_occupancy
  Ca  Ca0  1  0.28075417  0.52833336  0.75148816  1
  Ca  Ca1  1  0.72391752  0.47187510  0.25134563  1
  Bi  Bi2  1  0.00232788  -0.00110128  0.00185664  1
  Bi  Bi3  1  0.50186218  0.00017663  0.50150697  1
  F  F4  1  0.38523792  0.13640197  0.25327656  1
  F  F5  1  0.62082608  0.87025397  0.75246564  1
  F  F6  1  0.59580179  0.72817910  0.36687930  1
  F  F7  1  0.86142548  0.22927634  0.13333846  1
  F  F8  1  0.74218593  0.67664908  0.04597622  1
  F  F9  1  0.13303738  0.69673477  0.45798159  1
  F  F10  1  0.25544825  0.31890972  0.95269276  1
  F  F11  1  0.87023108  0.29964761  0.54705905  1
  F  F12  1  0.14165395  0.77008949  0.86857676  1
  F  F13  1  0.41014639  0.27784915  0.63374026  1
