# generated using pymatgen
data_Ca3V2(BiO6)2
_symmetry_space_group_name_H-M   'P 1'
_cell_length_a   5.49920429
_cell_length_b   7.25376461
_cell_length_c   7.57785623
_cell_angle_alpha   102.78522316
_cell_angle_beta   92.74090511
_cell_angle_gamma   90.09844463
_symmetry_Int_Tables_number   1
_chemical_formula_structural   Ca3V2(BiO6)2
_chemical_formula_sum   'Ca3 V2 Bi2 O12'
_cell_volume   294.42487044
_cell_formula_units_Z   1
loop_
 _symmetry_equiv_pos_site_id
 _symmetry_equiv_pos_as_xyz
  1  'x, y, z'
loop_
 _atom_site_type_symbol
 _atom_site_label
 _atom_site_symmetry_multiplicity
 _atom_site_fract_x
 _atom_site_fract_y
 _atom_site_fract_z
 _atom_site_occupancy
  Ca  Ca0  1  0.75870629  0.71401152  0.91306193  1
  Ca  Ca1  1  0.26101456  0.28005895  0.07232463  1
  Ca  Ca2  1  0.76481968  0.07851688  0.30119534  1
  V  V3  1  0.31481499  0.80736247  0.19399336  1
  V  V4  1  0.79201456  0.21169639  0.80657460  1
  Bi  Bi5  1  0.73460783  0.58967896  0.41664239  1
  Bi  Bi6  1  0.24447924  0.39298959  0.57546942  1
  O  O7  1  0.01232306  0.35241417  0.32753330  1
  O  O8  1  0.99257673  0.80560222  0.20096513  1
  O  O9  1  0.44237656  0.59000540  0.09783740  1
  O  O10  1  0.92968993  0.41490550  0.92436791  1
  O  O11  1  0.49744960  0.32491464  0.36155515  1
  O  O12  1  0.42465817  0.96798564  0.07682705  1
  O  O13  1  0.00092461  0.61864250  0.65172078  1
  O  O14  1  0.51278150  0.60400794  0.65911120  1
  O  O15  1  0.86862972  0.05563960  0.94138701  1
  O  O16  1  0.46853419  0.24179012  0.77953487  1
  O  O17  1  0.95542575  0.16233343  0.60283388  1
  O  O18  1  0.46970703  0.87822408  0.40165765  1
