# generated using pymatgen
data_ZnCo2(P2O7)2
_symmetry_space_group_name_H-M   'P 1'
_cell_length_a   7.03287197
_cell_length_b   8.31037502
_cell_length_c   8.84717732
_cell_angle_alpha   90.00000000
_cell_angle_beta   111.47552892
_cell_angle_gamma   90.00000000
_symmetry_Int_Tables_number   1
_chemical_formula_structural   ZnCo2(P2O7)2
_chemical_formula_sum   'Zn2 Co4 P8 O28'
_cell_volume   481.18157268
_cell_formula_units_Z   2
loop_
 _symmetry_equiv_pos_site_id
 _symmetry_equiv_pos_as_xyz
  1  'x, y, z'
loop_
 _atom_site_type_symbol
 _atom_site_label
 _atom_site_symmetry_multiplicity
 _atom_site_fract_x
 _atom_site_fract_y
 _atom_site_fract_z
 _atom_site_occupancy
  Zn  Zn0  1  0.36808952  0.44563470  0.66890287  1
  Zn  Zn1  1  0.86808952  0.05436530  0.16890287  1
  Co  Co2  1  0.38087152  0.07446067  0.62794434  1
  Co  Co3  1  0.61042015  0.90787027  0.38890827  1
  Co  Co4  1  0.11042015  0.59212973  0.88890827  1
  Co  Co5  1  0.88087152  0.42553933  0.12794434  1
  P  P6  1  0.17750955  0.73220690  0.24076565  1
  P  P7  1  0.43485581  0.23050940  0.96709318  1
  P  P8  1  0.67750955  0.76779310  0.74076565  1
  P  P9  1  0.93485581  0.26949060  0.46709318  1
  P  P10  1  0.31829720  0.23223401  0.26294496  1
  P  P11  1  0.07206316  0.74171743  0.53431694  1
  P  P12  1  0.57206316  0.75828257  0.03431694  1
  P  P13  1  0.81829720  0.26776599  0.76294496  1
  O  O14  1  0.35974346  0.16791417  0.10367670  1
  O  O15  1  0.56091379  0.61587327  0.67880255  1
  O  O16  1  0.06091379  0.88412673  0.17880255  1
  O  O17  1  0.33503001  0.39129425  0.89547516  1
  O  O18  1  0.63639234  0.83816006  0.89400575  1
  O  O19  1  0.39680707  0.08496311  0.38229117  1
  O  O20  1  0.68923471  0.60291697  0.08601709  1
  O  O21  1  0.37547736  0.09395492  0.84049691  1
  O  O22  1  0.17278288  0.25692655  0.54605243  1
  O  O23  1  0.60374428  0.91056939  0.61864449  1
  O  O24  1  0.89680707  0.41503689  0.88229117  1
  O  O25  1  0.90934196  0.74738510  0.79916719  1
  O  O26  1  0.57837245  0.26420617  0.69551520  1
  O  O27  1  0.85974346  0.33208583  0.60367670  1
  O  O28  1  0.10374428  0.58943061  0.11864449  1
  O  O29  1  0.92100365  0.11406490  0.82631786  1
  O  O30  1  0.07837245  0.23579383  0.19551520  1
  O  O31  1  0.63554460  0.89785474  0.15901693  1
  O  O32  1  0.67278288  0.24307345  0.04605243  1
  O  O33  1  0.34216552  0.73267836  0.96484335  1
  O  O34  1  0.18923471  0.89708303  0.58601709  1
  O  O35  1  0.87547736  0.40604508  0.34049691  1
  O  O36  1  0.13554460  0.60214526  0.65901693  1
  O  O37  1  0.42100365  0.38593510  0.32631786  1
  O  O38  1  0.40934196  0.75261490  0.29916719  1
  O  O39  1  0.83503001  0.10870575  0.39547516  1
  O  O40  1  0.84216552  0.76732164  0.46484335  1
  O  O41  1  0.13639234  0.66183994  0.39400575  1
