# generated using pymatgen
data_Ag2WS4
_symmetry_space_group_name_H-M   'P 1'
_cell_length_a   7.85205574
_cell_length_b   7.38433199
_cell_length_c   12.05865021
_cell_angle_alpha   90.00000000
_cell_angle_beta   90.00000000
_cell_angle_gamma   90.00000000
_symmetry_Int_Tables_number   1
_chemical_formula_structural   Ag2WS4
_chemical_formula_sum   'Ag8 W4 S16'
_cell_volume   699.18690407
_cell_formula_units_Z   4
loop_
 _symmetry_equiv_pos_site_id
 _symmetry_equiv_pos_as_xyz
  1  'x, y, z'
loop_
 _atom_site_type_symbol
 _atom_site_label
 _atom_site_symmetry_multiplicity
 _atom_site_fract_x
 _atom_site_fract_y
 _atom_site_fract_z
 _atom_site_occupancy
  Ag  Ag0  1  0.25000000  0.40682069  0.54568688  1
  Ag  Ag1  1  0.75000000  0.59317931  0.45431312  1
  Ag  Ag2  1  0.25000000  0.90682069  0.95431312  1
  Ag  Ag3  1  0.75000000  0.09317931  0.04568688  1
  Ag  Ag4  1  0.25000000  0.13592386  0.37096221  1
  Ag  Ag5  1  0.75000000  0.86407614  0.62903779  1
  Ag  Ag6  1  0.25000000  0.63592386  0.12903779  1
  Ag  Ag7  1  0.75000000  0.36407614  0.87096221  1
  W  W8  1  0.25000000  0.31515880  0.95497338  1
  W  W9  1  0.75000000  0.68484120  0.04502662  1
  W  W10  1  0.25000000  0.81515880  0.54502662  1
  W  W11  1  0.75000000  0.18484120  0.45497338  1
  S  S12  1  0.97446947  0.83776404  0.11026707  1
  S  S13  1  0.47446947  0.16223596  0.88973293  1
  S  S14  1  0.52553053  0.33776404  0.38973293  1
  S  S15  1  0.02553053  0.66223596  0.61026707  1
  S  S16  1  0.02553053  0.16223596  0.88973293  1
  S  S17  1  0.52553053  0.83776404  0.11026707  1
  S  S18  1  0.47446947  0.66223596  0.61026707  1
  S  S19  1  0.97446947  0.33776404  0.38973293  1
  S  S20  1  0.25000000  0.58594475  0.87885735  1
  S  S21  1  0.75000000  0.41405525  0.12114265  1
  S  S22  1  0.25000000  0.08594475  0.62114265  1
  S  S23  1  0.75000000  0.91405525  0.37885735  1
  S  S24  1  0.75000000  0.19716217  0.63966445  1
  S  S25  1  0.25000000  0.80283783  0.36033555  1
  S  S26  1  0.75000000  0.69716217  0.86033555  1
  S  S27  1  0.25000000  0.30283783  0.13966445  1
