# generated using pymatgen
data_V3O7
_symmetry_space_group_name_H-M   'P 1'
_cell_length_a   5.37770536
_cell_length_b   10.76016674
_cell_length_c   10.51107200
_cell_angle_alpha   90.00000000
_cell_angle_beta   90.00000000
_cell_angle_gamma   90.00000000
_symmetry_Int_Tables_number   1
_chemical_formula_structural   V3O7
_chemical_formula_sum   'V12 O28'
_cell_volume   608.22324805
_cell_formula_units_Z   4
loop_
 _symmetry_equiv_pos_site_id
 _symmetry_equiv_pos_as_xyz
  1  'x, y, z'
loop_
 _atom_site_type_symbol
 _atom_site_label
 _atom_site_symmetry_multiplicity
 _atom_site_fract_x
 _atom_site_fract_y
 _atom_site_fract_z
 _atom_site_occupancy
  V  V0  1  0.29562552  0.02852431  0.29989529  1
  V  V1  1  0.79562552  0.97147569  0.20010471  1
  V  V2  1  0.70437448  0.52852431  0.70010471  1
  V  V3  1  0.20437448  0.47147569  0.79989529  1
  V  V4  1  0.30047272  0.75000000  0.21796491  1
  V  V5  1  0.80047272  0.25000000  0.28203509  1
  V  V6  1  0.69952728  0.25000000  0.78203509  1
  V  V7  1  0.19952728  0.75000000  0.71796491  1
  V  V8  1  0.79562552  0.52852431  0.20010471  1
  V  V9  1  0.29562552  0.47147569  0.29989529  1
  V  V10  1  0.20437448  0.02852431  0.79989529  1
  V  V11  1  0.70437448  0.97147569  0.70010471  1
  O  O12  1  0.93334763  0.11267234  0.73001868  1
  O  O13  1  0.43334763  0.88732766  0.76998132  1
  O  O14  1  0.06665237  0.61267234  0.26998132  1
  O  O15  1  0.56665237  0.38732766  0.23001868  1
  O  O16  1  0.06665237  0.88732766  0.26998132  1
  O  O17  1  0.56665237  0.11267234  0.23001868  1
  O  O18  1  0.93334763  0.38732766  0.73001868  1
  O  O19  1  0.43334763  0.61267234  0.76998132  1
  O  O20  1  0.47043623  0.11251424  0.72526494  1
  O  O21  1  0.97043623  0.88748576  0.77473506  1
  O  O22  1  0.52956377  0.61251424  0.27473506  1
  O  O23  1  0.02956377  0.38748576  0.22526494  1
  O  O24  1  0.52956377  0.88748576  0.27473506  1
  O  O25  1  0.02956377  0.11251424  0.22526494  1
  O  O26  1  0.47043623  0.38748576  0.72526494  1
  O  O27  1  0.97043623  0.61251424  0.77473506  1
  O  O28  1  0.19313233  0.75000000  0.56494727  1
  O  O29  1  0.69313233  0.25000000  0.93505273  1
  O  O30  1  0.80686767  0.25000000  0.43505273  1
  O  O31  1  0.30686767  0.75000000  0.06494727  1
  O  O32  1  0.21464666  0.43531227  0.94778172  1
  O  O33  1  0.71464666  0.56468773  0.55221828  1
  O  O34  1  0.78535334  0.93531227  0.05221828  1
  O  O35  1  0.28535334  0.06468773  0.44778172  1
  O  O36  1  0.78535334  0.56468773  0.05221828  1
  O  O37  1  0.28535334  0.43531227  0.44778172  1
  O  O38  1  0.21464666  0.06468773  0.94778172  1
  O  O39  1  0.71464666  0.93531227  0.55221828  1
