# generated using pymatgen
data_Y8Cu3(SiS7)3
_symmetry_space_group_name_H-M   'P 1'
_cell_length_a   9.81804779
_cell_length_b   9.87553848
_cell_length_c   17.29832567
_cell_angle_alpha   90.00000000
_cell_angle_beta   90.00000000
_cell_angle_gamma   119.83611061
_symmetry_Int_Tables_number   1
_chemical_formula_structural   Y8Cu3(SiS7)3
_chemical_formula_sum   'Y16 Cu6 Si6 S42'
_cell_volume   1454.90782952
_cell_formula_units_Z   2
loop_
 _symmetry_equiv_pos_site_id
 _symmetry_equiv_pos_as_xyz
  1  'x, y, z'
loop_
 _atom_site_type_symbol
 _atom_site_label
 _atom_site_symmetry_multiplicity
 _atom_site_fract_x
 _atom_site_fract_y
 _atom_site_fract_z
 _atom_site_occupancy
  Y  Y0  1  0.12392906  0.35983886  0.25161584  1
  Y  Y1  1  0.11891463  0.35326816  0.57890119  1
  Y  Y2  1  0.13369261  0.36845811  0.91675045  1
  Y  Y3  1  0.88108537  0.64673184  0.07890119  1
  Y  Y4  1  0.86630739  0.63154189  0.41675045  1
  Y  Y5  1  0.87607094  0.64016114  0.75161584  1
  Y  Y6  1  0.23237254  0.87366612  0.24598673  1
  Y  Y7  1  0.23275592  0.86922227  0.58034117  1
  Y  Y8  1  0.36031081  0.22884647  0.08028029  1
  Y  Y9  1  0.36612276  0.23494033  0.41523492  1
  Y  Y10  1  0.36113841  0.22734176  0.75205066  1
  Y  Y11  1  0.76724408  0.13077773  0.08034117  1
  Y  Y12  1  0.76762746  0.12633388  0.74598673  1
  Y  Y13  1  0.63886159  0.77265824  0.25205066  1
  Y  Y14  1  0.63968919  0.77115353  0.58028029  1
  Y  Y15  1  0.63387724  0.76505967  0.91523492  1
  Cu  Cu16  1  0.00396813  0.00085248  0.23182227  1
  Cu  Cu17  1  0.99941667  0.99918651  0.56951928  1
  Cu  Cu18  1  0.00871217  0.99619350  0.90176139  1
  Cu  Cu19  1  0.00058333  0.00081349  0.06951928  1
  Cu  Cu20  1  0.99128783  0.00380650  0.40176139  1
  Cu  Cu21  1  0.99603187  0.99914752  0.73182227  1
  Si  Si22  1  0.66732307  0.32919909  0.27702297  1
  Si  Si23  1  0.66462976  0.33750674  0.60754609  1
  Si  Si24  1  0.66715298  0.33098531  0.94434201  1
  Si  Si25  1  0.33537024  0.66249326  0.10754609  1
  Si  Si26  1  0.33284702  0.66901469  0.44434201  1
  Si  Si27  1  0.33267693  0.67080091  0.77702297  1
  S  S28  1  0.25940628  0.16859243  0.24149611  1
  S  S29  1  0.25719719  0.16480561  0.57210006  1
  S  S30  1  0.25839678  0.17269984  0.90917764  1
  S  S31  1  0.41485951  0.52004973  0.16309874  1
  S  S32  1  0.41354438  0.52151286  0.49294564  1
  S  S33  1  0.41348289  0.52168778  0.82539196  1
  S  S34  1  0.33050371  0.66583228  0.32167654  1
  S  S35  1  0.33276621  0.66561312  0.65406282  1
  S  S36  1  0.33594020  0.66246187  0.98720741  1
  S  S37  1  0.16791081  0.91256999  0.08272069  1
  S  S38  1  0.15951928  0.91015847  0.40571973  1
  S  S39  1  0.16233366  0.90725155  0.73311588  1
  S  S40  1  0.47847278  0.89016052  0.15789146  1
  S  S41  1  0.47908324  0.89343697  0.49049056  1
  S  S42  1  0.48164626  0.89440313  0.82581386  1
  S  S43  1  0.58651711  0.47831222  0.32539196  1
  S  S44  1  0.58514049  0.47995027  0.66309874  1
  S  S45  1  0.58645562  0.47848714  0.99294564  1
  S  S46  1  0.51835374  0.10559687  0.32581386  1
  S  S47  1  0.52152722  0.10983948  0.65789146  1
  S  S48  1  0.52091676  0.10656303  0.99049056  1
  S  S49  1  0.83766634  0.09274845  0.23311588  1
  S  S50  1  0.83208919  0.08743001  0.58272069  1
  S  S51  1  0.84048072  0.08984153  0.90571973  1
  S  S52  1  0.90508391  0.74325969  0.24007171  1
  S  S53  1  0.90707392  0.74171490  0.57230176  1
  S  S54  1  0.90043954  0.74046867  0.90698017  1
  S  S55  1  0.66723379  0.33438688  0.15406282  1
  S  S56  1  0.66405980  0.33753813  0.48720741  1
  S  S57  1  0.66949629  0.33416772  0.82167654  1
  S  S58  1  0.89805039  0.42195617  0.32244729  1
  S  S59  1  0.89137172  0.41385399  0.65871937  1
  S  S60  1  0.89702185  0.41701250  0.99208734  1
  S  S61  1  0.09292608  0.25828510  0.07230176  1
  S  S62  1  0.09956046  0.25953133  0.40698017  1
  S  S63  1  0.09491609  0.25674031  0.74007171  1
  S  S64  1  0.10862828  0.58614601  0.15871937  1
  S  S65  1  0.10297815  0.58298750  0.49208734  1
  S  S66  1  0.10194961  0.57804383  0.82244729  1
  S  S67  1  0.74280281  0.83519439  0.07210006  1
  S  S68  1  0.74160322  0.82730016  0.40917764  1
  S  S69  1  0.74059372  0.83140757  0.74149611  1
