# generated using pymatgen
data_MnZnF4
_symmetry_space_group_name_H-M   'P 1'
_cell_length_a   5.28853176
_cell_length_b   5.20248066
_cell_length_c   6.47402457
_cell_angle_alpha   115.01777335
_cell_angle_beta   114.86107420
_cell_angle_gamma   90.00415266
_symmetry_Int_Tables_number   1
_chemical_formula_structural   MnZnF4
_chemical_formula_sum   'Mn2 Zn2 F8'
_cell_volume   142.98491331
_cell_formula_units_Z   2
loop_
 _symmetry_equiv_pos_site_id
 _symmetry_equiv_pos_as_xyz
  1  'x, y, z'
loop_
 _atom_site_type_symbol
 _atom_site_label
 _atom_site_symmetry_multiplicity
 _atom_site_fract_x
 _atom_site_fract_y
 _atom_site_fract_z
 _atom_site_occupancy
  Mn  Mn0  1  0.00162248  0.50285404  0.00501854  1
  Mn  Mn1  1  0.50004038  0.99870799  0.99931651  1
  Zn  Zn2  1  0.24061042  0.24487676  0.50315594  1
  Zn  Zn3  1  0.76101451  0.75603540  0.50349322  1
  F  F4  1  0.93677473  0.35343840  0.25847603  1
  F  F5  1  0.67656291  0.08847856  0.75618305  1
  F  F6  1  0.07048846  0.64866116  0.75312687  1
  F  F7  1  0.16383883  0.13733313  0.73960789  1
  F  F8  1  0.32868055  0.91911465  0.25556113  1
  F  F9  1  0.43226067  0.41576473  0.24057975  1
  F  F10  1  0.82414104  0.84569919  0.24763933  1
  F  F11  1  0.56756802  0.58526900  0.74604874  1
