# generated using pymatgen
data_Zn(NiO2)2
_symmetry_space_group_name_H-M   'P 1'
_cell_length_a   2.88571289
_cell_length_b   8.74044322
_cell_length_c   10.29971501
_cell_angle_alpha   90.00711459
_cell_angle_beta   90.00009190
_cell_angle_gamma   90.00005341
_symmetry_Int_Tables_number   1
_chemical_formula_structural   Zn(NiO2)2
_chemical_formula_sum   'Zn4 Ni8 O16'
_cell_volume   259.78362931
_cell_formula_units_Z   4
loop_
 _symmetry_equiv_pos_site_id
 _symmetry_equiv_pos_as_xyz
  1  'x, y, z'
loop_
 _atom_site_type_symbol
 _atom_site_label
 _atom_site_symmetry_multiplicity
 _atom_site_fract_x
 _atom_site_fract_y
 _atom_site_fract_z
 _atom_site_occupancy
  Zn  Zn0  1  0.74999921  0.24555536  0.34047797  1
  Zn  Zn1  1  0.25000026  0.75454902  0.65958006  1
  Zn  Zn2  1  0.74999942  0.74540296  0.15960878  1
  Zn  Zn3  1  0.24999972  0.25454965  0.84046532  1
  Ni  Ni4  1  0.24999851  0.41453748  0.10029618  1
  Ni  Ni5  1  0.75000013  0.08543575  0.60027741  1
  Ni  Ni6  1  0.24999985  0.91456692  0.39967784  1
  Ni  Ni7  1  0.74999942  0.58545596  0.89968810  1
  Ni  Ni8  1  0.74999943  0.56135583  0.38415536  1
  Ni  Ni9  1  0.24999994  0.43865157  0.61591635  1
  Ni  Ni10  1  0.74999961  0.06131586  0.11589060  1
  Ni  Ni11  1  0.24999773  0.93868626  0.88408509  1
  O  O12  1  0.24999905  0.90407321  0.07355644  1
  O  O13  1  0.74999983  0.09596370  0.92642262  1
  O  O14  1  0.24999937  0.40400107  0.42647455  1
  O  O15  1  0.74999955  0.59595174  0.57363007  1
  O  O16  1  0.24999971  0.02732252  0.71145731  1
  O  O17  1  0.74999960  0.97273528  0.28852754  1
  O  O18  1  0.24999891  0.52728062  0.78851430  1
  O  O19  1  0.74999937  0.47264227  0.21152392  1
  O  O20  1  0.24999998  0.61933620  0.03193729  1
  O  O21  1  0.74999858  0.38069299  0.96803311  1
  O  O22  1  0.25000048  0.11926296  0.46807855  1
  O  O23  1  0.74999987  0.88066131  0.53187385  1
  O  O24  1  0.74999915  0.78770393  0.82511437  1
  O  O25  1  0.24999968  0.21226289  0.17482031  1
  O  O26  1  0.24999921  0.71236061  0.32507847  1
  O  O27  1  0.75000044  0.28768505  0.67483823  1
