# generated using pymatgen
data_Mg3Sn2O7
_symmetry_space_group_name_H-M   'P 1'
_cell_length_a   5.47976291
_cell_length_b   5.42322271
_cell_length_c   9.68485622
_cell_angle_alpha   106.25928512
_cell_angle_beta   90.00000000
_cell_angle_gamma   90.00000000
_symmetry_Int_Tables_number   1
_chemical_formula_structural   Mg3Sn2O7
_chemical_formula_sum   'Mg6 Sn4 O14'
_cell_volume   276.30303260
_cell_formula_units_Z   2
loop_
 _symmetry_equiv_pos_site_id
 _symmetry_equiv_pos_as_xyz
  1  'x, y, z'
loop_
 _atom_site_type_symbol
 _atom_site_label
 _atom_site_symmetry_multiplicity
 _atom_site_fract_x
 _atom_site_fract_y
 _atom_site_fract_z
 _atom_site_occupancy
  Mg  Mg0  1  0.71622892  0.74187494  1.00000000  1
  Mg  Mg1  1  0.21622892  0.25812506  0.00000000  1
  Mg  Mg2  1  0.80464865  0.58124605  0.60004933  1
  Mg  Mg3  1  0.30464865  0.41875395  0.39995067  1
  Mg  Mg4  1  0.80464865  0.98119572  0.39995067  1
  Mg  Mg5  1  0.30464865  0.01880428  0.60004933  1
  Sn  Sn6  1  0.75337539  0.35765875  0.20998068  1
  Sn  Sn7  1  0.25337539  0.64234125  0.79001932  1
  Sn  Sn8  1  0.25337539  0.85232192  0.20998068  1
  Sn  Sn9  1  0.75337539  0.14767808  0.79001932  1
  O  O10  1  0.67545628  0.92264503  0.58400543  1
  O  O11  1  0.17545628  0.07735497  0.41599457  1
  O  O12  1  0.17545628  0.66135939  0.58400543  1
  O  O13  1  0.67545628  0.33864061  0.41599457  1
  O  O14  1  0.07639458  0.28508471  0.73090813  1
  O  O15  1  0.57639458  0.71491529  0.26909187  1
  O  O16  1  0.57639458  0.44582343  0.73090813  1
  O  O17  1  0.07639458  0.55417657  0.26909187  1
  O  O18  1  0.92065314  0.83680079  0.84567638  1
  O  O19  1  0.42065314  0.16319921  0.15432362  1
  O  O20  1  0.84271701  0.38113987  0.00000000  1
  O  O21  1  0.34271701  0.61886013  1.00000000  1
  O  O22  1  0.92065314  0.99112441  0.15432362  1
  O  O23  1  0.42065314  0.00887559  0.84567638  1
