# generated using pymatgen
data_CaVF4
_symmetry_space_group_name_H-M   'P 1'
_cell_length_a   5.47213536
_cell_length_b   5.41032557
_cell_length_c   6.51925708
_cell_angle_alpha   114.52176687
_cell_angle_beta   110.76237497
_cell_angle_gamma   89.99383005
_symmetry_Int_Tables_number   1
_chemical_formula_structural   CaVF4
_chemical_formula_sum   'Ca2 V2 F8'
_cell_volume   161.72629471
_cell_formula_units_Z   2
loop_
 _symmetry_equiv_pos_site_id
 _symmetry_equiv_pos_as_xyz
  1  'x, y, z'
loop_
 _atom_site_type_symbol
 _atom_site_label
 _atom_site_symmetry_multiplicity
 _atom_site_fract_x
 _atom_site_fract_y
 _atom_site_fract_z
 _atom_site_occupancy
  Ca  Ca0  1  0.24873950  0.25059594  0.50059639  1
  Ca  Ca1  1  0.74888487  0.75139893  0.50103736  1
  V  V2  1  0.99887365  0.50109527  0.00068004  1
  V  V3  1  0.49880184  0.00078056  0.00073090  1
  F  F4  1  0.97595873  0.44853460  0.28599578  1
  F  F5  1  0.64079634  0.17679928  0.78919767  1
  F  F6  1  0.02192573  0.55374198  0.71565079  1
  F  F7  1  0.14082642  0.11335117  0.78943613  1
  F  F8  1  0.35681440  0.82480917  0.21230494  1
  F  F9  1  0.47619205  0.33882602  0.28608633  1
  F  F10  1  0.85699286  0.88875159  0.21223996  1
  F  F11  1  0.52200662  0.66275350  0.71587070  1
