# generated using pymatgen
data_Ca2BiSbO6
_symmetry_space_group_name_H-M   'P 1'
_cell_length_a   5.76887037
_cell_length_b   5.97263314
_cell_length_c   8.23963989
_cell_angle_alpha   90.00000000
_cell_angle_beta   90.00000000
_cell_angle_gamma   89.57276361
_symmetry_Int_Tables_number   1
_chemical_formula_structural   Ca2BiSbO6
_chemical_formula_sum   'Ca4 Bi2 Sb2 O12'
_cell_volume   283.89175388
_cell_formula_units_Z   2
loop_
 _symmetry_equiv_pos_site_id
 _symmetry_equiv_pos_as_xyz
  1  'x, y, z'
loop_
 _atom_site_type_symbol
 _atom_site_label
 _atom_site_symmetry_multiplicity
 _atom_site_fract_x
 _atom_site_fract_y
 _atom_site_fract_z
 _atom_site_occupancy
  Ca  Ca0  1  0.51175449  0.55661585  0.75000000  1
  Ca  Ca1  1  0.48824551  0.44338415  0.25000000  1
  Ca  Ca2  1  0.99624374  0.05134795  0.75000000  1
  Ca  Ca3  1  0.00375626  0.94865205  0.25000000  1
  Bi  Bi4  1  0.50000000  0.00000000  0.50000000  1
  Bi  Bi5  1  0.50000000  0.00000000  0.00000000  1
  Sb  Sb6  1  0.00000000  0.50000000  0.50000000  1
  Sb  Sb7  1  0.00000000  0.50000000  0.00000000  1
  O  O8  1  0.28750320  0.66718138  0.43857717  1
  O  O9  1  0.16052058  0.21308627  0.05876688  1
  O  O10  1  0.71249680  0.33281862  0.93857717  1
  O  O11  1  0.83947942  0.78691373  0.55876688  1
  O  O12  1  0.16052058  0.21308627  0.44123312  1
  O  O13  1  0.83947942  0.78691373  0.94123312  1
  O  O14  1  0.88193007  0.55522425  0.25000000  1
  O  O15  1  0.28750320  0.66718138  0.06142283  1
  O  O16  1  0.36473959  0.92560106  0.75000000  1
  O  O17  1  0.71249680  0.33281862  0.56142283  1
  O  O18  1  0.11806993  0.44477575  0.75000000  1
  O  O19  1  0.63526041  0.07439894  0.25000000  1
