# generated using pymatgen
data_CaCoO3
_symmetry_space_group_name_H-M   'P 1'
_cell_length_a   5.30049527
_cell_length_b   5.41262402
_cell_length_c   7.48887028
_cell_angle_alpha   89.99682535
_cell_angle_beta   89.98382111
_cell_angle_gamma   89.99018983
_symmetry_Int_Tables_number   1
_chemical_formula_structural   CaCoO3
_chemical_formula_sum   'Ca4 Co4 O12'
_cell_volume   214.85259109
_cell_formula_units_Z   4
loop_
 _symmetry_equiv_pos_site_id
 _symmetry_equiv_pos_as_xyz
  1  'x, y, z'
loop_
 _atom_site_type_symbol
 _atom_site_label
 _atom_site_symmetry_multiplicity
 _atom_site_fract_x
 _atom_site_fract_y
 _atom_site_fract_z
 _atom_site_occupancy
  Ca  Ca0  1  0.99114478  0.04673937  0.24995350  1
  Ca  Ca1  1  0.49117324  0.45321666  0.75007901  1
  Ca  Ca2  1  0.50883010  0.54678517  0.24992071  1
  Ca  Ca3  1  0.00885207  0.95325989  0.75004693  1
  Co  Co4  1  0.49999949  0.00000032  0.99999911  1
  Co  Co5  1  0.00000069  0.49999974  -0.00000075  1
  Co  Co6  1  0.00000032  0.50000009  0.50000026  1
  Co  Co7  1  0.49999958  0.00000084  0.50000043  1
  O  O8  1  0.92718617  0.51691211  0.74993990  1
  O  O9  1  0.42712197  0.98307668  0.24980997  1
  O  O10  1  0.57287728  0.01692393  0.75018963  1
  O  O11  1  0.07281496  0.48308698  0.25005984  1
  O  O12  1  0.71056040  0.29332779  0.46107839  1
  O  O13  1  0.21033187  0.20691336  0.53890055  1
  O  O14  1  0.78953211  0.79330968  0.03890450  1
  O  O15  1  0.28977387  0.70691650  0.96109498  1
  O  O16  1  0.71022584  0.29308361  0.03890414  1
  O  O17  1  0.21046792  0.20669021  0.96109402  1
  O  O18  1  0.28943951  0.70667240  0.53892213  1
  O  O19  1  0.78966784  0.79308667  0.46110073  1
