# generated using pymatgen
data_Y4(Cu2O5)3
_symmetry_space_group_name_H-M   'P 1'
_cell_length_a   10.74428648
_cell_length_b   10.54882113
_cell_length_c   12.70424416
_cell_angle_alpha   90.00000000
_cell_angle_beta   90.00000000
_cell_angle_gamma   89.86737107
_symmetry_Int_Tables_number   1
_chemical_formula_structural   Y4(Cu2O5)3
_chemical_formula_sum   'Y16 Cu24 O60'
_cell_volume   1439.88953681
_cell_formula_units_Z   4
loop_
 _symmetry_equiv_pos_site_id
 _symmetry_equiv_pos_as_xyz
  1  'x, y, z'
loop_
 _atom_site_type_symbol
 _atom_site_label
 _atom_site_symmetry_multiplicity
 _atom_site_fract_x
 _atom_site_fract_y
 _atom_site_fract_z
 _atom_site_occupancy
  Y  Y0  1  0.10356815  0.45465638  0.17163368  1
  Y  Y1  1  0.76772415  0.45315088  0.16244811  1
  Y  Y2  1  0.23227585  0.54684912  0.66244811  1
  Y  Y3  1  0.89643185  0.54534362  0.67163368  1
  Y  Y4  1  0.06776909  0.95504454  0.17015443  1
  Y  Y5  1  0.72997375  0.95407471  0.16544779  1
  Y  Y6  1  0.27002625  0.04592529  0.66544779  1
  Y  Y7  1  0.93223091  0.04495546  0.67015443  1
  Y  Y8  1  0.43420264  0.30076318  0.50279305  1
  Y  Y9  1  0.77198960  0.29124950  0.50327772  1
  Y  Y10  1  0.22801040  0.70875050  0.00327772  1
  Y  Y11  1  0.56579736  0.69923682  0.00279305  1
  Y  Y12  1  0.39429569  0.79127595  0.49712666  1
  Y  Y13  1  0.73107016  0.80160369  0.51039512  1
  Y  Y14  1  0.26892984  0.19839631  0.01039512  1
  Y  Y15  1  0.60570431  0.20872405  0.99712666  1
  Cu  Cu16  1  0.27830319  0.23781083  0.28919344  1
  Cu  Cu17  1  0.62546646  0.23305551  0.28646561  1
  Cu  Cu18  1  0.94972922  0.24388338  0.29048673  1
  Cu  Cu19  1  0.05027078  0.75611662  0.79048673  1
  Cu  Cu20  1  0.37453354  0.76694449  0.78646561  1
  Cu  Cu21  1  0.72169681  0.76218917  0.78919344  1
  Cu  Cu22  1  0.20721943  0.73661284  0.29077495  1
  Cu  Cu23  1  0.56236258  0.73639672  0.28663160  1
  Cu  Cu24  1  0.87758088  0.74061533  0.28906306  1
  Cu  Cu25  1  0.12241912  0.25938467  0.78906306  1
  Cu  Cu26  1  0.43763742  0.26360328  0.78663160  1
  Cu  Cu27  1  0.79278057  0.26338716  0.79077495  1
  Cu  Cu28  1  0.22352046  0.01399794  0.38486332  1
  Cu  Cu29  1  0.55030923  0.00648179  0.38065001  1
  Cu  Cu30  1  0.87684460  0.01653114  0.38567724  1
  Cu  Cu31  1  0.12315540  0.98346886  0.88567724  1
  Cu  Cu32  1  0.44969077  0.99351821  0.88065001  1
  Cu  Cu33  1  0.77647954  0.98600206  0.88486332  1
  Cu  Cu34  1  0.28827954  0.51301239  0.38203033  1
  Cu  Cu35  1  0.62270162  0.51022557  0.38426251  1
  Cu  Cu36  1  0.93637399  0.51471343  0.38585456  1
  Cu  Cu37  1  0.06362601  0.48528657  0.88585456  1
  Cu  Cu38  1  0.37729838  0.48977443  0.88426251  1
  Cu  Cu39  1  0.71172046  0.48698761  0.88203033  1
  O  O40  1  0.13558168  0.03844305  0.02203638  1
  O  O41  1  0.43914450  0.07690352  0.00791934  1
  O  O42  1  0.73763023  0.05108990  0.01500405  1
  O  O43  1  0.26236977  0.94891010  0.51500405  1
  O  O44  1  0.56085550  0.92309648  0.50791934  1
  O  O45  1  0.86441832  0.96155695  0.52203638  1
  O  O46  1  0.09583132  0.54876474  0.01807932  1
  O  O47  1  0.39707850  0.57876128  0.00801207  1
  O  O48  1  0.69753428  0.53925312  0.01875764  1
  O  O49  1  0.30246572  0.46074688  0.51875764  1
  O  O50  1  0.60292150  0.42123872  0.50801207  1
  O  O51  1  0.90416868  0.45123526  0.51807932  1
  O  O52  1  0.19277344  0.09229855  0.25831303  1
  O  O53  1  0.57383570  0.07588779  0.24714442  1
  O  O54  1  0.89530475  0.07944288  0.24849041  1
  O  O55  1  0.10469525  0.92055712  0.74849041  1
  O  O56  1  0.42616430  0.92411221  0.74714442  1
  O  O57  1  0.80722656  0.90770145  0.75831303  1
  O  O58  1  0.25586434  0.57631418  0.24948649  1
  O  O59  1  0.64050622  0.58797200  0.25514471  1
  O  O60  1  0.93772436  0.57992677  0.24828622  1
  O  O61  1  0.06227564  0.42007323  0.74828622  1
  O  O62  1  0.35949378  0.41202800  0.75514471  1
  O  O63  1  0.74413566  0.42368582  0.74948649  1
  O  O64  1  0.03334866  0.38168773  0.34223981  1
  O  O65  1  0.37134476  0.37123682  0.33518983  1
  O  O66  1  0.71307220  0.37481591  0.33215779  1
  O  O67  1  0.28692780  0.62518409  0.83215779  1
  O  O68  1  0.62865524  0.62876318  0.83518983  1
  O  O69  1  0.96665134  0.61831227  0.84223981  1
  O  O70  1  0.12897940  0.88153828  0.33730838  1
  O  O71  1  0.46551465  0.86986899  0.32831113  1
  O  O72  1  0.78717795  0.87676675  0.33934678  1
  O  O73  1  0.21282205  0.12323325  0.83934678  1
  O  O74  1  0.53448535  0.13013101  0.82831113  1
  O  O75  1  0.87102060  0.11846172  0.83730838  1
  O  O76  1  0.31035190  0.15925303  0.41609475  1
  O  O77  1  0.60619296  0.17007816  0.42328605  1
  O  O78  1  0.93093763  0.17325684  0.42401945  1
  O  O79  1  0.06906237  0.82674316  0.92401945  1
  O  O80  1  0.39380704  0.82992184  0.92328605  1
  O  O81  1  0.68964810  0.84074697  0.91609475  1
  O  O82  1  0.23799830  0.67237724  0.42298261  1
  O  O83  1  0.56152264  0.67079099  0.42466566  1
  O  O84  1  0.85738415  0.66289680  0.41844870  1
  O  O85  1  0.14261585  0.33710320  0.91844870  1
  O  O86  1  0.43847736  0.32920901  0.92466566  1
  O  O87  1  0.76200170  0.32762276  0.92298261  1
  O  O88  1  0.09953431  0.17125221  0.66510765  1
  O  O89  1  0.40561411  0.20198168  0.65366352  1
  O  O90  1  0.80542123  0.20977518  0.65496288  1
  O  O91  1  0.19457877  0.79022482  0.15496288  1
  O  O92  1  0.59438589  0.79801832  0.15366352  1
  O  O93  1  0.90046569  0.82874779  0.16510765  1
  O  O94  1  0.06387537  0.67312106  0.66354067  1
  O  O95  1  0.36261015  0.71021379  0.65153956  1
  O  O96  1  0.76036309  0.69942936  0.65763478  1
  O  O97  1  0.23963691  0.30057064  0.15763478  1
  O  O98  1  0.63738985  0.28978621  0.15153956  1
  O  O99  1  0.93612463  0.32687894  0.16354067  1
