# generated using pymatgen
data_MgMn2O4
_symmetry_space_group_name_H-M   'P 1'
_cell_length_a   2.99395327
_cell_length_b   5.20157482
_cell_length_c   5.43761787
_cell_angle_alpha   108.46656552
_cell_angle_beta   89.91492592
_cell_angle_gamma   89.99585641
_symmetry_Int_Tables_number   1
_chemical_formula_structural   MgMn2O4
_chemical_formula_sum   'Mg1 Mn2 O4'
_cell_volume   80.32103557
_cell_formula_units_Z   1
loop_
 _symmetry_equiv_pos_site_id
 _symmetry_equiv_pos_as_xyz
  1  'x, y, z'
loop_
 _atom_site_type_symbol
 _atom_site_label
 _atom_site_symmetry_multiplicity
 _atom_site_fract_x
 _atom_site_fract_y
 _atom_site_fract_z
 _atom_site_occupancy
  Mg  Mg0  1  0.49997319  0.50002140  0.99995263  1
  Mn  Mn1  1  0.99988501  0.99988785  0.00017321  1
  Mn  Mn2  1  0.50023366  0.00005908  0.49971489  1
  O  O3  1  0.49892408  0.20967632  0.19998856  1
  O  O4  1  0.00086026  0.23520702  0.78605780  1
  O  O5  1  0.99910001  0.76473924  0.21399139  1
  O  O6  1  0.50102379  0.79039209  0.80010652  1
