# generated using pymatgen
data_Na3Mn2(GeO4)3
_symmetry_space_group_name_H-M   'P 1'
_cell_length_a   10.62692774
_cell_length_b   10.62243503
_cell_length_c   10.62496593
_cell_angle_alpha   109.46131305
_cell_angle_beta   109.47824601
_cell_angle_gamma   109.46795103
_symmetry_Int_Tables_number   1
_chemical_formula_structural   Na3Mn2(GeO4)3
_chemical_formula_sum   'Na12 Mn8 Ge12 O48'
_cell_volume   923.35866144
_cell_formula_units_Z   4
loop_
 _symmetry_equiv_pos_site_id
 _symmetry_equiv_pos_as_xyz
  1  'x, y, z'
loop_
 _atom_site_type_symbol
 _atom_site_label
 _atom_site_symmetry_multiplicity
 _atom_site_fract_x
 _atom_site_fract_y
 _atom_site_fract_z
 _atom_site_occupancy
  Na  Na0  1  0.62502856  0.25003588  0.87490095  1
  Na  Na1  1  0.87521651  0.75043184  0.62504090  1
  Na  Na2  1  0.74996747  0.62500678  0.87507336  1
  Na  Na3  1  0.24976415  0.87519080  0.62476190  1
  Na  Na4  1  0.87499557  0.62537232  0.25013424  1
  Na  Na5  1  0.62514877  0.87508408  0.75012487  1
  Na  Na6  1  0.37497132  0.74996380  0.12509793  1
  Na  Na7  1  0.12478332  0.24956814  0.37495809  1
  Na  Na8  1  0.25003309  0.37499284  0.12492686  1
  Na  Na9  1  0.75023646  0.12481013  0.37523797  1
  Na  Na10  1  0.12500426  0.37462777  0.74986587  1
  Na  Na11  1  0.37485047  0.12491558  0.24987421  1
  Mn  Mn12  1  0.50000069  0.50000040  0.49999945  1
  Mn  Mn13  1  0.50000164  0.50000161  0.00000004  1
  Mn  Mn14  1  0.49999852  0.99999953  0.50000071  1
  Mn  Mn15  1  0.00000016  0.49999929  0.49999778  1
  Mn  Mn16  1  0.50000070  0.00000108  0.00000080  1
  Mn  Mn17  1  1.00000028  1.00000123  0.50000126  1
  Mn  Mn18  1  1.00000043  0.50000147  1.00000010  1
  Mn  Mn19  1  0.00000114  0.99999910  0.99999906  1
  Ge  Ge20  1  0.87493330  0.12483814  0.74977001  1
  Ge  Ge21  1  0.12506422  0.87515666  0.25022870  1
  Ge  Ge22  1  0.25007360  0.62499033  0.37500272  1
  Ge  Ge23  1  0.12499259  0.74998063  0.87504820  1
  Ge  Ge24  1  0.75019365  0.87508014  0.12515815  1
  Ge  Ge25  1  0.37482518  0.24987723  0.62501310  1
  Ge  Ge26  1  0.62517784  0.75012356  0.37498983  1
  Ge  Ge27  1  0.87500436  0.25002029  0.12495449  1
  Ge  Ge28  1  0.24980719  0.12491848  0.87484199  1
  Ge  Ge29  1  0.74992541  0.37501081  0.62499709  1
  Ge  Ge30  1  0.37494578  0.62499660  0.75002973  1
  Ge  Ge31  1  0.62505184  0.37500102  0.24997226  1
  O  O32  1  0.80538354  0.41790086  0.81869036  1
  O  O33  1  0.08108447  0.88666008  0.40025194  1
  O  O34  1  0.68131152  0.09918730  0.98669305  1
  O  O35  1  0.69474067  0.51354257  0.61257851  1
  O  O36  1  0.69446165  0.68113581  0.08152836  1
  O  O37  1  0.51326643  0.61246392  0.69461961  1
  O  O38  1  0.09933612  0.61265214  0.41804262  1
  O  O39  1  0.61204766  0.69461703  0.51322768  1
  O  O40  1  0.40083212  0.81874045  0.51353648  1
  O  O41  1  0.88704182  0.98663343  0.80549049  1
  O  O42  1  0.98647074  0.80521351  0.88724620  1
  O  O43  1  0.08198746  0.69460914  0.68127077  1
  O  O44  1  0.61275156  0.41795236  0.09919243  1
  O  O45  1  0.51321818  0.40088757  0.81871664  1
  O  O46  1  0.68129283  0.08215493  0.69449342  1
  O  O47  1  0.41846604  0.09958716  0.61295780  1
  O  O48  1  0.81875113  0.51335173  0.40068237  1
  O  O49  1  0.40114618  0.08255579  0.88795339  1
  O  O50  1  0.09978966  0.98643413  0.68088295  1
  O  O51  1  0.59916751  0.18125770  0.48646206  1
  O  O52  1  0.98685082  0.68140305  0.09891093  1
  O  O53  1  0.81911181  0.80556948  0.41892390  1
  O  O54  1  0.88742230  0.40097306  0.08219797  1
  O  O55  1  0.80552112  0.88765286  0.98676870  1
  O  O56  1  0.19461576  0.58209769  0.18130788  1
  O  O57  1  0.91891414  0.11333888  0.59974880  1
  O  O58  1  0.31869031  0.90081450  0.01330865  1
  O  O59  1  0.30525890  0.48645698  0.38742132  1
  O  O60  1  0.30554147  0.31886686  0.91847476  1
  O  O61  1  0.48673276  0.38753591  0.30538015  1
  O  O62  1  0.90066431  0.38734618  0.58195380  1
  O  O63  1  0.38795233  0.30538564  0.48677274  1
  O  O64  1  0.19447829  0.11234788  0.01322957  1
  O  O65  1  0.11257695  0.59902993  0.91780150  1
  O  O66  1  0.18088941  0.19443167  0.58107747  1
  O  O67  1  0.58222689  0.18122571  0.19481001  1
  O  O68  1  0.01314952  0.31859696  0.90108983  1
  O  O69  1  0.90021238  0.01356882  0.31911826  1
  O  O70  1  0.59885484  0.91744515  0.11204723  1
  O  O71  1  0.18124666  0.48664653  0.59931729  1
  O  O72  1  0.58153343  0.90041383  0.38704220  1
  O  O73  1  0.31870693  0.91784369  0.30550651  1
  O  O74  1  0.48678196  0.59911232  0.18128396  1
  O  O75  1  0.38724720  0.58204650  0.90080813  1
  O  O76  1  0.91801224  0.30539009  0.31872636  1
  O  O77  1  0.01353083  0.19478582  0.11275360  1
  O  O78  1  0.11295728  0.01336512  0.19450849  1
  O  O79  1  0.41777339  0.81877371  0.80519023  1
