# generated using pymatgen
data_Si2SnO6
_symmetry_space_group_name_H-M   'P 1'
_cell_length_a   5.41643064
_cell_length_b   6.66750387
_cell_length_c   6.66750358
_cell_angle_alpha   84.84609463
_cell_angle_beta   75.89176834
_cell_angle_gamma   75.89176853
_symmetry_Int_Tables_number   1
_chemical_formula_structural   Si2SnO6
_chemical_formula_sum   'Si4 Sn2 O12'
_cell_volume   226.36539902
_cell_formula_units_Z   2
loop_
 _symmetry_equiv_pos_site_id
 _symmetry_equiv_pos_as_xyz
  1  'x, y, z'
loop_
 _atom_site_type_symbol
 _atom_site_label
 _atom_site_symmetry_multiplicity
 _atom_site_fract_x
 _atom_site_fract_y
 _atom_site_fract_z
 _atom_site_occupancy
  Si  Si0  1  0.24472425  0.21668290  0.38327805  1
  Si  Si1  1  0.25527678  0.61672105  0.78331609  1
  Si  Si2  1  0.74472425  0.38327805  0.21668290  1
  Si  Si3  1  0.75527778  0.78331609  0.61672105  1
  Sn  Sn4  1  0.25000129  0.11048334  0.88951526  1
  Sn  Sn5  1  0.75000129  0.88951626  0.11048234  1
  O  O6  1  0.47317805  0.34313569  0.36516519  1
  O  O7  1  0.02682536  0.63483680  0.65686193  1
  O  O8  1  0.52682636  0.65686193  0.63483780  1
  O  O9  1  0.97317705  0.36516619  0.34313469  1
  O  O10  1  0.19365258  0.09928096  0.60634045  1
  O  O11  1  0.30634035  0.39366042  0.90072228  1
  O  O12  1  0.80634035  0.90072328  0.39366142  1
  O  O13  1  0.69365158  0.60634045  0.09928196  1
  O  O14  1  0.85550325  0.18843885  0.04924785  1
  O  O15  1  0.64449609  0.95075057  0.81156130  1
  O  O16  1  0.35550225  0.04924785  0.18843985  1
  O  O17  1  0.14449709  0.81156230  0.95075057  1
