# generated using pymatgen
data_Ca3Ge3(SbO6)2
_symmetry_space_group_name_H-M   'P 1'
_cell_length_a   11.27487603
_cell_length_b   11.27487539
_cell_length_c   11.27487554
_cell_angle_alpha   109.47122093
_cell_angle_beta   109.47121977
_cell_angle_gamma   109.47121982
_symmetry_Int_Tables_number   1
_chemical_formula_structural   Ca3Ge3(SbO6)2
_chemical_formula_sum   'Ca12 Ge12 Sb8 O48'
_cell_volume   1103.35025348
_cell_formula_units_Z   4
loop_
 _symmetry_equiv_pos_site_id
 _symmetry_equiv_pos_as_xyz
  1  'x, y, z'
loop_
 _atom_site_type_symbol
 _atom_site_label
 _atom_site_symmetry_multiplicity
 _atom_site_fract_x
 _atom_site_fract_y
 _atom_site_fract_z
 _atom_site_occupancy
  Ca  Ca0  1  0.62500000  0.25000000  0.87500000  1
  Ca  Ca1  1  0.87500000  0.75000000  0.62500000  1
  Ca  Ca2  1  0.75000000  0.62500000  0.87500000  1
  Ca  Ca3  1  0.25000000  0.87500000  0.62500000  1
  Ca  Ca4  1  0.87500000  0.62500000  0.25000000  1
  Ca  Ca5  1  0.62500000  0.87500000  0.75000000  1
  Ca  Ca6  1  0.37500000  0.75000000  0.12500000  1
  Ca  Ca7  1  0.12500000  0.25000000  0.37500000  1
  Ca  Ca8  1  0.25000000  0.37500000  0.12500000  1
  Ca  Ca9  1  0.75000000  0.12500000  0.37500000  1
  Ca  Ca10  1  0.12500000  0.37500000  0.75000000  1
  Ca  Ca11  1  0.37500000  0.12500000  0.25000000  1
  Ge  Ge12  1  0.87500000  0.12500000  0.75000000  1
  Ge  Ge13  1  0.12500000  0.87500000  0.25000000  1
  Ge  Ge14  1  0.25000000  0.62500000  0.37500000  1
  Ge  Ge15  1  0.12500000  0.75000000  0.87500000  1
  Ge  Ge16  1  0.75000000  0.87500000  0.12500000  1
  Ge  Ge17  1  0.37500000  0.25000000  0.62500000  1
  Ge  Ge18  1  0.62500000  0.75000000  0.37500000  1
  Ge  Ge19  1  0.87500000  0.25000000  0.12500000  1
  Ge  Ge20  1  0.25000000  0.12500000  0.87500000  1
  Ge  Ge21  1  0.75000000  0.37500000  0.62500000  1
  Ge  Ge22  1  0.37500000  0.62500000  0.75000000  1
  Ge  Ge23  1  0.62500000  0.37500000  0.25000000  1
  Sb  Sb24  1  0.50000000  0.50000000  0.50000000  1
  Sb  Sb25  1  0.50000000  0.50000000  0.00000000  1
  Sb  Sb26  1  0.50000000  0.00000000  0.50000000  1
  Sb  Sb27  1  0.00000000  0.50000000  0.50000000  1
  Sb  Sb28  1  0.50000000  0.00000000  0.00000000  1
  Sb  Sb29  1  0.00000000  0.00000000  0.50000000  1
  Sb  Sb30  1  0.00000000  0.50000000  0.00000000  1
  Sb  Sb31  1  0.00000000  0.00000000  0.00000000  1
  O  O32  1  0.78081226  0.40796569  0.80299028  1
  O  O33  1  0.09203431  0.87284657  0.39502459  1
  O  O34  1  0.69700972  0.10497541  0.97782098  1
  O  O35  1  0.71918774  0.52217902  0.62715343  1
  O  O36  1  0.71918774  0.69700972  0.09203431  1
  O  O37  1  0.52217902  0.62715343  0.71918774  1
  O  O38  1  0.10497541  0.62715343  0.40796569  1
  O  O39  1  0.62715343  0.71918774  0.52217902  1
  O  O40  1  0.39502459  0.80299028  0.52217902  1
  O  O41  1  0.87284657  0.97782098  0.78081226  1
  O  O42  1  0.97782098  0.78081226  0.87284657  1
  O  O43  1  0.09203431  0.71918774  0.69700972  1
  O  O44  1  0.62715343  0.40796569  0.10497541  1
  O  O45  1  0.52217902  0.39502459  0.80299028  1
  O  O46  1  0.69700972  0.09203431  0.71918774  1
  O  O47  1  0.40796569  0.10497541  0.62715343  1
  O  O48  1  0.80299028  0.52217902  0.39502459  1
  O  O49  1  0.39502459  0.09203431  0.87284657  1
  O  O50  1  0.10497541  0.97782098  0.69700972  1
  O  O51  1  0.60497541  0.19700972  0.47782098  1
  O  O52  1  0.97782098  0.69700972  0.10497541  1
  O  O53  1  0.80299028  0.78081226  0.40796569  1
  O  O54  1  0.87284657  0.39502459  0.09203431  1
  O  O55  1  0.78081226  0.87284657  0.97782098  1
  O  O56  1  0.21918774  0.59203431  0.19700972  1
  O  O57  1  0.90796569  0.12715343  0.60497541  1
  O  O58  1  0.30299028  0.89502459  0.02217902  1
  O  O59  1  0.28081226  0.47782098  0.37284657  1
  O  O60  1  0.28081226  0.30299028  0.90796569  1
  O  O61  1  0.47782098  0.37284657  0.28081226  1
  O  O62  1  0.89502459  0.37284657  0.59203431  1
  O  O63  1  0.37284657  0.28081226  0.47782098  1
  O  O64  1  0.21918774  0.12715343  0.02217902  1
  O  O65  1  0.12715343  0.60497541  0.90796569  1
  O  O66  1  0.19700972  0.21918774  0.59203431  1
  O  O67  1  0.59203431  0.19700972  0.21918774  1
  O  O68  1  0.02217902  0.30299028  0.89502459  1
  O  O69  1  0.89502459  0.02217902  0.30299028  1
  O  O70  1  0.60497541  0.90796569  0.12715343  1
  O  O71  1  0.19700972  0.47782098  0.60497541  1
  O  O72  1  0.59203431  0.89502459  0.37284657  1
  O  O73  1  0.30299028  0.90796569  0.28081226  1
  O  O74  1  0.47782098  0.60497541  0.19700972  1
  O  O75  1  0.37284657  0.59203431  0.89502459  1
  O  O76  1  0.90796569  0.28081226  0.30299028  1
  O  O77  1  0.02217902  0.21918774  0.12715343  1
  O  O78  1  0.12715343  0.02217902  0.21918774  1
  O  O79  1  0.40796569  0.80299028  0.78081226  1
