# generated using pymatgen
data_Ca2CuWO6
_symmetry_space_group_name_H-M   'P 1'
_cell_length_a   5.50964221
_cell_length_b   5.72160860
_cell_length_c   7.64119379
_cell_angle_alpha   90.00000000
_cell_angle_beta   90.25266820
_cell_angle_gamma   90.00000000
_symmetry_Int_Tables_number   1
_chemical_formula_structural   Ca2CuWO6
_chemical_formula_sum   'Ca4 Cu2 W2 O12'
_cell_volume   240.87877486
_cell_formula_units_Z   2
loop_
 _symmetry_equiv_pos_site_id
 _symmetry_equiv_pos_as_xyz
  1  'x, y, z'
loop_
 _atom_site_type_symbol
 _atom_site_label
 _atom_site_symmetry_multiplicity
 _atom_site_fract_x
 _atom_site_fract_y
 _atom_site_fract_z
 _atom_site_occupancy
  Ca  Ca0  1  0.98670328  0.05734690  0.25276687  1
  Ca  Ca1  1  0.51329672  0.55734790  0.24723313  1
  Ca  Ca2  1  0.01329772  0.94265410  0.74723313  1
  Ca  Ca3  1  0.48670228  0.44265310  0.75276687  1
  Cu  Cu4  1  0.50000000  0.00000000  0.00000000  1
  Cu  Cu5  1  0.00000100  0.49999900  0.50000000  1
  W  W6  1  0.50000000  0.00000000  0.49999900  1
  W  W7  1  0.00000000  0.49999900  0.00000000  1
  O  O8  1  0.68507045  0.28144947  0.44618512  1
  O  O9  1  0.81492955  0.78145047  0.05381488  1
  O  O10  1  0.31492855  0.71855053  0.55381488  1
  O  O11  1  0.18507145  0.21854953  0.94618512  1
  O  O12  1  0.21305910  0.18900201  0.54621066  1
  O  O13  1  0.28694090  0.68900101  0.95378934  1
  O  O14  1  0.78694190  0.81099799  0.45378934  1
  O  O15  1  0.71305810  0.31099899  0.04621066  1
  O  O16  1  0.09551218  0.46738307  0.24600461  1
  O  O17  1  0.40448882  0.96738407  0.25399439  1
  O  O18  1  0.59551218  0.03261593  0.74600561  1
  O  O19  1  0.90448882  0.53261693  0.75399539  1
