# generated using pymatgen
data_MgV4O8
_symmetry_space_group_name_H-M   'P 1'
_cell_length_a   6.07608009
_cell_length_b   6.07607979
_cell_length_c   6.07608046
_cell_angle_alpha   58.11208873
_cell_angle_beta   58.11208908
_cell_angle_gamma   58.11209255
_symmetry_Int_Tables_number   1
_chemical_formula_structural   MgV4O8
_chemical_formula_sum   'Mg1 V4 O8'
_cell_volume   151.75402802
_cell_formula_units_Z   1
loop_
 _symmetry_equiv_pos_site_id
 _symmetry_equiv_pos_as_xyz
  1  'x, y, z'
loop_
 _atom_site_type_symbol
 _atom_site_label
 _atom_site_symmetry_multiplicity
 _atom_site_fract_x
 _atom_site_fract_y
 _atom_site_fract_z
 _atom_site_occupancy
  Mg  Mg0  1  0.50000000  0.50000100  0.49999900  1
  V  V1  1  0.50000100  0.99999900  0.50000100  1
  V  V2  1  0.99999900  0.50000000  0.50000100  1
  V  V3  1  0.50000000  0.50000000  0.00000000  1
  V  V4  1  0.00000000  0.00000000  0.00000000  1
  O  O5  1  0.75555003  0.27305484  0.75555003  1
  O  O6  1  0.24444897  0.24444997  0.72694516  1
  O  O7  1  0.24444897  0.72694616  0.24444897  1
  O  O8  1  0.72694416  0.24444997  0.24444997  1
  O  O9  1  0.26753253  0.26753353  0.26753253  1
  O  O10  1  0.73246747  0.73246747  0.73246747  1
  O  O11  1  0.27305584  0.75555103  0.75555003  1
  O  O12  1  0.75555103  0.75555103  0.27305484  1
