# generated using pymatgen
data_ZnAgAsO5
_symmetry_space_group_name_H-M   'P 1'
_cell_length_a   8.00271070
_cell_length_b   6.28579606
_cell_length_c   9.28925562
_cell_angle_alpha   89.99458273
_cell_angle_beta   89.99854577
_cell_angle_gamma   89.99483587
_symmetry_Int_Tables_number   1
_chemical_formula_structural   ZnAgAsO5
_chemical_formula_sum   'Zn4 Ag4 As4 O20'
_cell_volume   467.28120520
_cell_formula_units_Z   4
loop_
 _symmetry_equiv_pos_site_id
 _symmetry_equiv_pos_as_xyz
  1  'x, y, z'
loop_
 _atom_site_type_symbol
 _atom_site_label
 _atom_site_symmetry_multiplicity
 _atom_site_fract_x
 _atom_site_fract_y
 _atom_site_fract_z
 _atom_site_occupancy
  Zn  Zn0  1  0.03363068  0.73211757  0.05598925  1
  Zn  Zn1  1  0.46652931  0.26785740  0.55600712  1
  Zn  Zn2  1  0.53361243  0.76794947  0.94393916  1
  Zn  Zn3  1  0.96648034  0.23209478  0.44387934  1
  Ag  Ag4  1  0.99942025  0.49922549  0.74666373  1
  Ag  Ag5  1  0.50030631  0.50064130  0.24665718  1
  Ag  Ag6  1  0.49969928  0.00068153  0.25339912  1
  Ag  Ag7  1  0.00001566  0.99943262  0.75340151  1
  As  As8  1  0.63603999  0.27102122  0.88796084  1
  As  As9  1  0.86401214  0.72899648  0.38787618  1
  As  As10  1  0.13593129  0.22889118  0.11200659  1
  As  As11  1  0.36414396  0.77107761  0.61206309  1
  O  O12  1  0.82840531  0.25166209  0.79032970  1
  O  O13  1  0.67172107  0.74841513  0.29017993  1
  O  O14  1  0.32840616  0.24840108  0.20976270  1
  O  O15  1  0.17172098  0.75152980  0.70988656  1
  O  O16  1  0.48128503  0.29252719  0.76419688  1
  O  O17  1  0.01879516  0.70749154  0.26418324  1
  O  O18  1  0.98131576  0.20745823  0.23590007  1
  O  O19  1  0.51878571  0.79251723  0.73592925  1
  O  O20  1  0.62798627  0.05232215  0.99698251  1
  O  O21  1  0.87212027  0.94769116  0.49694198  1
  O  O22  1  0.12796746  0.44767728  0.00300366  1
  O  O23  1  0.37221501  0.55232618  0.50304407  1
  O  O24  1  0.64831122  0.49382984  0.99414321  1
  O  O25  1  0.85180840  0.50631510  0.49405605  1
  O  O26  1  0.14829121  0.00615200  0.00586614  1
  O  O27  1  0.35190086  0.99371497  0.50595556  1
  O  O28  1  0.90145430  0.74804173  0.86514049  1
  O  O29  1  0.59814149  0.25194483  0.36518399  1
  O  O30  1  0.40172139  0.75195308  0.13476270  1
  O  O31  1  0.09782328  0.24804473  0.63470818  1
