# generated using pymatgen
data_Ba4GaN3O
_symmetry_space_group_name_H-M   'P 1'
_cell_length_a   8.02536594
_cell_length_b   25.01159020
_cell_length_c   7.98743275
_cell_angle_alpha   90.00000000
_cell_angle_beta   90.00000000
_cell_angle_gamma   90.00000000
_symmetry_Int_Tables_number   1
_chemical_formula_structural   Ba4GaN3O
_chemical_formula_sum   'Ba32 Ga8 N24 O8'
_cell_volume   1603.29472432
_cell_formula_units_Z   8
loop_
 _symmetry_equiv_pos_site_id
 _symmetry_equiv_pos_as_xyz
  1  'x, y, z'
loop_
 _atom_site_type_symbol
 _atom_site_label
 _atom_site_symmetry_multiplicity
 _atom_site_fract_x
 _atom_site_fract_y
 _atom_site_fract_z
 _atom_site_occupancy
  Ba  Ba0  1  0.85743900  0.43682143  0.16599114  1
  Ba  Ba1  1  0.35743900  0.06317857  0.83400886  1
  Ba  Ba2  1  0.14256100  0.93682143  0.33400886  1
  Ba  Ba3  1  0.64256100  0.56317857  0.66599114  1
  Ba  Ba4  1  0.14256100  0.56317857  0.83400886  1
  Ba  Ba5  1  0.64256100  0.93682143  0.16599114  1
  Ba  Ba6  1  0.85743900  0.06317857  0.66599114  1
  Ba  Ba7  1  0.35743900  0.43682143  0.33400886  1
  Ba  Ba8  1  0.51893833  0.06120578  0.35744926  1
  Ba  Ba9  1  0.01893833  0.43879422  0.64255074  1
  Ba  Ba10  1  0.48106167  0.56120578  0.14255074  1
  Ba  Ba11  1  0.98106167  0.93879422  0.85744926  1
  Ba  Ba12  1  0.48106167  0.93879422  0.64255074  1
  Ba  Ba13  1  0.98106167  0.56120578  0.35744926  1
  Ba  Ba14  1  0.51893833  0.43879422  0.85744926  1
  Ba  Ba15  1  0.01893833  0.06120578  0.14255074  1
  Ba  Ba16  1  0.95314092  0.26645668  0.26335931  1
  Ba  Ba17  1  0.45314092  0.23354332  0.73664069  1
  Ba  Ba18  1  0.04685908  0.76645668  0.23664069  1
  Ba  Ba19  1  0.54685908  0.73354332  0.76335931  1
  Ba  Ba20  1  0.04685908  0.73354332  0.73664069  1
  Ba  Ba21  1  0.54685908  0.76645668  0.26335931  1
  Ba  Ba22  1  0.95314092  0.23354332  0.76335931  1
  Ba  Ba23  1  0.45314092  0.26645668  0.23664069  1
  Ba  Ba24  1  0.69115594  0.14972652  0.04053285  1
  Ba  Ba25  1  0.19115594  0.35027348  0.95946715  1
  Ba  Ba26  1  0.30884406  0.64972652  0.45946715  1
  Ba  Ba27  1  0.80884406  0.85027348  0.54053285  1
  Ba  Ba28  1  0.30884406  0.85027348  0.95946715  1
  Ba  Ba29  1  0.80884406  0.64972652  0.04053285  1
  Ba  Ba30  1  0.69115594  0.35027348  0.54053285  1
  Ba  Ba31  1  0.19115594  0.14972652  0.45946715  1
  Ga  Ga32  1  0.70630042  0.17145543  0.48437566  1
  Ga  Ga33  1  0.20630042  0.32854457  0.51562434  1
  Ga  Ga34  1  0.29369958  0.67145543  0.01562434  1
  Ga  Ga35  1  0.79369958  0.82854457  0.98437566  1
  Ga  Ga36  1  0.29369958  0.82854457  0.51562434  1
  Ga  Ga37  1  0.79369958  0.67145543  0.48437566  1
  Ga  Ga38  1  0.70630042  0.32854457  0.98437566  1
  Ga  Ga39  1  0.20630042  0.17145543  0.01562434  1
  N  N40  1  0.57444967  0.37233237  0.13882377  1
  N  N41  1  0.07444967  0.12766763  0.86117623  1
  N  N42  1  0.42555033  0.87233237  0.36117623  1
  N  N43  1  0.92555033  0.62766763  0.63882377  1
  N  N44  1  0.42555033  0.62766763  0.86117623  1
  N  N45  1  0.92555033  0.87233237  0.13882377  1
  N  N46  1  0.57444967  0.12766763  0.63882377  1
  N  N47  1  0.07444967  0.37233237  0.36117623  1
  N  N48  1  0.86098299  0.13194898  0.34885027  1
  N  N49  1  0.36098299  0.36805102  0.65114973  1
  N  N50  1  0.13901701  0.63194898  0.15114973  1
  N  N51  1  0.63901701  0.86805102  0.84885027  1
  N  N52  1  0.13901701  0.86805102  0.65114973  1
  N  N53  1  0.63901701  0.63194898  0.34885027  1
  N  N54  1  0.86098299  0.36805102  0.84885027  1
  N  N55  1  0.36098299  0.13194898  0.15114973  1
  N  N56  1  0.69139323  0.24721928  0.49123888  1
  N  N57  1  0.19139323  0.25278072  0.50876112  1
  N  N58  1  0.30860677  0.74721928  0.00876112  1
  N  N59  1  0.80860677  0.75278072  0.99123888  1
  N  N60  1  0.30860677  0.75278072  0.50876112  1
  N  N61  1  0.80860677  0.74721928  0.49123888  1
  N  N62  1  0.69139323  0.25278072  0.99123888  1
  N  N63  1  0.19139323  0.24721928  0.00876112  1
  O  O64  1  0.76833819  0.02533788  -0.02567532  1
  O  O65  1  0.26833819  0.47466212  0.02567532  1
  O  O66  1  0.23166181  0.52533788  0.52567532  1
  O  O67  1  0.73166181  0.97466212  0.47432468  1
  O  O68  1  0.23166181  0.97466212  0.02567532  1
  O  O69  1  0.73166181  0.52533788  -0.02567532  1
  O  O70  1  0.76833819  0.47466212  0.47432468  1
  O  O71  1  0.26833819  0.02533788  0.52567532  1
