# generated using pymatgen
data_Mg15Mn
_symmetry_space_group_name_H-M   'P 1'
_cell_length_a   6.33735590
_cell_length_b   6.33735540
_cell_length_c   10.16098684
_cell_angle_alpha   90.00000000
_cell_angle_beta   90.00000000
_cell_angle_gamma   120.00000263
_symmetry_Int_Tables_number   1
_chemical_formula_structural   Mg15Mn
_chemical_formula_sum   'Mg15 Mn1'
_cell_volume   353.41312097
_cell_formula_units_Z   1
loop_
 _symmetry_equiv_pos_site_id
 _symmetry_equiv_pos_as_xyz
  1  'x, y, z'
loop_
 _atom_site_type_symbol
 _atom_site_label
 _atom_site_symmetry_multiplicity
 _atom_site_fract_x
 _atom_site_fract_y
 _atom_site_fract_z
 _atom_site_occupancy
  Mg  Mg0  1  0.16666700  0.33333300  0.62500000  1
  Mg  Mg1  1  0.16690679  0.83345290  0.12500000  1
  Mg  Mg2  1  0.16690206  0.83345053  0.62500000  1
  Mg  Mg3  1  0.66654710  0.33309321  0.12500000  1
  Mg  Mg4  1  0.66654947  0.33309794  0.62500000  1
  Mg  Mg5  1  0.66654710  0.83345290  0.12500000  1
  Mg  Mg6  1  0.66654947  0.83345053  0.62500000  1
  Mg  Mg7  1  0.33073372  0.16926628  0.37095966  1
  Mg  Mg8  1  0.33073372  0.16926628  0.87904034  1
  Mg  Mg9  1  0.33073372  0.66146845  0.37095966  1
  Mg  Mg10  1  0.33073372  0.66146845  0.87904034  1
  Mg  Mg11  1  0.83853155  0.16926628  0.37095966  1
  Mg  Mg12  1  0.83853155  0.16926628  0.87904034  1
  Mg  Mg13  1  0.83333300  0.66666700  0.37587037  1
  Mg  Mg14  1  0.83333300  0.66666700  0.87412963  1
  Mn  Mn15  1  0.16666700  0.33333300  0.12500000  1
