# generated using pymatgen
data_Mn3Al2F15
_symmetry_space_group_name_H-M   'P 1'
_cell_length_a   10.38785452
_cell_length_b   5.33247815
_cell_length_c   9.71946658
_cell_angle_alpha   90.00000000
_cell_angle_beta   90.00000000
_cell_angle_gamma   110.79935488
_symmetry_Int_Tables_number   1
_chemical_formula_structural   Mn3Al2F15
_chemical_formula_sum   'Mn6 Al4 F30'
_cell_volume   503.30340031
_cell_formula_units_Z   2
loop_
 _symmetry_equiv_pos_site_id
 _symmetry_equiv_pos_as_xyz
  1  'x, y, z'
loop_
 _atom_site_type_symbol
 _atom_site_label
 _atom_site_symmetry_multiplicity
 _atom_site_fract_x
 _atom_site_fract_y
 _atom_site_fract_z
 _atom_site_occupancy
  Mn  Mn0  1  0.16554818  0.97656902  0.49053418  1
  Mn  Mn1  1  0.50000000  0.00000000  0.50000000  1
  Mn  Mn2  1  0.83445182  0.02343098  0.50946582  1
  Mn  Mn3  1  0.16554818  0.97656902  0.00946582  1
  Mn  Mn4  1  0.50000000  0.00000000  0.00000000  1
  Mn  Mn5  1  0.83445182  0.02343098  0.99053418  1
  Al  Al6  1  0.59251337  0.57179121  0.25000000  1
  Al  Al7  1  0.93932776  0.58389315  0.25000000  1
  Al  Al8  1  0.06067224  0.41610685  0.75000000  1
  Al  Al9  1  0.40748663  0.42820879  0.75000000  1
  F  F10  1  0.11341221  0.66214843  0.25000000  1
  F  F11  1  0.43670494  0.60495381  0.25000000  1
  F  F12  1  0.76453919  0.55724830  0.25000000  1
  F  F13  1  0.23546081  0.44275170  0.75000000  1
  F  F14  1  0.56329506  0.39504619  0.75000000  1
  F  F15  1  0.88658779  0.33785157  0.75000000  1
  F  F16  1  0.03213163  0.14903969  0.60754732  1
  F  F17  1  0.34172600  0.16232782  0.61798124  1
  F  F18  1  0.67547561  0.12347200  0.58141994  1
  F  F19  1  0.32452439  0.87652800  0.41858006  1
  F  F20  1  0.65827400  0.83767218  0.38201876  1
  F  F21  1  0.96786837  0.85096031  0.39245268  1
  F  F22  1  0.10257080  0.67452519  0.88669877  1
  F  F23  1  0.44833346  0.69436334  0.88541916  1
  F  F24  1  0.78695536  0.73014870  0.89239469  1
  F  F25  1  0.21304464  0.26985130  0.10760531  1
  F  F26  1  0.55166654  0.30563666  0.11458084  1
  F  F27  1  0.89742920  0.32547481  0.11330123  1
  F  F28  1  0.21304464  0.26985130  0.39239469  1
  F  F29  1  0.55166654  0.30563666  0.38541916  1
  F  F30  1  0.89742920  0.32547481  0.38669877  1
  F  F31  1  0.10257080  0.67452519  0.61330123  1
  F  F32  1  0.44833346  0.69436334  0.61458084  1
  F  F33  1  0.78695536  0.73014870  0.60760531  1
  F  F34  1  0.03213163  0.14903969  0.89245268  1
  F  F35  1  0.34172600  0.16232782  0.88201876  1
  F  F36  1  0.67547561  0.12347200  0.91858006  1
  F  F37  1  0.32452439  0.87652800  0.08141994  1
  F  F38  1  0.65827400  0.83767218  0.11798124  1
  F  F39  1  0.96786837  0.85096031  0.10754732  1
