# generated using pymatgen
data_TeW2SeS2
_symmetry_space_group_name_H-M   'P 1'
_cell_length_a   3.30636075
_cell_length_b   3.30637558
_cell_length_c   37.71000030
_cell_angle_alpha   89.99977013
_cell_angle_beta   90.00000000
_cell_angle_gamma   119.99985177
_symmetry_Int_Tables_number   1
_chemical_formula_structural   TeW2SeS2
_chemical_formula_sum   'Te2 W4 Se2 S4'
_cell_volume   357.01810226
_cell_formula_units_Z   2
loop_
 _symmetry_equiv_pos_site_id
 _symmetry_equiv_pos_as_xyz
  1  'x, y, z'
loop_
 _atom_site_type_symbol
 _atom_site_label
 _atom_site_symmetry_multiplicity
 _atom_site_fract_x
 _atom_site_fract_y
 _atom_site_fract_z
 _atom_site_occupancy
  Te  Te0  1  0.33335311  0.66670723  0.70859492  1
  Te  Te1  1  0.33335931  0.66671961  0.60658856  1
  W  W2  1  0.33331055  0.66662110  0.09392824  1
  W  W3  1  0.33331013  0.66662027  0.46958570  1
  W  W4  1  0.66668815  0.33337631  0.28180023  1
  W  W5  1  0.66668936  0.33337871  0.65760006  1
  Se  Se6  1  0.66664644  0.33329188  0.42482518  1
  Se  Se7  1  0.66664834  0.33329568  0.51438305  1
  S  S8  1  0.33335302  0.66670704  0.32247677  1
  S  S9  1  0.66664436  0.33328772  0.05323981  1
  S  S10  1  0.66664603  0.33329107  0.13460507  1
  S  S11  1  0.33335119  0.66670339  0.24112041  1
