# generated using pymatgen
data_Mg14ZrBi
_symmetry_space_group_name_H-M   'P 1'
_cell_length_a   6.39628481
_cell_length_b   6.39628429
_cell_length_c   10.52297558
_cell_angle_alpha   90.00000000
_cell_angle_beta   90.00000000
_cell_angle_gamma   120.00000275
_symmetry_Int_Tables_number   1
_chemical_formula_structural   Mg14ZrBi
_chemical_formula_sum   'Mg14 Zr1 Bi1'
_cell_volume   372.84191833
_cell_formula_units_Z   1
loop_
 _symmetry_equiv_pos_site_id
 _symmetry_equiv_pos_as_xyz
  1  'x, y, z'
loop_
 _atom_site_type_symbol
 _atom_site_label
 _atom_site_symmetry_multiplicity
 _atom_site_fract_x
 _atom_site_fract_y
 _atom_site_fract_z
 _atom_site_occupancy
  Mg  Mg0  1  0.17165440  0.83582670  0.12500000  1
  Mg  Mg1  1  0.16370219  0.83185060  0.62500000  1
  Mg  Mg2  1  0.66417330  0.32834560  0.12500000  1
  Mg  Mg3  1  0.66814940  0.33629781  0.62500000  1
  Mg  Mg4  1  0.66417330  0.83582670  0.12500000  1
  Mg  Mg5  1  0.66814940  0.83185060  0.62500000  1
  Mg  Mg6  1  0.33048491  0.16951509  0.36774567  1
  Mg  Mg7  1  0.33048491  0.16951509  0.88225433  1
  Mg  Mg8  1  0.33048491  0.66097082  0.36774567  1
  Mg  Mg9  1  0.33048491  0.66097082  0.88225433  1
  Mg  Mg10  1  0.83902918  0.16951509  0.36774567  1
  Mg  Mg11  1  0.83902918  0.16951509  0.88225433  1
  Mg  Mg12  1  0.83333300  0.66666700  0.36810950  1
  Mg  Mg13  1  0.83333300  0.66666700  0.88189050  1
  Zr  Zr14  1  0.16666700  0.33333300  0.12500000  1
  Bi  Bi15  1  0.16666700  0.33333300  0.62500000  1
