# generated using pymatgen
data_TeMoWSe2S
_symmetry_space_group_name_H-M   'P 1'
_cell_length_a   3.34353381
_cell_length_b   3.34352568
_cell_length_c   38.06416653
_cell_angle_alpha   90.00021354
_cell_angle_beta   90.00000000
_cell_angle_gamma   120.00008036
_symmetry_Int_Tables_number   1
_chemical_formula_structural   TeMoWSe2S
_chemical_formula_sum   'Te2 Mo2 W2 Se4 S2'
_cell_volume   368.51654152
_cell_formula_units_Z   2
loop_
 _symmetry_equiv_pos_site_id
 _symmetry_equiv_pos_as_xyz
  1  'x, y, z'
loop_
 _atom_site_type_symbol
 _atom_site_label
 _atom_site_symmetry_multiplicity
 _atom_site_fract_x
 _atom_site_fract_y
 _atom_site_fract_z
 _atom_site_occupancy
  Te  Te0  1  0.66664769  0.33329438  0.41958815  1
  Te  Te1  1  0.66664967  0.33329834  0.51975928  1
  Mo  Mo2  1  0.33330857  0.66661715  0.09391460  1
  Mo  Mo3  1  0.66668793  0.33337587  0.28175921  1
  W  W4  1  0.33331145  0.66662289  0.46967087  1
  W  W5  1  0.66669139  0.33338279  0.65755343  1
  Se  Se6  1  0.33335236  0.66670572  0.32552517  1
  Se  Se7  1  0.66664244  0.33328389  0.05018853  1
  Se  Se8  1  0.66664749  0.33329398  0.13765267  1
  Se  Se9  1  0.33335017  0.66670134  0.23805058  1
  S  S10  1  0.33335585  0.66671270  0.69756536  1
  S  S11  1  0.33335498  0.66671096  0.61752013  1
