# generated using pymatgen
data_Te2MoW3(Se2S)2
_symmetry_space_group_name_H-M   'P 1'
_cell_length_a   3.34269089
_cell_length_b   3.34266759
_cell_length_c   38.07248277
_cell_angle_alpha   89.99999970
_cell_angle_beta   90.00000000
_cell_angle_gamma   120.00023045
_symmetry_Int_Tables_number   1
_chemical_formula_structural   Te2MoW3(Se2S)2
_chemical_formula_sum   'Te2 Mo1 W3 Se4 S2'
_cell_volume   368.40899960
_cell_formula_units_Z   1
loop_
 _symmetry_equiv_pos_site_id
 _symmetry_equiv_pos_as_xyz
  1  'x, y, z'
loop_
 _atom_site_type_symbol
 _atom_site_label
 _atom_site_symmetry_multiplicity
 _atom_site_fract_x
 _atom_site_fract_y
 _atom_site_fract_z
 _atom_site_occupancy
  Te  Te0  1  0.33335387  0.66670874  0.70761741  1
  Te  Te1  1  0.33335014  0.66670128  0.60749145  1
  Mo  Mo2  1  0.33331461  0.66662923  0.46963110  1
  W  W3  1  0.33331204  0.66662407  0.09392080  1
  W  W4  1  0.66668957  0.33337915  0.28179010  1
  W  W5  1  0.66669045  0.33338089  0.65757624  1
  Se  Se6  1  0.33335130  0.66670361  0.32572950  1
  Se  Se7  1  0.66665097  0.33330093  0.42591324  1
  Se  Se8  1  0.66664736  0.33329373  0.51337828  1
  Se  Se9  1  0.33335043  0.66670186  0.23784631  1
  S  S10  1  0.66664113  0.33328125  0.05394010  1
  S  S11  1  0.66664813  0.33329525  0.13391346  1
