# generated using pymatgen
data_TeW2SeS2
_symmetry_space_group_name_H-M   'P 1'
_cell_length_a   3.30659872
_cell_length_b   3.30661395
_cell_length_c   37.68015625
_cell_angle_alpha   89.99954623
_cell_angle_beta   89.99996703
_cell_angle_gamma   119.99978932
_symmetry_Int_Tables_number   1
_chemical_formula_structural   TeW2SeS2
_chemical_formula_sum   'Te2 W4 Se2 S4'
_cell_volume   356.78717551
_cell_formula_units_Z   2
loop_
 _symmetry_equiv_pos_site_id
 _symmetry_equiv_pos_as_xyz
  1  'x, y, z'
loop_
 _atom_site_type_symbol
 _atom_site_label
 _atom_site_symmetry_multiplicity
 _atom_site_fract_x
 _atom_site_fract_y
 _atom_site_fract_z
 _atom_site_occupancy
  Te  Te0  1  0.33335447  0.66670939  0.33280057  1
  Te  Te1  1  0.33335821  0.66671676  0.23079820  1
  W  W2  1  0.33331210  0.66662284  0.09390208  1
  W  W3  1  0.33330688  0.66661275  0.46968104  1
  W  W4  1  0.66669057  0.33338170  0.28179215  1
  W  W5  1  0.66669330  0.33338733  0.65753105  1
  Se  Se6  1  0.33335078  0.66670147  0.70229145  1
  Se  Se7  1  0.33335713  0.66671489  0.61277048  1
  S  S8  1  0.66664782  0.33329603  0.05320890  1
  S  S9  1  0.66664484  0.33328883  0.42898825  1
  S  S10  1  0.66664582  0.33329243  0.13460292  1
  S  S11  1  0.66663809  0.33327559  0.51038092  1
