# generated using pymatgen
data_CeMg14Zr
_symmetry_space_group_name_H-M   'P 1'
_cell_length_a   6.53890591
_cell_length_b   6.23391382
_cell_length_c   10.40123720
_cell_angle_alpha   90.00000000
_cell_angle_beta   90.00000000
_cell_angle_gamma   118.46870936
_symmetry_Int_Tables_number   1
_chemical_formula_structural   CeMg14Zr
_chemical_formula_sum   'Ce1 Mg14 Zr1'
_cell_volume   372.71603889
_cell_formula_units_Z   1
loop_
 _symmetry_equiv_pos_site_id
 _symmetry_equiv_pos_as_xyz
  1  'x, y, z'
loop_
 _atom_site_type_symbol
 _atom_site_label
 _atom_site_symmetry_multiplicity
 _atom_site_fract_x
 _atom_site_fract_y
 _atom_site_fract_z
 _atom_site_occupancy
  Ce  Ce0  1  0.15244166  0.82622033  0.12500000  1
  Mg  Mg1  1  0.16072247  0.33036073  0.62500000  1
  Mg  Mg2  1  0.16311538  0.83155719  0.62500000  1
  Mg  Mg3  1  0.65502327  0.32772041  0.12500000  1
  Mg  Mg4  1  0.66215819  0.32938503  0.62500000  1
  Mg  Mg5  1  0.65502327  0.82730186  0.12500000  1
  Mg  Mg6  1  0.66215819  0.83277215  0.62500000  1
  Mg  Mg7  1  0.34153278  0.17287100  0.38068911  1
  Mg  Mg8  1  0.34153278  0.17287100  0.86931089  1
  Mg  Mg9  1  0.34153278  0.66866278  0.38068911  1
  Mg  Mg10  1  0.34153278  0.66866278  0.86931089  1
  Mg  Mg11  1  0.84375482  0.17187791  0.37030931  1
  Mg  Mg12  1  0.84375482  0.17187791  0.87969069  1
  Mg  Mg13  1  0.83320608  0.66660354  0.38414738  1
  Mg  Mg14  1  0.83320608  0.66660354  0.86585262  1
  Zr  Zr15  1  0.16930466  0.33465183  0.12500000  1
