# generated using pymatgen
data_TeW2SeS2
_symmetry_space_group_name_H-M   'P 1'
_cell_length_a   3.30645412
_cell_length_b   3.30646212
_cell_length_c   39.07753953
_cell_angle_alpha   90.00099538
_cell_angle_beta   90.00001280
_cell_angle_gamma   119.99992792
_symmetry_Int_Tables_number   1
_chemical_formula_structural   TeW2SeS2
_chemical_formula_sum   'Te2 W4 Se2 S4'
_cell_volume   369.98507998
_cell_formula_units_Z   2
loop_
 _symmetry_equiv_pos_site_id
 _symmetry_equiv_pos_as_xyz
  1  'x, y, z'
loop_
 _atom_site_type_symbol
 _atom_site_label
 _atom_site_symmetry_multiplicity
 _atom_site_fract_x
 _atom_site_fract_y
 _atom_site_fract_z
 _atom_site_occupancy
  Te  Te0  1  0.66668915  0.33337803  0.41965260  1
  Te  Te1  1  0.66670047  0.33340022  0.51807962  1
  W  W2  1  0.33332353  0.66664651  0.09391692  1
  W  W3  1  0.33336113  0.66672161  0.46886365  1
  W  W4  1  0.66669478  0.33339009  0.28112624  1
  W  W5  1  0.66661867  0.33323790  0.65900909  1
  Se  Se6  1  0.33329769  0.66659574  0.70219628  1
  Se  Se7  1  0.33328023  0.66656100  0.61579089  1
  S  S8  1  0.33337575  0.66675203  0.32037264  1
  S  S9  1  0.66665852  0.33331676  0.05469512  1
  S  S10  1  0.66665323  0.33330586  0.13314253  1
  S  S11  1  0.33334685  0.66669425  0.24190240  1
