# generated using pymatgen
data_TeW2SeS2
_symmetry_space_group_name_H-M   'P 1'
_cell_length_a   3.30644481
_cell_length_b   3.30645692
_cell_length_c   37.62900118
_cell_angle_alpha   90.00016026
_cell_angle_beta   90.00000000
_cell_angle_gamma   119.99987896
_symmetry_Int_Tables_number   1
_chemical_formula_structural   TeW2SeS2
_chemical_formula_sum   'Te2 W4 Se2 S4'
_cell_volume   356.26897015
_cell_formula_units_Z   2
loop_
 _symmetry_equiv_pos_site_id
 _symmetry_equiv_pos_as_xyz
  1  'x, y, z'
loop_
 _atom_site_type_symbol
 _atom_site_label
 _atom_site_symmetry_multiplicity
 _atom_site_fract_x
 _atom_site_fract_y
 _atom_site_fract_z
 _atom_site_occupancy
  Te  Te0  1  0.33335279  0.66670658  0.70862884  1
  Te  Te1  1  0.33335337  0.66670774  0.60646253  1
  W  W2  1  0.33331048  0.66662095  0.09393185  1
  W  W3  1  0.33331025  0.66662050  0.46964037  1
  W  W4  1  0.66669251  0.33338502  0.28180811  1
  W  W5  1  0.66669040  0.33338080  0.65755500  1
  Se  Se6  1  0.66664716  0.33329332  0.04909761  1
  Se  Se7  1  0.66663900  0.33327701  0.13874664  1
  S  S8  1  0.33335618  0.66671336  0.32254674  1
  S  S9  1  0.66664464  0.33328829  0.42889099  1
  S  S10  1  0.66664770  0.33329440  0.51039393  1
  S  S11  1  0.33335551  0.66671203  0.24104538  1
