# generated using pymatgen
data_Te2MoW3(Se2S)2
_symmetry_space_group_name_H-M   'P 1'
_cell_length_a   3.34216239
_cell_length_b   3.34216129
_cell_length_c   38.08184393
_cell_angle_alpha   89.99976512
_cell_angle_beta   90.00000000
_cell_angle_gamma   120.00001099
_symmetry_Int_Tables_number   1
_chemical_formula_structural   Te2MoW3(Se2S)2
_chemical_formula_sum   'Te2 Mo1 W3 Se4 S2'
_cell_volume   368.38632895
_cell_formula_units_Z   1
loop_
 _symmetry_equiv_pos_site_id
 _symmetry_equiv_pos_as_xyz
  1  'x, y, z'
loop_
 _atom_site_type_symbol
 _atom_site_label
 _atom_site_symmetry_multiplicity
 _atom_site_fract_x
 _atom_site_fract_y
 _atom_site_fract_z
 _atom_site_occupancy
  Te  Te0  1  0.33335034  0.66670168  0.33186388  1
  Te  Te1  1  0.33334894  0.66669887  0.23175407  1
  Mo  Mo2  1  0.33331116  0.66662233  0.09387963  1
  W  W3  1  0.33330900  0.66661801  0.46967351  1
  W  W4  1  0.66668838  0.33337676  0.28182476  1
  W  W5  1  0.66669629  0.33339259  0.65753375  1
  Se  Se6  1  0.33335179  0.66670459  0.70147051  1
  Se  Se7  1  0.66664720  0.33329340  0.05017764  1
  Se  Se8  1  0.66664901  0.33329703  0.13762662  1
  Se  Se9  1  0.33335823  0.66671746  0.61359367  1
  S  S10  1  0.66664477  0.33328853  0.42970051  1
  S  S11  1  0.66664487  0.33328875  0.50964944  1
