# generated using pymatgen
data_Te2MoW3(Se2S)2
_symmetry_space_group_name_H-M   'P 1'
_cell_length_a   3.34284488
_cell_length_b   3.34284354
_cell_length_c   38.08740063
_cell_angle_alpha   90.00065573
_cell_angle_beta   90.00000000
_cell_angle_gamma   120.00001326
_symmetry_Int_Tables_number   1
_chemical_formula_structural   Te2MoW3(Se2S)2
_chemical_formula_sum   'Te2 Mo1 W3 Se4 S2'
_cell_volume   368.59053790
_cell_formula_units_Z   1
loop_
 _symmetry_equiv_pos_site_id
 _symmetry_equiv_pos_as_xyz
  1  'x, y, z'
loop_
 _atom_site_type_symbol
 _atom_site_label
 _atom_site_symmetry_multiplicity
 _atom_site_fract_x
 _atom_site_fract_y
 _atom_site_fract_z
 _atom_site_occupancy
  Te  Te0  1  0.33335344  0.66670788  0.70762222  1
  Te  Te1  1  0.33335687  0.66671475  0.60750453  1
  Mo  Mo2  1  0.33331059  0.66662118  0.09390437  1
  W  W3  1  0.33330921  0.66661842  0.46962826  1
  W  W4  1  0.66668843  0.33337687  0.28178905  1
  W  W5  1  0.66669089  0.33338178  0.65759656  1
  Se  Se6  1  0.66664159  0.33328218  0.05018991  1
  Se  Se7  1  0.66664729  0.33329358  0.42569626  1
  Se  Se8  1  0.66665166  0.33330233  0.13765122  1
  Se  Se9  1  0.66664862  0.33329623  0.51357679  1
  S  S10  1  0.33335139  0.66670377  0.32177454  1
  S  S11  1  0.33335002  0.66670103  0.24181431  1
