# generated using pymatgen
data_Sb5S3O5
_symmetry_space_group_name_H-M   'P 1'
_cell_length_a   5.83302754
_cell_length_b   13.60148289
_cell_length_c   16.77118504
_cell_angle_alpha   67.42857823
_cell_angle_beta   79.81658468
_cell_angle_gamma   77.42427672
_symmetry_Int_Tables_number   1
_chemical_formula_structural   Sb5S3O5
_chemical_formula_sum   'Sb20 S12 O20'
_cell_volume   1192.75853139
_cell_formula_units_Z   4
loop_
 _symmetry_equiv_pos_site_id
 _symmetry_equiv_pos_as_xyz
  1  'x, y, z'
loop_
 _atom_site_type_symbol
 _atom_site_label
 _atom_site_symmetry_multiplicity
 _atom_site_fract_x
 _atom_site_fract_y
 _atom_site_fract_z
 _atom_site_occupancy
  Sb  Sb0  1  0.03138898  0.82016359  0.08597252  1
  Sb  Sb1  1  0.93985586  0.67945446  0.41414432  1
  Sb  Sb2  1  0.96635844  0.17966979  0.91383241  1
  Sb  Sb3  1  0.06102994  0.32142386  0.58626348  1
  Sb  Sb4  1  0.52154598  0.02394354  0.08534735  1
  Sb  Sb5  1  0.63322674  0.47690746  0.41409392  1
  Sb  Sb6  1  0.47909879  0.97620188  0.91468800  1
  Sb  Sb7  1  0.37173883  0.52392215  0.58549065  1
  Sb  Sb8  1  0.20648550  0.56300997  0.25861016  1
  Sb  Sb9  1  0.02550548  0.93664029  0.24152255  1
  Sb  Sb10  1  0.79671927  0.43682065  0.74207972  1
  Sb  Sb11  1  0.97464396  0.06372747  0.75810239  1
  Sb  Sb12  1  0.46960334  0.87389371  0.45577059  1
  Sb  Sb13  1  0.79339931  0.62777454  0.04441981  1
  Sb  Sb14  1  0.52993682  0.12781135  0.54368112  1
  Sb  Sb15  1  0.20203952  0.37253019  0.95517374  1
  Sb  Sb16  1  0.68984566  0.33077021  0.13288355  1
  Sb  Sb17  1  0.15363153  0.17058442  0.36719364  1
  Sb  Sb18  1  0.30672870  0.66935320  0.86685400  1
  Sb  Sb19  1  0.84426640  0.83066168  0.63357565  1
  S  S20  1  0.23293571  0.56073093  0.02451986  1
  S  S21  1  0.82337492  0.93908973  0.47572927  1
  S  S22  1  0.76254265  0.43850537  0.97532150  1
  S  S23  1  0.17880363  0.06105101  0.52483604  1
  S  S24  1  0.41255457  0.03211984  0.31466780  1
  S  S25  1  0.75701735  0.46941439  0.18528794  1
  S  S26  1  0.59053108  0.97016900  0.68587738  1
  S  S27  1  0.24032856  0.53084864  0.81406689  1
  S  S28  1  0.42832639  0.28154419  0.36569796  1
  S  S29  1  0.07245931  0.21835585  0.13724310  1
  S  S30  1  0.56603054  0.72183902  0.63551528  1
  S  S31  1  0.92536637  0.78224184  0.86274358  1
  O  O32  1  0.64147495  0.56809505  0.48274095  1
  O  O33  1  0.69370557  0.93313531  0.01642668  1
  O  O34  1  0.36123879  0.43332328  0.51646838  1
  O  O35  1  0.30883254  0.06760982  0.98323156  1
  O  O36  1  0.64777168  0.79138853  0.38534923  1
  O  O37  1  0.82154863  0.70964147  0.11502022  1
  O  O38  1  0.35244657  0.20937086  0.61538765  1
  O  O39  1  0.17501874  0.29135111  0.88412356  1
  O  O40  1  0.39618611  0.57732159  0.33894611  1
  O  O41  1  0.31209903  0.92254321  0.16117488  1
  O  O42  1  0.61080939  0.42382347  0.65980776  1
  O  O43  1  0.68933234  0.07729915  0.83915781  1
  O  O44  1  0.24348971  0.70412756  0.17129427  1
  O  O45  1  0.11951558  0.79474769  0.32739742  1
  O  O46  1  0.75807728  0.29474398  0.82725307  1
  O  O47  1  0.88222567  0.20571245  0.67265522  1
  O  O48  1  0.84691464  0.89764098  0.16660298  1
  O  O49  1  0.91192724  0.60262840  0.33344574  1
  O  O50  1  0.15248596  0.10204054  0.83361638  1
  O  O51  1  0.09023346  0.39674629  0.66734795  1
