# generated using pymatgen
data_Te2MoW3(Se2S)2
_symmetry_space_group_name_H-M   'P 1'
_cell_length_a   3.34300242
_cell_length_b   3.34299410
_cell_length_c   38.12419309
_cell_angle_alpha   89.99973627
_cell_angle_beta   90.00000000
_cell_angle_gamma   120.00008236
_symmetry_Int_Tables_number   1
_chemical_formula_structural   Te2MoW3(Se2S)2
_chemical_formula_sum   'Te2 Mo1 W3 Se4 S2'
_cell_volume   368.98034487
_cell_formula_units_Z   1
loop_
 _symmetry_equiv_pos_site_id
 _symmetry_equiv_pos_as_xyz
  1  'x, y, z'
loop_
 _atom_site_type_symbol
 _atom_site_label
 _atom_site_symmetry_multiplicity
 _atom_site_fract_x
 _atom_site_fract_y
 _atom_site_fract_z
 _atom_site_occupancy
  Te  Te0  1  0.66665096  0.33330091  0.41962096  1
  Te  Te1  1  0.66664880  0.33329661  0.51967269  1
  Mo  Mo2  1  0.66668756  0.33337512  0.28177661  1
  W  W3  1  0.33331160  0.66662319  0.09393652  1
  W  W4  1  0.33331138  0.66662277  0.46966249  1
  W  W5  1  0.66669414  0.33338827  0.65757066  1
  Se  Se6  1  0.33335145  0.66670391  0.32546814  1
  Se  Se7  1  0.33335154  0.66670408  0.70146702  1
  Se  Se8  1  0.33335001  0.66670103  0.23805728  1
  Se  Se9  1  0.33335607  0.66671315  0.61365112  1
  S  S10  1  0.66664020  0.33327940  0.05396929  1
  S  S11  1  0.66664628  0.33329156  0.13389523  1
