# generated using pymatgen
data_TeW2SeS2
_symmetry_space_group_name_H-M   'P 1'
_cell_length_a   3.30636582
_cell_length_b   3.30633638
_cell_length_c   37.66752258
_cell_angle_alpha   90.00028531
_cell_angle_beta   90.00000000
_cell_angle_gamma   120.00029455
_symmetry_Int_Tables_number   1
_chemical_formula_structural   TeW2SeS2
_chemical_formula_sum   'Te2 W4 Se2 S4'
_cell_volume   356.61067415
_cell_formula_units_Z   2
loop_
 _symmetry_equiv_pos_site_id
 _symmetry_equiv_pos_as_xyz
  1  'x, y, z'
loop_
 _atom_site_type_symbol
 _atom_site_label
 _atom_site_symmetry_multiplicity
 _atom_site_fract_x
 _atom_site_fract_y
 _atom_site_fract_z
 _atom_site_occupancy
  Te  Te0  1  0.33335529  0.66671158  0.70857075  1
  Te  Te1  1  0.33335220  0.66670540  0.60652028  1
  W  W2  1  0.33331142  0.66662283  0.09392160  1
  W  W3  1  0.33330848  0.66661697  0.46964563  1
  W  W4  1  0.66668878  0.33337755  0.28180513  1
  W  W5  1  0.66669113  0.33338225  0.65756396  1
  Se  Se6  1  0.33336738  0.66673576  0.32655131  1
  Se  Se7  1  0.33334899  0.66669899  0.23703487  1
  S  S8  1  0.66664676  0.33329252  0.05321553  1
  S  S9  1  0.66664112  0.33328123  0.42894717  1
  S  S10  1  0.66664706  0.33329312  0.13462459  1
  S  S11  1  0.66664139  0.33328179  0.51034718  1
