# generated using pymatgen
data_Te6Mo3WS2
_symmetry_space_group_name_H-M   'P 1'
_cell_length_a   3.45068166
_cell_length_b   3.45066974
_cell_length_c   39.27083077
_cell_angle_alpha   90.00039472
_cell_angle_beta   89.99999997
_cell_angle_gamma   120.00012278
_symmetry_Int_Tables_number   1
_chemical_formula_structural   Te6Mo3WS2
_chemical_formula_sum   'Te6 Mo3 W1 S2'
_cell_volume   404.95659353
_cell_formula_units_Z   1
loop_
 _symmetry_equiv_pos_site_id
 _symmetry_equiv_pos_as_xyz
  1  'x, y, z'
loop_
 _atom_site_type_symbol
 _atom_site_label
 _atom_site_symmetry_multiplicity
 _atom_site_fract_x
 _atom_site_fract_y
 _atom_site_fract_z
 _atom_site_occupancy
  Te  Te0  1  0.33336071  0.66672212  0.32893331  1
  Te  Te1  1  0.33335562  0.66671180  0.70462022  1
  Te  Te2  1  0.66664179  0.33328295  0.04680046  1
  Te  Te3  1  0.66664322  0.33328586  0.14099946  1
  Te  Te4  1  0.33335184  0.66670427  0.23474190  1
  Te  Te5  1  0.33335364  0.66670762  0.61041352  1
  Mo  Mo6  1  0.33330875  0.66661682  0.09388025  1
  Mo  Mo7  1  0.66669219  0.33338550  0.28183794  1
  Mo  Mo8  1  0.66669017  0.33338077  0.65753560  1
  W  W9  1  0.33331067  0.66662068  0.46965762  1
  S  S10  1  0.66664587  0.33329102  0.43166234  1
  S  S11  1  0.66664553  0.33329059  0.50766538  1
