# generated using pymatgen
data_TeMoWSe2S
_symmetry_space_group_name_H-M   'P 1'
_cell_length_a   3.34405216
_cell_length_b   3.34402059
_cell_length_c   38.05008887
_cell_angle_alpha   89.99999861
_cell_angle_beta   90.00000000
_cell_angle_gamma   120.00031228
_symmetry_Int_Tables_number   1
_chemical_formula_structural   TeMoWSe2S
_chemical_formula_sum   'Te2 Mo2 W2 Se4 S2'
_cell_volume   368.49103503
_cell_formula_units_Z   2
loop_
 _symmetry_equiv_pos_site_id
 _symmetry_equiv_pos_as_xyz
  1  'x, y, z'
loop_
 _atom_site_type_symbol
 _atom_site_label
 _atom_site_symmetry_multiplicity
 _atom_site_fract_x
 _atom_site_fract_y
 _atom_site_fract_z
 _atom_site_occupancy
  Te  Te0  1  0.33335536  0.66671171  0.70764357  1
  Te  Te1  1  0.33335090  0.66670279  0.60745475  1
  Mo  Mo2  1  0.33330999  0.66661998  0.46965916  1
  Mo  Mo3  1  0.66668887  0.33337774  0.28181603  1
  W  W4  1  0.33330939  0.66661878  0.09392333  1
  W  W5  1  0.66669121  0.33338242  0.65757459  1
  Se  Se6  1  0.33336005  0.66672109  0.32553527  1
  Se  Se7  1  0.66664647  0.33329194  0.42588988  1
  Se  Se8  1  0.66664863  0.33329626  0.51338217  1
  Se  Se9  1  0.33335179  0.66670457  0.23802332  1
  S  S10  1  0.66664168  0.33328237  0.05388937  1
  S  S11  1  0.66664567  0.33329034  0.13395657  1
