# generated using pymatgen
data_Te6Mo3WS2
_symmetry_space_group_name_H-M   'P 1'
_cell_length_a   3.45043977
_cell_length_b   3.45043604
_cell_length_c   39.34102924
_cell_angle_alpha   89.99943076
_cell_angle_beta   90.00000000
_cell_angle_gamma   120.00003567
_symmetry_Int_Tables_number   1
_chemical_formula_structural   Te6Mo3WS2
_chemical_formula_sum   'Te6 Mo3 W1 S2'
_cell_volume   405.62491719
_cell_formula_units_Z   1
loop_
 _symmetry_equiv_pos_site_id
 _symmetry_equiv_pos_as_xyz
  1  'x, y, z'
loop_
 _atom_site_type_symbol
 _atom_site_label
 _atom_site_symmetry_multiplicity
 _atom_site_fract_x
 _atom_site_fract_y
 _atom_site_fract_z
 _atom_site_occupancy
  Te  Te0  1  0.33335997  0.66672095  0.32888489  1
  Te  Te1  1  0.66663901  0.33327702  0.04680866  1
  Te  Te2  1  0.66664719  0.33329337  0.42261169  1
  Te  Te3  1  0.66664393  0.33328687  0.14097926  1
  Te  Te4  1  0.66664736  0.33329372  0.51679642  1
  Te  Te5  1  0.33335685  0.66671470  0.23474323  1
  Mo  Mo6  1  0.33331275  0.66662550  0.09385640  1
  Mo  Mo7  1  0.33331210  0.66662419  0.46970434  1
  Mo  Mo8  1  0.66668708  0.33337417  0.28177231  1
  W  W9  1  0.66668397  0.33336794  0.65752989  1
  S  S10  1  0.33335512  0.66671124  0.69547824  1
  S  S11  1  0.33335466  0.66671033  0.61958266  1
