# generated using pymatgen
data_TeW2SeS2
_symmetry_space_group_name_H-M   'P 1'
_cell_length_a   3.30678326
_cell_length_b   3.30678247
_cell_length_c   37.72478021
_cell_angle_alpha   89.99976165
_cell_angle_beta   90.00000000
_cell_angle_gamma   120.00000795
_symmetry_Int_Tables_number   1
_chemical_formula_structural   TeW2SeS2
_chemical_formula_sum   'Te2 W4 Se2 S4'
_cell_volume   357.24706667
_cell_formula_units_Z   2
loop_
 _symmetry_equiv_pos_site_id
 _symmetry_equiv_pos_as_xyz
  1  'x, y, z'
loop_
 _atom_site_type_symbol
 _atom_site_label
 _atom_site_symmetry_multiplicity
 _atom_site_fract_x
 _atom_site_fract_y
 _atom_site_fract_z
 _atom_site_occupancy
  Te  Te0  1  0.66664924  0.33329748  0.41873797  1
  Te  Te1  1  0.66664593  0.33329087  0.52064708  1
  W  W2  1  0.33331078  0.66662155  0.09393512  1
  W  W3  1  0.33331107  0.66662213  0.46967238  1
  W  W4  1  0.66669071  0.33338141  0.28175246  1
  W  W5  1  0.66668948  0.33337897  0.65755053  1
  Se  Se6  1  0.33334899  0.66669898  0.32647203  1
  Se  Se7  1  0.33335033  0.66670167  0.23703246  1
  S  S8  1  0.33335337  0.66670773  0.69822903  1
  S  S9  1  0.66664768  0.33329436  0.05324354  1
  S  S10  1  0.66664692  0.33329285  0.13460876  1
  S  S11  1  0.33335550  0.66671200  0.61686663  1
