# generated using pymatgen
data_Te2MoW3(Se2S)2
_symmetry_space_group_name_H-M   'P 1'
_cell_length_a   3.34315530
_cell_length_b   3.34314877
_cell_length_c   38.16007795
_cell_angle_alpha   89.99999277
_cell_angle_beta   90.00000000
_cell_angle_gamma   120.00006460
_symmetry_Int_Tables_number   1
_chemical_formula_structural   Te2MoW3(Se2S)2
_chemical_formula_sum   'Te2 Mo1 W3 Se4 S2'
_cell_volume   369.36169698
_cell_formula_units_Z   1
loop_
 _symmetry_equiv_pos_site_id
 _symmetry_equiv_pos_as_xyz
  1  'x, y, z'
loop_
 _atom_site_type_symbol
 _atom_site_label
 _atom_site_symmetry_multiplicity
 _atom_site_fract_x
 _atom_site_fract_y
 _atom_site_fract_z
 _atom_site_occupancy
  Te  Te0  1  0.33335448  0.66670995  0.33177702  1
  Te  Te1  1  0.33335488  0.66671075  0.23176361  1
  Mo  Mo2  1  0.33331538  0.66663076  0.46970329  1
  W  W3  1  0.33330812  0.66661624  0.09391047  1
  W  W4  1  0.66669305  0.33338610  0.28175064  1
  W  W5  1  0.66668856  0.33337711  0.65754423  1
  Se  Se6  1  0.33335036  0.66670171  0.70148708  1
  Se  Se7  1  0.66665105  0.33330110  0.42596908  1
  Se  Se8  1  0.66664778  0.33329455  0.51341732  1
  Se  Se9  1  0.33335002  0.66670104  0.61359221  1
  S  S10  1  0.66663887  0.33327673  0.05404416  1
  S  S11  1  0.66664747  0.33329395  0.13378890  1
