# generated using pymatgen
data_TeMoWSe2S
_symmetry_space_group_name_H-M   'P 1'
_cell_length_a   3.34357126
_cell_length_b   3.34357220
_cell_length_c   38.08547028
_cell_angle_alpha   89.99967040
_cell_angle_beta   90.00000000
_cell_angle_gamma   119.99999067
_symmetry_Int_Tables_number   1
_chemical_formula_structural   TeMoWSe2S
_chemical_formula_sum   'Te2 Mo2 W2 Se4 S2'
_cell_volume   368.73238702
_cell_formula_units_Z   2
loop_
 _symmetry_equiv_pos_site_id
 _symmetry_equiv_pos_as_xyz
  1  'x, y, z'
loop_
 _atom_site_type_symbol
 _atom_site_label
 _atom_site_symmetry_multiplicity
 _atom_site_fract_x
 _atom_site_fract_y
 _atom_site_fract_z
 _atom_site_occupancy
  Te  Te0  1  0.33336726  0.66673553  0.33185247  1
  Te  Te1  1  0.33334957  0.66670015  0.23174610  1
  Mo  Mo2  1  0.33330667  0.66661334  0.09387781  1
  Mo  Mo3  1  0.33331097  0.66662195  0.46968824  1
  W  W4  1  0.66668970  0.33337939  0.28178184  1
  W  W5  1  0.66668836  0.33337672  0.65753682  1
  Se  Se6  1  0.66663562  0.33327023  0.05018214  1
  Se  Se7  1  0.66664673  0.33329246  0.42596931  1
  Se  Se8  1  0.66664660  0.33329221  0.13761965  1
  Se  Se9  1  0.66664765  0.33329430  0.51342190  1
  S  S10  1  0.33335344  0.66670789  0.69753435  1
  S  S11  1  0.33335743  0.66671586  0.61753736  1
