# generated using pymatgen
data_YMg30MnO32
_symmetry_space_group_name_H-M   'P 1'
_cell_length_a   8.62647395
_cell_length_b   8.63244563
_cell_length_c   8.63244563
_cell_angle_alpha   90.00000000
_cell_angle_beta   90.00000000
_cell_angle_gamma   90.00000000
_symmetry_Int_Tables_number   1
_chemical_formula_structural   YMg30MnO32
_chemical_formula_sum   'Y1 Mg30 Mn1 O32'
_cell_volume   642.83722636
_cell_formula_units_Z   1
loop_
 _symmetry_equiv_pos_site_id
 _symmetry_equiv_pos_as_xyz
  1  'x, y, z'
loop_
 _atom_site_type_symbol
 _atom_site_label
 _atom_site_symmetry_multiplicity
 _atom_site_fract_x
 _atom_site_fract_y
 _atom_site_fract_z
 _atom_site_occupancy
  Y  Y0  1  0.00000000  0.50000000  0.50000000  1
  Mg  Mg1  1  0.00000000  0.00000000  0.50000000  1
  Mg  Mg2  1  0.00000000  0.50000000  0.00000000  1
  Mg  Mg3  1  0.50000000  0.00000000  0.00000000  1
  Mg  Mg4  1  0.50000000  0.00000000  0.50000000  1
  Mg  Mg5  1  0.50000000  0.50000000  0.00000000  1
  Mg  Mg6  1  0.50000000  0.50000000  0.50000000  1
  Mg  Mg7  1  0.00000000  0.24416744  0.24416744  1
  Mg  Mg8  1  0.00000000  0.24416744  0.75583256  1
  Mg  Mg9  1  0.00000000  0.75583256  0.24416744  1
  Mg  Mg10  1  0.00000000  0.75583256  0.75583256  1
  Mg  Mg11  1  0.50000000  0.24893624  0.24893624  1
  Mg  Mg12  1  0.50000000  0.24893624  0.75106376  1
  Mg  Mg13  1  0.50000000  0.75106376  0.24893624  1
  Mg  Mg14  1  0.50000000  0.75106376  0.75106376  1
  Mg  Mg15  1  0.25195127  0.00000000  0.24995854  1
  Mg  Mg16  1  0.25195127  0.00000000  0.75004146  1
  Mg  Mg17  1  0.25645168  0.50000000  0.24337942  1
  Mg  Mg18  1  0.25645168  0.50000000  0.75662058  1
  Mg  Mg19  1  0.74804873  0.00000000  0.24995854  1
  Mg  Mg20  1  0.74804873  0.00000000  0.75004146  1
  Mg  Mg21  1  0.74354832  0.50000000  0.24337942  1
  Mg  Mg22  1  0.74354832  0.50000000  0.75662058  1
  Mg  Mg23  1  0.25195127  0.24995854  0.00000000  1
  Mg  Mg24  1  0.25645168  0.24337942  0.50000000  1
  Mg  Mg25  1  0.25195127  0.75004146  0.00000000  1
  Mg  Mg26  1  0.25645168  0.75662058  0.50000000  1
  Mg  Mg27  1  0.74804873  0.24995854  0.00000000  1
  Mg  Mg28  1  0.74354832  0.24337942  0.50000000  1
  Mg  Mg29  1  0.74804873  0.75004146  0.00000000  1
  Mg  Mg30  1  0.74354832  0.75662058  0.50000000  1
  Mn  Mn31  1  0.00000000  0.00000000  0.00000000  1
  O  O32  1  0.25627345  0.00000000  0.00000000  1
  O  O33  1  0.25244929  0.00000000  0.50000000  1
  O  O34  1  0.25244929  0.50000000  0.00000000  1
  O  O35  1  0.25896627  0.50000000  0.50000000  1
  O  O36  1  0.74372655  0.00000000  0.00000000  1
  O  O37  1  0.74755071  0.00000000  0.50000000  1
  O  O38  1  0.74755071  0.50000000  0.00000000  1
  O  O39  1  0.74103373  0.50000000  0.50000000  1
  O  O40  1  0.24925765  0.25023553  0.25023553  1
  O  O41  1  0.24925765  0.25023553  0.74976447  1
  O  O42  1  0.24925765  0.74976447  0.25023553  1
  O  O43  1  0.24925765  0.74976447  0.74976447  1
  O  O44  1  0.75074235  0.25023553  0.25023553  1
  O  O45  1  0.75074235  0.25023553  0.74976447  1
  O  O46  1  0.75074235  0.74976447  0.25023553  1
  O  O47  1  0.75074235  0.74976447  0.74976447  1
  O  O48  1  0.00000000  0.00000000  0.25619052  1
  O  O49  1  0.00000000  0.00000000  0.74380948  1
  O  O50  1  0.00000000  0.50000000  0.24171667  1
  O  O51  1  0.00000000  0.50000000  0.75828333  1
  O  O52  1  0.50000000  0.00000000  0.25081380  1
  O  O53  1  0.50000000  0.00000000  0.74918620  1
  O  O54  1  0.50000000  0.50000000  0.24910841  1
  O  O55  1  0.50000000  0.50000000  0.75089159  1
  O  O56  1  0.00000000  0.25619052  0.00000000  1
  O  O57  1  0.00000000  0.24171667  0.50000000  1
  O  O58  1  0.00000000  0.74380948  0.00000000  1
  O  O59  1  0.00000000  0.75828333  0.50000000  1
  O  O60  1  0.50000000  0.25081380  0.00000000  1
  O  O61  1  0.50000000  0.24910841  0.50000000  1
  O  O62  1  0.50000000  0.74918620  0.00000000  1
  O  O63  1  0.50000000  0.75089159  0.50000000  1
