# generated using pymatgen
data_YMg30MnO32
_symmetry_space_group_name_H-M   'P 1'
_cell_length_a   8.62130504
_cell_length_b   8.62130504
_cell_length_c   8.63212179
_cell_angle_alpha   90.00000000
_cell_angle_beta   90.00000000
_cell_angle_gamma   90.00000000
_symmetry_Int_Tables_number   1
_chemical_formula_structural   YMg30MnO32
_chemical_formula_sum   'Y1 Mg30 Mn1 O32'
_cell_volume   641.59885819
_cell_formula_units_Z   1
loop_
 _symmetry_equiv_pos_site_id
 _symmetry_equiv_pos_as_xyz
  1  'x, y, z'
loop_
 _atom_site_type_symbol
 _atom_site_label
 _atom_site_symmetry_multiplicity
 _atom_site_fract_x
 _atom_site_fract_y
 _atom_site_fract_z
 _atom_site_occupancy
  Y  Y0  1  0.00000000  0.00000000  0.50000000  1
  Mg  Mg1  1  0.00000000  0.50000000  0.00000000  1
  Mg  Mg2  1  0.00000000  0.50000000  0.50000000  1
  Mg  Mg3  1  0.50000000  0.00000000  0.00000000  1
  Mg  Mg4  1  0.50000000  0.00000000  0.50000000  1
  Mg  Mg5  1  0.50000000  0.50000000  0.00000000  1
  Mg  Mg6  1  0.50000000  0.50000000  0.50000000  1
  Mg  Mg7  1  0.00000000  0.25773074  0.24397998  1
  Mg  Mg8  1  0.00000000  0.25773074  0.75602002  1
  Mg  Mg9  1  0.00000000  0.74226926  0.24397998  1
  Mg  Mg10  1  0.00000000  0.74226926  0.75602002  1
  Mg  Mg11  1  0.50000000  0.25121853  0.24887535  1
  Mg  Mg12  1  0.50000000  0.25121853  0.75112465  1
  Mg  Mg13  1  0.50000000  0.74878147  0.24887535  1
  Mg  Mg14  1  0.50000000  0.74878147  0.75112465  1
  Mg  Mg15  1  0.25773074  0.00000000  0.24397998  1
  Mg  Mg16  1  0.25773074  0.00000000  0.75602002  1
  Mg  Mg17  1  0.25121853  0.50000000  0.24887535  1
  Mg  Mg18  1  0.25121853  0.50000000  0.75112465  1
  Mg  Mg19  1  0.74226926  0.00000000  0.24397998  1
  Mg  Mg20  1  0.74226926  0.00000000  0.75602002  1
  Mg  Mg21  1  0.74878147  0.50000000  0.24887535  1
  Mg  Mg22  1  0.74878147  0.50000000  0.75112465  1
  Mg  Mg23  1  0.25215175  0.25215175  0.00000000  1
  Mg  Mg24  1  0.25666257  0.25666257  0.50000000  1
  Mg  Mg25  1  0.25215175  0.74784825  0.00000000  1
  Mg  Mg26  1  0.25666257  0.74333743  0.50000000  1
  Mg  Mg27  1  0.74784825  0.25215175  0.00000000  1
  Mg  Mg28  1  0.74333743  0.25666257  0.50000000  1
  Mg  Mg29  1  0.74784825  0.74784825  0.00000000  1
  Mg  Mg30  1  0.74333743  0.74333743  0.50000000  1
  Mn  Mn31  1  0.00000000  0.00000000  0.00000000  1
  O  O32  1  0.25851173  0.00000000  0.00000000  1
  O  O33  1  0.25927505  0.00000000  0.50000000  1
  O  O34  1  0.25119368  0.50000000  0.00000000  1
  O  O35  1  0.25147976  0.50000000  0.50000000  1
  O  O36  1  0.74148827  0.00000000  0.00000000  1
  O  O37  1  0.74072495  0.00000000  0.50000000  1
  O  O38  1  0.74880632  0.50000000  0.00000000  1
  O  O39  1  0.74852024  0.50000000  0.50000000  1
  O  O40  1  0.24939111  0.24939111  0.25024135  1
  O  O41  1  0.24939111  0.24939111  0.74975865  1
  O  O42  1  0.24939111  0.75060889  0.25024135  1
  O  O43  1  0.24939111  0.75060889  0.74975865  1
  O  O44  1  0.75060889  0.24939111  0.25024135  1
  O  O45  1  0.75060889  0.24939111  0.74975865  1
  O  O46  1  0.75060889  0.75060889  0.25024135  1
  O  O47  1  0.75060889  0.75060889  0.74975865  1
  O  O48  1  0.00000000  0.00000000  0.24543998  1
  O  O49  1  0.00000000  0.00000000  0.75456002  1
  O  O50  1  0.00000000  0.50000000  0.24997830  1
  O  O51  1  0.00000000  0.50000000  0.75002170  1
  O  O52  1  0.50000000  0.00000000  0.24997830  1
  O  O53  1  0.50000000  0.00000000  0.75002170  1
  O  O54  1  0.50000000  0.50000000  0.25026049  1
  O  O55  1  0.50000000  0.50000000  0.74973951  1
  O  O56  1  0.00000000  0.25851173  0.00000000  1
  O  O57  1  0.00000000  0.25927505  0.50000000  1
  O  O58  1  0.00000000  0.74148827  0.00000000  1
  O  O59  1  0.00000000  0.74072495  0.50000000  1
  O  O60  1  0.50000000  0.25119368  0.00000000  1
  O  O61  1  0.50000000  0.25147976  0.50000000  1
  O  O62  1  0.50000000  0.74880632  0.00000000  1
  O  O63  1  0.50000000  0.74852024  0.50000000  1
