# generated using pymatgen
data_VO2
_symmetry_space_group_name_H-M   'P 1'
_cell_length_a   5.24356685
_cell_length_b   5.87755296
_cell_length_c   10.76466582
_cell_angle_alpha   89.92293825
_cell_angle_beta   90.00183803
_cell_angle_gamma   87.14983429
_symmetry_Int_Tables_number   1
_chemical_formula_structural   VO2
_chemical_formula_sum   'V8 O16'
_cell_volume   331.34922249
_cell_formula_units_Z   8
loop_
 _symmetry_equiv_pos_site_id
 _symmetry_equiv_pos_as_xyz
  1  'x, y, z'
loop_
 _atom_site_type_symbol
 _atom_site_label
 _atom_site_symmetry_multiplicity
 _atom_site_fract_x
 _atom_site_fract_y
 _atom_site_fract_z
 _atom_site_occupancy
  V  V0  1  0.49837568  0.74974812  0.49529035  1
  V  V1  1  0.49848679  0.74971960  0.00478071  1
  V  V2  1  0.50157077  0.25022500  0.50474779  1
  V  V3  1  0.50156872  0.25024631  0.99521235  1
  V  V4  1  -0.00001756  0.50003810  0.49996117  1
  V  V5  1  -0.00000517  0.00005158  0.00003185  1
  V  V6  1  0.99998976  0.00001652  0.49999000  1
  V  V7  1  0.00001694  0.49996942  0.99999459  1
  O  O8  1  0.83907582  0.74345600  0.40902269  1
  O  O9  1  0.83929836  0.74299479  0.09102031  1
  O  O10  1  0.16086465  0.25652194  0.59096478  1
  O  O11  1  0.16070891  0.25701773  0.90899192  1
  O  O12  1  0.16388052  0.75577438  0.58813909  1
  O  O13  1  0.16401917  0.75625032  0.91190966  1
  O  O14  1  0.83606285  0.24418909  0.41183920  1
  O  O15  1  0.83602447  0.24377219  0.08810374  1
  O  O16  1  0.66188660  0.50882179  0.58956167  1
  O  O17  1  0.66291702  0.00429123  0.91040454  1
  O  O18  1  0.33707112  0.99608505  0.41039386  1
  O  O19  1  0.33818769  0.49065270  0.08957008  1
  O  O20  1  0.33806261  0.49114696  0.41043138  1
  O  O21  1  0.33716041  0.99573224  0.08960171  1
  O  O22  1  0.66292629  0.00389563  0.58961819  1
  O  O23  1  0.66186660  0.50938331  0.91042037  1
