# generated using pymatgen
data_ZnSn2O5
_symmetry_space_group_name_H-M   'P 1'
_cell_length_a   3.99357167
_cell_length_b   5.61429489
_cell_length_c   10.44133821
_cell_angle_alpha   90.00000000
_cell_angle_beta   90.00000000
_cell_angle_gamma   110.83395692
_symmetry_Int_Tables_number   1
_chemical_formula_structural   ZnSn2O5
_chemical_formula_sum   'Zn2 Sn4 O10'
_cell_volume   218.79915411
_cell_formula_units_Z   2
loop_
 _symmetry_equiv_pos_site_id
 _symmetry_equiv_pos_as_xyz
  1  'x, y, z'
loop_
 _atom_site_type_symbol
 _atom_site_label
 _atom_site_symmetry_multiplicity
 _atom_site_fract_x
 _atom_site_fract_y
 _atom_site_fract_z
 _atom_site_occupancy
  Zn  Zn0  1  0.81803604  0.63607107  0.75000000  1
  Zn  Zn1  1  0.18196496  0.36392993  0.25000000  1
  Sn  Sn2  1  0.13639821  0.27279641  0.56679096  1
  Sn  Sn3  1  0.86360279  0.72720459  0.43320804  1
  Sn  Sn4  1  0.86360279  0.72720459  0.06679196  1
  Sn  Sn5  1  0.13639821  0.27279641  0.93320904  1
  O  O6  1  0.77621362  0.55242624  0.25000000  1
  O  O7  1  0.22378738  0.44757476  0.75000000  1
  O  O8  1  0.30627108  0.61254016  0.06051410  1
  O  O9  1  0.69373092  0.38746084  0.93948590  1
  O  O10  1  0.69373092  0.38746084  0.56051410  1
  O  O11  1  0.30627108  0.61254016  0.43948490  1
  O  O12  1  0.94857051  0.89714003  0.61290999  1
  O  O13  1  0.05142949  0.10285897  0.38709001  1
  O  O14  1  0.94857051  0.89714003  0.88709001  1
  O  O15  1  0.05142949  0.10285897  0.11291099  1
