# generated using pymatgen
data_MgMn(Si2O5)2
_symmetry_space_group_name_H-M   'P 1'
_cell_length_a   7.39268599
_cell_length_b   7.39268599
_cell_length_c   14.88024720
_cell_angle_alpha   90.00000000
_cell_angle_beta   90.00000000
_cell_angle_gamma   90.00000000
_symmetry_Int_Tables_number   1
_chemical_formula_structural   MgMn(Si2O5)2
_chemical_formula_sum   'Mg4 Mn4 Si16 O40'
_cell_volume   813.23238539
_cell_formula_units_Z   4
loop_
 _symmetry_equiv_pos_site_id
 _symmetry_equiv_pos_as_xyz
  1  'x, y, z'
loop_
 _atom_site_type_symbol
 _atom_site_label
 _atom_site_symmetry_multiplicity
 _atom_site_fract_x
 _atom_site_fract_y
 _atom_site_fract_z
 _atom_site_occupancy
  Mg  Mg0  1  0.25000000  0.75000000  0.50000000  1
  Mg  Mg1  1  0.75000000  0.25000000  0.50000000  1
  Mg  Mg2  1  0.75000000  0.25000000  -0.00000000  1
  Mg  Mg3  1  0.25000000  0.75000000  -0.00000000  1
  Mn  Mn4  1  0.25000000  0.25000000  0.56299655  1
  Mn  Mn5  1  0.75000000  0.75000000  0.93700345  1
  Mn  Mn6  1  0.75000000  0.75000000  0.43700345  1
  Mn  Mn7  1  0.25000000  0.25000000  0.06299655  1
  Si  Si8  1  0.90799967  0.49051926  0.64505688  1
  Si  Si9  1  0.59200033  0.00948074  0.64505688  1
  Si  Si10  1  0.99051926  0.40799967  0.85494312  1
  Si  Si11  1  0.49051926  0.59200033  0.64505688  1
  Si  Si12  1  0.00948074  0.90799967  0.64505688  1
  Si  Si13  1  0.09200033  0.99051926  0.85494312  1
  Si  Si14  1  0.40799967  0.50948074  0.85494312  1
  Si  Si15  1  0.50948074  0.09200033  0.85494312  1
  Si  Si16  1  0.09200033  0.50948074  0.35494312  1
  Si  Si17  1  0.40799967  0.99051926  0.35494312  1
  Si  Si18  1  0.00948074  0.59200033  0.14505688  1
  Si  Si19  1  0.50948074  0.40799967  0.35494312  1
  Si  Si20  1  0.99051926  0.09200033  0.35494312  1
  Si  Si21  1  0.90799967  0.00948074  0.14505688  1
  Si  Si22  1  0.59200033  0.49051926  0.14505688  1
  Si  Si23  1  0.49051926  0.90799967  0.14505688  1
  O  O24  1  0.97551699  0.33735969  0.57527563  1
  O  O25  1  0.52448301  0.16264031  0.57527563  1
  O  O26  1  0.83735969  0.47551699  0.92472437  1
  O  O27  1  0.33735969  0.52448301  0.57527563  1
  O  O28  1  0.16264031  0.97551699  0.57527563  1
  O  O29  1  0.02448301  0.83735969  0.92472437  1
  O  O30  1  0.47551699  0.66264031  0.92472437  1
  O  O31  1  0.66264031  0.02448301  0.92472437  1
  O  O32  1  0.02448301  0.66264031  0.42472437  1
  O  O33  1  0.47551699  0.83735969  0.42472437  1
  O  O34  1  0.16264031  0.52448301  0.07527563  1
  O  O35  1  0.66264031  0.47551699  0.42472437  1
  O  O36  1  0.83735969  0.02448301  0.42472437  1
  O  O37  1  0.97551699  0.16264031  0.07527563  1
  O  O38  1  0.52448301  0.33735969  0.07527563  1
  O  O39  1  0.00503418  0.31044801  0.37444955  1
  O  O40  1  0.33735969  0.97551699  0.07527563  1
  O  O41  1  0.50503418  0.81044801  0.62555045  1
  O  O42  1  0.18955199  0.49496582  0.87444955  1
  O  O43  1  0.68955199  0.50503418  0.62555045  1
  O  O44  1  0.81044801  0.99496582  0.62555045  1
  O  O45  1  0.00503418  0.18955199  0.87444955  1
  O  O46  1  0.49496582  0.31044801  0.87444955  1
  O  O47  1  0.31044801  0.00503418  0.87444955  1
  O  O48  1  0.44286590  0.94286590  0.25000000  1
  O  O49  1  0.55713410  0.44286590  0.25000000  1
  O  O50  1  0.94286590  0.05713510  0.25000000  1
  O  O51  1  0.05713510  0.55713410  0.25000000  1
  O  O52  1  0.55713410  0.05713510  0.75000000  1
  O  O53  1  0.44286590  0.55713410  0.75000000  1
  O  O54  1  0.05713510  0.94286590  0.75000000  1
  O  O55  1  0.94286590  0.44286590  0.75000000  1
  O  O56  1  0.68955199  0.99496582  0.12555045  1
  O  O57  1  0.50503418  0.68955199  0.12555045  1
  O  O58  1  0.99496582  0.81044801  0.12555045  1
  O  O59  1  0.18955199  0.00503418  0.37444955  1
  O  O60  1  0.31044801  0.49496582  0.37444955  1
  O  O61  1  0.81044801  0.50503418  0.12555045  1
  O  O62  1  0.49496582  0.18955199  0.37444955  1
  O  O63  1  0.99496582  0.68955199  0.62555045  1
