# generated using pymatgen
data_TiZnAs2O7
_symmetry_space_group_name_H-M   'P 1'
_cell_length_a   8.41666516
_cell_length_b   8.59299548
_cell_length_c   11.00231049
_cell_angle_alpha   90.00000000
_cell_angle_beta   124.90642148
_cell_angle_gamma   90.00000000
_symmetry_Int_Tables_number   1
_chemical_formula_structural   TiZnAs2O7
_chemical_formula_sum   'Ti4 Zn4 As8 O28'
_cell_volume   652.57262776
_cell_formula_units_Z   4
loop_
 _symmetry_equiv_pos_site_id
 _symmetry_equiv_pos_as_xyz
  1  'x, y, z'
loop_
 _atom_site_type_symbol
 _atom_site_label
 _atom_site_symmetry_multiplicity
 _atom_site_fract_x
 _atom_site_fract_y
 _atom_site_fract_z
 _atom_site_occupancy
  Ti  Ti0  1  0.85293491  0.02604823  0.71548431  1
  Ti  Ti1  1  0.14706509  0.52604823  0.78451569  1
  Ti  Ti2  1  0.14706509  0.97395177  0.28451569  1
  Ti  Ti3  1  0.85293491  0.47395177  0.21548431  1
  Zn  Zn4  1  0.34126166  0.87643429  0.87820563  1
  Zn  Zn5  1  0.65873834  0.37643429  0.62179437  1
  Zn  Zn6  1  0.65873834  0.12356571  0.12179437  1
  Zn  Zn7  1  0.34126166  0.62356571  0.37820563  1
  As  As8  1  0.42992228  0.22633765  0.76426642  1
  As  As9  1  0.57007772  0.72633765  0.73573358  1
  As  As10  1  0.57007772  0.77366235  0.23573358  1
  As  As11  1  0.42992228  0.27366235  0.26426542  1
  As  As12  1  0.00372850  0.30441774  0.96484407  1
  As  As13  1  0.99627150  0.80441774  0.53515593  1
  As  As14  1  0.99627150  0.69558226  0.03515593  1
  As  As15  1  0.00372850  0.19558226  0.46484407  1
  O  O16  1  0.74383258  0.32498489  0.08863849  1
  O  O17  1  0.25616742  0.82498489  0.41136151  1
  O  O18  1  0.25616742  0.67501511  0.91136151  1
  O  O19  1  0.74383258  0.17501511  0.58863849  1
  O  O20  1  0.31763835  0.38666914  0.77698686  1
  O  O21  1  0.68236165  0.88666914  0.72301314  1
  O  O22  1  0.68236165  0.61333086  0.22301314  1
  O  O23  1  0.31763835  0.11333086  0.27698686  1
  O  O24  1  0.46246726  0.08946790  0.89169921  1
  O  O25  1  0.53753274  0.58946790  0.60830079  1
  O  O26  1  0.53753274  0.91053210  0.10830079  1
  O  O27  1  0.46246726  0.41053210  0.39169921  1
  O  O28  1  0.27483207  0.15265467  0.58365805  1
  O  O29  1  0.72516793  0.65265467  0.91634195  1
  O  O30  1  0.72516793  0.84734533  0.41634195  1
  O  O31  1  0.27483207  0.34734533  0.08365805  1
  O  O32  1  0.96625016  0.07718102  0.31101469  1
  O  O33  1  0.03374984  0.57718102  0.18898531  1
  O  O34  1  0.03374984  0.92281898  0.68898531  1
  O  O35  1  0.96625016  0.42281898  0.81101469  1
  O  O36  1  0.63604548  0.23153598  0.27666183  1
  O  O37  1  0.36395452  0.73153598  0.22333817  1
  O  O38  1  0.36395452  0.76846402  0.72333817  1
  O  O39  1  0.63604548  0.26846402  0.77666183  1
  O  O40  1  0.01927497  0.38148144  0.39717496  1
  O  O41  1  0.98072503  0.88148144  0.10282504  1
  O  O42  1  0.98072503  0.61851856  0.60282504  1
  O  O43  1  0.01927497  0.11851856  0.89717496  1
