# generated using pymatgen
data_YV3O9
_symmetry_space_group_name_H-M   'P 1'
_cell_length_a   5.13746451
_cell_length_b   15.65654808
_cell_length_c   8.16321929
_cell_angle_alpha   90.19081259
_cell_angle_beta   89.99735255
_cell_angle_gamma   89.99198274
_symmetry_Int_Tables_number   1
_chemical_formula_structural   YV3O9
_chemical_formula_sum   'Y4 V12 O36'
_cell_volume   656.60456961
_cell_formula_units_Z   4
loop_
 _symmetry_equiv_pos_site_id
 _symmetry_equiv_pos_as_xyz
  1  'x, y, z'
loop_
 _atom_site_type_symbol
 _atom_site_label
 _atom_site_symmetry_multiplicity
 _atom_site_fract_x
 _atom_site_fract_y
 _atom_site_fract_z
 _atom_site_occupancy
  Y  Y0  1  0.49272244  0.83864290  0.75798087  1
  Y  Y1  1  0.99300525  0.66350073  0.24071034  1
  Y  Y2  1  0.50696306  0.16332004  0.24082135  1
  Y  Y3  1  0.00735427  0.33851510  0.75774870  1
  V  V4  1  0.00621897  0.16219924  0.48517880  1
  V  V5  1  0.01456125  0.49836834  0.46030984  1
  V  V6  1  0.99430955  0.83687264  0.51775092  1
  V  V7  1  0.48613074  0.99829458  0.46049372  1
  V  V8  1  0.50608109  0.33702158  0.51728655  1
  V  V9  1  0.49399432  0.66214540  0.48542406  1
  V  V10  1  0.97028412  0.16333308  0.95291075  1
  V  V11  1  -0.00030244  0.50577153  0.96355110  1
  V  V12  1  0.01570876  0.84075580  0.05150300  1
  V  V13  1  0.49966398  0.00578752  0.96364753  1
  V  V14  1  0.48375018  0.34085104  0.05164581  1
  V  V15  1  0.52952069  0.66311092  0.95255112  1
  O  O16  1  0.72056824  0.08438859  0.46193681  1
  O  O17  1  0.73887767  0.41456269  0.46799589  1
  O  O18  1  0.83005445  0.74222262  0.45111664  1
  O  O19  1  0.23725941  0.08515607  0.53304687  1
  O  O20  1  0.21900592  0.41565337  0.55010302  1
  O  O21  1  0.33032153  0.75750454  0.55297154  1
  O  O22  1  0.17003572  0.25751674  0.55250989  1
  O  O23  1  0.26312539  0.58511223  0.53351240  1
  O  O24  1  0.28098188  0.91560649  0.54976000  1
  O  O25  1  0.67022240  0.24227784  0.45067507  1
  O  O26  1  0.77988304  0.58439188  0.46125591  1
  O  O27  1  0.76128718  0.91447951  0.46864047  1
  O  O28  1  0.17409446  0.25502504  0.96543636  1
  O  O29  1  0.25738377  0.58684240  0.96718530  1
  O  O30  1  0.27291213  0.91427982  0.95818541  1
  O  O31  1  0.67376712  0.24132402  0.03431911  1
  O  O32  1  0.76430661  0.58239501  0.05413094  1
  O  O33  1  0.76322141  0.91240049  0.03493294  1
  O  O34  1  0.73537718  0.08242348  0.05372898  1
  O  O35  1  0.73604264  0.41246976  0.03518325  1
  O  O36  1  0.82601799  0.74124849  0.03400278  1
  O  O37  1  0.24226381  0.08689907  0.96799832  1
  O  O38  1  0.22654544  0.41427478  0.95795638  1
  O  O39  1  0.32605068  0.75491554  0.96509050  1
  O  O40  1  0.88661608  0.16822701  0.75584172  1
  O  O41  1  0.90646681  0.49501405  0.76862915  1
  O  O42  1  0.93609541  0.83024640  0.72734383  1
  O  O43  1  0.40265518  0.00667702  0.26183637  1
  O  O44  1  0.39443333  0.33066036  0.25041871  1
  O  O45  1  0.43524080  0.66845844  0.27612082  1
  O  O46  1  0.06451617  0.16837885  0.27576519  1
  O  O47  1  0.09910998  0.50675445  0.26181552  1
  O  O48  1  0.10483467  0.83047063  0.25004630  1
  O  O49  1  0.56420658  0.33029952  0.72679661  1
  O  O50  1  0.61414652  0.66793247  0.75564595  1
  O  O51  1  0.59210617  0.99501990  0.76855056  1
