# generated using pymatgen
data_MgCo2(PO4)2
_symmetry_space_group_name_H-M   'P 1'
_cell_length_a   5.08334620
_cell_length_b   8.79837187
_cell_length_c   14.41710552
_cell_angle_alpha   87.26234691
_cell_angle_beta   79.82511334
_cell_angle_gamma   73.20887440
_symmetry_Int_Tables_number   1
_chemical_formula_structural   MgCo2(PO4)2
_chemical_formula_sum   'Mg4 Co8 P8 O32'
_cell_volume   607.60355024
_cell_formula_units_Z   4
loop_
 _symmetry_equiv_pos_site_id
 _symmetry_equiv_pos_as_xyz
  1  'x, y, z'
loop_
 _atom_site_type_symbol
 _atom_site_label
 _atom_site_symmetry_multiplicity
 _atom_site_fract_x
 _atom_site_fract_y
 _atom_site_fract_z
 _atom_site_occupancy
  Mg  Mg0  1  0.44342187  0.82359925  0.87559336  1
  Mg  Mg1  1  0.14286583  0.67755430  0.62433058  1
  Mg  Mg2  1  0.85981042  0.32320386  0.37578812  1
  Mg  Mg3  1  0.55723197  0.17822515  0.12417223  1
  Co  Co4  1  0.20541976  0.22525479  0.96539826  1
  Co  Co5  1  0.39650940  0.27602802  0.53439184  1
  Co  Co6  1  0.79522739  0.77653147  0.03458124  1
  Co  Co7  1  0.49965976  0.50151384  0.00029945  1
  Co  Co8  1  0.60634733  0.72492104  0.46527515  1
  Co  Co9  1  0.55627920  0.75077797  0.24996494  1
  Co  Co10  1  0.44386383  0.25092518  0.74987402  1
  Co  Co11  1  0.00183775  0.00034864  0.49984215  1
  P  P12  1  0.07042433  0.56233852  0.85656383  1
  P  P13  1  0.77844854  0.43347655  0.61012220  1
  P  P14  1  0.93008971  0.43936773  0.14363468  1
  P  P15  1  0.17964348  0.93367212  0.11022194  1
  P  P16  1  0.51358706  0.06197720  0.35631202  1
  P  P17  1  0.48975678  0.93909904  0.64342040  1
  P  P18  1  0.22376443  0.56766278  0.38980087  1
  P  P19  1  0.82050210  0.06797006  0.88996937  1
  O  O20  1  0.71125350  0.38194610  0.10113181  1
  O  O21  1  0.74427092  0.91094319  0.91802127  1
  O  O22  1  0.80875824  0.88141576  0.60118346  1
  O  O23  1  0.80212185  0.29777805  0.53923647  1
  O  O24  1  0.20516629  0.39484064  0.06745051  1
  O  O25  1  0.66194888  0.39789999  0.71038034  1
  O  O26  1  0.63801954  0.20366053  0.96092278  1
  O  O27  1  0.86760518  0.95678649  0.10059351  1
  O  O28  1  0.19991959  0.70351384  0.46062463  1
  O  O29  1  0.57360097  0.59051203  0.58196484  1
  O  O30  1  0.83864199  0.62613331  0.14711383  1
  O  O31  1  0.57518599  0.13972553  0.26275464  1
  O  O32  1  0.25583029  0.09062214  0.08195360  1
  O  O33  1  0.07709700  0.45643656  0.60065375  1
  O  O34  1  0.28895087  0.62016808  0.89899107  1
  O  O35  1  0.16223027  0.37556494  0.85308743  1
  O  O36  1  0.02379325  0.63995823  0.76305431  1
  O  O37  1  0.36247715  0.79768325  0.03946743  1
  O  O38  1  0.39100331  0.12589516  0.64680937  1
  O  O39  1  0.42639265  0.86156070  0.73693933  1
  O  O40  1  0.92540705  0.54434915  0.39941994  1
  O  O41  1  0.33577101  0.89461011  0.56718538  1
  O  O42  1  0.13275389  0.04467807  0.89936436  1
  O  O43  1  0.23101180  0.89825171  0.21054286  1
  O  O44  1  0.42901770  0.41066277  0.41775492  1
  O  O45  1  0.19507099  0.11988400  0.39918434  1
  O  O46  1  0.97707474  0.36155433  0.23706378  1
  O  O47  1  0.66900245  0.10652938  0.43209614  1
  O  O48  1  0.79520851  0.60691073  0.93266448  1
  O  O49  1  0.76832042  0.10378156  0.78979734  1
  O  O50  1  0.33933036  0.60346892  0.28947295  1
  O  O51  1  0.61145040  0.87518226  0.35287147  1
