# generated using pymatgen
data_MgCu(GeO3)2
_symmetry_space_group_name_H-M   'P 1'
_cell_length_a   5.38266649
_cell_length_b   9.22407399
_cell_length_c   9.73803543
_cell_angle_alpha   90.00000000
_cell_angle_beta   101.22646257
_cell_angle_gamma   90.00000000
_symmetry_Int_Tables_number   1
_chemical_formula_structural   MgCu(GeO3)2
_chemical_formula_sum   'Mg4 Cu4 Ge8 O24'
_cell_volume   474.24306550
_cell_formula_units_Z   4
loop_
 _symmetry_equiv_pos_site_id
 _symmetry_equiv_pos_as_xyz
  1  'x, y, z'
loop_
 _atom_site_type_symbol
 _atom_site_label
 _atom_site_symmetry_multiplicity
 _atom_site_fract_x
 _atom_site_fract_y
 _atom_site_fract_z
 _atom_site_occupancy
  Mg  Mg0  1  0.44023779  0.49237030  0.24651605  1
  Mg  Mg1  1  0.05976221  0.99237030  0.75348395  1
  Mg  Mg2  1  0.55976221  0.50762970  0.75348395  1
  Mg  Mg3  1  0.94023779  0.00762970  0.24651605  1
  Cu  Cu4  1  0.95078870  0.64924324  0.24178269  1
  Cu  Cu5  1  0.54921130  0.14924324  0.75821731  1
  Cu  Cu6  1  0.04921130  0.35075676  0.75821731  1
  Cu  Cu7  1  0.45078870  0.85075676  0.24178269  1
  Ge  Ge8  1  0.84186186  0.34039592  0.05804071  1
  Ge  Ge9  1  0.65813814  0.84039592  0.94195929  1
  Ge  Ge10  1  0.15813814  0.65960408  0.94195929  1
  Ge  Ge11  1  0.34186186  0.15960408  0.05804071  1
  Ge  Ge12  1  0.23445778  0.34334103  0.46488519  1
  Ge  Ge13  1  0.26554222  0.84334103  0.53511481  1
  Ge  Ge14  1  0.76554222  0.65665897  0.53511481  1
  Ge  Ge15  1  0.73445778  0.15665897  0.46488519  1
  O  O16  1  0.50182129  0.28707385  0.39110225  1
  O  O17  1  0.99817871  0.78707385  0.60889775  1
  O  O18  1  0.49817871  0.71292615  0.60889775  1
  O  O19  1  0.00182129  0.21292615  0.39110225  1
  O  O20  1  0.18366561  0.31974149  0.11162049  1
  O  O21  1  0.31633439  0.81974149  0.88838051  1
  O  O22  1  0.81633439  0.68025851  0.88838051  1
  O  O23  1  0.68366561  0.18025851  0.11162049  1
  O  O24  1  0.69714306  0.98811049  0.38508552  1
  O  O25  1  0.80285694  0.48811049  0.61491448  1
  O  O26  1  0.30285694  0.01188951  0.61491448  1
  O  O27  1  0.19714306  0.51188951  0.38508552  1
  O  O28  1  0.22849995  0.01599704  0.14198430  1
  O  O29  1  0.27150005  0.51599704  0.85801570  1
  O  O30  1  0.77150005  0.98400296  0.85801570  1
  O  O31  1  0.72849995  0.48400296  0.14198430  1
  O  O32  1  0.78011126  0.35028027  0.87290065  1
  O  O33  1  0.71988874  0.85028027  0.12709935  1
  O  O34  1  0.21988874  0.64971973  0.12709935  1
  O  O35  1  0.28011126  0.14971973  0.87290065  1
  O  O36  1  0.32306494  0.33773591  0.65045102  1
  O  O37  1  0.17693506  0.83773591  0.34954898  1
  O  O38  1  0.67693506  0.66226409  0.34954898  1
  O  O39  1  0.82306494  0.16226409  0.65045102  1
