# generated using pymatgen
data_MgNiMoP2O9
_symmetry_space_group_name_H-M   'P 1'
_cell_length_a   6.46611056
_cell_length_b   7.61773078
_cell_length_c   14.15662085
_cell_angle_alpha   90.04163447
_cell_angle_beta   89.94474451
_cell_angle_gamma   90.03297970
_symmetry_Int_Tables_number   1
_chemical_formula_structural   MgNiMoP2O9
_chemical_formula_sum   'Mg4 Ni4 Mo4 P8 O36'
_cell_volume   697.31331636
_cell_formula_units_Z   4
loop_
 _symmetry_equiv_pos_site_id
 _symmetry_equiv_pos_as_xyz
  1  'x, y, z'
loop_
 _atom_site_type_symbol
 _atom_site_label
 _atom_site_symmetry_multiplicity
 _atom_site_fract_x
 _atom_site_fract_y
 _atom_site_fract_z
 _atom_site_occupancy
  Mg  Mg0  1  0.75009317  0.94731655  0.78410451  1
  Mg  Mg1  1  0.74998553  0.55279155  0.28398400  1
  Mg  Mg2  1  0.24992912  0.05249889  0.21589059  1
  Mg  Mg3  1  0.25007498  0.44731516  0.71598063  1
  Ni  Ni4  1  0.50000987  0.00004704  0.00003771  1
  Ni  Ni5  1  0.49994544  0.49998692  0.50004418  1
  Ni  Ni6  1  0.99994212  0.49996418  0.50006362  1
  Ni  Ni7  1  0.99995212  0.00009363  0.99996301  1
  Mo  Mo8  1  0.75015857  0.35809847  0.88302236  1
  Mo  Mo9  1  0.24987791  0.64197526  0.11695093  1
  Mo  Mo10  1  0.25020821  0.85903229  0.61720841  1
  Mo  Mo11  1  0.74984793  0.14100121  0.38278595  1
  P  P12  1  0.25014001  0.34758157  0.92530970  1
  P  P13  1  0.74987851  0.65249660  0.07465152  1
  P  P14  1  0.75012986  0.84746140  0.57465382  1
  P  P15  1  0.24986133  0.15252155  0.42533056  1
  P  P16  1  0.75006440  0.37788994  0.68865332  1
  P  P17  1  0.24996054  0.62202830  0.31135955  1
  P  P18  1  0.25013439  0.87775461  0.81166889  1
  P  P19  1  0.74991333  0.12223513  0.18832198  1
  O  O20  1  0.04280430  0.61535563  0.36635299  1
  O  O21  1  0.54287057  0.38465744  0.63380894  1
  O  O22  1  0.95707779  0.11534349  0.13362535  1
  O  O23  1  0.45706392  0.88447769  0.86617396  1
  O  O24  1  0.95722103  0.38455625  0.63368916  1
  O  O25  1  0.45712479  0.61523981  0.36621334  1
  O  O26  1  0.04290526  0.88468730  0.86630858  1
  O  O27  1  0.54295225  0.11555013  0.13383140  1
  O  O28  1  0.24965751  0.33459915  0.47036328  1
  O  O29  1  0.75011733  0.66536287  0.52971569  1
  O  O30  1  0.75000052  0.83453484  0.02967515  1
  O  O31  1  0.24994618  0.16554369  0.97029852  1
  O  O32  1  0.74904791  0.12790486  0.93672015  1
  O  O33  1  0.25066875  0.87220559  0.06327262  1
  O  O34  1  0.25011446  0.62741938  0.56334483  1
  O  O35  1  0.74975628  0.37244994  0.43682735  1
  O  O36  1  0.74999035  0.20740852  0.75247529  1
  O  O37  1  0.25007429  0.79253878  0.24754758  1
  O  O38  1  0.24975999  0.70745062  0.74724828  1
  O  O39  1  0.75031573  0.29254675  0.25275244  1
  O  O40  1  0.43154758  0.12359313  0.35609579  1
  O  O41  1  0.93182756  0.87676531  0.64376878  1
  O  O42  1  0.56840074  0.62339001  0.14396253  1
  O  O43  1  0.06839666  0.37660727  0.85616548  1
  O  O44  1  0.56848945  0.87649183  0.64394909  1
  O  O45  1  0.06823183  0.12319433  0.35621499  1
  O  O46  1  0.43163984  0.37663319  0.85601285  1
  O  O47  1  0.93164184  0.62342221  0.14378598  1
  O  O48  1  0.74980783  0.97407792  0.26514991  1
  O  O49  1  0.25026540  0.02587705  0.73480753  1
  O  O50  1  0.25003059  0.47399533  0.23470314  1
  O  O51  1  0.74998839  0.52601983  0.76526115  1
  O  O52  1  0.75003297  0.98633160  0.49585658  1
  O  O53  1  0.25006318  0.01354491  0.50409442  1
  O  O54  1  0.24993794  0.48671254  0.00407338  1
  O  O55  1  0.75012267  0.51341957  0.99586824  1
