# generated using pymatgen
data_Zn(NiO2)4
_symmetry_space_group_name_H-M   'P 1'
_cell_length_a   6.01690770
_cell_length_b   6.01690797
_cell_length_c   6.01690836
_cell_angle_alpha   56.65019407
_cell_angle_beta   56.65018639
_cell_angle_gamma   56.65019060
_symmetry_Int_Tables_number   1
_chemical_formula_structural   Zn(NiO2)4
_chemical_formula_sum   'Zn1 Ni4 O8'
_cell_volume   142.11253044
_cell_formula_units_Z   1
loop_
 _symmetry_equiv_pos_site_id
 _symmetry_equiv_pos_as_xyz
  1  'x, y, z'
loop_
 _atom_site_type_symbol
 _atom_site_label
 _atom_site_symmetry_multiplicity
 _atom_site_fract_x
 _atom_site_fract_y
 _atom_site_fract_z
 _atom_site_occupancy
  Zn  Zn0  1  0.50000000  0.50000100  0.49999900  1
  Ni  Ni1  1  0.50000100  0.99999900  0.50000100  1
  Ni  Ni2  1  0.99999900  0.50000000  0.50000100  1
  Ni  Ni3  1  0.50000000  0.50000000  -0.00000000  1
  Ni  Ni4  1  -0.00000000  0.00000000  -0.00000000  1
  O  O5  1  0.75338065  0.29225966  0.75338065  1
  O  O6  1  0.24661835  0.24661935  0.70774034  1
  O  O7  1  0.24661835  0.70774134  0.24661835  1
  O  O8  1  0.70773934  0.24661935  0.24661935  1
  O  O9  1  0.27026666  0.27026766  0.27026666  1
  O  O10  1  0.72973334  0.72973334  0.72973334  1
  O  O11  1  0.29226066  0.75338165  0.75338065  1
  O  O12  1  0.75338165  0.75338165  0.29225966  1
