# generated using pymatgen
data_CaSn2(PO5)2
_symmetry_space_group_name_H-M   'P 1'
_cell_length_a   7.08070167
_cell_length_b   7.08070171
_cell_length_c   9.17235495
_cell_angle_alpha   102.78358102
_cell_angle_beta   102.78358262
_cell_angle_gamma   115.26054886
_symmetry_Int_Tables_number   1
_chemical_formula_structural   CaSn2(PO5)2
_chemical_formula_sum   'Ca2 Sn4 P4 O20'
_cell_volume   378.71237580
_cell_formula_units_Z   2
loop_
 _symmetry_equiv_pos_site_id
 _symmetry_equiv_pos_as_xyz
  1  'x, y, z'
loop_
 _atom_site_type_symbol
 _atom_site_label
 _atom_site_symmetry_multiplicity
 _atom_site_fract_x
 _atom_site_fract_y
 _atom_site_fract_z
 _atom_site_occupancy
  Ca  Ca0  1  0.49997801  -0.00002199  0.50000000  1
  Ca  Ca1  1  0.24997801  0.24997801  1.00000000  1
  Sn  Sn2  1  0.87400621  0.61668350  0.25373499  1
  Sn  Sn3  1  0.36294851  0.62027022  0.74626501  1
  Sn  Sn4  1  0.87027022  0.11294851  0.24626501  1
  Sn  Sn5  1  0.86668350  0.62400621  0.75373499  1
  P  P6  1  0.03926938  0.03865466  0.58777352  1
  P  P7  1  0.70149586  0.20088114  0.91222648  1
  P  P8  1  0.45088114  0.45149586  0.41222648  1
  P  P9  1  0.28865466  0.78926938  0.08777352  1
  O  O10  1  0.57082032  0.54611953  0.30161596  1
  O  O11  1  0.66026512  0.66932719  0.84387229  1
  O  O12  1  0.31098510  0.60490771  0.97546225  1
  O  O13  1  0.79611953  0.32082032  0.80161596  1
  O  O14  1  0.22451640  0.24390942  0.29685198  1
  O  O15  1  0.42161708  0.63422016  0.52016979  1
  O  O16  1  0.06639282  0.57545490  0.65612771  1
  O  O17  1  0.82545490  0.81639282  0.15612771  1
  O  O18  1  0.91932719  0.41026512  0.34387229  1
  O  O19  1  0.17766342  0.69705744  0.20314802  1
  O  O20  1  0.24450357  0.26920536  0.69838404  1
  O  O21  1  0.49390942  0.97451640  0.79685198  1
  O  O22  1  0.94705744  0.92766342  0.70314802  1
  O  O23  1  0.15144829  0.86405137  0.97983021  1
  O  O24  1  0.11405137  0.90144829  0.47983021  1
  O  O25  1  0.88422016  0.17161708  0.02016979  1
  O  O26  1  0.85490771  0.06098510  0.47546225  1
  O  O27  1  0.62944546  0.33552284  0.02453775  1
  O  O28  1  0.51920536  0.99450357  0.19838404  1
  O  O29  1  0.58552284  0.37944546  0.52453775  1
