# generated using pymatgen
data_Zn(CuO2)2
_symmetry_space_group_name_H-M   'P 1'
_cell_length_a   5.94503229
_cell_length_b   5.93582953
_cell_length_c   5.93582938
_cell_angle_alpha   59.99999341
_cell_angle_beta   60.05119328
_cell_angle_gamma   60.05118763
_symmetry_Int_Tables_number   1
_chemical_formula_structural   Zn(CuO2)2
_chemical_formula_sum   'Zn2 Cu4 O8'
_cell_volume   148.23051808
_cell_formula_units_Z   2
loop_
 _symmetry_equiv_pos_site_id
 _symmetry_equiv_pos_as_xyz
  1  'x, y, z'
loop_
 _atom_site_type_symbol
 _atom_site_label
 _atom_site_symmetry_multiplicity
 _atom_site_fract_x
 _atom_site_fract_y
 _atom_site_fract_z
 _atom_site_occupancy
  Zn  Zn0  1  0.97707497  0.00764168  0.00764168  1
  Zn  Zn1  1  0.12556038  0.62481287  0.62481287  1
  Cu  Cu2  1  0.26053060  0.24649047  0.24649047  1
  Cu  Cu3  1  0.62429754  0.12558952  0.62505597  1
  Cu  Cu4  1  0.62429754  0.62505597  0.12558952  1
  Cu  Cu5  1  0.62429754  0.62505597  0.62505597  1
  O  O6  1  0.41105939  0.37512948  0.37512948  1
  O  O7  1  0.41105939  0.37512948  0.83867964  1
  O  O8  1  0.41105939  0.83867964  0.37512948  1
  O  O9  1  0.87337216  0.37554228  0.37554228  1
  O  O10  1  0.38174335  0.87275222  0.87275222  1
  O  O11  1  0.84188258  0.41576688  0.87117527  1
  O  O12  1  0.84188258  0.87117527  0.41576688  1
  O  O13  1  0.84188258  0.87117527  0.87117527  1
