# generated using pymatgen
data_Sr2YCr2GaO7
_symmetry_space_group_name_H-M   'P 1'
_cell_length_a   5.60966717
_cell_length_b   5.74153330
_cell_length_c   12.20446180
_cell_angle_alpha   103.59591162
_cell_angle_beta   103.28201377
_cell_angle_gamma   90.00365274
_symmetry_Int_Tables_number   1
_chemical_formula_structural   Sr2YCr2GaO7
_chemical_formula_sum   'Sr4 Y2 Cr4 Ga2 O14'
_cell_volume   371.23954758
_cell_formula_units_Z   2
loop_
 _symmetry_equiv_pos_site_id
 _symmetry_equiv_pos_as_xyz
  1  'x, y, z'
loop_
 _atom_site_type_symbol
 _atom_site_label
 _atom_site_symmetry_multiplicity
 _atom_site_fract_x
 _atom_site_fract_y
 _atom_site_fract_z
 _atom_site_occupancy
  Sr  Sr0  1  0.13816305  0.18002297  0.30855142  1
  Sr  Sr1  1  0.82975026  0.81902596  0.69185267  1
  Sr  Sr2  1  0.63829622  0.62784866  0.30852994  1
  Sr  Sr3  1  0.33004380  0.37130099  0.69192554  1
  Y  Y4  1  0.49528282  0.49951956  0.00029906  1
  Y  Y5  1  0.99543866  0.99952483  0.00025508  1
  Cr  Cr6  1  0.42292157  0.92632608  0.84991207  1
  Cr  Cr7  1  0.07335057  0.57699662  0.15020256  1
  Cr  Cr8  1  0.92314772  0.42198398  0.85021486  1
  Cr  Cr9  1  0.57353617  0.07282272  0.15069775  1
  Ga  Ga10  1  0.21430387  0.82143418  0.50014341  1
  Ga  Ga11  1  0.71434885  0.17775426  0.50023862  1
  O  O12  1  0.77392736  0.35241215  0.12836547  1
  O  O13  1  0.87622807  0.88270744  0.50019043  1
  O  O14  1  0.27390298  0.27522992  0.12832247  1
  O  O15  1  0.85051525  0.37520932  0.64410373  1
  O  O16  1  0.72611229  0.13863024  0.86588717  1
  O  O17  1  0.22619428  0.22548664  0.86587257  1
  O  O18  1  0.37615221  0.11652180  0.50010668  1
  O  O19  1  0.14521578  0.72403606  0.87202958  1
  O  O20  1  0.64524211  0.64628294  0.87201782  1
  O  O21  1  0.35095000  0.76721622  0.64390252  1
  O  O22  1  0.20685556  0.62395909  0.35629233  1
  O  O23  1  0.70740491  0.23186558  0.35645396  1
  O  O24  1  0.86019583  0.85991692  0.13445337  1
  O  O25  1  0.36034881  0.77388688  0.13449191  1
