# generated using pymatgen
data_ZnFeBiO5
_symmetry_space_group_name_H-M   'P 1'
_cell_length_a   5.34908458
_cell_length_b   8.47176108
_cell_length_c   10.49931650
_cell_angle_alpha   90.00000000
_cell_angle_beta   90.00000000
_cell_angle_gamma   107.78352396
_symmetry_Int_Tables_number   1
_chemical_formula_structural   ZnFeBiO5
_chemical_formula_sum   'Zn4 Fe4 Bi4 O20'
_cell_volume   453.05428356
_cell_formula_units_Z   4
loop_
 _symmetry_equiv_pos_site_id
 _symmetry_equiv_pos_as_xyz
  1  'x, y, z'
loop_
 _atom_site_type_symbol
 _atom_site_label
 _atom_site_symmetry_multiplicity
 _atom_site_fract_x
 _atom_site_fract_y
 _atom_site_fract_z
 _atom_site_occupancy
  Zn  Zn0  1  0.63497949  0.16272637  0.90053136  1
  Zn  Zn1  1  0.36502051  0.83727363  0.09946864  1
  Zn  Zn2  1  0.86502051  0.33727363  0.40053136  1
  Zn  Zn3  1  0.13497949  0.66272637  0.59946864  1
  Fe  Fe4  1  0.80669538  0.94153212  0.61244195  1
  Fe  Fe5  1  0.19330462  0.05846788  0.38755805  1
  Fe  Fe6  1  0.69330462  0.55846788  0.11244195  1
  Fe  Fe7  1  0.30669538  0.44153212  0.88755805  1
  Bi  Bi8  1  0.12129783  0.15731278  0.10329618  1
  Bi  Bi9  1  0.87870217  0.84268722  0.89670382  1
  Bi  Bi10  1  0.62129783  0.65731278  0.39670382  1
  Bi  Bi11  1  0.37870217  0.34268722  0.60329618  1
  O  O12  1  0.47703590  0.34612312  0.04667907  1
  O  O13  1  0.98513579  0.30951407  0.97143284  1
  O  O14  1  0.51302640  0.69550176  0.20917398  1
  O  O15  1  0.75426420  0.51615443  0.54352701  1
  O  O16  1  0.78693674  0.50323033  0.28095706  1
  O  O17  1  0.28693674  0.00323033  0.21904294  1
  O  O18  1  0.48513579  0.80951407  0.52856716  1
  O  O19  1  0.51486421  0.19048593  0.47143284  1
  O  O20  1  0.24573580  0.48384557  0.45647299  1
  O  O21  1  0.02296410  0.15387688  0.54667907  1
  O  O22  1  0.21306326  0.49676967  0.71904294  1
  O  O23  1  0.52296410  0.65387688  0.95332093  1
  O  O24  1  0.97703590  0.84612312  0.45332093  1
  O  O25  1  0.71306326  0.99676967  0.78095706  1
  O  O26  1  0.74573580  0.98384557  0.04352701  1
  O  O27  1  0.25426420  0.01615443  0.95647299  1
  O  O28  1  0.48697360  0.30449824  0.79082602  1
  O  O29  1  0.01486421  0.69048593  0.02856716  1
  O  O30  1  0.98697360  0.80449824  0.70917398  1
  O  O31  1  0.01302640  0.19550176  0.29082602  1
