# generated using pymatgen
data_MgCoBiO5
_symmetry_space_group_name_H-M   'P 1'
_cell_length_a   5.35216476
_cell_length_b   8.14174809
_cell_length_c   10.55296885
_cell_angle_alpha   90.00000000
_cell_angle_beta   90.00000000
_cell_angle_gamma   107.58022142
_symmetry_Int_Tables_number   1
_chemical_formula_structural   MgCoBiO5
_chemical_formula_sum   'Mg4 Co4 Bi4 O20'
_cell_volume   438.37835374
_cell_formula_units_Z   4
loop_
 _symmetry_equiv_pos_site_id
 _symmetry_equiv_pos_as_xyz
  1  'x, y, z'
loop_
 _atom_site_type_symbol
 _atom_site_label
 _atom_site_symmetry_multiplicity
 _atom_site_fract_x
 _atom_site_fract_y
 _atom_site_fract_z
 _atom_site_occupancy
  Mg  Mg0  1  0.63060315  0.17564332  0.91417587  1
  Mg  Mg1  1  0.36939685  0.82435668  0.08582413  1
  Mg  Mg2  1  0.86939685  0.32435668  0.41417587  1
  Mg  Mg3  1  0.13060315  0.67564332  0.58582413  1
  Co  Co4  1  0.79926717  0.95691381  0.62347584  1
  Co  Co5  1  0.20073283  0.04308619  0.37652416  1
  Co  Co6  1  0.70073283  0.54308619  0.12347584  1
  Co  Co7  1  0.29926717  0.45691381  0.87652416  1
  Bi  Bi8  1  0.12875352  0.15661438  0.10527862  1
  Bi  Bi9  1  0.87124648  0.84338562  0.89472138  1
  Bi  Bi10  1  0.62875352  0.65661438  0.39472138  1
  Bi  Bi11  1  0.37124648  0.34338562  0.60527862  1
  O  O12  1  0.51042059  0.33166082  0.05882589  1
  O  O13  1  0.01665766  0.31683743  0.96404238  1
  O  O14  1  0.50778877  0.67617587  0.20419751  1
  O  O15  1  0.75278015  0.50639206  0.54156644  1
  O  O16  1  0.79958853  0.49282014  0.28446478  1
  O  O17  1  0.29958853  0.99282014  0.21553522  1
  O  O18  1  0.51665766  0.81683743  0.53595762  1
  O  O19  1  0.48334234  0.18316257  0.46404238  1
  O  O20  1  0.24721985  0.49360794  0.45843356  1
  O  O21  1  0.98957941  0.16833918  0.55882589  1
  O  O22  1  0.20041147  0.50717986  0.71553522  1
  O  O23  1  0.48957941  0.66833918  0.94117411  1
  O  O24  1  0.01042059  0.83166082  0.44117411  1
  O  O25  1  0.70041147  0.00717986  0.78446478  1
  O  O26  1  0.74721985  0.99360794  0.04156644  1
  O  O27  1  0.25278015  0.00639206  0.95843356  1
  O  O28  1  0.49221123  0.32382413  0.79580249  1
  O  O29  1  0.98334234  0.68316257  0.03595762  1
  O  O30  1  0.99221123  0.82382413  0.70419751  1
  O  O31  1  0.00778877  0.17617587  0.29580249  1
