# generated using pymatgen
data_CaTi2P2O9
_symmetry_space_group_name_H-M   'P 1'
_cell_length_a   6.54618025
_cell_length_b   7.55637402
_cell_length_c   14.46136721
_cell_angle_alpha   89.98049175
_cell_angle_beta   90.02345527
_cell_angle_gamma   90.00982728
_symmetry_Int_Tables_number   1
_chemical_formula_structural   CaTi2P2O9
_chemical_formula_sum   'Ca4 Ti8 P8 O36'
_cell_volume   715.33700459
_cell_formula_units_Z   4
loop_
 _symmetry_equiv_pos_site_id
 _symmetry_equiv_pos_as_xyz
  1  'x, y, z'
loop_
 _atom_site_type_symbol
 _atom_site_label
 _atom_site_symmetry_multiplicity
 _atom_site_fract_x
 _atom_site_fract_y
 _atom_site_fract_z
 _atom_site_occupancy
  Ca  Ca0  1  0.74998704  0.89277014  0.77859958  1
  Ca  Ca1  1  0.74995108  0.60730258  0.27858685  1
  Ca  Ca2  1  0.25005176  0.39247417  0.72141513  1
  Ca  Ca3  1  0.25001379  0.10735197  0.22146854  1
  Ti  Ti4  1  0.75006153  0.34496882  0.88292225  1
  Ti  Ti5  1  0.24994820  0.65505333  0.11704370  1
  Ti  Ti6  1  0.25001919  0.84507175  0.61709846  1
  Ti  Ti7  1  0.74999384  0.15500131  0.38299734  1
  Ti  Ti8  1  0.49998981  -0.00002905  0.00000328  1
  Ti  Ti9  1  0.49982184  0.50008152  0.49999876  1
  Ti  Ti10  1  0.00016274  0.50005353  0.49999404  1
  Ti  Ti11  1  0.00001012  -0.00001625  0.00000080  1
  P  P12  1  0.25008932  0.35985207  0.93356440  1
  P  P13  1  0.74991743  0.64024991  0.06645149  1
  P  P14  1  0.74999244  0.85985796  0.56633759  1
  P  P15  1  0.25001857  0.13995968  0.43376262  1
  P  P16  1  0.74999233  0.38849181  0.69266305  1
  P  P17  1  0.74998925  0.11146310  0.19274081  1
  P  P18  1  0.25001018  0.88866304  0.80723431  1
  P  P19  1  0.25000974  0.61149301  0.30728555  1
  O  O20  1  0.05469987  0.60367045  0.36860622  1
  O  O21  1  0.55458135  0.39651364  0.63135597  1
  O  O22  1  0.94530932  0.10354117  0.13140655  1
  O  O23  1  0.44541348  0.89658328  0.86858193  1
  O  O24  1  0.94533245  0.39641700  0.63137079  1
  O  O25  1  0.44537938  0.60358541  0.36862736  1
  O  O26  1  0.05470532  0.89641031  0.86855854  1
  O  O27  1  0.55456398  0.10335427  0.13138692  1
  O  O28  1  0.25012003  0.32526939  0.48254534  1
  O  O29  1  0.74988385  0.67451466  0.51758005  1
  O  O30  1  0.74978654  0.82547394  0.01762793  1
  O  O31  1  0.25021417  0.17454441  0.98233813  1
  O  O32  1  0.75005609  0.12871212  0.94127853  1
  O  O33  1  0.24991525  0.87127900  0.05863445  1
  O  O34  1  0.24981345  0.62881015  0.55879086  1
  O  O35  1  0.75013722  0.37142589  0.44116293  1
  O  O36  1  0.74996500  0.21524445  0.75114869  1
  O  O37  1  0.25004506  0.78465428  0.24873106  1
  O  O38  1  0.25004825  0.71533774  0.74873082  1
  O  O39  1  0.74995830  0.28483425  0.25114744  1
  O  O40  1  0.43687491  0.12936449  0.36796077  1
  O  O41  1  0.93684303  0.87042910  0.63215500  1
  O  O42  1  0.56309967  0.62952543  0.13212514  1
  O  O43  1  0.06325632  0.37050415  0.86784060  1
  O  O44  1  0.56316408  0.87043679  0.63210856  1
  O  O45  1  0.06312844  0.12936750  0.36791931  1
  O  O46  1  0.43684394  0.37053178  0.86787145  1
  O  O47  1  0.93681291  0.62956635  0.13215514  1
  O  O48  1  0.74998492  0.49918120  0.99193918  1
  O  O49  1  0.25002922  0.03935754  0.73404851  1
  O  O50  1  0.24999268  0.46054382  0.23416245  1
  O  O51  1  0.75001728  0.53933428  0.76586905  1
  O  O52  1  0.75002447  0.00070803  0.49200324  1
  O  O53  1  0.24998668  0.99918361  0.50804871  1
  O  O54  1  0.25001888  0.50082189  0.00804791  1
  O  O55  1  0.74997898  0.96085186  0.26596692  1
