# generated using pymatgen
data_CaTi2S5
_symmetry_space_group_name_H-M   'P 1'
_cell_length_a   4.27622483
_cell_length_b   6.06395830
_cell_length_c   14.50753574
_cell_angle_alpha   90.00549701
_cell_angle_beta   89.99987294
_cell_angle_gamma   89.99989534
_symmetry_Int_Tables_number   1
_chemical_formula_structural   CaTi2S5
_chemical_formula_sum   'Ca2 Ti4 S10'
_cell_volume   376.19271778
_cell_formula_units_Z   2
loop_
 _symmetry_equiv_pos_site_id
 _symmetry_equiv_pos_as_xyz
  1  'x, y, z'
loop_
 _atom_site_type_symbol
 _atom_site_label
 _atom_site_symmetry_multiplicity
 _atom_site_fract_x
 _atom_site_fract_y
 _atom_site_fract_z
 _atom_site_occupancy
  Ca  Ca0  1  0.74999987  0.87187721  0.24997618  1
  Ca  Ca1  1  0.25000032  0.12810237  0.75001782  1
  Ti  Ti2  1  0.24999792  0.39832982  0.09663885  1
  Ti  Ti3  1  0.74999863  0.60161702  0.90336023  1
  Ti  Ti4  1  0.74999895  0.60150908  0.59662492  1
  Ti  Ti5  1  0.25000033  0.39846793  0.40337732  1
  S  S6  1  0.74999992  0.46149072  0.75001752  1
  S  S7  1  0.24999964  0.53849754  0.24997585  1
  S  S8  1  0.74999691  0.57426741  0.07484248  1
  S  S9  1  0.24999954  0.42572046  0.92516197  1
  S  S10  1  0.74999984  0.57440767  0.42515829  1
  S  S11  1  0.24999929  0.42560661  0.57483875  1
  S  S12  1  0.25000081  0.04875880  0.37392931  1
  S  S13  1  0.75000046  0.95129527  0.62608674  1
  S  S14  1  0.75000057  0.95135280  0.87395402  1
  S  S15  1  0.24999902  0.04869927  0.12603875  1
