# generated using pymatgen
data_Ti2P2O9
_symmetry_space_group_name_H-M   'P 1'
_cell_length_a   6.34027294
_cell_length_b   7.82757333
_cell_length_c   14.04445151
_cell_angle_alpha   90.01912173
_cell_angle_beta   89.99964915
_cell_angle_gamma   90.00001575
_symmetry_Int_Tables_number   1
_chemical_formula_structural   Ti2P2O9
_chemical_formula_sum   'Ti8 P8 O36'
_cell_volume   697.01136185
_cell_formula_units_Z   4
loop_
 _symmetry_equiv_pos_site_id
 _symmetry_equiv_pos_as_xyz
  1  'x, y, z'
loop_
 _atom_site_type_symbol
 _atom_site_label
 _atom_site_symmetry_multiplicity
 _atom_site_fract_x
 _atom_site_fract_y
 _atom_site_fract_z
 _atom_site_occupancy
  Ti  Ti0  1  0.75000509  0.35381199  0.87353366  1
  Ti  Ti1  1  0.25000214  0.64616415  0.12647543  1
  Ti  Ti2  1  0.24999326  0.85393734  0.62645285  1
  Ti  Ti3  1  0.75000651  0.14602922  0.37354452  1
  Ti  Ti4  1  0.49991527  0.99996141  0.00001490  1
  Ti  Ti5  1  0.49996497  0.50000941  0.50001312  1
  Ti  Ti6  1  0.99995360  0.49996920  0.49999316  1
  Ti  Ti7  1  0.99993661  0.00003570  0.99998103  1
  P  P8  1  0.25000392  0.35379816  0.93923443  1
  P  P9  1  0.74999888  0.64621519  0.06075236  1
  P  P10  1  0.74999695  0.85387372  0.56076853  1
  P  P11  1  0.25000264  0.14611097  0.43923560  1
  P  P12  1  0.75000602  0.39221961  0.69036639  1
  P  P13  1  0.75000535  0.10788396  0.19035046  1
  P  P14  1  0.25000373  0.89211056  0.80964406  1
  P  P15  1  0.25000399  0.60780369  0.30964811  1
  O  O16  1  0.05306494  0.58982474  0.37497921  1
  O  O17  1  0.55306839  0.41018193  0.62502322  1
  O  O18  1  0.94694186  0.08995317  0.12502577  1
  O  O19  1  0.44694309  0.91004448  0.87497276  1
  O  O20  1  0.94694310  0.41018792  0.62502543  1
  O  O21  1  0.44694123  0.58981921  0.37497922  1
  O  O22  1  0.05306773  0.91003465  0.87497647  1
  O  O23  1  0.55306908  0.08996443  0.12502330  1
  O  O24  1  0.24999521  0.33435330  0.48387161  1
  O  O25  1  0.74999450  0.66563184  0.51613357  1
  O  O26  1  0.74999036  0.83438525  0.01610588  1
  O  O27  1  0.24999030  0.16562550  0.98388184  1
  O  O28  1  0.75005379  0.13408580  0.95239273  1
  O  O29  1  0.25005250  0.86594338  0.04760058  1
  O  O30  1  0.25002845  0.63412263  0.54759495  1
  O  O31  1  0.75003000  0.36587137  0.45241130  1
  O  O32  1  0.75000511  0.22558798  0.74978709  1
  O  O33  1  0.25000082  0.77442291  0.25021478  1
  O  O34  1  0.24999975  0.72554266  0.75010025  1
  O  O35  1  0.75000449  0.27444814  0.24990246  1
  O  O36  1  0.44703705  0.13833890  0.37774254  1
  O  O37  1  0.94702595  0.86166822  0.62226158  1
  O  O38  1  0.55296744  0.63853239  0.12225650  1
  O  O39  1  0.05297927  0.36149374  0.87773137  1
  O  O40  1  0.55297201  0.86166510  0.62225894  1
  O  O41  1  0.05297596  0.13832612  0.37773746  1
  O  O42  1  0.44703643  0.36148237  0.87773877  1
  O  O43  1  0.94703379  0.63854010  0.12225775  1
  O  O44  1  0.75000489  0.51543788  0.98078676  1
  O  O45  1  0.24999788  0.02798296  0.72885825  1
  O  O46  1  0.25000253  0.47202251  0.22877233  1
  O  O47  1  0.75000135  0.52799467  0.77123204  1
  O  O48  1  0.74999963  0.98451127  0.48076793  1
  O  O49  1  0.25000076  0.01547081  0.51922487  1
  O  O50  1  0.24999818  0.48456233  0.01921551  1
  O  O51  1  0.74999925  0.97200507  0.27113940  1
