# generated using pymatgen
data_TiZnCu(PO4)3
_symmetry_space_group_name_H-M   'P 1'
_cell_length_a   8.51200128
_cell_length_b   8.51200130
_cell_length_c   8.51200133
_cell_angle_alpha   60.70418951
_cell_angle_beta   60.70419324
_cell_angle_gamma   60.70419632
_symmetry_Int_Tables_number   1
_chemical_formula_structural   TiZnCu(PO4)3
_chemical_formula_sum   'Ti2 Zn2 Cu2 P6 O24'
_cell_volume   443.02491471
_cell_formula_units_Z   2
loop_
 _symmetry_equiv_pos_site_id
 _symmetry_equiv_pos_as_xyz
  1  'x, y, z'
loop_
 _atom_site_type_symbol
 _atom_site_label
 _atom_site_symmetry_multiplicity
 _atom_site_fract_x
 _atom_site_fract_y
 _atom_site_fract_z
 _atom_site_occupancy
  Ti  Ti0  1  0.14328872  0.14328872  0.14328872  1
  Ti  Ti1  1  0.64328872  0.64328872  0.64328872  1
  Zn  Zn2  1  0.99595341  0.99595341  0.99595341  1
  Zn  Zn3  1  0.49595341  0.49595341  0.49595341  1
  Cu  Cu4  1  0.35492358  0.35492358  0.35492358  1
  Cu  Cu5  1  0.85492358  0.85492358  0.85492358  1
  P  P6  1  0.04478270  0.45705289  0.75008236  1
  P  P7  1  0.45705289  0.75008236  0.04478270  1
  P  P8  1  0.75008236  0.04478270  0.45705289  1
  P  P9  1  0.25008236  0.95705289  0.54478270  1
  P  P10  1  0.54478270  0.25008236  0.95705289  1
  P  P11  1  0.95705289  0.54478270  0.25008236  1
  O  O12  1  0.11362268  0.51730920  0.30820797  1
  O  O13  1  0.30820797  0.11362268  0.51730920  1
  O  O14  1  0.05460823  0.25939514  0.91324740  1
  O  O15  1  0.51730920  0.30820797  0.11362268  1
  O  O16  1  0.01730920  0.61362268  0.80820797  1
  O  O17  1  0.23938195  0.44154889  0.58605913  1
  O  O18  1  0.25939514  0.91324740  0.05460823  1
  O  O19  1  0.44154889  0.58605913  0.23938195  1
  O  O20  1  0.18961882  0.00272639  0.37818753  1
  O  O21  1  0.58605913  0.23938195  0.44154889  1
  O  O22  1  0.08605913  0.94154889  0.73938195  1
  O  O23  1  0.37818753  0.18961882  0.00272639  1
  O  O24  1  0.61362268  0.80820797  0.01730920  1
  O  O25  1  0.91324740  0.05460823  0.25939514  1
  O  O26  1  0.41324740  0.75939514  0.55460823  1
  O  O27  1  0.80820797  0.01730920  0.61362268  1
  O  O28  1  0.55460823  0.41324740  0.75939514  1
  O  O29  1  0.73938195  0.08605913  0.94154889  1
  O  O30  1  0.75939514  0.55460823  0.41324740  1
  O  O31  1  0.00272639  0.37818753  0.18961882  1
  O  O32  1  0.50272639  0.68961882  0.87818753  1
  O  O33  1  0.94154889  0.73938195  0.08605913  1
  O  O34  1  0.68961882  0.87818753  0.50272639  1
  O  O35  1  0.87818753  0.50272639  0.68961882  1
