# generated using pymatgen
data_CaAgBiO5
_symmetry_space_group_name_H-M   'P 1'
_cell_length_a   5.88474279
_cell_length_b   9.14270426
_cell_length_c   11.07219627
_cell_angle_alpha   90.00000000
_cell_angle_beta   90.00000000
_cell_angle_gamma   110.62074132
_symmetry_Int_Tables_number   1
_chemical_formula_structural   CaAgBiO5
_chemical_formula_sum   'Ca4 Ag4 Bi4 O20'
_cell_volume   557.54545366
_cell_formula_units_Z   4
loop_
 _symmetry_equiv_pos_site_id
 _symmetry_equiv_pos_as_xyz
  1  'x, y, z'
loop_
 _atom_site_type_symbol
 _atom_site_label
 _atom_site_symmetry_multiplicity
 _atom_site_fract_x
 _atom_site_fract_y
 _atom_site_fract_z
 _atom_site_occupancy
  Ca  Ca0  1  0.63802746  0.15905114  0.89352134  1
  Ca  Ca1  1  0.36197254  0.84094886  0.10647866  1
  Ca  Ca2  1  0.86197254  0.34094886  0.39352134  1
  Ca  Ca3  1  0.13802746  0.65905114  0.60647866  1
  Ag  Ag4  1  0.82593491  0.88553287  0.62864412  1
  Ag  Ag5  1  0.17406509  0.11446713  0.37135588  1
  Ag  Ag6  1  0.67406509  0.61446713  0.12864412  1
  Ag  Ag7  1  0.32593491  0.38553287  0.87135588  1
  Bi  Bi8  1  0.12083591  0.16079435  0.08825606  1
  Bi  Bi9  1  0.87916409  0.83920565  0.91174394  1
  Bi  Bi10  1  0.62083591  0.66079435  0.41174394  1
  Bi  Bi11  1  0.37916409  0.33920565  0.58825606  1
  O  O12  1  0.46716149  0.32027099  0.02021554  1
  O  O13  1  0.01307954  0.31698144  0.97665231  1
  O  O14  1  0.46172302  0.69099337  0.24483715  1
  O  O15  1  0.73009136  0.50626285  0.53563055  1
  O  O16  1  0.78486361  0.54726974  0.28600582  1
  O  O17  1  0.28486361  0.04726974  0.21399418  1
  O  O18  1  0.51307954  0.81698144  0.52334769  1
  O  O19  1  0.48692046  0.18301856  0.47665231  1
  O  O20  1  0.26990864  0.49373715  0.46436945  1
  O  O21  1  0.03283851  0.17972901  0.52021554  1
  O  O22  1  0.21513639  0.45273026  0.71399418  1
  O  O23  1  0.53283851  0.67972901  0.97978446  1
  O  O24  1  0.96716149  0.82027099  0.47978446  1
  O  O25  1  0.71513639  0.95273026  0.78600582  1
  O  O26  1  0.76990864  0.99373715  0.03563055  1
  O  O27  1  0.23009136  0.00626285  0.96436945  1
  O  O28  1  0.53827698  0.30900663  0.75516285  1
  O  O29  1  0.98692046  0.68301856  0.02334769  1
  O  O30  1  0.03827698  0.80900663  0.74483715  1
  O  O31  1  0.96172302  0.19099337  0.25516285  1
