# generated using pymatgen
data_YV4(CuO4)3
_symmetry_space_group_name_H-M   'P 1'
_cell_length_a   6.41755029
_cell_length_b   6.41438468
_cell_length_c   6.43057459
_cell_angle_alpha   109.53117347
_cell_angle_beta   109.48130100
_cell_angle_gamma   109.44908264
_symmetry_Int_Tables_number   1
_chemical_formula_structural   YV4(CuO4)3
_chemical_formula_sum   'Y1 V4 Cu3 O12'
_cell_volume   203.65497733
_cell_formula_units_Z   1
loop_
 _symmetry_equiv_pos_site_id
 _symmetry_equiv_pos_as_xyz
  1  'x, y, z'
loop_
 _atom_site_type_symbol
 _atom_site_label
 _atom_site_symmetry_multiplicity
 _atom_site_fract_x
 _atom_site_fract_y
 _atom_site_fract_z
 _atom_site_occupancy
  Y  Y0  1  0.99999858  -0.00000113  0.99999497  1
  V  V1  1  0.49999676  -0.00000129  0.00000023  1
  V  V2  1  -0.00000659  0.00000240  0.50000319  1
  V  V3  1  -0.00000141  0.49999854  0.99999724  1
  V  V4  1  0.50000411  0.50000162  0.50000304  1
  Cu  Cu5  1  0.49999795  0.99999858  0.50000117  1
  Cu  Cu6  1  0.50000164  0.50000032  0.99999857  1
  Cu  Cu7  1  0.00000087  0.50000069  0.50000047  1
  O  O8  1  0.82413575  0.29689073  0.12424701  1
  O  O9  1  0.17586725  0.70311278  0.87575784  1
  O  O10  1  0.82096765  0.70067181  0.52778913  1
  O  O11  1  0.29753136  0.47322054  0.17463427  1
  O  O12  1  0.47292471  0.17755745  0.30135675  1
  O  O13  1  0.12081291  0.81704432  0.28959683  1
  O  O14  1  0.69518556  0.87849453  0.16925538  1
  O  O15  1  0.52707242  0.82243918  0.69864444  1
  O  O16  1  0.17903426  0.29933057  0.47221019  1
  O  O17  1  0.70247198  0.52678155  0.82536537  1
  O  O18  1  0.87919046  0.18295116  0.71040129  1
  O  O19  1  0.30481476  0.12150466  0.83074161  1
