# generated using pymatgen
data_CaCr2O4
_symmetry_space_group_name_H-M   'P 1'
_cell_length_a   6.23196217
_cell_length_b   6.23199602
_cell_length_c   18.77749941
_cell_angle_alpha   60.14708870
_cell_angle_beta   60.14902195
_cell_angle_gamma   59.99929952
_symmetry_Int_Tables_number   1
_chemical_formula_structural   CaCr2O4
_chemical_formula_sum   'Ca6 Cr12 O24'
_cell_volume   516.82164882
_cell_formula_units_Z   6
loop_
 _symmetry_equiv_pos_site_id
 _symmetry_equiv_pos_as_xyz
  1  'x, y, z'
loop_
 _atom_site_type_symbol
 _atom_site_label
 _atom_site_symmetry_multiplicity
 _atom_site_fract_x
 _atom_site_fract_y
 _atom_site_fract_z
 _atom_site_occupancy
  Ca  Ca0  1  0.12213675  0.12212476  0.04454074  1
  Ca  Ca1  1  0.12333824  0.12335435  0.37665435  1
  Ca  Ca2  1  0.49728085  0.49727936  0.00272204  1
  Ca  Ca3  1  0.12303513  0.12303627  0.71029283  1
  Ca  Ca4  1  0.87918669  0.87917932  0.28747786  1
  Ca  Ca5  1  0.87443163  0.87443250  0.62557423  1
  Cr  Cr6  1  0.99768545  0.49653235  0.16974432  1
  Cr  Cr7  1  0.49657136  0.49657316  0.16973798  1
  Cr  Cr8  1  0.00153959  0.50029455  0.49929598  1
  Cr  Cr9  1  0.49656027  0.99765929  0.16973420  1
  Cr  Cr10  1  0.49955880  0.49956820  0.33376472  1
  Cr  Cr11  1  0.50028776  0.50029301  0.49929482  1
  Cr  Cr12  1  0.01124245  0.49912287  0.83016655  1
  Cr  Cr13  1  0.50027820  0.00153754  0.49930335  1
  Cr  Cr14  1  0.49913681  0.01122624  0.83016542  1
  Cr  Cr15  1  0.50352370  0.50351955  0.66314938  1
  Cr  Cr16  1  0.49914555  0.49913434  0.83016629  1
  Cr  Cr17  1  0.88074860  0.88068364  0.95264175  1
  O  O18  1  0.24538991  0.24541387  0.10288526  1
  O  O19  1  0.26487973  0.26487861  0.23513305  1
  O  O20  1  0.24537861  0.70055177  0.10288969  1
  O  O21  1  0.70056053  0.24539116  0.10288651  1
  O  O22  1  0.30855390  0.72730204  0.24562957  1
  O  O23  1  0.26757514  0.26755904  0.42388710  1
  O  O24  1  0.72728421  0.30855032  0.24563810  1
  O  O25  1  0.74514793  0.74524338  0.08808334  1
  O  O26  1  0.26756328  0.69320658  0.42388185  1
  O  O27  1  0.26738715  0.26739560  0.56595122  1
  O  O28  1  0.72725964  0.72727418  0.24563361  1
  O  O29  1  0.69319285  0.26754695  0.42389189  1
  O  O30  1  0.30508420  0.73218857  0.57685311  1
  O  O31  1  0.27280968  0.27281216  0.75369278  1
  O  O32  1  0.73219083  0.30509124  0.57685303  1
  O  O33  1  0.73260269  0.73260527  0.43405780  1
  O  O34  1  0.27089619  0.27089560  0.89576716  1
  O  O35  1  0.27279167  0.69328107  0.75370093  1
  O  O36  1  0.73218641  0.73217325  0.57685947  1
  O  O37  1  0.69327523  0.27279208  0.75370216  1
  O  O38  1  0.26326754  0.76523624  0.90209191  1
  O  O39  1  0.72866948  0.72867091  0.77132279  1
  O  O40  1  0.76521224  0.26325366  0.90212148  1
  O  O41  1  0.76515516  0.76513116  0.90215741  1
