# generated using pymatgen
data_SrNi(PO4)2
_symmetry_space_group_name_H-M   'P 1'
_cell_length_a   5.62351609
_cell_length_b   7.06116788
_cell_length_c   9.08143252
_cell_angle_alpha   111.40258571
_cell_angle_beta   100.76824320
_cell_angle_gamma   99.83390835
_symmetry_Int_Tables_number   1
_chemical_formula_structural   SrNi(PO4)2
_chemical_formula_sum   'Sr2 Ni2 P4 O16'
_cell_volume   318.37403231
_cell_formula_units_Z   2
loop_
 _symmetry_equiv_pos_site_id
 _symmetry_equiv_pos_as_xyz
  1  'x, y, z'
loop_
 _atom_site_type_symbol
 _atom_site_label
 _atom_site_symmetry_multiplicity
 _atom_site_fract_x
 _atom_site_fract_y
 _atom_site_fract_z
 _atom_site_occupancy
  Sr  Sr0  1  0.25236394  0.78694329  0.04674486  1
  Sr  Sr1  1  0.74763606  0.21305671  0.95325514  1
  Ni  Ni2  1  0.66574051  0.85147987  0.55329800  1
  Ni  Ni3  1  0.33425949  0.14852013  0.44670200  1
  P  P4  1  0.39753274  0.43431878  0.24185285  1
  P  P5  1  0.60246726  0.56568122  0.75814715  1
  P  P6  1  0.84797298  0.02620601  0.30281016  1
  P  P7  1  0.15202702  0.97379399  0.69718984  1
  O  O8  1  0.81663889  0.55597748  0.88551768  1
  O  O9  1  0.63902251  0.46404930  0.18974812  1
  O  O10  1  0.65264785  0.78591802  0.75099855  1
  O  O11  1  0.94440004  0.09902001  0.70399581  1
  O  O12  1  0.36097749  0.53595070  0.81025188  1
  O  O13  1  0.98190199  0.75518721  0.57018118  1
  O  O14  1  0.01809801  0.24481279  0.42981882  1
  O  O15  1  0.27266121  0.99336245  0.86840102  1
  O  O16  1  0.34735215  0.21408198  0.24900145  1
  O  O17  1  0.72733879  0.00663755  0.13159898  1
  O  O18  1  0.18336111  0.44402252  0.11448232  1
  O  O19  1  0.41019378  0.60390731  0.41179941  1
  O  O20  1  0.58980622  0.39609269  0.58820059  1
  O  O21  1  0.63014970  0.95029999  0.36958322  1
  O  O22  1  0.05559996  0.90097999  0.29600419  1
  O  O23  1  0.36985030  0.04970001  0.63041678  1
