# generated using pymatgen
data_SrCa7Mn7FeO20
_symmetry_space_group_name_H-M   'P 1'
_cell_length_a   10.90624600
_cell_length_b   11.13631017
_cell_length_c   17.21523477
_cell_angle_alpha   108.77637221
_cell_angle_beta   108.33950887
_cell_angle_gamma   90.10707655
_symmetry_Int_Tables_number   1
_chemical_formula_structural   SrCa7Mn7FeO20
_chemical_formula_sum   'Sr4 Ca28 Mn28 Fe4 O80'
_cell_volume   1866.64550360
_cell_formula_units_Z   4
loop_
 _symmetry_equiv_pos_site_id
 _symmetry_equiv_pos_as_xyz
  1  'x, y, z'
loop_
 _atom_site_type_symbol
 _atom_site_label
 _atom_site_symmetry_multiplicity
 _atom_site_fract_x
 _atom_site_fract_y
 _atom_site_fract_z
 _atom_site_occupancy
  Sr  Sr0  1  0.30771374  0.56126718  0.61000454  1
  Sr  Sr1  1  0.05767311  0.29901533  0.61090607  1
  Sr  Sr2  1  0.55968914  0.29941942  0.61127993  1
  Sr  Sr3  1  0.44735282  0.19993379  0.88846920  1
  Ca  Ca4  1  0.30588557  0.06387483  0.10867939  1
  Ca  Ca5  1  0.30469633  0.05924261  0.60439053  1
  Ca  Ca6  1  0.30632101  0.56452280  0.10873848  1
  Ca  Ca7  1  0.80553225  0.06256258  0.10755413  1
  Ca  Ca8  1  0.80508594  0.06121826  0.60644772  1
  Ca  Ca9  1  0.80729592  0.56392715  0.10890617  1
  Ca  Ca10  1  0.80725698  0.56345632  0.60652228  1
  Ca  Ca11  1  0.19779272  0.43643516  0.39175514  1
  Ca  Ca12  1  0.19819510  0.43798732  0.89446803  1
  Ca  Ca13  1  0.19875199  0.93581524  0.39123934  1
  Ca  Ca14  1  0.19740073  0.93719171  0.89280809  1
  Ca  Ca15  1  0.69955249  0.43657342  0.39251497  1
  Ca  Ca16  1  0.70011169  0.43817729  0.89498109  1
  Ca  Ca17  1  0.69896451  0.93629136  0.39210261  1
  Ca  Ca18  1  0.69973745  0.93697337  0.89327806  1
  Ca  Ca19  1  0.05704768  0.29416316  0.10836131  1
  Ca  Ca20  1  0.05625567  0.79347471  0.10804048  1
  Ca  Ca21  1  0.05583760  0.79578589  0.60687423  1
  Ca  Ca22  1  0.55746486  0.29552078  0.10936277  1
  Ca  Ca23  1  0.55614102  0.79411861  0.10840810  1
  Ca  Ca24  1  0.55643134  0.79575849  0.60667381  1
  Ca  Ca25  1  0.44884299  0.20487367  0.39176983  1
  Ca  Ca26  1  0.44892924  0.70609715  0.39237295  1
  Ca  Ca27  1  0.44915631  0.70718575  0.89435543  1
  Ca  Ca28  1  0.94825365  0.20541943  0.39171074  1
  Ca  Ca29  1  0.94982344  0.20599615  0.89163976  1
  Ca  Ca30  1  0.94893581  0.70544697  0.39205939  1
  Ca  Ca31  1  0.94804368  0.70604137  0.89278821  1
  Mn  Mn32  1  0.00486456  0.99864750  0.49880789  1
  Mn  Mn33  1  0.00377108  0.50018845  0.49783739  1
  Mn  Mn34  1  0.50581138  0.99847323  0.49855472  1
  Mn  Mn35  1  0.50636390  0.50124347  0.00139195  1
  Mn  Mn36  1  0.50503445  0.49953688  0.49766369  1
  Mn  Mn37  1  0.25574520  0.25107831  0.00096948  1
  Mn  Mn38  1  0.25367447  0.24717991  0.49687579  1
  Mn  Mn39  1  0.25582884  0.75074206  0.00049660  1
  Mn  Mn40  1  0.25474662  0.75007010  0.49791978  1
  Mn  Mn41  1  0.75698828  0.25047843  0.00069780  1
  Mn  Mn42  1  0.75449877  0.24884337  0.49828914  1
  Mn  Mn43  1  0.75554402  0.74995399  0.49924998  1
  Mn  Mn44  1  0.11033453  0.09601758  0.24924022  1
  Mn  Mn45  1  0.10772654  0.09319803  0.74913157  1
  Mn  Mn46  1  0.11211843  0.59651552  0.25015667  1
  Mn  Mn47  1  0.10947394  0.60147379  0.75208224  1
  Mn  Mn48  1  0.61099090  0.09715214  0.25040786  1
  Mn  Mn49  1  0.61418247  0.09259266  0.74884875  1
  Mn  Mn50  1  0.61139948  0.59670875  0.25092435  1
  Mn  Mn51  1  0.61644606  0.60210412  0.75238112  1
  Mn  Mn52  1  0.35992791  0.40501120  0.25061112  1
  Mn  Mn53  1  0.36340408  0.40528759  0.75268787  1
  Mn  Mn54  1  0.36080100  0.90303408  0.24991234  1
  Mn  Mn55  1  0.36047559  0.90142654  0.74826690  1
  Mn  Mn56  1  0.85962633  0.40391546  0.24943687  1
  Mn  Mn57  1  0.86441451  0.40287246  0.75143316  1
  Mn  Mn58  1  0.86085402  0.90295054  0.25070545  1
  Mn  Mn59  1  0.86069758  0.90123250  0.74928619  1
  Fe  Fe60  1  0.00571201  0.00022344  0.00001351  1
  Fe  Fe61  1  0.00653916  0.49986920  0.00051604  1
  Fe  Fe62  1  0.50571789  0.00077919  0.00169806  1
  Fe  Fe63  1  0.75599520  0.75020819  0.00133278  1
  O  O64  1  0.12248498  0.11690349  0.48516069  1
  O  O65  1  0.12453523  0.12245954  0.98831009  1
  O  O66  1  0.12097253  0.62154363  0.48552405  1
  O  O67  1  0.12545144  0.62268172  0.98722666  1
  O  O68  1  0.62228715  0.11749345  0.48454039  1
  O  O69  1  0.62923198  0.12106390  0.99062877  1
  O  O70  1  0.62342925  0.62095789  0.48761105  1
  O  O71  1  0.62251585  0.61899604  0.98950792  1
  O  O72  1  0.13905397  0.37867520  0.01428583  1
  O  O73  1  0.13046271  0.37616300  0.50464946  1
  O  O74  1  0.13689683  0.87998499  0.01289385  1
  O  O75  1  0.13478858  0.87896809  0.51050464  1
  O  O76  1  0.64026309  0.37996969  0.01497870  1
  O  O77  1  0.63609743  0.38060259  0.50848182  1
  O  O78  1  0.63418353  0.87913428  0.01321328  1
  O  O79  1  0.63591911  0.87824006  0.51151600  1
  O  O80  1  0.37144016  0.11454232  0.48604820  1
  O  O81  1  0.37082166  0.11900078  0.99109462  1
  O  O82  1  0.37339222  0.61916423  0.48616852  1
  O  O83  1  0.37216065  0.62119595  0.98814154  1
  O  O84  1  0.87166581  0.11487002  0.48574967  1
  O  O85  1  0.87370740  0.11883849  0.98729421  1
  O  O86  1  0.87274241  0.61839713  0.48682610  1
  O  O87  1  0.87245803  0.61590777  0.98682979  1
  O  O88  1  0.38588179  0.38548990  0.01497546  1
  O  O89  1  0.38244193  0.37870102  0.50492471  1
  O  O90  1  0.38423809  0.88131092  0.01351332  1
  O  O91  1  0.38580065  0.88150508  0.51119666  1
  O  O92  1  0.88581758  0.37959683  0.01322562  1
  O  O93  1  0.88088051  0.38329912  0.50885582  1
  O  O94  1  0.88639026  0.88357198  0.01340815  1
  O  O95  1  0.88524323  0.88127815  0.51218156  1
  O  O96  1  0.08117994  0.09510645  0.13406838  1
  O  O97  1  0.07677958  0.08346007  0.63016319  1
  O  O98  1  0.08126793  0.59514027  0.13173121  1
  O  O99  1  0.07359066  0.59100722  0.63207322  1
  O  O100  1  0.57997682  0.09612094  0.13385560  1
  O  O101  1  0.58068714  0.08492819  0.62987533  1
  O  O102  1  0.57874569  0.59496621  0.13318409  1
  O  O103  1  0.57735215  0.59001753  0.63291932  1
  O  O104  1  0.44655523  0.40764952  0.36620270  1
  O  O105  1  0.44917028  0.41198421  0.86941029  1
  O  O106  1  0.44621701  0.90529171  0.36716048  1
  O  O107  1  0.44625403  0.90975720  0.86678139  1
  O  O108  1  0.94376243  0.40671640  0.36525271  1
  O  O109  1  0.95318639  0.40338574  0.86888124  1
  O  O110  1  0.94478983  0.90624738  0.36758640  1
  O  O111  1  0.94756217  0.90587778  0.86632630  1
  O  O112  1  0.32931603  0.29055126  0.13562021  1
  O  O113  1  0.32246370  0.29278537  0.63280326  1
  O  O114  1  0.32855459  0.78847257  0.13172846  1
  O  O115  1  0.32575446  0.79357497  0.63012765  1
  O  O116  1  0.82977660  0.28892745  0.13268636  1
  O  O117  1  0.82146262  0.28729426  0.63014267  1
  O  O118  1  0.83083087  0.78836752  0.13517560  1
  O  O119  1  0.82704725  0.78880539  0.63114438  1
  O  O120  1  0.19437173  0.20765538  0.36474519  1
  O  O121  1  0.19145013  0.21089302  0.86592210  1
  O  O122  1  0.19709127  0.71339771  0.36916202  1
  O  O123  1  0.19712772  0.71570069  0.86984860  1
  O  O124  1  0.69628038  0.21072384  0.36775125  1
  O  O125  1  0.69559205  0.21197937  0.86793257  1
  O  O126  1  0.69703327  0.71241386  0.36931700  1
  O  O127  1  0.69780234  0.71376126  0.86696998  1
  O  O128  1  0.42542939  0.07326252  0.25021142  1
  O  O129  1  0.42522831  0.06451352  0.74191616  1
  O  O130  1  0.42501439  0.57347536  0.25050646  1
  O  O131  1  0.43610118  0.57549714  0.75713518  1
  O  O132  1  0.92653382  0.07375517  0.24980002  1
  O  O133  1  0.92223955  0.07303233  0.74901209  1
  O  O134  1  0.92456616  0.57223255  0.25033100  1
  O  O135  1  0.92575016  0.57582702  0.74987421  1
  O  O136  1  0.17658245  0.42320500  0.25018608  1
  O  O137  1  0.18420668  0.43669898  0.75779282  1
  O  O138  1  0.17385020  0.92683502  0.24964979  1
  O  O139  1  0.17542907  0.92442886  0.75069977  1
  O  O140  1  0.67463849  0.42471868  0.25031289  1
  O  O141  1  0.68350181  0.43907591  0.75890408  1
  O  O142  1  0.67710712  0.92583899  0.25005355  1
  O  O143  1  0.67725090  0.92135900  0.75030811  1
