# generated using pymatgen
data_Sr6Ca2Co7CuO24
_symmetry_space_group_name_H-M   'P 1'
_cell_length_a   7.69613573
_cell_length_b   7.71021961
_cell_length_c   7.69613573
_cell_angle_alpha   90.00000000
_cell_angle_beta   89.98884092
_cell_angle_gamma   90.00000000
_symmetry_Int_Tables_number   1
_chemical_formula_structural   Sr6Ca2Co7CuO24
_chemical_formula_sum   'Sr6 Ca2 Co7 Cu1 O24'
_cell_volume   456.68019343
_cell_formula_units_Z   1
loop_
 _symmetry_equiv_pos_site_id
 _symmetry_equiv_pos_as_xyz
  1  'x, y, z'
loop_
 _atom_site_type_symbol
 _atom_site_label
 _atom_site_symmetry_multiplicity
 _atom_site_fract_x
 _atom_site_fract_y
 _atom_site_fract_z
 _atom_site_occupancy
  Sr  Sr0  1  0.24955751  0.24868844  0.24955751  1
  Sr  Sr1  1  0.24941992  0.24880691  0.75058008  1
  Sr  Sr2  1  0.24934295  0.75117607  0.75065705  1
  Sr  Sr3  1  0.75058008  0.24880691  0.24941992  1
  Sr  Sr4  1  0.75044249  0.24868844  0.75044249  1
  Sr  Sr5  1  0.75065705  0.75117607  0.24934295  1
  Ca  Ca6  1  0.24932907  0.75176616  0.24932907  1
  Ca  Ca7  1  0.75067093  0.75176616  0.75067093  1
  Co  Co8  1  0.00000000  0.99887524  0.50000000  1
  Co  Co9  1  0.00000000  0.50124546  0.00000000  1
  Co  Co10  1  0.00000000  0.50099893  0.50000000  1
  Co  Co11  1  0.50000000  0.99887524  0.00000000  1
  Co  Co12  1  0.50000000  0.99925627  0.50000000  1
  Co  Co13  1  0.50000000  0.50099893  0.00000000  1
  Co  Co14  1  0.50000000  0.50145426  0.50000000  1
  Cu  Cu15  1  0.00000000  0.99925292  0.00000000  1
  O  O16  1  0.25389394  0.99679889  0.00249526  1
  O  O17  1  0.25181546  0.99684313  0.49806516  1
  O  O18  1  0.25309180  0.50305842  0.00240445  1
  O  O19  1  0.25007077  0.50278278  0.49892101  1
  O  O20  1  0.74610606  0.99679889  0.99750474  1
  O  O21  1  0.74818454  0.99684313  0.50193484  1
  O  O22  1  0.74690820  0.50305842  0.99759555  1
  O  O23  1  0.74992923  0.50278278  0.50107899  1
  O  O24  1  0.00000000  0.25449165  0.00000000  1
  O  O25  1  0.00000000  0.25279441  0.50000000  1
  O  O26  1  0.00000000  0.74636999  0.00000000  1
  O  O27  1  0.00000000  0.74730006  0.50000000  1
  O  O28  1  0.50000000  0.25279441  0.00000000  1
  O  O29  1  0.50000000  0.24467158  0.50000000  1
  O  O30  1  0.50000000  0.74730006  0.00000000  1
  O  O31  1  0.50000000  0.75451251  0.50000000  1
  O  O32  1  0.00249526  0.99679889  0.25389394  1
  O  O33  1  0.99750474  0.99679889  0.74610606  1
  O  O34  1  0.00240445  0.50305842  0.25309180  1
  O  O35  1  0.99759555  0.50305842  0.74690820  1
  O  O36  1  0.49806516  0.99684313  0.25181546  1
  O  O37  1  0.50193484  0.99684313  0.74818454  1
  O  O38  1  0.49892101  0.50278278  0.25007077  1
  O  O39  1  0.50107899  0.50278278  0.74992923  1
