# generated using pymatgen
data_Ca2Mn2O5
_symmetry_space_group_name_H-M   'P 1'
_cell_length_a   5.45494520
_cell_length_b   5.58249890
_cell_length_c   8.52611860
_cell_angle_alpha   109.10960677
_cell_angle_beta   108.65664519
_cell_angle_gamma   90.00000000
_symmetry_Int_Tables_number   1
_chemical_formula_structural   Ca2Mn2O5
_chemical_formula_sum   'Ca4 Mn4 O10'
_cell_volume   230.84417644
_cell_formula_units_Z   2
loop_
 _symmetry_equiv_pos_site_id
 _symmetry_equiv_pos_as_xyz
  1  'x, y, z'
loop_
 _atom_site_type_symbol
 _atom_site_label
 _atom_site_symmetry_multiplicity
 _atom_site_fract_x
 _atom_site_fract_y
 _atom_site_fract_z
 _atom_site_occupancy
  Ca  Ca0  1  0.61219912  0.12702472  0.21445690  1
  Ca  Ca1  1  0.39774222  0.87297528  0.78554310  1
  Ca  Ca2  1  0.11219912  0.58743219  0.21445690  1
  Ca  Ca3  1  0.89774222  0.41256781  0.78554310  1
  Mn  Mn4  1  0.01319571  0.00000000  0.00000000  1
  Mn  Mn5  1  0.51319571  0.50000000  0.00000000  1
  Mn  Mn6  1  0.21994607  0.19227157  0.50000000  1
  Mn  Mn7  1  0.71994607  0.80772843  0.50000000  1
  O  O8  1  0.24736270  0.23995981  0.97401409  1
  O  O9  1  0.27334861  0.76004019  0.02598591  1
  O  O10  1  0.74736270  0.23405428  0.97401409  1
  O  O11  1  0.77334861  0.76594572  0.02598591  1
  O  O12  1  0.15752425  0.18881422  0.26265948  1
  O  O13  1  0.89486477  0.81118578  0.73734052  1
  O  O14  1  0.65752425  0.57384526  0.26265948  1
  O  O15  1  0.39486477  0.42615474  0.73734052  1
  O  O16  1  0.84781655  0.14697168  0.50000000  1
  O  O17  1  0.34781655  0.85302832  0.50000000  1
