# generated using pymatgen
data_Mg(AgO2)2
_symmetry_space_group_name_H-M   'P 1'
_cell_length_a   3.18526601
_cell_length_b   9.82492056
_cell_length_c   10.82439925
_cell_angle_alpha   90.00000000
_cell_angle_beta   90.00000000
_cell_angle_gamma   90.00000000
_symmetry_Int_Tables_number   1
_chemical_formula_structural   Mg(AgO2)2
_chemical_formula_sum   'Mg4 Ag8 O16'
_cell_volume   338.74941769
_cell_formula_units_Z   4
loop_
 _symmetry_equiv_pos_site_id
 _symmetry_equiv_pos_as_xyz
  1  'x, y, z'
loop_
 _atom_site_type_symbol
 _atom_site_label
 _atom_site_symmetry_multiplicity
 _atom_site_fract_x
 _atom_site_fract_y
 _atom_site_fract_z
 _atom_site_occupancy
  Mg  Mg0  1  0.34415779  0.75000000  0.14858419  1
  Mg  Mg1  1  0.34415779  0.25000000  0.35141581  1
  Mg  Mg2  1  0.65584221  0.75000000  0.64858419  1
  Mg  Mg3  1  0.65584221  0.25000000  0.85141581  1
  Ag  Ag4  1  0.83450975  0.57151620  0.38462188  1
  Ag  Ag5  1  0.83450975  0.07151620  0.11537812  1
  Ag  Ag6  1  0.16549025  0.07151620  0.61537812  1
  Ag  Ag7  1  0.83450975  0.42848380  0.11537812  1
  Ag  Ag8  1  0.16549025  0.42848380  0.61537812  1
  Ag  Ag9  1  0.83450975  0.92848380  0.38462188  1
  Ag  Ag10  1  0.16549025  0.92848380  0.88462188  1
  Ag  Ag11  1  0.16549025  0.57151620  0.88462188  1
  O  O12  1  0.13273709  0.87496634  0.54976708  1
  O  O13  1  0.86726291  0.12503366  0.45023292  1
  O  O14  1  0.46359067  -0.00000000  0.25000000  1
  O  O15  1  0.86726291  0.87496634  0.04976708  1
  O  O16  1  0.86726291  0.62503366  0.04976708  1
  O  O17  1  0.83609553  0.25000000  0.21521763  1
  O  O18  1  0.13273709  0.12503366  0.95023292  1
  O  O19  1  0.16390447  0.25000000  0.71521763  1
  O  O20  1  0.46359067  0.50000000  0.25000000  1
  O  O21  1  0.53640933  -0.00000000  0.75000000  1
  O  O22  1  0.13273709  0.62503366  0.54976708  1
  O  O23  1  0.16390447  0.75000000  0.78478237  1
  O  O24  1  0.83609553  0.75000000  0.28478237  1
  O  O25  1  0.53640933  0.50000000  0.75000000  1
  O  O26  1  0.13273709  0.37496634  0.95023292  1
  O  O27  1  0.86726291  0.37496634  0.45023292  1
