# generated using pymatgen
data_Sr2YAlNi2O7
_symmetry_space_group_name_H-M   'P 1'
_cell_length_a   11.66899658
_cell_length_b   11.66899658
_cell_length_c   11.66899658
_cell_angle_alpha   39.57716687
_cell_angle_beta   151.97851580
_cell_angle_gamma   152.62245936
_symmetry_Int_Tables_number   1
_chemical_formula_structural   Sr2YAlNi2O7
_chemical_formula_sum   'Sr4 Y2 Al2 Ni4 O14'
_cell_volume   342.63381002
_cell_formula_units_Z   2
loop_
 _symmetry_equiv_pos_site_id
 _symmetry_equiv_pos_as_xyz
  1  'x, y, z'
loop_
 _atom_site_type_symbol
 _atom_site_label
 _atom_site_symmetry_multiplicity
 _atom_site_fract_x
 _atom_site_fract_y
 _atom_site_fract_z
 _atom_site_occupancy
  Sr  Sr0  1  0.03568683  0.86626117  0.86856221  1
  Sr  Sr1  1  0.99769895  0.16712462  0.13143779  1
  Sr  Sr2  1  0.03568683  0.66712462  0.66942566  1
  Sr  Sr3  1  0.99769895  0.36626117  0.33057434  1
  Y  Y4  1  0.01719116  0.51719116  0.50000000  1
  Y  Y5  1  0.01719116  0.01719116  0.00000000  1
  Al  Al6  1  0.56816796  0.73875709  0.32941188  1
  Al  Al7  1  0.40934521  0.23875709  0.67058812  1
  Ni  Ni8  1  0.51901346  0.43562927  0.91479281  1
  Ni  Ni9  1  0.52083547  0.60422065  0.08520719  1
  Ni  Ni10  1  0.51901346  0.10422065  0.58338418  1
  Ni  Ni11  1  0.52083547  0.93562927  0.41661582  1
  O  O12  1  0.01519904  0.92201844  0.59318160  1
  O  O13  1  0.32883684  0.42201844  0.40681840  1
  O  O14  1  0.50134674  0.19722069  0.17635041  1
  O  O15  1  0.02087128  0.32499733  0.82364959  1
  O  O16  1  0.50134674  0.82499733  0.80412605  1
  O  O17  1  0.02087128  0.69722069  0.19587395  1
  O  O18  1  0.53663996  0.71003067  0.68933220  1
  O  O19  1  0.02069847  0.84730676  0.31066780  1
  O  O20  1  0.53663996  0.34730676  0.32660930  1
  O  O21  1  0.02069847  0.21003067  0.67339070  1
  O  O22  1  0.49113652  0.86607133  0.26796470  1
  O  O23  1  0.59810663  0.22317082  0.73203530  1
  O  O24  1  0.49113652  0.72317082  0.12506519  1
  O  O25  1  0.59810663  0.36607133  0.87493481  1
