# generated using pymatgen
data_Sr5Ca3Fe2(CoO4)6
_symmetry_space_group_name_H-M   'P 1'
_cell_length_a   7.72361085
_cell_length_b   7.67944017
_cell_length_c   7.73377423
_cell_angle_alpha   90.00000000
_cell_angle_beta   90.00000000
_cell_angle_gamma   89.98066891
_symmetry_Int_Tables_number   1
_chemical_formula_structural   Sr5Ca3Fe2(CoO4)6
_chemical_formula_sum   'Sr5 Ca3 Fe2 Co6 O24'
_cell_volume   458.71338212
_cell_formula_units_Z   1
loop_
 _symmetry_equiv_pos_site_id
 _symmetry_equiv_pos_as_xyz
  1  'x, y, z'
loop_
 _atom_site_type_symbol
 _atom_site_label
 _atom_site_symmetry_multiplicity
 _atom_site_fract_x
 _atom_site_fract_y
 _atom_site_fract_z
 _atom_site_occupancy
  Sr  Sr0  1  0.24754181  0.25316499  0.25000000  1
  Sr  Sr1  1  0.24748966  0.25317088  0.75000000  1
  Sr  Sr2  1  0.75285161  0.25323873  0.25000000  1
  Sr  Sr3  1  0.75264054  0.25289526  0.75000000  1
  Sr  Sr4  1  0.75300735  0.74727785  0.25000000  1
  Ca  Ca5  1  0.24146347  0.74356763  0.25000000  1
  Ca  Ca6  1  0.24064562  0.74424672  0.75000000  1
  Ca  Ca7  1  0.75987268  0.74390964  0.75000000  1
  Fe  Fe8  1  0.00081708  0.99800277  0.99949556  1
  Fe  Fe9  1  0.00081708  0.99800277  0.50050444  1
  Co  Co10  1  0.00062018  0.50127440  0.99925553  1
  Co  Co11  1  0.00062018  0.50127440  0.50074447  1
  Co  Co12  1  0.49930222  0.99558128  0.99891523  1
  Co  Co13  1  0.49930222  0.99558128  0.50108477  1
  Co  Co14  1  0.49879353  0.50204097  0.99927002  1
  Co  Co15  1  0.49879353  0.50204097  0.50072998  1
  O  O16  1  0.25549165  0.99243765  0.99942882  1
  O  O17  1  0.25549165  0.99243765  0.50057118  1
  O  O18  1  0.23562431  0.50455446  0.99829679  1
  O  O19  1  0.23562431  0.50455446  0.50170321  1
  O  O20  1  0.74493124  0.99502008  0.99670727  1
  O  O21  1  0.74493124  0.99502008  0.50329273  1
  O  O22  1  0.76511130  0.50350434  0.99726644  1
  O  O23  1  0.76511130  0.50350434  0.50273356  1
  O  O24  1  0.00084702  0.25084307  0.99888001  1
  O  O25  1  0.00084702  0.25084307  0.50111999  1
  O  O26  1  0.00244361  0.74872452  0.99683157  1
  O  O27  1  0.00244361  0.74872452  0.50316843  1
  O  O28  1  0.49972965  0.26233244  0.99915693  1
  O  O29  1  0.49972965  0.26233244  0.50084307  1
  O  O30  1  0.49811249  0.73903133  0.99859826  1
  O  O31  1  0.49811249  0.73903133  0.50140174  1
  O  O32  1  0.00296372  0.99504697  0.25000000  1
  O  O33  1  0.00160663  0.99402611  0.75000000  1
  O  O34  1  0.00481148  0.50996339  0.25000000  1
  O  O35  1  0.00173175  0.51630988  0.75000000  1
  O  O36  1  0.49799935  0.99719296  0.25000000  1
  O  O37  1  0.49938902  0.99528419  0.75000000  1
  O  O38  1  0.49256810  0.50622539  0.25000000  1
  O  O39  1  0.49976866  0.50778481  0.75000000  1
