# generated using pymatgen
data_Zr2Cu
_symmetry_space_group_name_H-M   'P 1'
_cell_length_a   3.30103708
_cell_length_b   5.63310541
_cell_length_c   6.89017037
_cell_angle_alpha   78.71170290
_cell_angle_beta   76.14020395
_cell_angle_gamma   72.96215427
_symmetry_Int_Tables_number   1
_chemical_formula_structural   Zr2Cu
_chemical_formula_sum   'Zr4 Cu2'
_cell_volume   117.84059637
_cell_formula_units_Z   2
loop_
 _symmetry_equiv_pos_site_id
 _symmetry_equiv_pos_as_xyz
  1  'x, y, z'
loop_
 _atom_site_type_symbol
 _atom_site_label
 _atom_site_symmetry_multiplicity
 _atom_site_fract_x
 _atom_site_fract_y
 _atom_site_fract_z
 _atom_site_occupancy
  Zr  Zr0  1  0.92042560  0.31577741  0.84337139  1
  Zr  Zr1  1  0.07957440  0.68422259  0.15662861  1
  Zr  Zr2  1  0.34154274  0.75731518  0.55959935  1
  Zr  Zr3  1  0.65845726  0.24268482  0.44040065  1
  Cu  Cu4  1  0.63029507  0.89428396  0.84512591  1
  Cu  Cu5  1  0.36970493  0.10571604  0.15487409  1
