# generated using pymatgen
data_Sr3Ca5Mn4(FeO6)4
_symmetry_space_group_name_H-M   'P 1'
_cell_length_a   7.72762800
_cell_length_b   7.72257776
_cell_length_c   7.72762800
_cell_angle_alpha   89.98204482
_cell_angle_beta   90.02074425
_cell_angle_gamma   90.01795518
_symmetry_Int_Tables_number   1
_chemical_formula_structural   Sr3Ca5Mn4(FeO6)4
_chemical_formula_sum   'Sr3 Ca5 Mn4 Fe4 O24'
_cell_volume   461.16318916
_cell_formula_units_Z   1
loop_
 _symmetry_equiv_pos_site_id
 _symmetry_equiv_pos_as_xyz
  1  'x, y, z'
loop_
 _atom_site_type_symbol
 _atom_site_label
 _atom_site_symmetry_multiplicity
 _atom_site_fract_x
 _atom_site_fract_y
 _atom_site_fract_z
 _atom_site_occupancy
  Sr  Sr0  1  0.25055672  0.25067619  0.25048558  1
  Sr  Sr1  1  0.25047122  0.25063821  0.74952878  1
  Sr  Sr2  1  0.74951442  0.25067619  0.74944328  1
  Ca  Ca3  1  0.25086286  0.74912117  0.25087635  1
  Ca  Ca4  1  0.25092543  0.74913217  0.74907457  1
  Ca  Ca5  1  0.74916152  0.25094175  0.25083848  1
  Ca  Ca6  1  0.74910327  0.74905974  0.25089673  1
  Ca  Ca7  1  0.74912365  0.74912117  0.74913714  1
  Mn  Mn8  1  0.99913528  0.50198986  0.49928046  1
  Mn  Mn9  1  0.50074462  0.99741981  0.49925538  1
  Mn  Mn10  1  0.50071954  0.50198986  0.00086472  1
  Mn  Mn11  1  0.50067428  0.50209246  0.49932572  1
  Fe  Fe12  1  0.99921593  0.99762974  0.00078407  1
  Fe  Fe13  1  0.99923282  0.99766232  0.49922257  1
  Fe  Fe14  1  0.99918080  0.50228265  0.00081920  1
  Fe  Fe15  1  0.50077743  0.99766232  0.00076718  1
  O  O16  1  0.24614876  0.99358218  0.00073054  1
  O  O17  1  0.25323328  0.99330458  0.49961659  1
  O  O18  1  0.25254524  0.50700505  0.00055691  1
  O  O19  1  0.25092061  0.50715726  0.49958109  1
  O  O20  1  0.75374409  0.99575950  0.00277759  1
  O  O21  1  0.74678493  0.99579556  0.49677228  1
  O  O22  1  0.74748580  0.50409899  0.00298609  1
  O  O23  1  0.74912943  0.50424031  0.49670560  1
  O  O24  1  0.99709045  0.24611077  0.00290955  1
  O  O25  1  0.99688435  0.25351790  0.49664187  1
  O  O26  1  0.99922317  0.75356010  0.00077683  1
  O  O27  1  0.99936893  0.74655619  0.49950621  1
  O  O28  1  0.50335813  0.25351790  0.00311565  1
  O  O29  1  0.50343686  0.25109016  0.49656314  1
  O  O30  1  0.50049379  0.74655619  0.00063107  1
  O  O31  1  0.50047907  0.74910829  0.49952093  1
  O  O32  1  0.99722241  0.99575950  0.24625591  1
  O  O33  1  0.99926946  0.99358218  0.75385124  1
  O  O34  1  0.99701391  0.50409899  0.25251420  1
  O  O35  1  0.99944309  0.50700505  0.74745476  1
  O  O36  1  0.50322772  0.99579556  0.25321507  1
  O  O37  1  0.50038341  0.99330458  0.74676672  1
  O  O38  1  0.50329440  0.50424031  0.25087057  1
  O  O39  1  0.50041891  0.50715726  0.74907939  1
