# generated using pymatgen
data_Ce2Fe2Se2O3
_symmetry_space_group_name_H-M   'P 1'
_cell_length_a   4.06813302
_cell_length_b   4.06813302
_cell_length_c   9.78996743
_cell_angle_alpha   101.99172738
_cell_angle_beta   101.99172738
_cell_angle_gamma   90.00000000
_symmetry_Int_Tables_number   1
_chemical_formula_structural   Ce2Fe2Se2O3
_chemical_formula_sum   'Ce2 Fe2 Se2 O3'
_cell_volume   154.86901128
_cell_formula_units_Z   1
loop_
 _symmetry_equiv_pos_site_id
 _symmetry_equiv_pos_as_xyz
  1  'x, y, z'
loop_
 _atom_site_type_symbol
 _atom_site_label
 _atom_site_symmetry_multiplicity
 _atom_site_fract_x
 _atom_site_fract_y
 _atom_site_fract_z
 _atom_site_occupancy
  Ce  Ce0  1  0.31415363  0.31415363  0.62830727  1
  Ce  Ce1  1  0.68584637  0.68584637  0.37169273  1
  Fe  Fe2  1  -0.00000000  0.50000000  -0.00000000  1
  Fe  Fe3  1  0.50000000  -0.00000000  -0.00000000  1
  Se  Se4  1  0.89962282  0.89962282  0.79924564  1
  Se  Se5  1  0.10037718  0.10037718  0.20075436  1
  O  O6  1  0.75000000  0.25000000  0.50000000  1
  O  O7  1  0.25000000  0.75000000  0.50000000  1
  O  O8  1  0.50000000  0.50000000  -0.00000000  1
