# generated using pymatgen
data_Li3Mn4O8
_symmetry_space_group_name_H-M   'P 1'
_cell_length_a   5.71751256
_cell_length_b   5.90597778
_cell_length_c   10.01516360
_cell_angle_alpha   85.71659193
_cell_angle_beta   89.99982995
_cell_angle_gamma   61.04927896
_symmetry_Int_Tables_number   1
_chemical_formula_structural   Li3Mn4O8
_chemical_formula_sum   'Li6 Mn8 O16'
_cell_volume   294.84602696
_cell_formula_units_Z   2
loop_
 _symmetry_equiv_pos_site_id
 _symmetry_equiv_pos_as_xyz
  1  'x, y, z'
loop_
 _atom_site_type_symbol
 _atom_site_label
 _atom_site_symmetry_multiplicity
 _atom_site_fract_x
 _atom_site_fract_y
 _atom_site_fract_z
 _atom_site_occupancy
  Li  Li0  1  0.49691247  0.47421502  0.00017243  1
  Li  Li1  1  0.50307381  0.52582466  0.49983985  1
  Li  Li2  1  0.02886942  0.47422678  0.00016561  1
  Li  Li3  1  0.97111522  0.52581994  0.49984475  1
  Li  Li4  1  0.50000695  0.99997681  0.24999499  1
  Li  Li5  1  0.99998713  0.00000132  0.74997387  1
  Mn  Mn6  1  0.50000511  0.49999143  0.74999304  1
  Mn  Mn7  1  0.50000905  0.49999874  0.25001378  1
  Mn  Mn8  1  0.00002169  0.49998930  0.74999529  1
  Mn  Mn9  1  -0.00001615  0.49999966  0.25001408  1
  Mn  Mn10  1  0.52826687  0.94345782  0.98087280  1
  Mn  Mn11  1  0.47174114  0.05652477  0.51910261  1
  Mn  Mn12  1  0.99936727  0.00125468  0.02765258  1
  Mn  Mn13  1  0.00062395  0.99875711  0.47233204  1
  O  O14  1  0.31403412  0.37194025  0.63834170  1
  O  O15  1  0.32494963  0.35009783  0.15113556  1
  O  O16  1  0.81932712  0.36136401  0.64507428  1
  O  O17  1  0.82856517  0.34286070  0.14996883  1
  O  O18  1  0.31668135  0.85111302  0.59447600  1
  O  O19  1  0.35778829  0.80343175  0.11110507  1
  O  O20  1  0.83221689  0.85111268  0.59447281  1
  O  O21  1  0.83876928  0.80343597  0.11109844  1
  O  O22  1  0.68597045  0.62807795  0.86166549  1
  O  O23  1  0.67505011  0.64989192  0.34887069  1
  O  O24  1  0.18066243  0.63867302  0.85493205  1
  O  O25  1  0.17142754  0.65713555  0.35004684  1
  O  O26  1  0.68328065  0.14893022  0.90552793  1
  O  O27  1  0.64220142  0.19656271  0.38888192  1
  O  O28  1  0.16777630  0.14893159  0.90553372  1
  O  O29  1  0.16124134  0.19655379  0.38888595  1
