# generated using pymatgen
data_Sr2Ti2O5
_symmetry_space_group_name_H-M   'P 1'
_cell_length_a   5.65345661
_cell_length_b   5.62890978
_cell_length_c   15.80429161
_cell_angle_alpha   90.00000000
_cell_angle_beta   90.00000000
_cell_angle_gamma   90.00000000
_symmetry_Int_Tables_number   1
_chemical_formula_structural   Sr2Ti2O5
_chemical_formula_sum   'Sr8 Ti8 O20'
_cell_volume   502.93676684
_cell_formula_units_Z   4
loop_
 _symmetry_equiv_pos_site_id
 _symmetry_equiv_pos_as_xyz
  1  'x, y, z'
loop_
 _atom_site_type_symbol
 _atom_site_label
 _atom_site_symmetry_multiplicity
 _atom_site_fract_x
 _atom_site_fract_y
 _atom_site_fract_z
 _atom_site_occupancy
  Sr  Sr0  1  0.50111677  0.99551603  0.88484762  1
  Sr  Sr1  1  0.00111677  0.50448397  0.61515238  1
  Sr  Sr2  1  0.49888323  0.00448397  0.38484762  1
  Sr  Sr3  1  0.99888323  0.49551603  0.11515238  1
  Sr  Sr4  1  0.49888323  0.00448397  0.11515238  1
  Sr  Sr5  1  0.99888323  0.49551603  0.38484762  1
  Sr  Sr6  1  0.50111677  0.99551603  0.61515238  1
  Sr  Sr7  1  0.00111677  0.50448397  0.88484762  1
  Ti  Ti8  1  0.50000000  0.50000000  -0.00000000  1
  Ti  Ti9  1  -0.00000000  0.00000000  0.50000000  1
  Ti  Ti10  1  0.50000000  0.50000000  0.50000000  1
  Ti  Ti11  1  0.00000000  0.00000000  -0.00000000  1
  Ti  Ti12  1  0.52053813  0.47287731  0.75000000  1
  Ti  Ti13  1  0.02053813  0.02712269  0.75000000  1
  Ti  Ti14  1  0.47946187  0.52712269  0.25000000  1
  Ti  Ti15  1  0.97946187  0.97287731  0.25000000  1
  O  O16  1  0.25550225  0.75517760  0.00497484  1
  O  O17  1  0.75550225  0.74482240  0.49502516  1
  O  O18  1  0.74449775  0.24482240  0.50497484  1
  O  O19  1  0.24449775  0.25517760  0.99502516  1
  O  O20  1  0.74449775  0.24482240  0.99502516  1
  O  O21  1  0.24449775  0.25517760  0.50497484  1
  O  O22  1  0.25550225  0.75517760  0.49502516  1
  O  O23  1  0.75550225  0.74482240  0.00497484  1
  O  O24  1  0.50502700  0.52648940  0.87078240  1
  O  O25  1  0.00502700  0.97351060  0.62921760  1
  O  O26  1  0.49497300  0.47351060  0.37078240  1
  O  O27  1  0.99497300  0.02648940  0.12921760  1
  O  O28  1  0.49497300  0.47351060  0.12921760  1
  O  O29  1  0.99497300  0.02648940  0.37078240  1
  O  O30  1  0.50502700  0.52648940  0.62921760  1
  O  O31  1  0.00502700  0.97351060  0.87078240  1
  O  O32  1  0.30835355  0.20574378  0.75000000  1
  O  O33  1  0.80835355  0.29425622  0.75000000  1
  O  O34  1  0.69164645  0.79425622  0.25000000  1
  O  O35  1  0.19164645  0.70574378  0.25000000  1
