# generated using pymatgen
data_NiPRh
_symmetry_space_group_name_H-M   'P 1'
_cell_length_a   3.54475996
_cell_length_b   5.95637301
_cell_length_c   5.96639673
_cell_angle_alpha   119.94444601
_cell_angle_beta   90.00000000
_cell_angle_gamma   90.00000000
_symmetry_Int_Tables_number   1
_chemical_formula_structural   NiPRh
_chemical_formula_sum   'Ni3 P3 Rh3'
_cell_volume   109.15768676
_cell_formula_units_Z   3
loop_
 _symmetry_equiv_pos_site_id
 _symmetry_equiv_pos_as_xyz
  1  'x, y, z'
loop_
 _atom_site_type_symbol
 _atom_site_label
 _atom_site_symmetry_multiplicity
 _atom_site_fract_x
 _atom_site_fract_y
 _atom_site_fract_z
 _atom_site_occupancy
  Ni  Ni0  1  0.00000000  0.25850828  1.00000000  1
  Ni  Ni1  1  -0.00000000  0.74187708  0.74178978  1
  Ni  Ni2  1  -0.00000000  0.00008730  0.25821022  1
  P  P3  1  0.00000000  0.33314347  0.66653040  1
  P  P4  1  0.00000000  0.66661307  0.33346960  1
  P  P5  1  0.50000000  0.00010564  1.00000000  1
  Rh  Rh6  1  0.50000000  0.60724458  0.00000000  1
  Rh  Rh7  1  0.50000000  0.39240314  0.39248569  1
  Rh  Rh8  1  0.50000000  0.99991744  0.60751431  1
