# generated using pymatgen
data_HoFeGe2
_symmetry_space_group_name_H-M   'P 1'
_cell_length_a   4.20524299
_cell_length_b   4.12244877
_cell_length_c   8.54319797
_cell_angle_alpha   103.96155740
_cell_angle_beta   90.00000000
_cell_angle_gamma   90.00000000
_symmetry_Int_Tables_number   1
_chemical_formula_structural   HoFeGe2
_chemical_formula_sum   'Ho2 Fe2 Ge4'
_cell_volume   143.72870062
_cell_formula_units_Z   2
loop_
 _symmetry_equiv_pos_site_id
 _symmetry_equiv_pos_as_xyz
  1  'x, y, z'
loop_
 _atom_site_type_symbol
 _atom_site_label
 _atom_site_symmetry_multiplicity
 _atom_site_fract_x
 _atom_site_fract_y
 _atom_site_fract_z
 _atom_site_occupancy
  Ho  Ho0  1  0.75000000  0.10829417  0.21658834  1
  Ho  Ho1  1  0.25000000  0.89170583  0.78341166  1
  Fe  Fe2  1  0.75000000  0.31896187  0.63792374  1
  Fe  Fe3  1  0.25000000  0.68103813  0.36207626  1
  Ge  Ge4  1  0.75000000  0.45513380  0.91026759  1
  Ge  Ge5  1  0.25000000  0.54486620  0.08973241  1
  Ge  Ge6  1  0.75000000  0.74834419  0.49668837  1
  Ge  Ge7  1  0.25000000  0.25165581  0.50331163  1
