# generated using pymatgen
data_SrCa7TiMn7O20
_symmetry_space_group_name_H-M   'P 1'
_cell_length_a   10.90412920
_cell_length_b   11.16223261
_cell_length_c   17.25334484
_cell_angle_alpha   108.80159916
_cell_angle_beta   108.29550434
_cell_angle_gamma   90.14158669
_symmetry_Int_Tables_number   1
_chemical_formula_structural   SrCa7TiMn7O20
_chemical_formula_sum   'Sr4 Ca28 Ti4 Mn28 O80'
_cell_volume   1874.84576146
_cell_formula_units_Z   4
loop_
 _symmetry_equiv_pos_site_id
 _symmetry_equiv_pos_as_xyz
  1  'x, y, z'
loop_
 _atom_site_type_symbol
 _atom_site_label
 _atom_site_symmetry_multiplicity
 _atom_site_fract_x
 _atom_site_fract_y
 _atom_site_fract_z
 _atom_site_occupancy
  Sr  Sr0  1  0.30978057  0.56161830  0.60973167  1
  Sr  Sr1  1  0.05724871  0.29726427  0.60991655  1
  Sr  Sr2  1  0.56145313  0.30012857  0.61116631  1
  Sr  Sr3  1  0.44666918  0.20200088  0.88802852  1
  Ca  Ca4  1  0.30583156  0.06652801  0.11243751  1
  Ca  Ca5  1  0.30432031  0.05965924  0.60347010  1
  Ca  Ca6  1  0.31070426  0.56569493  0.11105292  1
  Ca  Ca7  1  0.80737766  0.06910588  0.11296973  1
  Ca  Ca8  1  0.80543800  0.06193465  0.60491608  1
  Ca  Ca9  1  0.80441145  0.56286684  0.11208772  1
  Ca  Ca10  1  0.80517506  0.56500578  0.60614126  1
  Ca  Ca11  1  0.19961700  0.43540905  0.39233694  1
  Ca  Ca12  1  0.19996751  0.43656608  0.89308937  1
  Ca  Ca13  1  0.19655538  0.93428703  0.39151558  1
  Ca  Ca14  1  0.19326043  0.93616731  0.88925381  1
  Ca  Ca15  1  0.69987302  0.43540126  0.39283141  1
  Ca  Ca16  1  0.69489662  0.43266313  0.89156543  1
  Ca  Ca17  1  0.70028099  0.93520275  0.39097275  1
  Ca  Ca18  1  0.69656772  0.93806688  0.88943349  1
  Ca  Ca19  1  0.05795788  0.29573810  0.11158037  1
  Ca  Ca20  1  0.06052253  0.79468106  0.11132350  1
  Ca  Ca21  1  0.05533249  0.79599308  0.60669153  1
  Ca  Ca22  1  0.55682414  0.29816113  0.11140236  1
  Ca  Ca23  1  0.55217571  0.79368360  0.11257802  1
  Ca  Ca24  1  0.55661287  0.79484537  0.60687224  1
  Ca  Ca25  1  0.44863435  0.20606989  0.39218918  1
  Ca  Ca26  1  0.44923370  0.70547640  0.39207607  1
  Ca  Ca27  1  0.44124745  0.70258213  0.89136804  1
  Ca  Ca28  1  0.94738500  0.20430524  0.39077766  1
  Ca  Ca29  1  0.94857784  0.20520912  0.88892417  1
  Ca  Ca30  1  0.94913145  0.70509473  0.39168121  1
  Ca  Ca31  1  0.94835421  0.70559925  0.88966178  1
  Ti  Ti32  1  0.00646148  0.00133086  0.00069901  1
  Ti  Ti33  1  0.00586731  0.50018922  0.00003284  1
  Ti  Ti34  1  0.50567938  0.00096452  0.00229289  1
  Ti  Ti35  1  0.75562198  0.75106881  0.00217089  1
  Mn  Mn36  1  0.00519469  0.99610231  0.49741980  1
  Mn  Mn37  1  0.00381549  0.49992182  0.49763936  1
  Mn  Mn38  1  0.50593003  0.99813865  0.49813197  1
  Mn  Mn39  1  0.50701965  0.50178861  0.00157549  1
  Mn  Mn40  1  0.50662488  0.50122070  0.49826820  1
  Mn  Mn41  1  0.25559525  0.25108042  0.00163156  1
  Mn  Mn42  1  0.25437699  0.24825345  0.49631046  1
  Mn  Mn43  1  0.25486015  0.75133899  0.00062107  1
  Mn  Mn44  1  0.25652286  0.74952262  0.49828356  1
  Mn  Mn45  1  0.75719841  0.24968149  0.00110933  1
  Mn  Mn46  1  0.75533836  0.24864172  0.49758676  1
  Mn  Mn47  1  0.75678593  0.74974181  0.49903738  1
  Mn  Mn48  1  0.10929377  0.09371107  0.24974819  1
  Mn  Mn49  1  0.10288485  0.09314328  0.74713917  1
  Mn  Mn50  1  0.11186436  0.59509179  0.25057684  1
  Mn  Mn51  1  0.10654619  0.59913052  0.74909764  1
  Mn  Mn52  1  0.61010662  0.09501481  0.25069566  1
  Mn  Mn53  1  0.60912005  0.09261608  0.74560430  1
  Mn  Mn54  1  0.61274156  0.59567845  0.25198099  1
  Mn  Mn55  1  0.61587507  0.60192828  0.75369282  1
  Mn  Mn56  1  0.35907529  0.40459203  0.25230242  1
  Mn  Mn57  1  0.36355542  0.40426364  0.75194179  1
  Mn  Mn58  1  0.35963374  0.90477127  0.25296855  1
  Mn  Mn59  1  0.36160185  0.90432417  0.74847268  1
  Mn  Mn60  1  0.85890350  0.40339586  0.25215127  1
  Mn  Mn61  1  0.86233487  0.40474501  0.75104861  1
  Mn  Mn62  1  0.85760161  0.90422243  0.24984319  1
  Mn  Mn63  1  0.86080567  0.90418442  0.74868308  1
  O  O64  1  0.12335924  0.11718305  0.48603828  1
  O  O65  1  0.12248045  0.11965215  0.98500568  1
  O  O66  1  0.12128535  0.62040320  0.48531530  1
  O  O67  1  0.12264880  0.62049237  0.98599492  1
  O  O68  1  0.62182077  0.11700712  0.48387149  1
  O  O69  1  0.62801341  0.11681591  0.98931585  1
  O  O70  1  0.62282019  0.61967257  0.48457101  1
  O  O71  1  0.62459020  0.62156735  0.98634398  1
  O  O72  1  0.14033352  0.38032196  0.01721286  1
  O  O73  1  0.13034953  0.37724450  0.50482049  1
  O  O74  1  0.13858089  0.88307023  0.01535385  1
  O  O75  1  0.13675255  0.87993407  0.51300901  1
  O  O76  1  0.64091829  0.37602875  0.01409134  1
  O  O77  1  0.63608493  0.38073685  0.50795923  1
  O  O78  1  0.63927724  0.88082796  0.01751117  1
  O  O79  1  0.63644899  0.87837029  0.51167700  1
  O  O80  1  0.37292309  0.11423334  0.48663101  1
  O  O81  1  0.37096241  0.11638871  0.98973602  1
  O  O82  1  0.37370439  0.61653634  0.48362536  1
  O  O83  1  0.37021231  0.62362607  0.98923766  1
  O  O84  1  0.87235131  0.11393287  0.48455008  1
  O  O85  1  0.87481561  0.11693033  0.98682001  1
  O  O86  1  0.87256838  0.61728012  0.48469689  1
  O  O87  1  0.87388441  0.61468656  0.98419640  1
  O  O88  1  0.38555043  0.38391244  0.01434389  1
  O  O89  1  0.38462274  0.38000966  0.50654729  1
  O  O90  1  0.38798369  0.88344144  0.01424503  1
  O  O91  1  0.38769713  0.88236805  0.51209466  1
  O  O92  1  0.88696589  0.38311509  0.01284169  1
  O  O93  1  0.88262870  0.38494229  0.51021347  1
  O  O94  1  0.89003314  0.88657644  0.01724325  1
  O  O95  1  0.88771993  0.88219773  0.51382669  1
  O  O96  1  0.08142886  0.09603951  0.12803898  1
  O  O97  1  0.07616983  0.08344688  0.63093782  1
  O  O98  1  0.07844632  0.59403719  0.12740118  1
  O  O99  1  0.07348478  0.58904040  0.63135824  1
  O  O100  1  0.57842439  0.09503377  0.12801251  1
  O  O101  1  0.58062470  0.08377593  0.62961192  1
  O  O102  1  0.57976413  0.59351358  0.12954028  1
  O  O103  1  0.57839898  0.59193224  0.62920956  1
  O  O104  1  0.44629378  0.40899555  0.36689308  1
  O  O105  1  0.44879156  0.41399266  0.87077301  1
  O  O106  1  0.44586468  0.90733659  0.36789971  1
  O  O107  1  0.45361201  0.90724623  0.87316588  1
  O  O108  1  0.94403347  0.40914005  0.36708442  1
  O  O109  1  0.95774948  0.40508072  0.87394150  1
  O  O110  1  0.94975619  0.90312638  0.37045985  1
  O  O111  1  0.95230437  0.90538522  0.87253116  1
  O  O112  1  0.33436128  0.29016406  0.14028255  1
  O  O113  1  0.32196683  0.29353521  0.63175371  1
  O  O114  1  0.33112712  0.79229484  0.13959895  1
  O  O115  1  0.32798618  0.78906028  0.62669675  1
  O  O116  1  0.83603068  0.29184718  0.13927691  1
  O  O117  1  0.82147255  0.28423964  0.62707502  1
  O  O118  1  0.83376209  0.77954747  0.12744184  1
  O  O119  1  0.82875877  0.78354478  0.62715407  1
  O  O120  1  0.19917371  0.21213188  0.36938119  1
  O  O121  1  0.18738725  0.20846719  0.85997259  1
  O  O122  1  0.20035083  0.71592513  0.37109342  1
  O  O123  1  0.19274667  0.71385434  0.86187960  1
  O  O124  1  0.70003680  0.21490208  0.37078580  1
  O  O125  1  0.69305256  0.20507353  0.85999052  1
  O  O126  1  0.69963688  0.71623174  0.37187699  1
  O  O127  1  0.70783006  0.72434266  0.87495254  1
  O  O128  1  0.41920061  0.07131140  0.25052310  1
  O  O129  1  0.42504863  0.07574379  0.74177853  1
  O  O130  1  0.42161926  0.57017550  0.25005531  1
  O  O131  1  0.43153969  0.57323502  0.75730278  1
  O  O132  1  0.91989723  0.07891616  0.24988317  1
  O  O133  1  0.92115637  0.08238047  0.74818042  1
  O  O134  1  0.92117238  0.56867163  0.25004697  1
  O  O135  1  0.92663898  0.58124542  0.74943517  1
  O  O136  1  0.17628088  0.41897119  0.25068373  1
  O  O137  1  0.18092763  0.43852908  0.75776778  1
  O  O138  1  0.17533484  0.91830847  0.25052170  1
  O  O139  1  0.17173378  0.93019028  0.75075306  1
  O  O140  1  0.67533558  0.41917589  0.25050454  1
  O  O141  1  0.67951110  0.43205443  0.75944951  1
  O  O142  1  0.66791537  0.91909461  0.24946896  1
  O  O143  1  0.67121656  0.92739685  0.74983181  1
