# generated using pymatgen
data_Cs2Se
_symmetry_space_group_name_H-M   'P 1'
_cell_length_a   5.74120224
_cell_length_b   5.74120256
_cell_length_c   11.62526607
_cell_angle_alpha   75.70421399
_cell_angle_beta   75.70421270
_cell_angle_gamma   60.00000974
_symmetry_Int_Tables_number   1
_chemical_formula_structural   Cs2Se
_chemical_formula_sum   'Cs4 Se2'
_cell_volume   318.07290733
_cell_formula_units_Z   2
loop_
 _symmetry_equiv_pos_site_id
 _symmetry_equiv_pos_as_xyz
  1  'x, y, z'
loop_
 _atom_site_type_symbol
 _atom_site_label
 _atom_site_symmetry_multiplicity
 _atom_site_fract_x
 _atom_site_fract_y
 _atom_site_fract_z
 _atom_site_occupancy
  Cs  Cs0  1  0.12176127  0.12176127  0.63471619  1
  Cs  Cs1  1  0.87823873  0.87823873  0.36528381  1
  Cs  Cs2  1  0.29582980  0.29582980  0.11251059  1
  Cs  Cs3  1  0.70417020  0.70417020  0.88748941  1
  Se  Se4  1  0.41270258  0.41270258  0.76189226  1
  Se  Se5  1  0.58729742  0.58729742  0.23810774  1
