# generated using pymatgen
data_MgGa2
_symmetry_space_group_name_H-M   'P 1'
_cell_length_a   4.87167417
_cell_length_b   3.25124356
_cell_length_c   14.65742313
_cell_angle_alpha   90.00000000
_cell_angle_beta   90.00000000
_cell_angle_gamma   90.00000000
_symmetry_Int_Tables_number   1
_chemical_formula_structural   MgGa2
_chemical_formula_sum   'Mg4 Ga8'
_cell_volume   232.15891428
_cell_formula_units_Z   4
loop_
 _symmetry_equiv_pos_site_id
 _symmetry_equiv_pos_as_xyz
  1  'x, y, z'
loop_
 _atom_site_type_symbol
 _atom_site_label
 _atom_site_symmetry_multiplicity
 _atom_site_fract_x
 _atom_site_fract_y
 _atom_site_fract_z
 _atom_site_occupancy
  Mg  Mg0  1  0.50000000  0.50000000  0.39278630  1
  Mg  Mg1  1  0.50000000  -0.00000000  0.21438450  1
  Mg  Mg2  1  0.50000000  0.00000000  0.89278630  1
  Mg  Mg3  1  0.50000000  0.50000000  0.71438450  1
  Ga  Ga4  1  0.00000000  0.00000000  0.00748005  1
  Ga  Ga5  1  0.00000000  0.50000000  0.16566548  1
  Ga  Ga6  1  -0.00000000  0.00000000  0.33184920  1
  Ga  Ga7  1  0.50000000  0.50000000  0.05450147  1
  Ga  Ga8  1  0.00000000  0.50000000  0.50748005  1
  Ga  Ga9  1  -0.00000000  0.00000000  0.66566548  1
  Ga  Ga10  1  -0.00000000  0.50000000  0.83184920  1
  Ga  Ga11  1  0.50000000  -0.00000000  0.55450147  1
