# generated using pymatgen
data_Mg2Ga
_symmetry_space_group_name_H-M   'P 1'
_cell_length_a   11.33470726
_cell_length_b   3.05725400
_cell_length_c   7.63495056
_cell_angle_alpha   90.00000000
_cell_angle_beta   110.27471101
_cell_angle_gamma   90.00000000
_symmetry_Int_Tables_number   1
_chemical_formula_structural   Mg2Ga
_chemical_formula_sum   'Mg8 Ga4'
_cell_volume   248.18202896
_cell_formula_units_Z   4
loop_
 _symmetry_equiv_pos_site_id
 _symmetry_equiv_pos_as_xyz
  1  'x, y, z'
loop_
 _atom_site_type_symbol
 _atom_site_label
 _atom_site_symmetry_multiplicity
 _atom_site_fract_x
 _atom_site_fract_y
 _atom_site_fract_z
 _atom_site_occupancy
  Mg  Mg0  1  0.35754328  0.50000000  0.96269092  1
  Mg  Mg1  1  0.46736430  0.00000000  0.68045026  1
  Mg  Mg2  1  0.03263570  0.50000000  0.31954974  1
  Mg  Mg3  1  0.14245672  0.00000000  0.03730908  1
  Mg  Mg4  1  0.85754328  -0.00000000  0.96269092  1
  Mg  Mg5  1  0.96736430  0.50000000  0.68045026  1
  Mg  Mg6  1  0.53263570  0.00000000  0.31954974  1
  Mg  Mg7  1  0.64245672  0.50000000  0.03730908  1
  Ga  Ga8  1  0.19208421  -0.00000000  0.64727293  1
  Ga  Ga9  1  0.30791579  0.50000000  0.35272707  1
  Ga  Ga10  1  0.69208421  0.50000000  0.64727293  1
  Ga  Ga11  1  0.80791579  0.00000000  0.35272707  1
