# generated using pymatgen
data_CeMg2
_symmetry_space_group_name_H-M   'P 1'
_cell_length_a   5.65591031
_cell_length_b   3.14469397
_cell_length_c   16.95744548
_cell_angle_alpha   90.00000000
_cell_angle_beta   90.00000000
_cell_angle_gamma   90.00000000
_symmetry_Int_Tables_number   1
_chemical_formula_structural   CeMg2
_chemical_formula_sum   'Ce4 Mg8'
_cell_volume   301.60694055
_cell_formula_units_Z   4
loop_
 _symmetry_equiv_pos_site_id
 _symmetry_equiv_pos_as_xyz
  1  'x, y, z'
loop_
 _atom_site_type_symbol
 _atom_site_label
 _atom_site_symmetry_multiplicity
 _atom_site_fract_x
 _atom_site_fract_y
 _atom_site_fract_z
 _atom_site_occupancy
  Ce  Ce0  1  0.50000000  0.50000000  0.37646609  1
  Ce  Ce1  1  0.50000000  -0.00000000  0.23410938  1
  Ce  Ce2  1  0.50000000  0.00000000  0.87646609  1
  Ce  Ce3  1  0.50000000  0.50000000  0.73410938  1
  Mg  Mg4  1  -0.00000000  -0.00000000  0.00153145  1
  Mg  Mg5  1  -0.00000000  0.50000000  0.16672956  1
  Mg  Mg6  1  -0.00000000  -0.00000000  0.33240377  1
  Mg  Mg7  1  0.50000000  0.50000000  0.05542675  1
  Mg  Mg8  1  -0.00000000  0.50000000  0.50153145  1
  Mg  Mg9  1  0.00000000  -0.00000000  0.66672956  1
  Mg  Mg10  1  -0.00000000  0.50000000  0.83240377  1
  Mg  Mg11  1  0.50000000  0.00000000  0.55542675  1
