# generated using pymatgen
data_V4CrNiO12
_symmetry_space_group_name_H-M   'P 1'
_cell_length_a   6.76063025
_cell_length_b   6.76063105
_cell_length_c   5.77844420
_cell_angle_alpha   74.80601728
_cell_angle_beta   105.19398169
_cell_angle_gamma   95.85829035
_symmetry_Int_Tables_number   1
_chemical_formula_structural   V4CrNiO12
_chemical_formula_sum   'V4 Cr1 Ni1 O12'
_cell_volume   245.81053296
_cell_formula_units_Z   1
loop_
 _symmetry_equiv_pos_site_id
 _symmetry_equiv_pos_as_xyz
  1  'x, y, z'
loop_
 _atom_site_type_symbol
 _atom_site_label
 _atom_site_symmetry_multiplicity
 _atom_site_fract_x
 _atom_site_fract_y
 _atom_site_fract_z
 _atom_site_occupancy
  V  V0  1  0.20184648  0.60732026  0.76511966  1
  V  V1  1  0.39136169  0.79726441  0.26294607  1
  V  V2  1  0.60732026  0.20184648  0.73488034  1
  V  V3  1  0.79726441  0.39136169  0.23705393  1
  Cr  Cr4  1  0.08433684  0.08433684  0.75000000  1
  Ni  Ni5  1  0.91528224  0.91528224  0.25000000  1
  O  O6  1  0.03344106  0.81086961  0.64125095  1
  O  O7  1  0.08514440  0.36829002  0.79864107  1
  O  O8  1  0.19147732  0.96990799  0.12668355  1
  O  O9  1  0.36430398  0.64103946  0.55424914  1
  O  O10  1  0.36829002  0.08514440  0.70135893  1
  O  O11  1  0.36497505  0.63437951  0.05964738  1
  O  O12  1  0.64103946  0.36430398  0.94575086  1
  O  O13  1  0.62562767  0.91313203  0.29155908  1
  O  O14  1  0.63437951  0.36497505  0.44035262  1
  O  O15  1  0.81086961  0.03344106  0.85874905  1
  O  O16  1  0.91313203  0.62562767  0.20844092  1
  O  O17  1  0.96990799  0.19147732  0.37331645  1
