# generated using pymatgen
data_KMg30TiO32
_symmetry_space_group_name_H-M   'P 1'
_cell_length_a   8.60623665
_cell_length_b   8.59315648
_cell_length_c   8.59315648
_cell_angle_alpha   90.00000000
_cell_angle_beta   90.00000000
_cell_angle_gamma   90.00000000
_symmetry_Int_Tables_number   1
_chemical_formula_structural   KMg30TiO32
_chemical_formula_sum   'K1 Mg30 Ti1 O32'
_cell_volume   635.50463811
_cell_formula_units_Z   1
loop_
 _symmetry_equiv_pos_site_id
 _symmetry_equiv_pos_as_xyz
  1  'x, y, z'
loop_
 _atom_site_type_symbol
 _atom_site_label
 _atom_site_symmetry_multiplicity
 _atom_site_fract_x
 _atom_site_fract_y
 _atom_site_fract_z
 _atom_site_occupancy
  K  K0  1  0.00000000  0.50000000  0.50000000  1
  Mg  Mg1  1  0.00000000  -0.00000000  0.50000000  1
  Mg  Mg2  1  0.00000000  0.50000000  0.00000000  1
  Mg  Mg3  1  0.50000000  -0.00000000  -0.00000000  1
  Mg  Mg4  1  0.50000000  -0.00000000  0.50000000  1
  Mg  Mg5  1  0.50000000  0.50000000  0.00000000  1
  Mg  Mg6  1  0.50000000  0.50000000  0.50000000  1
  Mg  Mg7  1  0.00000000  0.25243507  0.25243507  1
  Mg  Mg8  1  0.00000000  0.25243507  0.74756493  1
  Mg  Mg9  1  0.00000000  0.74756493  0.25243507  1
  Mg  Mg10  1  0.00000000  0.74756493  0.74756493  1
  Mg  Mg11  1  0.50000000  0.25107632  0.25107632  1
  Mg  Mg12  1  0.50000000  0.25107632  0.74892368  1
  Mg  Mg13  1  0.50000000  0.74892368  0.25107632  1
  Mg  Mg14  1  0.50000000  0.74892368  0.74892368  1
  Mg  Mg15  1  0.25256075  -0.00000000  0.25258808  1
  Mg  Mg16  1  0.25256075  -0.00000000  0.74741192  1
  Mg  Mg17  1  0.25184686  0.50000000  0.24964268  1
  Mg  Mg18  1  0.25184686  0.50000000  0.75035732  1
  Mg  Mg19  1  0.74743925  -0.00000000  0.25258808  1
  Mg  Mg20  1  0.74743925  -0.00000000  0.74741192  1
  Mg  Mg21  1  0.74815314  0.50000000  0.24964268  1
  Mg  Mg22  1  0.74815314  0.50000000  0.75035732  1
  Mg  Mg23  1  0.25256075  0.25258808  -0.00000000  1
  Mg  Mg24  1  0.25184686  0.24964268  0.50000000  1
  Mg  Mg25  1  0.25256075  0.74741192  0.00000000  1
  Mg  Mg26  1  0.25184686  0.75035732  0.50000000  1
  Mg  Mg27  1  0.74743925  0.25258808  -0.00000000  1
  Mg  Mg28  1  0.74815314  0.24964268  0.50000000  1
  Mg  Mg29  1  0.74743925  0.74741192  0.00000000  1
  Mg  Mg30  1  0.74815314  0.75035732  0.50000000  1
  Ti  Ti31  1  0.00000000  -0.00000000  -0.00000000  1
  O  O32  1  0.24840635  -0.00000000  0.00000000  1
  O  O33  1  0.25318434  -0.00000000  0.50000000  1
  O  O34  1  0.25318434  0.50000000  0.00000000  1
  O  O35  1  0.27361685  0.50000000  0.50000000  1
  O  O36  1  0.75159365  -0.00000000  0.00000000  1
  O  O37  1  0.74681566  -0.00000000  0.50000000  1
  O  O38  1  0.74681566  0.50000000  -0.00000000  1
  O  O39  1  0.72638315  0.50000000  0.50000000  1
  O  O40  1  0.24888808  0.24935904  0.24935904  1
  O  O41  1  0.24888808  0.24935904  0.75064096  1
  O  O42  1  0.24888808  0.75064096  0.24935904  1
  O  O43  1  0.24888808  0.75064096  0.75064096  1
  O  O44  1  0.75111192  0.24935904  0.24935904  1
  O  O45  1  0.75111192  0.24935904  0.75064096  1
  O  O46  1  0.75111192  0.75064096  0.24935904  1
  O  O47  1  0.75111192  0.75064096  0.75064096  1
  O  O48  1  0.00000000  -0.00000000  0.24037994  1
  O  O49  1  0.00000000  -0.00000000  0.75962006  1
  O  O50  1  0.00000000  0.50000000  0.22542076  1
  O  O51  1  0.00000000  0.50000000  0.77457924  1
  O  O52  1  0.50000000  -0.00000000  0.24782022  1
  O  O53  1  0.50000000  -0.00000000  0.75217978  1
  O  O54  1  0.50000000  0.50000000  0.24495631  1
  O  O55  1  0.50000000  0.50000000  0.75504369  1
  O  O56  1  0.00000000  0.24037994  -0.00000000  1
  O  O57  1  0.00000000  0.22542076  0.50000000  1
  O  O58  1  0.00000000  0.75962006  -0.00000000  1
  O  O59  1  0.00000000  0.77457924  0.50000000  1
  O  O60  1  0.50000000  0.24782022  0.00000000  1
  O  O61  1  0.50000000  0.24495631  0.50000000  1
  O  O62  1  0.50000000  0.75217978  -0.00000000  1
  O  O63  1  0.50000000  0.75504369  0.50000000  1
