# generated using pymatgen
data_NaV13O18
_symmetry_space_group_name_H-M   'P 1'
_cell_length_a   8.00532583
_cell_length_b   8.00532657
_cell_length_c   8.00532658
_cell_angle_alpha   110.66449021
_cell_angle_beta   110.66448093
_cell_angle_gamma   110.66448072
_symmetry_Int_Tables_number   1
_chemical_formula_structural   NaV13O18
_chemical_formula_sum   'Na1 V13 O18'
_cell_volume   376.46969214
_cell_formula_units_Z   1
loop_
 _symmetry_equiv_pos_site_id
 _symmetry_equiv_pos_as_xyz
  1  'x, y, z'
loop_
 _atom_site_type_symbol
 _atom_site_label
 _atom_site_symmetry_multiplicity
 _atom_site_fract_x
 _atom_site_fract_y
 _atom_site_fract_z
 _atom_site_occupancy
  Na  Na0  1  0.00000000  0.00000000  0.00000000  1
  V  V1  1  0.07162371  0.88233465  0.56687051  1
  V  V2  1  0.43312949  0.92837629  0.11766535  1
  V  V3  1  0.34395667  0.76778147  0.40048549  1
  V  V4  1  0.23221853  0.59951451  0.65604333  1
  V  V5  1  0.11766535  0.43312949  0.92837629  1
  V  V6  1  0.59951451  0.65604333  0.23221853  1
  V  V7  1  0.50000000  0.50000000  0.50000000  1
  V  V8  1  0.40048549  0.34395667  0.76778147  1
  V  V9  1  0.88233465  0.56687051  0.07162371  1
  V  V10  1  0.76778147  0.40048549  0.34395667  1
  V  V11  1  0.65604333  0.23221853  0.59951451  1
  V  V12  1  0.56687051  0.07162371  0.88233465  1
  V  V13  1  0.92837629  0.11766535  0.43312949  1
  O  O14  1  0.26641715  0.88008047  0.82460156  1
  O  O15  1  0.17539844  0.73358285  0.11991953  1
  O  O16  1  0.05152254  0.60038323  0.38399983  1
  O  O17  1  0.61600017  0.94847746  0.39961677  1
  O  O18  1  0.49146057  0.77109347  0.66478689  1
  O  O19  1  0.39961677  0.61600017  0.94847746  1
  O  O20  1  0.33521311  0.50853943  0.22890653  1
  O  O21  1  0.22890653  0.33521311  0.50853943  1
  O  O22  1  0.11991953  0.17539844  0.73358285  1
  O  O23  1  0.88008047  0.82460156  0.26641715  1
  O  O24  1  0.77109347  0.66478689  0.49146057  1
  O  O25  1  0.66478689  0.49146057  0.77109347  1
  O  O26  1  0.60038323  0.38399983  0.05152254  1
  O  O27  1  0.50853943  0.22890653  0.33521311  1
  O  O28  1  0.38399983  0.05152254  0.60038323  1
  O  O29  1  0.94847746  0.39961677  0.61600017  1
  O  O30  1  0.82460156  0.26641715  0.88008047  1
  O  O31  1  0.73358285  0.11991953  0.17539844  1
