# generated using pymatgen
data_Ba2CaCuSn2F14
_symmetry_space_group_name_H-M   'P 1'
_cell_length_a   5.61342585
_cell_length_b   7.78880033
_cell_length_c   15.64661117
_cell_angle_alpha   91.56829973
_cell_angle_beta   90.29226764
_cell_angle_gamma   110.82005450
_symmetry_Int_Tables_number   1
_chemical_formula_structural   Ba2CaCuSn2F14
_chemical_formula_sum   'Ba4 Ca2 Cu2 Sn4 F28'
_cell_volume   639.10806137
_cell_formula_units_Z   2
loop_
 _symmetry_equiv_pos_site_id
 _symmetry_equiv_pos_as_xyz
  1  'x, y, z'
loop_
 _atom_site_type_symbol
 _atom_site_label
 _atom_site_symmetry_multiplicity
 _atom_site_fract_x
 _atom_site_fract_y
 _atom_site_fract_z
 _atom_site_occupancy
  Ba  Ba0  1  0.08627373  0.34943206  0.62160976  1
  Ba  Ba1  1  0.26354292  0.35212256  0.12703603  1
  Ba  Ba2  1  0.90114189  0.63325840  0.37510284  1
  Ba  Ba3  1  0.73153668  0.63486619  0.87563176  1
  Ca  Ca4  1  0.44016677  0.00938078  0.75300597  1
  Ca  Ca5  1  0.57345285  0.01714882  0.25403561  1
  Cu  Cu6  1  0.51130085  0.00894792  0.99973568  1
  Cu  Cu7  1  0.49927282  0.01045108  0.49925436  1
  Sn  Sn8  1  0.08519995  0.24110292  0.87900199  1
  Sn  Sn9  1  0.16032735  0.23873362  0.37953760  1
  Sn  Sn10  1  0.90155431  0.75391677  0.12382441  1
  Sn  Sn11  1  0.85106650  0.75450195  0.62386675  1
  F  F12  1  0.86275177  0.95657389  0.33565603  1
  F  F13  1  0.87658587  0.31688386  0.45823906  1
  F  F14  1  0.10863840  0.69475389  0.54983054  1
  F  F15  1  0.62931405  0.49173175  0.60593249  1
  F  F16  1  0.62904609  0.07218971  0.61786731  1
  F  F17  1  0.55392490  0.92155626  0.88359249  1
  F  F18  1  0.43399167  0.31749308  0.95537576  1
  F  F19  1  0.91082225  0.00742647  0.15623392  1
  F  F20  1  0.36283364  0.32355440  0.77472881  1
  F  F21  1  0.38097716  0.53188376  0.39558381  1
  F  F22  1  0.81290026  0.24441475  0.77560933  1
  F  F23  1  0.14273178  0.52639710  0.89488805  1
  F  F24  1  0.43773840  0.25326079  0.26986480  1
  F  F25  1  0.17575488  0.76824191  0.21123420  1
  F  F26  1  0.44774292  0.07548423  0.11562338  1
  F  F27  1  0.64231849  0.67069542  0.21795443  1
  F  F28  1  0.08783304  0.82177203  0.01460418  1
  F  F29  1  0.09390733  0.00658215  0.65837191  1
  F  F30  1  0.90271889  0.17683963  0.00086231  1
  F  F31  1  0.72905209  0.82267904  0.51477913  1
  F  F32  1  0.58435353  0.69364633  0.04813998  1
  F  F33  1  0.59425708  0.76509304  0.71310200  1
  F  F34  1  0.95621152  0.32370233  0.27156881  1
  F  F35  1  0.27728894  0.17375222  0.50929277  1
  F  F36  1  0.36539688  0.92416401  0.38337879  1
  F  F37  1  0.09406447  0.96755122  0.83841341  1
  F  F38  1  0.03093522  0.67400062  0.71999725  1
  F  F39  1  0.86677187  0.49151704  0.10360028  1
