# generated using pymatgen
data_H6CNCl
_symmetry_space_group_name_H-M   'P 1'
_cell_length_a   6.57988209
_cell_length_b   6.71403916
_cell_length_c   8.74729518
_cell_angle_alpha   90.00000000
_cell_angle_beta   90.00000000
_cell_angle_gamma   90.00000000
_symmetry_Int_Tables_number   1
_chemical_formula_structural   H6CNCl
_chemical_formula_sum   'H24 C4 N4 Cl4'
_cell_volume   386.43438526
_cell_formula_units_Z   4
loop_
 _symmetry_equiv_pos_site_id
 _symmetry_equiv_pos_as_xyz
  1  'x, y, z'
loop_
 _atom_site_type_symbol
 _atom_site_label
 _atom_site_symmetry_multiplicity
 _atom_site_fract_x
 _atom_site_fract_y
 _atom_site_fract_z
 _atom_site_occupancy
  H  H0  1  0.25000000  0.18321325  0.16766273  1
  H  H1  1  0.75000000  0.81678675  0.83233727  1
  H  H2  1  0.25000000  0.68321325  0.83233727  1
  H  H3  1  0.75000000  0.31678675  0.16766273  1
  H  H4  1  0.37928650  0.96677268  0.16069120  1
  H  H5  1  0.62071350  0.03322732  0.83930880  1
  H  H6  1  0.87928650  0.03322732  0.83930880  1
  H  H7  1  0.12071350  0.96677268  0.16069120  1
  H  H8  1  0.12071350  0.46677268  0.83930880  1
  H  H9  1  0.87928650  0.53322732  0.16069120  1
  H  H10  1  0.62071350  0.53322732  0.16069120  1
  H  H11  1  0.37928650  0.46677268  0.83930880  1
  H  H12  1  0.25000000  0.87328589  0.41123504  1
  H  H13  1  0.75000000  0.12671411  0.58876496  1
  H  H14  1  0.25000000  0.37328589  0.58876496  1
  H  H15  1  0.75000000  0.62671411  0.41123504  1
  H  H16  1  0.11407727  0.10361532  0.41554398  1
  H  H17  1  0.88592273  0.89638468  0.58445602  1
  H  H18  1  0.61407727  0.89638468  0.58445602  1
  H  H19  1  0.38592273  0.10361532  0.41554398  1
  H  H20  1  0.38592273  0.60361532  0.58445602  1
  H  H21  1  0.61407727  0.39638468  0.41554398  1
  H  H22  1  0.88592273  0.39638468  0.41554398  1
  H  H23  1  0.11407727  0.60361532  0.58445602  1
  C  C24  1  0.25000000  0.02788290  0.37345617  1
  C  C25  1  0.75000000  0.97211710  0.62654383  1
  C  C26  1  0.25000000  0.52788290  0.62654383  1
  C  C27  1  0.75000000  0.47211710  0.37345617  1
  N  N28  1  0.25000000  0.03468271  0.20378316  1
  N  N29  1  0.75000000  0.96531729  0.79621684  1
  N  N30  1  0.25000000  0.53468271  0.79621684  1
  N  N31  1  0.75000000  0.46531729  0.20378316  1
  Cl  Cl32  1  0.25000000  0.00913000  0.81369419  1
  Cl  Cl33  1  0.75000000  0.99087000  0.18630581  1
  Cl  Cl34  1  0.25000000  0.50913000  0.18630581  1
  Cl  Cl35  1  0.75000000  0.49087000  0.81369419  1
