# generated using pymatgen
data_Sr5Ca3Mn6(FeO12)2
_symmetry_space_group_name_H-M   'P 1'
_cell_length_a   7.75183271
_cell_length_b   7.74638021
_cell_length_c   7.70588625
_cell_angle_alpha   90.00000000
_cell_angle_beta   90.00000000
_cell_angle_gamma   90.00289602
_symmetry_Int_Tables_number   1
_chemical_formula_structural   Sr5Ca3Mn6(FeO12)2
_chemical_formula_sum   'Sr5 Ca3 Mn6 Fe2 O24'
_cell_volume   462.72801595
_cell_formula_units_Z   1
loop_
 _symmetry_equiv_pos_site_id
 _symmetry_equiv_pos_as_xyz
  1  'x, y, z'
loop_
 _atom_site_type_symbol
 _atom_site_label
 _atom_site_symmetry_multiplicity
 _atom_site_fract_x
 _atom_site_fract_y
 _atom_site_fract_z
 _atom_site_occupancy
  Sr  Sr0  1  0.25041407  0.25044488  0.25000000  1
  Sr  Sr1  1  0.25036415  0.25038152  0.75000000  1
  Sr  Sr2  1  0.74957886  0.25030539  0.25000000  1
  Sr  Sr3  1  0.74960553  0.25045960  0.75000000  1
  Sr  Sr4  1  0.74953161  0.74971238  0.25000000  1
  Ca  Ca5  1  0.25073534  0.74929471  0.25000000  1
  Ca  Ca6  1  0.25095588  0.74934722  0.75000000  1
  Ca  Ca7  1  0.74906198  0.74930710  0.75000000  1
  Mn  Mn8  1  0.00060396  0.50128348  0.99945801  1
  Mn  Mn9  1  0.00060396  0.50128348  0.50054199  1
  Mn  Mn10  1  0.49959863  0.99816058  0.99948128  1
  Mn  Mn11  1  0.49959863  0.99816058  0.50051872  1
  Mn  Mn12  1  0.49953614  0.50140384  0.99950230  1
  Mn  Mn13  1  0.49953614  0.50140384  0.50049770  1
  Fe  Fe14  1  0.00072432  0.99782776  0.99943077  1
  Fe  Fe15  1  0.00072432  0.99782776  0.50056923  1
  O  O16  1  0.25362578  0.99455645  0.99943219  1
  O  O17  1  0.25362578  0.99455645  0.50056781  1
  O  O18  1  0.25033501  0.50622480  0.99974276  1
  O  O19  1  0.25033501  0.50622480  0.50025724  1
  O  O20  1  0.74640460  0.99645601  0.99750842  1
  O  O21  1  0.74640460  0.99645601  0.50249158  1
  O  O22  1  0.74960025  0.50360235  0.99705841  1
  O  O23  1  0.74960025  0.50360235  0.50294159  1
  O  O24  1  0.00050455  0.25355218  0.99947503  1
  O  O25  1  0.00050455  0.25355218  0.50052497  1
  O  O26  1  0.00241101  0.74638687  0.99765515  1
  O  O27  1  0.00241101  0.74638687  0.50234485  1
  O  O28  1  0.49969135  0.25044599  0.99975576  1
  O  O29  1  0.49969135  0.25044599  0.50024424  1
  O  O30  1  0.49707973  0.74971487  0.99710969  1
  O  O31  1  0.49707973  0.74971487  0.50289031  1
  O  O32  1  0.00236022  0.99659861  0.25000000  1
  O  O33  1  0.00057781  0.99489111  0.75000000  1
  O  O34  1  0.00283407  0.50371092  0.25000000  1
  O  O35  1  0.00020077  0.50589845  0.75000000  1
  O  O36  1  0.49725090  0.99676297  0.25000000  1
  O  O37  1  0.49947562  0.99417136  0.75000000  1
  O  O38  1  0.49701817  0.50335111  0.25000000  1
  O  O39  1  0.49980434  0.50613231  0.75000000  1
