# generated using pymatgen
data_Ti3NbCr2(PO4)6
_symmetry_space_group_name_H-M   'P 1'
_cell_length_a   8.80445630
_cell_length_b   8.80445559
_cell_length_c   8.80445589
_cell_angle_alpha   59.36710782
_cell_angle_beta   59.36710789
_cell_angle_gamma   59.36710774
_symmetry_Int_Tables_number   1
_chemical_formula_structural   Ti3NbCr2(PO4)6
_chemical_formula_sum   'Ti3 Nb1 Cr2 P6 O24'
_cell_volume   475.65379838
_cell_formula_units_Z   1
loop_
 _symmetry_equiv_pos_site_id
 _symmetry_equiv_pos_as_xyz
  1  'x, y, z'
loop_
 _atom_site_type_symbol
 _atom_site_label
 _atom_site_symmetry_multiplicity
 _atom_site_fract_x
 _atom_site_fract_y
 _atom_site_fract_z
 _atom_site_occupancy
  Ti  Ti0  1  0.14482389  0.14482389  0.14482389  1
  Ti  Ti1  1  0.35550894  0.35550894  0.35550894  1
  Ti  Ti2  1  0.64490986  0.64490986  0.64490986  1
  Nb  Nb3  1  0.85603833  0.85603833  0.85603833  1
  Cr  Cr4  1  0.00260239  0.00260239  0.00260239  1
  Cr  Cr5  1  0.50000134  0.50000134  0.50000134  1
  P  P6  1  0.04342504  0.74844891  0.45382669  1
  P  P7  1  0.45382669  0.04342504  0.74844891  1
  P  P8  1  0.25488188  0.53694113  0.95923297  1
  P  P9  1  0.53694113  0.95923297  0.25488188  1
  P  P10  1  0.95923297  0.25488188  0.53694113  1
  P  P11  1  0.74844891  0.45382669  0.04342504  1
  O  O12  1  0.12194995  0.30538879  0.49880994  1
  O  O13  1  0.30538879  0.49880994  0.12194995  1
  O  O14  1  0.06027996  0.91625419  0.26790799  1
  O  O15  1  0.49880994  0.12194995  0.30538879  1
  O  O16  1  0.00758716  0.80240240  0.61513855  1
  O  O17  1  0.23110582  0.58240307  0.43833035  1
  O  O18  1  0.26790799  0.06027996  0.91625419  1
  O  O19  1  0.43833035  0.23110582  0.58240307  1
  O  O20  1  0.19785606  0.37765168  0.99888589  1
  O  O21  1  0.58240307  0.43833035  0.23110582  1
  O  O22  1  0.08777041  0.72737518  0.94214415  1
  O  O23  1  0.37765168  0.99888589  0.19785606  1
  O  O24  1  0.61513855  0.00758716  0.80240240  1
  O  O25  1  0.91625419  0.26790799  0.06027996  1
  O  O26  1  0.41824660  0.55735537  0.77029999  1
  O  O27  1  0.80240240  0.61513855  0.00758716  1
  O  O28  1  0.55735537  0.77029999  0.41824660  1
  O  O29  1  0.72737518  0.94214415  0.08777041  1
  O  O30  1  0.77029999  0.41824660  0.55735537  1
  O  O31  1  0.99888589  0.19785606  0.37765168  1
  O  O32  1  0.49812202  0.87895118  0.69714193  1
  O  O33  1  0.94214415  0.08777041  0.72737518  1
  O  O34  1  0.69714193  0.49812202  0.87895118  1
  O  O35  1  0.87895118  0.69714193  0.49812202  1
