# generated using pymatgen
data_V2F9
_symmetry_space_group_name_H-M   'P 1'
_cell_length_a   5.15933208
_cell_length_b   5.15963072
_cell_length_c   14.41845545
_cell_angle_alpha   89.99477585
_cell_angle_beta   89.99314074
_cell_angle_gamma   59.98522095
_symmetry_Int_Tables_number   1
_chemical_formula_structural   V2F9
_chemical_formula_sum   'V4 F18'
_cell_volume   332.35083459
_cell_formula_units_Z   2
loop_
 _symmetry_equiv_pos_site_id
 _symmetry_equiv_pos_as_xyz
  1  'x, y, z'
loop_
 _atom_site_type_symbol
 _atom_site_label
 _atom_site_symmetry_multiplicity
 _atom_site_fract_x
 _atom_site_fract_y
 _atom_site_fract_z
 _atom_site_occupancy
  V  V0  1  0.99993312  0.00013970  0.64475794  1
  V  V1  1  0.99998629  0.00006472  0.84815186  1
  V  V2  1  0.00004875  0.99995396  0.34805067  1
  V  V3  1  0.00009776  0.99992149  0.14462687  1
  F  F4  1  0.99480169  0.70745958  0.40648538  1
  F  F5  1  0.70749713  0.99480870  0.90658294  1
  F  F6  1  0.99481713  0.29771715  0.90656908  1
  F  F7  1  0.70743988  0.29775147  0.40649687  1
  F  F8  1  0.73117394  0.26873608  0.75484265  1
  F  F9  1  0.29774379  0.99479946  0.40648303  1
  F  F10  1  0.69004167  0.30435770  0.09099533  1
  F  F11  1  0.29771524  0.70745603  0.90657678  1
  F  F12  1  0.73137360  0.00011458  0.25471352  1
  F  F13  1  0.69025009  0.00528281  0.59114858  1
  F  F14  1  0.26870105  0.73123780  0.25474996  1
  F  F15  1  0.30430906  0.69007643  0.59111663  1
  F  F16  1  0.00543754  0.69015462  0.09105180  1
  F  F17  1  0.00009664  0.73139055  0.75479002  1
  F  F18  1  0.30432736  0.00571378  0.09106342  1
  F  F19  1  0.26865016  0.00004433  0.75481800  1
  F  F20  1  0.00552654  0.30440251  0.59120647  1
  F  F21  1  0.00004357  0.26855154  0.25471421  1
