# generated using pymatgen
data_TiCo3O8
_symmetry_space_group_name_H-M   'P 1'
_cell_length_a   5.63167636
_cell_length_b   5.63242814
_cell_length_c   8.94221534
_cell_angle_alpha   90.02169486
_cell_angle_beta   90.02522931
_cell_angle_gamma   119.98396623
_symmetry_Int_Tables_number   1
_chemical_formula_structural   TiCo3O8
_chemical_formula_sum   'Ti2 Co6 O16'
_cell_volume   245.68526119
_cell_formula_units_Z   2
loop_
 _symmetry_equiv_pos_site_id
 _symmetry_equiv_pos_as_xyz
  1  'x, y, z'
loop_
 _atom_site_type_symbol
 _atom_site_label
 _atom_site_symmetry_multiplicity
 _atom_site_fract_x
 _atom_site_fract_y
 _atom_site_fract_z
 _atom_site_occupancy
  Ti  Ti0  1  0.33289734  0.66616907  0.49613135  1
  Ti  Ti1  1  0.66594195  0.33258481  0.99621623  1
  Co  Co2  1  0.16794975  0.83195343  0.21297403  1
  Co  Co3  1  0.16793907  0.33602193  0.21293074  1
  Co  Co4  1  0.66401329  0.83205023  0.21296588  1
  Co  Co5  1  0.33603944  0.16801705  0.71296901  1
  Co  Co6  1  0.83204874  0.66399029  0.71306752  1
  Co  Co7  1  0.83204742  0.16806746  0.71297348  1
  O  O8  1  0.16409685  0.83678756  0.60286271  1
  O  O9  1  0.03832234  0.51932617  0.33035824  1
  O  O10  1  0.33306677  0.66640937  0.10240010  1
  O  O11  1  0.00025011  0.00037065  0.32071422  1
  O  O12  1  0.00010872  0.99987241  0.82054989  1
  O  O13  1  0.16379412  0.32762385  0.60293140  1
  O  O14  1  0.48076268  0.96171998  0.33024050  1
  O  O15  1  0.48079404  0.51941612  0.33023566  1
  O  O16  1  0.32746359  0.16363138  0.10283798  1
  O  O17  1  0.67263474  0.83680538  0.60278058  1
  O  O18  1  0.51921610  0.48079036  0.83040579  1
  O  O19  1  0.51932907  0.03831554  0.83029901  1
  O  O20  1  0.66658039  0.33341128  0.60262560  1
  O  O21  1  0.83644561  0.67245910  0.10294509  1
  O  O22  1  0.96177795  0.48071248  0.83035437  1
  O  O23  1  0.83647991  0.16369310  0.10294862  1
