# generated using pymatgen
data_BaYFe4O7
_symmetry_space_group_name_H-M   'P 1'
_cell_length_a   6.33190911
_cell_length_b   6.33190911
_cell_length_c   6.47491148
_cell_angle_alpha   119.27205944
_cell_angle_beta   119.27205944
_cell_angle_gamma   90.00000000
_symmetry_Int_Tables_number   1
_chemical_formula_structural   BaYFe4O7
_chemical_formula_sum   'Ba1 Y1 Fe4 O7'
_cell_volume   187.53081312
_cell_formula_units_Z   1
loop_
 _symmetry_equiv_pos_site_id
 _symmetry_equiv_pos_as_xyz
  1  'x, y, z'
loop_
 _atom_site_type_symbol
 _atom_site_label
 _atom_site_symmetry_multiplicity
 _atom_site_fract_x
 _atom_site_fract_y
 _atom_site_fract_z
 _atom_site_occupancy
  Ba  Ba0  1  0.25000000  0.75000000  0.50000000  1
  Y  Y1  1  0.00000000  -0.00000000  -0.00000000  1
  Fe  Fe2  1  0.13920272  0.41067133  0.75996275  1
  Fe  Fe3  1  0.62076003  0.34929142  0.75996275  1
  Fe  Fe4  1  0.65070858  0.86079728  0.24003725  1
  Fe  Fe5  1  0.58932867  0.37923997  0.24003725  1
  O  O6  1  0.82767106  0.72144151  0.04826351  1
  O  O7  1  0.22059245  0.32682200  0.04826351  1
  O  O8  1  0.67317800  0.17232894  0.95173649  1
  O  O9  1  0.27855849  0.77940755  0.95173649  1
  O  O10  1  0.75450599  0.75450599  0.50901198  1
  O  O11  1  0.24549401  0.24549401  0.49098802  1
  O  O12  1  0.75000000  0.25000000  0.50000000  1
