# generated using pymatgen
data_SrF2
_symmetry_space_group_name_H-M   'P 1'
_cell_length_a   4.06909359
_cell_length_b   4.42610178
_cell_length_c   12.25791027
_cell_angle_alpha   90.00000000
_cell_angle_beta   90.00000000
_cell_angle_gamma   90.00000000
_symmetry_Int_Tables_number   1
_chemical_formula_structural   SrF2
_chemical_formula_sum   'Sr4 F8'
_cell_volume   220.76768990
_cell_formula_units_Z   4
loop_
 _symmetry_equiv_pos_site_id
 _symmetry_equiv_pos_as_xyz
  1  'x, y, z'
loop_
 _atom_site_type_symbol
 _atom_site_label
 _atom_site_symmetry_multiplicity
 _atom_site_fract_x
 _atom_site_fract_y
 _atom_site_fract_z
 _atom_site_occupancy
  Sr  Sr0  1  0.25000000  0.43275094  0.63672257  1
  Sr  Sr1  1  0.25000000  0.06724906  0.13672257  1
  Sr  Sr2  1  0.75000000  0.56724906  0.36327743  1
  Sr  Sr3  1  0.75000000  0.93275094  0.86327743  1
  F  F4  1  0.25000000  0.79589708  0.96181711  1
  F  F5  1  0.25000000  0.70410292  0.46181711  1
  F  F6  1  0.75000000  0.20410292  0.03818289  1
  F  F7  1  0.75000000  0.29589708  0.53818289  1
  F  F8  1  0.25000000  0.56363527  0.22865976  1
  F  F9  1  0.25000000  0.93636473  0.72865976  1
  F  F10  1  0.75000000  0.43636473  0.77134024  1
  F  F11  1  0.75000000  0.06363527  0.27134024  1
