# generated using pymatgen
data_Er(Mo3Se4)2
_symmetry_space_group_name_H-M   'P 1'
_cell_length_a   6.77849587
_cell_length_b   6.77849587
_cell_length_c   6.77849583
_cell_angle_alpha   89.37402317
_cell_angle_beta   89.37402317
_cell_angle_gamma   89.37402390
_symmetry_Int_Tables_number   1
_chemical_formula_structural   Er(Mo3Se4)2
_chemical_formula_sum   'Er1 Mo6 Se8'
_cell_volume   311.40300771
_cell_formula_units_Z   1
loop_
 _symmetry_equiv_pos_site_id
 _symmetry_equiv_pos_as_xyz
  1  'x, y, z'
loop_
 _atom_site_type_symbol
 _atom_site_label
 _atom_site_symmetry_multiplicity
 _atom_site_fract_x
 _atom_site_fract_y
 _atom_site_fract_z
 _atom_site_occupancy
  Er  Er0  1  0.00000000  -0.00000000  0.00000000  1
  Mo  Mo1  1  0.57676874  0.76713851  0.44185127  1
  Mo  Mo2  1  0.76713851  0.44185127  0.57676874  1
  Mo  Mo3  1  0.44185127  0.57676874  0.76713851  1
  Mo  Mo4  1  0.42323126  0.23286149  0.55814873  1
  Mo  Mo5  1  0.23286149  0.55814873  0.42323126  1
  Mo  Mo6  1  0.55814873  0.42323126  0.23286149  1
  Se  Se7  1  0.76434217  0.76434217  0.76434217  1
  Se  Se8  1  0.23565783  0.23565783  0.23565783  1
  Se  Se9  1  0.63161860  0.24377105  0.87692311  1
  Se  Se10  1  0.24377105  0.87692311  0.63161860  1
  Se  Se11  1  0.87692311  0.63161860  0.24377105  1
  Se  Se12  1  0.36838140  0.75622895  0.12307689  1
  Se  Se13  1  0.75622895  0.12307689  0.36838140  1
  Se  Se14  1  0.12307689  0.36838140  0.75622895  1
