# generated using pymatgen
data_LiVCuO4
_symmetry_space_group_name_H-M   'P 1'
_cell_length_a   6.20880831
_cell_length_b   5.75156714
_cell_length_c   6.07563429
_cell_angle_alpha   118.25070844
_cell_angle_beta   120.72777721
_cell_angle_gamma   90.00000000
_symmetry_Int_Tables_number   1
_chemical_formula_structural   LiVCuO4
_chemical_formula_sum   'Li2 V2 Cu2 O8'
_cell_volume   155.68199376
_cell_formula_units_Z   2
loop_
 _symmetry_equiv_pos_site_id
 _symmetry_equiv_pos_as_xyz
  1  'x, y, z'
loop_
 _atom_site_type_symbol
 _atom_site_label
 _atom_site_symmetry_multiplicity
 _atom_site_fract_x
 _atom_site_fract_y
 _atom_site_fract_z
 _atom_site_occupancy
  Li  Li0  1  0.50000000  0.50000000  0.50000000  1
  Li  Li1  1  0.00000000  0.50000000  0.50000000  1
  V  V2  1  0.53955749  0.78955749  0.07911499  1
  V  V3  1  0.46044251  0.21044251  0.92088501  1
  Cu  Cu4  1  0.00000000  0.50000000  -0.00000000  1
  Cu  Cu5  1  0.00000000  -0.00000000  -0.00000000  1
  O  O6  1  0.65348347  0.65615911  0.30696695  1
  O  O7  1  0.34651653  0.34384089  0.69303305  1
  O  O8  1  0.34651653  0.84919216  0.69303305  1
  O  O9  1  0.65348347  0.15080784  0.30696695  1
  O  O10  1  0.22656058  0.27211200  0.04422399  1
  O  O11  1  0.18233658  0.72788800  0.95577601  1
  O  O12  1  0.77343942  0.72788800  0.95577601  1
  O  O13  1  0.81766342  0.27211200  0.04422399  1
