# generated using pymatgen
data_Ba2CaTi2CuF14
_symmetry_space_group_name_H-M   'P 1'
_cell_length_a   5.57239114
_cell_length_b   7.70683779
_cell_length_c   15.25835842
_cell_angle_alpha   93.16626919
_cell_angle_beta   90.06121951
_cell_angle_gamma   111.25474587
_symmetry_Int_Tables_number   1
_chemical_formula_structural   Ba2CaTi2CuF14
_chemical_formula_sum   'Ba4 Ca2 Ti4 Cu2 F28'
_cell_volume   609.61571213
_cell_formula_units_Z   2
loop_
 _symmetry_equiv_pos_site_id
 _symmetry_equiv_pos_as_xyz
  1  'x, y, z'
loop_
 _atom_site_type_symbol
 _atom_site_label
 _atom_site_symmetry_multiplicity
 _atom_site_fract_x
 _atom_site_fract_y
 _atom_site_fract_z
 _atom_site_occupancy
  Ba  Ba0  1  0.09372401  0.35767970  0.62304070  1
  Ba  Ba1  1  0.26311960  0.35904605  0.12275007  1
  Ba  Ba2  1  0.90319219  0.64147611  0.37692734  1
  Ba  Ba3  1  0.73716910  0.64203155  0.87745422  1
  Ca  Ca4  1  0.42755783  0.99915199  0.74982055  1
  Ca  Ca5  1  0.57169234  0.00089289  0.24983079  1
  Ti  Ti6  1  0.10082642  0.24873088  0.87623790  1
  Ti  Ti7  1  0.90012715  0.75123495  0.12363209  1
  Ti  Ti8  1  0.14661086  0.24884225  0.37644821  1
  Ti  Ti9  1  0.85105300  0.75035816  0.62389004  1
  Cu  Cu10  1  0.50155836  0.00063021  0.00022365  1
  Cu  Cu11  1  0.49680423  0.99680930  0.50009563  1
  F  F12  1  0.91440427  0.99420572  0.34397684  1
  F  F13  1  0.89261915  0.30251413  0.45088486  1
  F  F14  1  0.10616042  0.69809346  0.54933393  1
  F  F15  1  0.63968386  0.49103360  0.60444772  1
  F  F16  1  0.61941338  0.09892738  0.61887639  1
  F  F17  1  0.52150714  0.89996755  0.88084881  1
  F  F18  1  0.40970660  0.30403737  0.95076247  1
  F  F19  1  0.92133124  0.00525574  0.15677930  1
  F  F20  1  0.35136979  0.31937454  0.77931376  1
  F  F21  1  0.35970237  0.50738209  0.39598208  1
  F  F22  1  0.82977821  0.23413554  0.79115195  1
  F  F23  1  0.14350445  0.50666002  0.89684161  1
  F  F24  1  0.40348229  0.23548968  0.29163749  1
  F  F25  1  0.17313510  0.76473710  0.20769708  1
  F  F26  1  0.48033569  0.10211241  0.11916441  1
  F  F27  1  0.65023527  0.68037648  0.22085837  1
  F  F28  1  0.08489885  0.81628171  0.01962179  1
  F  F29  1  0.08288740  0.00571597  0.65612045  1
  F  F30  1  0.91714833  0.18335333  0.98048483  1
  F  F31  1  0.72837507  0.81217273  0.51953181  1
  F  F32  1  0.59126891  0.69865141  0.04937333  1
  F  F33  1  0.59270965  0.76368934  0.70812563  1
  F  F34  1  0.96317519  0.31671401  0.27928959  1
  F  F35  1  0.26764979  0.18466653  0.48037998  1
  F  F36  1  0.37782189  0.89872034  0.38054909  1
  F  F37  1  0.08042135  0.99445364  0.84364640  1
  F  F38  1  0.03399491  0.68284195  0.72110685  1
  F  F39  1  0.85428035  0.49282322  0.10300999  1
