# generated using pymatgen
data_MgAl2
_symmetry_space_group_name_H-M   'P 1'
_cell_length_a   4.11578194
_cell_length_b   4.11578194
_cell_length_c   13.38845572
_cell_angle_alpha   98.84178036
_cell_angle_beta   98.84178036
_cell_angle_gamma   90.00000000
_symmetry_Int_Tables_number   1
_chemical_formula_structural   MgAl2
_chemical_formula_sum   'Mg4 Al8'
_cell_volume   221.37286088
_cell_formula_units_Z   4
loop_
 _symmetry_equiv_pos_site_id
 _symmetry_equiv_pos_as_xyz
  1  'x, y, z'
loop_
 _atom_site_type_symbol
 _atom_site_label
 _atom_site_symmetry_multiplicity
 _atom_site_fract_x
 _atom_site_fract_y
 _atom_site_fract_z
 _atom_site_occupancy
  Mg  Mg0  1  0.33151432  0.83151432  0.66302864  1
  Mg  Mg1  1  0.91848568  0.91848568  0.83697136  1
  Mg  Mg2  1  0.16848568  0.66848568  0.33697136  1
  Mg  Mg3  1  0.08151432  0.08151432  0.16302864  1
  Al  Al4  1  0.50028930  0.00028930  0.00057859  1
  Al  Al5  1  0.74971070  0.74971070  0.49942141  1
  Al  Al6  1  0.99971070  0.49971070  0.99942141  1
  Al  Al7  1  0.25028930  0.25028930  0.50057859  1
  Al  Al8  1  0.66954098  0.16954098  0.33908197  1
  Al  Al9  1  0.58045902  0.58045902  0.16091803  1
  Al  Al10  1  0.83045902  0.33045902  0.66091803  1
  Al  Al11  1  0.41954098  0.41954098  0.83908197  1
