# generated using pymatgen
data_Mn2FeReO6
_symmetry_space_group_name_H-M   'P 1'
_cell_length_a   5.31443035
_cell_length_b   5.45426727
_cell_length_c   7.73859605
_cell_angle_alpha   90.00000000
_cell_angle_beta   90.18118643
_cell_angle_gamma   90.00000000
_symmetry_Int_Tables_number   1
_chemical_formula_structural   Mn2FeReO6
_chemical_formula_sum   'Mn4 Fe2 Re2 O12'
_cell_volume   224.31232697
_cell_formula_units_Z   2
loop_
 _symmetry_equiv_pos_site_id
 _symmetry_equiv_pos_as_xyz
  1  'x, y, z'
loop_
 _atom_site_type_symbol
 _atom_site_label
 _atom_site_symmetry_multiplicity
 _atom_site_fract_x
 _atom_site_fract_y
 _atom_site_fract_z
 _atom_site_occupancy
  Mn  Mn0  1  0.00708486  0.05612956  0.75212386  1
  Mn  Mn1  1  0.50708486  0.44387044  0.25212386  1
  Mn  Mn2  1  0.99291514  0.94387044  0.24787614  1
  Mn  Mn3  1  0.49291514  0.55612956  0.74787614  1
  Fe  Fe4  1  0.50000000  0.00000000  0.50000000  1
  Fe  Fe5  1  0.00000000  0.50000000  0.00000000  1
  Re  Re6  1  0.00000000  0.50000000  0.50000000  1
  Re  Re7  1  0.50000000  0.00000000  0.00000000  1
  O  O8  1  0.16205456  0.79752942  0.56691542  1
  O  O9  1  0.66205456  0.70247058  0.06691542  1
  O  O10  1  0.83794544  0.20247058  0.43308458  1
  O  O11  1  0.33794544  0.29752942  0.93308458  1
  O  O12  1  0.19510477  0.82296416  0.93772897  1
  O  O13  1  0.69510477  0.67703584  0.43772897  1
  O  O14  1  0.80489523  0.17703584  0.06227103  1
  O  O15  1  0.30489523  0.32296416  0.56227103  1
  O  O16  1  0.62205688  0.94354538  0.76165832  1
  O  O17  1  0.12205688  0.55645462  0.26165832  1
  O  O18  1  0.37794312  0.05645462  0.23834168  1
  O  O19  1  0.87794312  0.44354538  0.73834168  1
