# generated using pymatgen
data_K3TbCl6
_symmetry_space_group_name_H-M   'P 1'
_cell_length_a   7.95211237
_cell_length_b   7.95211276
_cell_length_c   7.95211273
_cell_angle_alpha   59.99999872
_cell_angle_beta   59.99999819
_cell_angle_gamma   59.99999827
_symmetry_Int_Tables_number   1
_chemical_formula_structural   K3TbCl6
_chemical_formula_sum   'K3 Tb1 Cl6'
_cell_volume   355.57609186
_cell_formula_units_Z   1
loop_
 _symmetry_equiv_pos_site_id
 _symmetry_equiv_pos_as_xyz
  1  'x, y, z'
loop_
 _atom_site_type_symbol
 _atom_site_label
 _atom_site_symmetry_multiplicity
 _atom_site_fract_x
 _atom_site_fract_y
 _atom_site_fract_z
 _atom_site_occupancy
  Tb  Tb0  1  0.00000000  -0.00000000  -0.00000000  1
  K  K1  1  0.25000000  0.25000000  0.25000000  1
  K  K2  1  0.75000000  0.75000000  0.75000000  1
  K  K3  1  0.50000000  0.50000000  0.50000000  1
  Cl  Cl4  1  0.23496943  0.76503057  0.23496943  1
  Cl  Cl5  1  0.76503057  0.76503057  0.23496943  1
  Cl  Cl6  1  0.76503057  0.23496943  0.76503057  1
  Cl  Cl7  1  0.76503057  0.23496943  0.23496943  1
  Cl  Cl8  1  0.23496943  0.76503057  0.76503057  1
  Cl  Cl9  1  0.23496943  0.23496943  0.76503057  1
