# generated using pymatgen
data_Ni5(AsO6)2
_symmetry_space_group_name_H-M   'P 1'
_cell_length_a   5.11925235
_cell_length_b   6.46169466
_cell_length_c   6.46169466
_cell_angle_alpha   86.56061883
_cell_angle_beta   85.06233983
_cell_angle_gamma   85.06233983
_symmetry_Int_Tables_number   1
_chemical_formula_structural   Ni5(AsO6)2
_chemical_formula_sum   'Ni5 As2 O12'
_cell_volume   211.86525185
_cell_formula_units_Z   1
loop_
 _symmetry_equiv_pos_site_id
 _symmetry_equiv_pos_as_xyz
  1  'x, y, z'
loop_
 _atom_site_type_symbol
 _atom_site_label
 _atom_site_symmetry_multiplicity
 _atom_site_fract_x
 _atom_site_fract_y
 _atom_site_fract_z
 _atom_site_occupancy
  Ni  Ni0  1  -0.00000000  0.82293265  0.17706735  1
  Ni  Ni1  1  -0.00000000  0.17706735  0.82293265  1
  Ni  Ni2  1  0.50000000  0.66231253  0.33768747  1
  Ni  Ni3  1  0.50000000  0.33768747  0.66231253  1
  Ni  Ni4  1  0.50000000  0.00000000  0.00000000  1
  As  As5  1  0.94667185  0.68388427  0.68388427  1
  As  As6  1  0.05332815  0.31611573  0.31611573  1
  O  O7  1  0.87647610  0.52864864  0.21072066  1
  O  O8  1  0.87647610  0.21072066  0.52864864  1
  O  O9  1  0.12352390  0.47135136  0.78927934  1
  O  O10  1  0.12352390  0.78927934  0.47135136  1
  O  O11  1  0.88996897  0.87224160  0.87224160  1
  O  O12  1  0.11003103  0.12775840  0.12775840  1
  O  O13  1  0.63685545  0.62334515  0.62334515  1
  O  O14  1  0.36314455  0.37665485  0.37665485  1
  O  O15  1  0.35878961  0.74241693  0.07716072  1
  O  O16  1  0.35878961  0.07716072  0.74241693  1
  O  O17  1  0.64121039  0.25758307  0.92283928  1
  O  O18  1  0.64121039  0.92283928  0.25758307  1
