# generated using pymatgen
data_CaMn3V4O12
_symmetry_space_group_name_H-M   'P 1'
_cell_length_a   6.52433864
_cell_length_b   6.52433864
_cell_length_c   6.52433864
_cell_angle_alpha   109.47122063
_cell_angle_beta   109.47122063
_cell_angle_gamma   109.47122063
_symmetry_Int_Tables_number   1
_chemical_formula_structural   CaMn3V4O12
_chemical_formula_sum   'Ca1 Mn3 V4 O12'
_cell_volume   213.79010131
_cell_formula_units_Z   1
loop_
 _symmetry_equiv_pos_site_id
 _symmetry_equiv_pos_as_xyz
  1  'x, y, z'
loop_
 _atom_site_type_symbol
 _atom_site_label
 _atom_site_symmetry_multiplicity
 _atom_site_fract_x
 _atom_site_fract_y
 _atom_site_fract_z
 _atom_site_occupancy
  Ca  Ca0  1  0.00000000  0.00000000  -0.00000000  1
  Mn  Mn1  1  0.50000000  0.00000000  0.50000000  1
  Mn  Mn2  1  0.00000000  0.50000000  0.50000000  1
  Mn  Mn3  1  0.50000000  0.50000000  -0.00000000  1
  V  V4  1  0.00000000  0.00000000  0.50000000  1
  V  V5  1  0.50000000  0.00000000  -0.00000000  1
  V  V6  1  0.00000000  0.50000000  -0.00000000  1
  V  V7  1  0.50000000  0.50000000  0.50000000  1
  O  O8  1  0.69939798  0.80951954  0.50891752  1
  O  O9  1  0.69939798  0.19048046  0.88987843  1
  O  O10  1  0.30060202  0.80951954  0.11012157  1
  O  O11  1  0.30060202  0.19048046  0.49108248  1
  O  O12  1  0.80951954  0.50891752  0.69939798  1
  O  O13  1  0.19048046  0.88987843  0.69939798  1
  O  O14  1  0.80951954  0.11012157  0.30060202  1
  O  O15  1  0.19048046  0.49108248  0.30060202  1
  O  O16  1  0.50891752  0.69939798  0.80951954  1
  O  O17  1  0.88987843  0.69939798  0.19048046  1
  O  O18  1  0.11012157  0.30060202  0.80951954  1
  O  O19  1  0.49108248  0.30060202  0.19048046  1
