# generated using pymatgen
data_Si3(WO6)2
_symmetry_space_group_name_H-M   'P 1'
_cell_length_a   10.40241509
_cell_length_b   10.40241497
_cell_length_c   10.40241450
_cell_angle_alpha   109.47122357
_cell_angle_beta   109.47122334
_cell_angle_gamma   109.47121816
_symmetry_Int_Tables_number   1
_chemical_formula_structural   Si3(WO6)2
_chemical_formula_sum   'Si12 W8 O48'
_cell_volume   866.52401146
_cell_formula_units_Z   4
loop_
 _symmetry_equiv_pos_site_id
 _symmetry_equiv_pos_as_xyz
  1  'x, y, z'
loop_
 _atom_site_type_symbol
 _atom_site_label
 _atom_site_symmetry_multiplicity
 _atom_site_fract_x
 _atom_site_fract_y
 _atom_site_fract_z
 _atom_site_occupancy
  Si  Si0  1  0.25000000  0.12500000  0.87500000  1
  Si  Si1  1  0.75000000  0.87500000  0.12500000  1
  Si  Si2  1  0.37500000  0.25000000  0.62500000  1
  Si  Si3  1  0.62500000  0.37500000  0.25000000  1
  Si  Si4  1  0.12500000  0.75000000  0.87500000  1
  Si  Si5  1  0.87500000  0.12500000  0.75000000  1
  Si  Si6  1  0.75000000  0.37500000  0.62500000  1
  Si  Si7  1  0.37500000  0.62500000  0.75000000  1
  Si  Si8  1  0.12500000  0.87500000  0.25000000  1
  Si  Si9  1  0.87500000  0.25000000  0.12500000  1
  Si  Si10  1  0.62500000  0.75000000  0.37500000  1
  Si  Si11  1  0.25000000  0.62500000  0.37500000  1
  W  W12  1  0.00000000  0.00000000  0.00000000  1
  W  W13  1  0.00000000  0.50000000  0.00000000  1
  W  W14  1  0.00000000  0.00000000  0.50000000  1
  W  W15  1  0.00000000  0.50000000  0.50000000  1
  W  W16  1  0.50000000  0.00000000  0.50000000  1
  W  W17  1  0.50000000  0.50000000  0.00000000  1
  W  W18  1  0.50000000  0.50000000  0.50000000  1
  W  W19  1  0.50000000  0.00000000  0.00000000  1
  O  O20  1  0.30629944  0.49800664  0.39112005  1
  O  O21  1  0.00199336  0.30829380  0.89311341  1
  O  O22  1  0.10887995  0.60688659  0.91517939  1
  O  O23  1  0.19370056  0.58482061  0.19170620  1
  O  O24  1  0.19370056  0.10887995  0.00199336  1
  O  O25  1  0.58482061  0.19170620  0.19370056  1
  O  O26  1  0.60688659  0.19170620  0.49800664  1
  O  O27  1  0.19170620  0.19370056  0.58482061  1
  O  O28  1  0.89311341  0.39112005  0.58482061  1
  O  O29  1  0.30829380  0.91517939  0.30629944  1
  O  O30  1  0.91517939  0.30629944  0.30829380  1
  O  O31  1  0.00199336  0.19370056  0.10887995  1
  O  O32  1  0.19170620  0.49800664  0.60688659  1
  O  O33  1  0.58482061  0.89311341  0.39112005  1
  O  O34  1  0.10887995  0.00199336  0.19370056  1
  O  O35  1  0.49800664  0.60688659  0.19170620  1
  O  O36  1  0.39112005  0.58482061  0.89311341  1
  O  O37  1  0.89311341  0.00199336  0.30829380  1
  O  O38  1  0.60688659  0.91517939  0.10887995  1
  O  O39  1  0.10688659  0.60887995  0.41517939  1
  O  O40  1  0.91517939  0.10887995  0.60688659  1
  O  O41  1  0.39112005  0.30629944  0.49800664  1
  O  O42  1  0.30829380  0.89311341  0.00199336  1
  O  O43  1  0.30629944  0.30829380  0.91517939  1
  O  O44  1  0.69370056  0.50199336  0.60887995  1
  O  O45  1  0.99800664  0.69170620  0.10688659  1
  O  O46  1  0.89112005  0.39311341  0.08482061  1
  O  O47  1  0.80629944  0.41517939  0.80829380  1
  O  O48  1  0.80629944  0.89112005  0.99800664  1
  O  O49  1  0.41517939  0.80829380  0.80629944  1
  O  O50  1  0.39311341  0.80829380  0.50199336  1
  O  O51  1  0.80829380  0.80629944  0.41517939  1
  O  O52  1  0.69370056  0.69170620  0.08482061  1
  O  O53  1  0.69170620  0.10688659  0.99800664  1
  O  O54  1  0.60887995  0.69370056  0.50199336  1
  O  O55  1  0.50199336  0.60887995  0.69370056  1
  O  O56  1  0.08482061  0.89112005  0.39311341  1
  O  O57  1  0.39311341  0.08482061  0.89112005  1
  O  O58  1  0.10688659  0.99800664  0.69170620  1
  O  O59  1  0.60887995  0.41517939  0.10688659  1
  O  O60  1  0.50199336  0.39311341  0.80829380  1
  O  O61  1  0.89112005  0.99800664  0.80629944  1
  O  O62  1  0.41517939  0.10688659  0.60887995  1
  O  O63  1  0.80829380  0.50199336  0.39311341  1
  O  O64  1  0.99800664  0.80629944  0.89112005  1
  O  O65  1  0.08482061  0.69370056  0.69170620  1
  O  O66  1  0.69170620  0.08482061  0.69370056  1
  O  O67  1  0.49800664  0.39112005  0.30629944  1
