# generated using pymatgen
data_Zn2BiSbO6
_symmetry_space_group_name_H-M   'P 1'
_cell_length_a   5.61081265
_cell_length_b   5.53155125
_cell_length_c   8.17853784
_cell_angle_alpha   90.00000000
_cell_angle_beta   90.00000000
_cell_angle_gamma   87.94704836
_symmetry_Int_Tables_number   1
_chemical_formula_structural   Zn2BiSbO6
_chemical_formula_sum   'Zn4 Bi2 Sb2 O12'
_cell_volume   253.67024774
_cell_formula_units_Z   2
loop_
 _symmetry_equiv_pos_site_id
 _symmetry_equiv_pos_as_xyz
  1  'x, y, z'
loop_
 _atom_site_type_symbol
 _atom_site_label
 _atom_site_symmetry_multiplicity
 _atom_site_fract_x
 _atom_site_fract_y
 _atom_site_fract_z
 _atom_site_occupancy
  Zn  Zn0  1  0.49407478  0.52277501  0.75000000  1
  Zn  Zn1  1  0.50592522  0.47722499  0.25000000  1
  Zn  Zn2  1  0.03230421  0.01130255  0.75000000  1
  Zn  Zn3  1  0.96769579  0.98869745  0.25000000  1
  Bi  Bi4  1  0.50000000  0.00000000  0.50000000  1
  Bi  Bi5  1  0.50000000  0.00000000  0.00000000  1
  Sb  Sb6  1  0.00000000  0.50000000  0.50000000  1
  Sb  Sb7  1  0.00000000  0.50000000  0.00000000  1
  O  O8  1  0.30759408  0.63932511  0.42779054  1
  O  O9  1  0.12686287  0.18146845  0.07239457  1
  O  O10  1  0.69240592  0.36067489  0.92779054  1
  O  O11  1  0.87313713  0.81853155  0.57239457  1
  O  O12  1  0.12686287  0.18146845  0.42760543  1
  O  O13  1  0.87313713  0.81853155  0.92760543  1
  O  O14  1  0.86305637  0.61193403  0.25000000  1
  O  O15  1  0.30759408  0.63932511  0.07220946  1
  O  O16  1  0.36767695  0.86592962  0.75000000  1
  O  O17  1  0.69240592  0.36067489  0.57220946  1
  O  O18  1  0.13694363  0.38806597  0.75000000  1
  O  O19  1  0.63232305  0.13407038  0.25000000  1
