# generated using pymatgen
data_Li2MnCoO4
_symmetry_space_group_name_H-M   'P 1'
_cell_length_a   2.87858568
_cell_length_b   19.77768490
_cell_length_c   3.01516307
_cell_angle_alpha   83.27785479
_cell_angle_beta   118.51258650
_cell_angle_gamma   90.00000206
_symmetry_Int_Tables_number   1
_chemical_formula_structural   Li2MnCoO4
_chemical_formula_sum   'Li4 Mn2 Co2 O8'
_cell_volume   149.49413952
_cell_formula_units_Z   2
loop_
 _symmetry_equiv_pos_site_id
 _symmetry_equiv_pos_as_xyz
  1  'x, y, z'
loop_
 _atom_site_type_symbol
 _atom_site_label
 _atom_site_symmetry_multiplicity
 _atom_site_fract_x
 _atom_site_fract_y
 _atom_site_fract_z
 _atom_site_occupancy
  Li  Li0  1  0.25000000  0.12500000  0.50000000  1
  Li  Li1  1  0.75243692  0.37271670  0.50487384  1
  Li  Li2  1  0.25000000  0.62500000  0.50000000  1
  Li  Li3  1  0.74756308  0.87728330  0.49512616  1
  Mn  Mn4  1  0.00180326  0.49959024  0.00360652  1
  Mn  Mn5  1  0.49819674  0.75040976  -0.00360652  1
  Co  Co6  1  0.99907798  0.00048690  0.99815595  1
  Co  Co7  1  0.50092202  0.24951310  0.00184405  1
  O  O8  1  0.63541679  0.05707885  0.27083358  1
  O  O9  1  0.13488804  0.30748443  0.26977608  1
  O  O10  1  0.60641687  0.55797864  0.21283374  1
  O  O11  1  0.10635570  0.80744920  0.21271140  1
  O  O12  1  0.86458321  0.19292115  0.72916642  1
  O  O13  1  0.39364430  0.44255080  0.78728860  1
  O  O14  1  0.89358313  0.69202136  0.78716626  1
  O  O15  1  0.36511196  0.94251557  0.73022392  1
