# generated using pymatgen
data_Li4MnCo3O8
_symmetry_space_group_name_H-M   'P 1'
_cell_length_a   5.15483727
_cell_length_b   5.86518367
_cell_length_c   5.87395849
_cell_angle_alpha   119.95060057
_cell_angle_beta   107.13027245
_cell_angle_gamma   89.99999671
_symmetry_Int_Tables_number   1
_chemical_formula_structural   Li4MnCo3O8
_chemical_formula_sum   'Li4 Mn1 Co3 O8'
_cell_volume   144.71315791
_cell_formula_units_Z   1
loop_
 _symmetry_equiv_pos_site_id
 _symmetry_equiv_pos_as_xyz
  1  'x, y, z'
loop_
 _atom_site_type_symbol
 _atom_site_label
 _atom_site_symmetry_multiplicity
 _atom_site_fract_x
 _atom_site_fract_y
 _atom_site_fract_z
 _atom_site_occupancy
  Li  Li0  1  0.50173493  0.24914617  0.49829234  1
  Li  Li1  1  0.50000000  0.24955000  0.00000000  1
  Li  Li2  1  0.50000000  0.75045000  1.00000000  1
  Li  Li3  1  0.49826507  0.75085383  0.50170766  1
  Mn  Mn4  1  0.00000000  0.50000000  0.00000000  1
  Co  Co5  1  0.00000000  -0.00000000  0.00000000  1
  Co  Co6  1  0.00000000  -0.00000000  0.50000000  1
  Co  Co7  1  0.00000000  0.50000000  0.50000000  1
  O  O8  1  0.22544658  0.37974012  0.75948023  1
  O  O9  1  0.22974426  0.38539939  0.23957348  1
  O  O10  1  0.22974426  0.85417409  0.23957348  1
  O  O11  1  0.22932998  0.86456333  0.72912665  1
  O  O12  1  0.77067002  0.13543667  0.27087335  1
  O  O13  1  0.77025574  0.14582591  0.76042652  1
  O  O14  1  0.77025574  0.61460061  0.76042652  1
  O  O15  1  0.77455342  0.62025988  0.24051977  1
