# generated using pymatgen
data_Li4Co3O7
_symmetry_space_group_name_H-M   'P 1'
_cell_length_a   6.56065012
_cell_length_b   6.52292257
_cell_length_c   6.54293696
_cell_angle_alpha   71.95897268
_cell_angle_beta   108.31076493
_cell_angle_gamma   107.45167789
_symmetry_Int_Tables_number   1
_chemical_formula_structural   Li4Co3O7
_chemical_formula_sum   'Li8 Co6 O14'
_cell_volume   246.30711453
_cell_formula_units_Z   2
loop_
 _symmetry_equiv_pos_site_id
 _symmetry_equiv_pos_as_xyz
  1  'x, y, z'
loop_
 _atom_site_type_symbol
 _atom_site_label
 _atom_site_symmetry_multiplicity
 _atom_site_fract_x
 _atom_site_fract_y
 _atom_site_fract_z
 _atom_site_occupancy
  Li  Li0  1  0.77853546  0.91860588  0.35294187  1
  Li  Li1  1  0.65003554  0.22425112  0.93277213  1
  Li  Li2  1  0.50466024  0.49794347  0.49776354  1
  Li  Li3  1  0.92391076  0.64491353  0.78795046  1
  Li  Li4  1  0.06889617  0.35684227  0.21401227  1
  Li  Li5  1  0.21428600  0.07142900  0.64285700  1
  Li  Li6  1  0.35967583  0.78601473  0.07170273  1
  Li  Li7  1  0.71428600  0.57142900  0.14285700  1
  Co  Co8  1  0.00018098  0.99769564  0.00326371  1
  Co  Co9  1  0.42839002  0.14516136  0.28245029  1
  Co  Co10  1  0.85142207  0.29392502  0.56426820  1
  Co  Co11  1  0.57714993  0.84893198  0.72144680  1
  Co  Co12  1  0.28924569  0.43065952  0.85838573  1
  Co  Co13  1  0.13932531  0.71219748  0.42732827  1
  O  O14  1  0.70781724  0.90640863  0.02361987  1
  O  O15  1  0.53170531  0.16732323  0.58610898  1
  O  O16  1  0.38623439  0.43941775  0.17056599  1
  O  O17  1  0.83062499  0.59631914  0.47135244  1
  O  O18  1  0.96939021  0.29617932  0.89522581  1
  O  O19  1  0.12327305  0.03838011  0.30448095  1
  O  O20  1  0.25343687  0.74568028  0.74041542  1
  O  O21  1  0.89686569  0.97553377  0.69960502  1
  O  O22  1  0.72075376  0.23644837  0.26209413  1
  O  O23  1  0.59794601  0.54653786  0.81436156  1
  O  O24  1  0.04233761  0.70343925  0.11514901  1
  O  O25  1  0.17513513  0.39717772  0.54529858  1
  O  O26  1  0.30529895  0.10447689  0.98123405  1
  O  O27  1  0.45918079  0.84667768  0.39048819  1
