# generated using pymatgen
data_Sr2La14Mg4(Fe4O15)3
_symmetry_space_group_name_H-M   'P 1'
_cell_length_a   5.63867214
_cell_length_b   7.94419183
_cell_length_c   22.57416713
_cell_angle_alpha   90.16747847
_cell_angle_beta   89.97812587
_cell_angle_gamma   89.98040693
_symmetry_Int_Tables_number   1
_chemical_formula_structural   Sr2La14Mg4(Fe4O15)3
_chemical_formula_sum   'Sr2 La14 Mg4 Fe12 O45'
_cell_volume   1011.19843724
_cell_formula_units_Z   1
loop_
 _symmetry_equiv_pos_site_id
 _symmetry_equiv_pos_as_xyz
  1  'x, y, z'
loop_
 _atom_site_type_symbol
 _atom_site_label
 _atom_site_symmetry_multiplicity
 _atom_site_fract_x
 _atom_site_fract_y
 _atom_site_fract_z
 _atom_site_occupancy
  Sr  Sr0  1  0.99415354  0.24794966  0.98943779  1
  Sr  Sr1  1  0.98628566  0.25054420  0.24401815  1
  La  La2  1  0.98457344  0.25561077  0.49616001  1
  La  La3  1  0.99338518  0.24717537  0.75255282  1
  La  La4  1  0.52687513  0.24555114  0.11373767  1
  La  La5  1  0.52666649  0.25428949  0.36622016  1
  La  La6  1  0.52249329  0.25103762  0.62173313  1
  La  La7  1  0.51072162  0.24800226  0.87291238  1
  La  La8  1  0.48476019  0.75398113  0.12714820  1
  La  La9  1  0.48235814  0.74788660  0.37985519  1
  La  La10  1  0.48600504  0.74839653  0.62973009  1
  La  La11  1  0.49316238  0.74943773  0.88120274  1
  La  La12  1  0.01817857  0.74876538  0.25388136  1
  La  La13  1  0.01660540  0.74713784  0.50750816  1
  La  La14  1  0.01150704  0.74919421  0.75798523  1
  La  La15  1  0.00028720  0.75453601  0.00132505  1
  Mg  Mg16  1  0.99189749  0.98322663  0.12456383  1
  Mg  Mg17  1  0.99344811  0.52031742  0.37510514  1
  Mg  Mg18  1  0.99075511  0.51754088  0.62668539  1
  Mg  Mg19  1  0.98924631  0.98212192  0.62652059  1
  Fe  Fe20  1  0.50037689  0.49503095  0.99964583  1
  Fe  Fe21  1  0.50544830  0.49562509  0.24985501  1
  Fe  Fe22  1  0.50432312  0.49454173  0.74892081  1
  Fe  Fe23  1  0.50169816  0.49406423  0.49996549  1
  Fe  Fe24  1  0.50386069  0.00444759  0.00111484  1
  Fe  Fe25  1  0.50334062  0.00663840  0.24728413  1
  Fe  Fe26  1  0.50212054  0.00287686  0.74861908  1
  Fe  Fe27  1  0.50197067  0.00664896  0.50202796  1
  Fe  Fe28  1  0.98910712  0.51779484  0.12372638  1
  Fe  Fe29  1  0.00275384  0.50229088  0.87507510  1
  Fe  Fe30  1  0.99188772  0.98064597  0.37568834  1
  Fe  Fe31  1  0.00243432  0.99606499  0.87501207  1
  O  O32  1  0.08147375  0.24926572  0.87331330  1
  O  O33  1  0.22735806  0.95307926  0.19377339  1
  O  O34  1  0.22980479  0.98157167  0.69226544  1
  O  O35  1  0.23037986  0.96454291  0.44216504  1
  O  O36  1  0.22612179  0.54177447  0.19116554  1
  O  O37  1  0.22671880  0.94764208  0.94363438  1
  O  O38  1  0.23847573  0.53596967  0.44103274  1
  O  O39  1  0.24127322  0.51691382  0.69003206  1
  O  O40  1  0.22740684  0.55434115  0.94339711  1
  O  O41  1  0.27440141  0.51835611  0.07136324  1
  O  O42  1  0.27107389  0.54757333  0.31740534  1
  O  O43  1  0.26770203  0.53988788  0.56654984  1
  O  O44  1  0.27317958  0.55559484  0.81679330  1
  O  O45  1  0.28296409  0.98293346  0.07192477  1
  O  O46  1  0.27113042  0.96106626  0.32100482  1
  O  O47  1  0.27518521  0.95936767  0.56859601  1
  O  O48  1  0.27431281  0.94289431  0.81741274  1
  O  O49  1  0.43224751  0.25093123  0.99455394  1
  O  O50  1  0.42101794  0.25031209  0.25681612  1
  O  O51  1  0.40713687  0.24896359  0.50363191  1
  O  O52  1  0.41889936  0.24915363  0.76344541  1
  O  O53  1  0.59402717  0.75073522  0.24600772  1
  O  O54  1  0.58644011  0.74846880  0.73844885  1
  O  O55  1  0.59245505  0.75372547  0.49566545  1
  O  O56  1  0.57657854  0.74747601  0.00673435  1
  O  O57  1  0.72544682  0.05318010  0.17973860  1
  O  O58  1  0.73527486  0.44703566  0.17930007  1
  O  O59  1  0.74863935  0.06964989  0.43174895  1
  O  O60  1  0.73567427  0.06620245  0.68287849  1
  O  O61  1  0.71973467  0.02528428  0.92899038  1
  O  O62  1  0.74423430  0.43781617  0.43333256  1
  O  O63  1  0.74638831  0.42736164  0.68390686  1
  O  O64  1  0.72045304  0.47131565  0.92941400  1
  O  O65  1  0.77705519  0.05335888  0.31124760  1
  O  O66  1  0.76772723  0.44858720  0.31038943  1
  O  O67  1  0.77597860  0.05568073  0.05730785  1
  O  O68  1  0.77799530  0.43821639  0.05905121  1
  O  O69  1  0.77780088  0.03336809  0.80608008  1
  O  O70  1  0.77796233  0.46431699  0.80641386  1
  O  O71  1  0.77601992  0.06701699  0.55892222  1
  O  O72  1  0.76961751  0.43958251  0.55969246  1
  O  O73  1  0.90950356  0.74667564  0.11650147  1
  O  O74  1  0.90108060  0.75448023  0.37588373  1
  O  O75  1  0.89559585  0.74977143  0.61885513  1
  O  O76  1  0.91756523  0.74918515  0.87061707  1
