# generated using pymatgen
data_Zn2SnSbO6
_symmetry_space_group_name_H-M   'P 1'
_cell_length_a   5.42739241
_cell_length_b   5.42501947
_cell_length_c   8.07860060
_cell_angle_alpha   90.00000000
_cell_angle_beta   90.00000000
_cell_angle_gamma   89.87980468
_symmetry_Int_Tables_number   1
_chemical_formula_structural   Zn2SnSbO6
_chemical_formula_sum   'Zn4 Sn2 Sb2 O12'
_cell_volume   237.86344590
_cell_formula_units_Z   2
loop_
 _symmetry_equiv_pos_site_id
 _symmetry_equiv_pos_as_xyz
  1  'x, y, z'
loop_
 _atom_site_type_symbol
 _atom_site_label
 _atom_site_symmetry_multiplicity
 _atom_site_fract_x
 _atom_site_fract_y
 _atom_site_fract_z
 _atom_site_occupancy
  Zn  Zn0  1  0.48774417  0.52785115  0.75000000  1
  Zn  Zn1  1  0.51225583  0.47214885  0.25000000  1
  Zn  Zn2  1  0.00899480  0.02260246  0.75000000  1
  Zn  Zn3  1  0.99100520  0.97739754  0.25000000  1
  Sn  Sn4  1  0.50000000  0.00000000  0.50000000  1
  Sn  Sn5  1  0.50000000  0.00000000  0.00000000  1
  Sb  Sb6  1  0.00000000  0.50000000  0.50000000  1
  Sb  Sb7  1  0.00000000  0.50000000  0.00000000  1
  O  O8  1  0.33608817  0.67116871  0.42761416  1
  O  O9  1  0.16829331  0.16922565  0.07172843  1
  O  O10  1  0.66391183  0.32883129  0.92761416  1
  O  O11  1  0.83170669  0.83077435  0.57172843  1
  O  O12  1  0.16829331  0.16922565  0.42827157  1
  O  O13  1  0.83170669  0.83077435  0.92827157  1
  O  O14  1  0.88066375  0.59290671  0.25000000  1
  O  O15  1  0.33608817  0.67116871  0.07238584  1
  O  O16  1  0.37129832  0.90149076  0.75000000  1
  O  O17  1  0.66391183  0.32883129  0.57238584  1
  O  O18  1  0.11933625  0.40709329  0.75000000  1
  O  O19  1  0.62870168  0.09850924  0.25000000  1
