# generated using pymatgen
data_Li2MnCoO4
_symmetry_space_group_name_H-M   'P 1'
_cell_length_a   2.98377334
_cell_length_b   9.91419318
_cell_length_c   5.16959779
_cell_angle_alpha   79.20828844
_cell_angle_beta   91.98069922
_cell_angle_gamma   94.63613149
_symmetry_Int_Tables_number   1
_chemical_formula_structural   Li2MnCoO4
_chemical_formula_sum   'Li4 Mn2 Co2 O8'
_cell_volume   149.69994176
_cell_formula_units_Z   2
loop_
 _symmetry_equiv_pos_site_id
 _symmetry_equiv_pos_as_xyz
  1  'x, y, z'
loop_
 _atom_site_type_symbol
 _atom_site_label
 _atom_site_symmetry_multiplicity
 _atom_site_fract_x
 _atom_site_fract_y
 _atom_site_fract_z
 _atom_site_occupancy
  Li  Li0  1  0.99692259  0.25216322  0.25071601  1
  Li  Li1  1  0.49780952  0.50064473  0.00195831  1
  Li  Li2  1  0.00219048  0.74935527  0.74804169  1
  Li  Li3  1  0.50307741  -0.00216322  0.49928399  1
  Mn  Mn4  1  0.00493037  0.49803523  0.49468149  1
  Mn  Mn5  1  0.49506963  0.75196477  0.25531851  1
  Co  Co6  1  0.99855393  0.00144688  0.00641129  1
  Co  Co7  1  0.50144607  0.24855312  0.74358871  1
  O  O8  1  0.49642455  0.11819893  0.10723684  1
  O  O9  1  0.99415036  0.37087354  0.84830502  1
  O  O10  1  0.47303276  0.62624202  0.60724591  1
  O  O11  1  0.96551191  0.87412308  0.36826915  1
  O  O12  1  0.53448809  0.37587692  0.38173085  1
  O  O13  1  0.02696724  0.62375798  0.14275409  1
  O  O14  1  0.50584964  0.87912646  0.90169498  1
  O  O15  1  0.00357545  0.13180107  0.64276316  1
