# generated using pymatgen
data_Li2MnCoO4
_symmetry_space_group_name_H-M   'P 1'
_cell_length_a   5.04743564
_cell_length_b   5.08305346
_cell_length_c   6.09404519
_cell_angle_alpha   88.53357120
_cell_angle_beta   87.86118459
_cell_angle_gamma   106.53901770
_symmetry_Int_Tables_number   1
_chemical_formula_structural   Li2MnCoO4
_chemical_formula_sum   'Li4 Mn2 Co2 O8'
_cell_volume   149.67082772
_cell_formula_units_Z   2
loop_
 _symmetry_equiv_pos_site_id
 _symmetry_equiv_pos_as_xyz
  1  'x, y, z'
loop_
 _atom_site_type_symbol
 _atom_site_label
 _atom_site_symmetry_multiplicity
 _atom_site_fract_x
 _atom_site_fract_y
 _atom_site_fract_z
 _atom_site_occupancy
  Li  Li0  1  -0.00188208  0.50041498  0.24853267  1
  Li  Li1  1  0.49635238  0.49785662  0.49743273  1
  Li  Li2  1  0.00364762  0.50214338  0.75256727  1
  Li  Li3  1  0.50188208  0.49958502  0.00146733  1
  Mn  Mn4  1  -0.00047318  -0.00302515  0.49942777  1
  Mn  Mn5  1  0.50047318  0.00302515  0.75057223  1
  Co  Co6  1  -0.00076534  0.00774948  0.00164594  1
  Co  Co7  1  0.50076534  0.99225052  0.24835406  1
  O  O8  1  0.76704993  0.24149235  0.01044674  1
  O  O9  1  0.24451853  0.22028547  0.25693175  1
  O  O10  1  0.73953277  0.22046120  0.50361097  1
  O  O11  1  0.26441311  0.24245275  0.75778697  1
  O  O12  1  0.23558689  0.75754725  0.49221303  1
  O  O13  1  0.76046723  0.77953880  0.74638903  1
  O  O14  1  0.25548147  0.77971453  0.99306825  1
  O  O15  1  0.73295007  0.75850765  0.23955326  1
