# generated using pymatgen
data_Ce2Cu(NO)2
_symmetry_space_group_name_H-M   'P 1'
_cell_length_a   3.90780926
_cell_length_b   3.90780956
_cell_length_c   6.59853326
_cell_angle_alpha   107.22423299
_cell_angle_beta   107.22422921
_cell_angle_gamma   89.99999074
_symmetry_Int_Tables_number   1
_chemical_formula_structural   Ce2Cu(NO)2
_chemical_formula_sum   'Ce2 Cu1 N2 O2'
_cell_volume   91.50506564
_cell_formula_units_Z   1
loop_
 _symmetry_equiv_pos_site_id
 _symmetry_equiv_pos_as_xyz
  1  'x, y, z'
loop_
 _atom_site_type_symbol
 _atom_site_label
 _atom_site_symmetry_multiplicity
 _atom_site_fract_x
 _atom_site_fract_y
 _atom_site_fract_z
 _atom_site_occupancy
  Ce  Ce0  1  0.64047305  0.64047305  0.28094711  1
  Ce  Ce1  1  0.35952695  0.35952695  0.71905289  1
  Cu  Cu2  1  -0.00000000  -0.00000000  -0.00000000  1
  N  N3  1  0.50000000  -0.00000000  -0.00000000  1
  N  N4  1  -0.00000000  0.50000000  -0.00000000  1
  O  O5  1  0.75000000  0.25000000  0.50000000  1
  O  O6  1  0.25000000  0.75000000  0.50000000  1
