# generated using pymatgen
data_Li5Mn(CoO4)2
_symmetry_space_group_name_H-M   'P 1'
_cell_length_a   5.05149043
_cell_length_b   5.80543605
_cell_length_c   5.89394144
_cell_angle_alpha   119.50449302
_cell_angle_beta   107.56473146
_cell_angle_gamma   89.99999640
_symmetry_Int_Tables_number   1
_chemical_formula_structural   Li5Mn(CoO4)2
_chemical_formula_sum   'Li5 Mn1 Co2 O8'
_cell_volume   141.09797552
_cell_formula_units_Z   1
loop_
 _symmetry_equiv_pos_site_id
 _symmetry_equiv_pos_as_xyz
  1  'x, y, z'
loop_
 _atom_site_type_symbol
 _atom_site_label
 _atom_site_symmetry_multiplicity
 _atom_site_fract_x
 _atom_site_fract_y
 _atom_site_fract_z
 _atom_site_occupancy
  Li  Li0  1  0.50034800  0.75011530  0.49794598  1
  Li  Li1  1  0.00111242  -0.00058552  0.49993044  1
  Li  Li2  1  0.49965200  0.25216932  0.50205402  1
  Li  Li3  1  -0.00111242  0.49948404  0.50006956  1
  Li  Li4  1  0.50000000  0.24977664  0.00000000  1
  Mn  Mn5  1  0.00000000  0.00114341  0.00000000  1
  Co  Co6  1  1.00000000  0.49246537  1.00000000  1
  Co  Co7  1  0.50000000  0.75046563  1.00000000  1
  O  O8  1  0.74954964  0.08908520  0.21426598  1
  O  O9  1  0.22208830  0.35545620  0.23534828  1
  O  O10  1  0.74318724  0.62934657  0.21323201  1
  O  O11  1  0.24003225  0.88000457  0.23997297  1
  O  O12  1  0.25681276  0.41611456  0.78676799  1
  O  O13  1  0.75996775  0.64003159  0.76002703  1
  O  O14  1  0.25045036  0.87481922  0.78573402  1
  O  O15  1  0.77791170  0.12010792  0.76465172  1
