# generated using pymatgen
data_Y5Pb4
_symmetry_space_group_name_H-M   'P 1'
_cell_length_a   9.06231361
_cell_length_b   9.18245363
_cell_length_c   17.51300949
_cell_angle_alpha   89.98387104
_cell_angle_beta   89.98586890
_cell_angle_gamma   90.05304852
_symmetry_Int_Tables_number   1
_chemical_formula_structural   Y5Pb4
_chemical_formula_sum   'Y20 Pb16'
_cell_volume   1457.33165164
_cell_formula_units_Z   4
loop_
 _symmetry_equiv_pos_site_id
 _symmetry_equiv_pos_as_xyz
  1  'x, y, z'
loop_
 _atom_site_type_symbol
 _atom_site_label
 _atom_site_symmetry_multiplicity
 _atom_site_fract_x
 _atom_site_fract_y
 _atom_site_fract_z
 _atom_site_occupancy
  Y  Y0  1  0.29008735  0.00212332  0.25002196  1
  Y  Y1  1  0.97313161  0.81928765  0.10013171  1
  Y  Y2  1  0.52714010  0.31976059  0.60009749  1
  Y  Y3  1  0.52711455  0.31981888  0.89990500  1
  Y  Y4  1  0.37941972  0.83903499  0.61724673  1
  Y  Y5  1  0.97303984  0.81972197  0.39975563  1
  Y  Y6  1  0.20937270  0.50208896  0.75008392  1
  Y  Y7  1  0.87966628  0.66103020  0.61739333  1
  Y  Y8  1  0.12008268  0.33896092  0.38255767  1
  Y  Y9  1  0.79009571  0.49766816  0.24977183  1
  Y  Y10  1  0.12051727  0.33916263  0.11744954  1
  Y  Y11  1  0.70971080  0.99816489  0.75003190  1
  Y  Y12  1  0.02729756  0.18023792  0.89986130  1
  Y  Y13  1  0.87957753  0.66136942  0.88241983  1
  Y  Y14  1  0.02656764  0.18068196  0.60017847  1
  Y  Y15  1  0.47357129  0.68042277  0.10019566  1
  Y  Y16  1  0.47319720  0.68045351  0.39997564  1
  Y  Y17  1  0.62080109  0.16114636  0.38265107  1
  Y  Y18  1  0.37953379  0.83871685  0.88257732  1
  Y  Y19  1  0.62061417  0.16144920  0.11715477  1
  Pb  Pb20  1  0.33131992  0.14041555  0.75025554  1
  Pb  Pb21  1  0.21769759  0.53046316  0.95659937  1
  Pb  Pb22  1  0.42322359  0.38125844  0.25008362  1
  Pb  Pb23  1  0.71728953  0.96924927  0.54323906  1
  Pb  Pb24  1  0.78265004  0.46926839  0.45663743  1
  Pb  Pb25  1  0.07670821  0.88151251  0.75012284  1
  Pb  Pb26  1  0.83133606  0.35976942  0.75003415  1
  Pb  Pb27  1  0.57680004  0.61824065  0.75017179  1
  Pb  Pb28  1  0.28265487  0.03027344  0.04323633  1
  Pb  Pb29  1  0.78254229  0.46924892  0.04358620  1
  Pb  Pb30  1  0.66773722  0.85936250  0.25017942  1
  Pb  Pb31  1  0.71768220  0.96955330  0.95672080  1
  Pb  Pb32  1  0.28271659  0.03074301  0.45659903  1
  Pb  Pb33  1  0.16840811  0.64071612  0.25007589  1
  Pb  Pb34  1  0.21741184  0.53004031  0.54321606  1
  Pb  Pb35  1  0.92328304  0.11858386  0.24978169  1
