# generated using pymatgen
data_Li4MnCo2O7
_symmetry_space_group_name_H-M   'P 1'
_cell_length_a   5.03553462
_cell_length_b   7.68877018
_cell_length_c   6.59198366
_cell_angle_alpha   94.06569733
_cell_angle_beta   82.20679412
_cell_angle_gamma   103.00712482
_symmetry_Int_Tables_number   1
_chemical_formula_structural   Li4MnCo2O7
_chemical_formula_sum   'Li8 Mn2 Co4 O14'
_cell_volume   246.16139128
_cell_formula_units_Z   2
loop_
 _symmetry_equiv_pos_site_id
 _symmetry_equiv_pos_as_xyz
  1  'x, y, z'
loop_
 _atom_site_type_symbol
 _atom_site_label
 _atom_site_symmetry_multiplicity
 _atom_site_fract_x
 _atom_site_fract_y
 _atom_site_fract_z
 _atom_site_occupancy
  Li  Li0  1  0.79038146  0.07581067  0.43443206  1
  Li  Li1  1  0.93171679  0.35759758  0.13889194  1
  Li  Li2  1  0.64600986  0.78603964  0.71518019  1
  Li  Li3  1  0.49196117  0.49522772  0.98995892  1
  Li  Li4  1  0.35322916  0.21576098  0.28876861  1
  Li  Li5  1  0.21632890  0.93554548  0.57448802  1
  Li  Li6  1  0.07307671  0.63473142  0.85269370  1
  Li  Li7  1  0.14236309  0.28449608  0.71605272  1
  Mn  Mn8  1  0.00415785  0.00683570  0.99257528  1
  Mn  Mn9  1  0.71044256  0.42408460  0.57976901  1
  Co  Co10  1  0.28125223  0.56290299  0.43787684  1
  Co  Co11  1  0.42718542  0.85467414  0.14114426  1
  Co  Co12  1  0.57113220  0.14451349  0.85522452  1
  Co  Co13  1  0.85460554  0.71358711  0.28754880  1
  O  O14  1  0.68266525  0.09605395  0.11989040  1
  O  O15  1  0.79925725  0.38275842  0.84273302  1
  O  O16  1  0.53492170  0.80955749  0.41578249  1
  O  O17  1  0.41316888  0.53183819  0.70049000  1
  O  O18  1  0.25331351  0.23132807  0.99425306  1
  O  O19  1  0.10203172  0.96139246  0.26813782  1
  O  O20  1  0.95661622  0.66516950  0.56612601  1
  O  O21  1  0.87968794  0.03857668  0.73910250  1
  O  O22  1  0.02909231  0.33938401  0.43286467  1
  O  O23  1  0.76011890  0.76489807  0.00989156  1
  O  O24  1  0.61274137  0.46571734  0.30614926  1
  O  O25  1  0.48909724  0.18805052  0.58642791  1
  O  O26  1  0.31225250  0.91100120  0.86642344  1
  O  O27  1  0.18119226  0.62246650  0.14712301  1
