# generated using pymatgen
data_Li4MnCo2O7
_symmetry_space_group_name_H-M   'P 1'
_cell_length_a   5.05237748
_cell_length_b   5.11907771
_cell_length_c   10.41466341
_cell_angle_alpha   85.00222187
_cell_angle_beta   103.41735969
_cell_angle_gamma   109.57073028
_symmetry_Int_Tables_number   1
_chemical_formula_structural   Li4MnCo2O7
_chemical_formula_sum   'Li8 Mn2 Co4 O14'
_cell_volume   246.85828626
_cell_formula_units_Z   2
loop_
 _symmetry_equiv_pos_site_id
 _symmetry_equiv_pos_as_xyz
  1  'x, y, z'
loop_
 _atom_site_type_symbol
 _atom_site_label
 _atom_site_symmetry_multiplicity
 _atom_site_fract_x
 _atom_site_fract_y
 _atom_site_fract_z
 _atom_site_occupancy
  Li  Li0  1  0.06526129  0.49568823  0.14125208  1
  Li  Li1  1  0.63402692  0.49920399  0.27554394  1
  Li  Li2  1  0.20845712  0.50034096  0.42456244  1
  Li  Li3  1  0.78471272  0.50035992  0.57384163  1
  Li  Li4  1  0.36375631  0.50190916  0.71716834  1
  Li  Li5  1  0.93486684  0.50088841  0.85979391  1
  Li  Li6  1  0.50734999  0.49514750  0.00551138  1
  Li  Li7  1  0.57164307  0.99837422  0.14415235  1
  Mn  Mn8  1  0.00442813  0.00471975  0.00706373  1
  Mn  Mn9  1  0.70805411  0.99810924  0.42073978  1
  Co  Co10  1  0.13937295  0.99873326  0.28375478  1
  Co  Co11  1  0.28161116  0.99668569  0.57357481  1
  Co  Co12  1  0.85908935  0.00382132  0.71526042  1
  Co  Co13  1  0.43532768  0.00000370  0.86591904  1
  O  O14  1  0.76332842  0.23070296  0.99732346  1
  O  O15  1  0.29300022  0.22778620  0.14219176  1
  O  O16  1  0.89467939  0.22328784  0.29348946  1
  O  O17  1  0.45282048  0.21482518  0.42484005  1
  O  O18  1  0.01365373  0.22758513  0.56607432  1
  O  O19  1  0.59543110  0.23185995  0.71538183  1
  O  O20  1  0.16933241  0.23021760  0.86125255  1
  O  O21  1  0.39576831  0.77697418  0.29495968  1
  O  O22  1  0.95478400  0.77737574  0.42124790  1
  O  O23  1  0.55090425  0.77367909  0.56881496  1
  O  O24  1  0.11739839  0.76629547  0.70778347  1
  O  O25  1  0.70249959  0.77541952  0.86299581  1
  O  O26  1  0.24582447  0.77686243  0.99245718  1
  O  O27  1  0.85261762  0.77314337  0.14304892  1
