# generated using pymatgen
data_ZnCrO3
_symmetry_space_group_name_H-M   'P 1'
_cell_length_a   5.10553355
_cell_length_b   5.12704890
_cell_length_c   7.64697345
_cell_angle_alpha   90.00791666
_cell_angle_beta   90.00937515
_cell_angle_gamma   89.99869750
_symmetry_Int_Tables_number   1
_chemical_formula_structural   ZnCrO3
_chemical_formula_sum   'Zn4 Cr4 O12'
_cell_volume   200.16962083
_cell_formula_units_Z   4
loop_
 _symmetry_equiv_pos_site_id
 _symmetry_equiv_pos_as_xyz
  1  'x, y, z'
loop_
 _atom_site_type_symbol
 _atom_site_label
 _atom_site_symmetry_multiplicity
 _atom_site_fract_x
 _atom_site_fract_y
 _atom_site_fract_z
 _atom_site_occupancy
  Zn  Zn0  1  0.01431378  0.03038096  0.25001124  1
  Zn  Zn1  1  0.51408643  0.46948632  0.74996564  1
  Zn  Zn2  1  0.48571764  0.53065310  0.25001299  1
  Zn  Zn3  1  0.98598037  0.96921886  0.74998413  1
  Cr  Cr4  1  0.50010927  0.00003674  0.00008091  1
  Cr  Cr5  1  0.99977913  0.49986861  0.00021533  1
  Cr  Cr6  1  0.99982454  0.49996356  0.49986605  1
  Cr  Cr7  1  0.50010438  0.00012091  0.49985510  1
  O  O8  1  0.89451377  0.57850748  0.75003356  1
  O  O9  1  0.39457831  0.92138352  0.24996689  1
  O  O10  1  0.60557886  0.07868614  0.74997231  1
  O  O11  1  0.10546957  0.42123612  0.25003484  1
  O  O12  1  0.66797621  0.32094472  0.43944863  1
  O  O13  1  0.16796599  0.17927000  0.56019200  1
  O  O14  1  0.83203949  0.82081090  0.06049638  1
  O  O15  1  0.33205283  0.67924808  0.93984656  1
  O  O16  1  0.66794302  0.32081291  0.06058205  1
  O  O17  1  0.16797416  0.17921284  0.93977108  1
  O  O18  1  0.33199310  0.67930139  0.56013189  1
  O  O19  1  0.83199914  0.82085884  0.43953044  1
