# generated using pymatgen
data_Li4MnCo2O7
_symmetry_space_group_name_H-M   'P 1'
_cell_length_a   5.03255144
_cell_length_b   6.59568956
_cell_length_c   7.75508606
_cell_angle_alpha   93.80725269
_cell_angle_beta   76.73050228
_cell_angle_gamma   97.29024281
_symmetry_Int_Tables_number   1
_chemical_formula_structural   Li4MnCo2O7
_chemical_formula_sum   'Li8 Mn2 Co4 O14'
_cell_volume   248.33236038
_cell_formula_units_Z   2
loop_
 _symmetry_equiv_pos_site_id
 _symmetry_equiv_pos_as_xyz
  1  'x, y, z'
loop_
 _atom_site_type_symbol
 _atom_site_label
 _atom_site_symmetry_multiplicity
 _atom_site_fract_x
 _atom_site_fract_y
 _atom_site_fract_z
 _atom_site_occupancy
  Li  Li0  1  0.07766486  0.14741081  0.36160662  1
  Li  Li1  1  0.34877118  0.70464791  0.77414651  1
  Li  Li2  1  0.49770915  0.99347276  0.50072417  1
  Li  Li3  1  0.77171821  0.56936039  0.92886593  1
  Li  Li4  1  0.93879961  0.85177326  0.63525497  1
  Li  Li5  1  0.21683542  0.43352842  0.07527888  1
  Li  Li6  1  0.63449622  0.29442453  0.22316034  1
  Li  Li7  1  0.28601348  0.57654407  0.42411982  1
  Mn  Mn8  1  0.00129477  0.99838915  0.99981326  1
  Mn  Mn9  1  0.85483297  0.71170853  0.28932012  1
  Co  Co10  1  0.58086700  0.14521196  0.85027928  1
  Co  Co11  1  0.15679185  0.29188117  0.70197084  1
  Co  Co12  1  0.42915221  0.85579306  0.14456424  1
  Co  Co13  1  0.72460712  0.43999141  0.57303232  1
  O  O14  1  0.74801475  0.98029964  0.23463399  1
  O  O15  1  0.01611971  0.55587500  0.68088982  1
  O  O16  1  0.16856242  0.85170340  0.37038588  1
  O  O17  1  0.45767610  0.41901443  0.82069553  1
  O  O18  1  0.62575929  0.71243260  0.52133482  1
  O  O19  1  0.90027209  0.26119254  0.96035372  1
  O  O20  1  0.31717024  0.12085957  0.09417303  1
  O  O21  1  0.39353807  0.28430017  0.48093861  1
  O  O22  1  0.68967972  0.86985544  0.91291666  1
  O  O23  1  0.81166444  0.14690822  0.61897689  1
  O  O24  1  0.11212333  0.73586475  0.05097036  1
  O  O25  1  0.24018190  0.00181378  0.76848386  1
  O  O26  1  0.55269900  0.59844115  0.18210209  1
  O  O27  1  0.94698489  0.44730188  0.32100745  1
