# generated using pymatgen
data_Li4MnCo2O7
_symmetry_space_group_name_H-M   'P 1'
_cell_length_a   5.02167028
_cell_length_b   5.11718826
_cell_length_c   10.50411804
_cell_angle_alpha   107.92460319
_cell_angle_beta   76.74859045
_cell_angle_gamma   99.72537966
_symmetry_Int_Tables_number   1
_chemical_formula_structural   Li4MnCo2O7
_chemical_formula_sum   'Li8 Mn2 Co4 O14'
_cell_volume   248.56853567
_cell_formula_units_Z   2
loop_
 _symmetry_equiv_pos_site_id
 _symmetry_equiv_pos_as_xyz
  1  'x, y, z'
loop_
 _atom_site_type_symbol
 _atom_site_label
 _atom_site_symmetry_multiplicity
 _atom_site_fract_x
 _atom_site_fract_y
 _atom_site_fract_z
 _atom_site_occupancy
  Li  Li0  1  0.70082420  0.48553708  0.06239697  1
  Li  Li1  1  0.57368298  0.49885159  0.35924487  1
  Li  Li2  1  0.15697272  0.49609011  0.20986911  1
  Li  Li3  1  0.99546958  0.50502822  0.50727021  1
  Li  Li4  1  0.41076111  0.52187314  0.65550075  1
  Li  Li5  1  0.84237293  0.50348916  0.78915764  1
  Li  Li6  1  0.29720883  0.50117414  0.92300112  1
  Li  Li7  1  0.56427241  0.00348205  0.86215708  1
  Mn  Mn8  1  0.00091482  0.99830798  0.99669172  1
  Mn  Mn9  1  0.86296310  0.99255146  0.28242797  1
  Co  Co10  1  0.71601956  0.00346079  0.58116805  1
  Co  Co11  1  0.43302166  0.99497369  0.14001998  1
  Co  Co12  1  0.28988932  0.99526557  0.43286104  1
  Co  Co13  1  0.14457860  0.01569863  0.72166367  1
  O  O14  1  0.93949619  0.23310170  0.90020724  1
  O  O15  1  0.78346262  0.21172104  0.17321277  1
  O  O16  1  0.33824817  0.21969793  0.04215668  1
  O  O17  1  0.21508906  0.20891752  0.31130440  1
  O  O18  1  0.66247818  0.21771434  0.44875722  1
  O  O19  1  0.07278737  0.23956876  0.60039819  1
  O  O20  1  0.48584559  0.24252570  0.74126825  1
  O  O21  1  0.52059243  0.77326678  0.24713978  1
  O  O22  1  0.35263237  0.76722646  0.53335249  1
  O  O23  1  0.93275580  0.76769836  0.38411046  1
  O  O24  1  0.79138910  0.77477416  0.67213683  1
  O  O25  1  0.18533844  0.76966524  0.83267968  1
  O  O26  1  0.65059708  0.77682567  0.97789808  1
  O  O27  1  0.08033575  0.78151273  0.11194773  1
