# generated using pymatgen
data_Li7Mn2(CoO4)3
_symmetry_space_group_name_H-M   'P 1'
_cell_length_a   5.07290566
_cell_length_b   6.51997089
_cell_length_c   6.63239982
_cell_angle_alpha   83.31299033
_cell_angle_beta   98.06513028
_cell_angle_gamma   97.08607178
_symmetry_Int_Tables_number   1
_chemical_formula_structural   Li7Mn2(CoO4)3
_chemical_formula_sum   'Li7 Mn2 Co3 O12'
_cell_volume   214.43927039
_cell_formula_units_Z   1
loop_
 _symmetry_equiv_pos_site_id
 _symmetry_equiv_pos_as_xyz
  1  'x, y, z'
loop_
 _atom_site_type_symbol
 _atom_site_label
 _atom_site_symmetry_multiplicity
 _atom_site_fract_x
 _atom_site_fract_y
 _atom_site_fract_z
 _atom_site_occupancy
  Li  Li0  1  0.74531276  0.24772677  0.24805538  1
  Li  Li1  1  0.73954535  0.58445067  0.92619705  1
  Li  Li2  1  0.26045465  0.08221533  0.40713695  1
  Li  Li3  1  0.25468724  0.41894023  0.08527762  1
  Li  Li4  1  0.74581700  0.91779769  0.58277112  1
  Li  Li5  1  0.25418300  0.74886931  0.75056188  1
  Li  Li6  1  0.50000000  0.83333300  0.16666700  1
  Mn  Mn7  1  0.00116931  0.99828843  0.00486948  1
  Mn  Mn8  1  -0.00116931  0.66837857  0.32846352  1
  Co  Co9  1  0.00000000  0.33333300  0.66666700  1
  Co  Co10  1  0.49777495  0.15848588  0.84187132  1
  Co  Co11  1  0.50222505  0.50818112  0.49146168  1
  O  O12  1  0.87897774  0.27559388  0.95340320  1
  O  O13  1  0.88197023  0.62640618  0.60101728  1
  O  O14  1  0.35064588  0.11890423  0.10964101  1
  O  O15  1  0.36698071  0.44151285  0.78311291  1
  O  O16  1  0.89443136  0.94677762  0.27775068  1
  O  O17  1  0.35889359  0.76964111  0.45474568  1
  O  O18  1  0.63301929  0.22515415  0.55022009  1
  O  O19  1  0.64935412  0.54776177  0.22369299  1
  O  O20  1  0.11802977  0.04025982  0.73231672  1
  O  O21  1  0.12102226  0.39107312  0.37992980  1
  O  O22  1  0.64110641  0.89702589  0.87858732  1
  O  O23  1  0.10556864  0.71988938  0.05558232  1
