# generated using pymatgen
data_Li7Mn2(CoO4)3
_symmetry_space_group_name_H-M   'P 1'
_cell_length_a   5.08232862
_cell_length_b   8.73241857
_cell_length_c   5.15909235
_cell_angle_alpha   106.79859020
_cell_angle_beta   79.95523369
_cell_angle_gamma   95.04330735
_symmetry_Int_Tables_number   1
_chemical_formula_structural   Li7Mn2(CoO4)3
_chemical_formula_sum   'Li7 Mn2 Co3 O12'
_cell_volume   215.66430946
_cell_formula_units_Z   1
loop_
 _symmetry_equiv_pos_site_id
 _symmetry_equiv_pos_as_xyz
  1  'x, y, z'
loop_
 _atom_site_type_symbol
 _atom_site_label
 _atom_site_symmetry_multiplicity
 _atom_site_fract_x
 _atom_site_fract_y
 _atom_site_fract_z
 _atom_site_occupancy
  Li  Li0  1  0.26050880  0.91655137  0.42306702  1
  Li  Li1  1  0.74120870  0.07961651  0.58185461  1
  Li  Li2  1  0.25072978  0.25109161  0.75212788  1
  Li  Li3  1  0.25879130  0.58704949  0.08481139  1
  Li  Li4  1  0.73949120  0.75011563  0.24359998  1
  Li  Li5  1  0.74927022  0.41557539  0.91453912  1
  Li  Li6  1  0.50000000  0.83333300  0.83333300  1
  Mn  Mn7  1  0.00119952  0.99715636  0.99175013  1
  Mn  Mn8  1  0.99880048  0.66951064  0.67491687  1
  Co  Co9  1  0.49742215  0.15798816  0.15471944  1
  Co  Co10  1  0.00000000  0.33333300  0.33333300  1
  Co  Co11  1  0.50257785  0.50867884  0.51194756  1
  O  O12  1  0.10599701  0.79568177  0.01726186  1
  O  O13  1  0.64048695  0.97247871  0.19730129  1
  O  O14  1  0.11722354  0.11531673  0.33997535  1
  O  O15  1  0.12147536  0.46754079  0.70142586  1
  O  O16  1  0.64882803  0.62381713  0.85609683  1
  O  O17  1  0.63375224  0.30060753  0.52217921  1
  O  O18  1  0.35117197  0.04284987  0.81057017  1
  O  O19  1  0.87852464  0.19912521  0.96524014  1
  O  O20  1  0.36624776  0.36605947  0.14448779  1
  O  O21  1  0.35951305  0.69418729  0.46936471  1
  O  O22  1  0.89400299  0.87098523  0.64940514  1
  O  O23  1  0.88277646  0.55135027  0.32669165  1
