# generated using pymatgen
data_Li7Mn2(CoO4)3
_symmetry_space_group_name_H-M   'P 1'
_cell_length_a   5.86636938
_cell_length_b   5.87228623
_cell_length_c   6.44107163
_cell_angle_alpha   103.55216301
_cell_angle_beta   104.64841018
_cell_angle_gamma   89.00193105
_symmetry_Int_Tables_number   1
_chemical_formula_structural   Li7Mn2(CoO4)3
_chemical_formula_sum   'Li7 Mn2 Co3 O12'
_cell_volume   208.49235007
_cell_formula_units_Z   1
loop_
 _symmetry_equiv_pos_site_id
 _symmetry_equiv_pos_as_xyz
  1  'x, y, z'
loop_
 _atom_site_type_symbol
 _atom_site_label
 _atom_site_symmetry_multiplicity
 _atom_site_fract_x
 _atom_site_fract_y
 _atom_site_fract_z
 _atom_site_occupancy
  Li  Li0  1  0.16666700  0.16666700  0.66666700  1
  Li  Li1  1  0.82964787  0.33065987  0.33678849  1
  Li  Li2  1  0.50349101  0.49301381  0.98960668  1
  Li  Li3  1  0.16666700  0.66666700  0.66666700  1
  Li  Li4  1  0.82984199  0.84031919  0.34372632  1
  Li  Li5  1  0.50368513  0.00267313  0.99654451  1
  Li  Li6  1  0.66666700  0.16666700  0.66666700  1
  Mn  Mn7  1  0.99303671  0.00085323  0.99427326  1
  Mn  Mn8  1  0.34029629  0.33247977  0.33905974  1
  Co  Co9  1  0.99191790  0.49468574  0.99541104  1
  Co  Co10  1  0.66666700  0.66666700  0.66666700  1
  Co  Co11  1  0.34141510  0.83864726  0.33792196  1
  O  O12  1  0.90778570  0.90355315  0.68315419  1
  O  O13  1  0.56762913  0.09885742  0.33318925  1
  O  O14  1  0.22951987  0.24083106  0.00758813  1
  O  O15  1  0.91140074  0.43919127  0.69323836  1
  O  O16  1  0.56544152  0.57375054  0.34339988  1
  O  O17  1  0.24217869  0.76862653  0.02309834  1
  O  O18  1  0.42554830  0.42978085  0.65017981  1
  O  O19  1  0.09115431  0.56470647  0.31023466  1
  O  O20  1  0.76789148  0.75958246  0.98993312  1
  O  O21  1  0.42193326  0.89414273  0.64009564  1
  O  O22  1  0.10381313  0.09250194  0.32574487  1
  O  O23  1  0.76570387  0.23447558  0.00014375  1
