# generated using pymatgen
data_Li7Mn2(CoO4)3
_symmetry_space_group_name_H-M   'P 1'
_cell_length_a   5.14574425
_cell_length_b   7.68370911
_cell_length_c   5.81979177
_cell_angle_alpha   100.79678422
_cell_angle_beta   89.87548104
_cell_angle_gamma   109.05908000
_symmetry_Int_Tables_number   1
_chemical_formula_structural   Li7Mn2(CoO4)3
_chemical_formula_sum   'Li7 Mn2 Co3 O12'
_cell_volume   213.20960477
_cell_formula_units_Z   1
loop_
 _symmetry_equiv_pos_site_id
 _symmetry_equiv_pos_as_xyz
  1  'x, y, z'
loop_
 _atom_site_type_symbol
 _atom_site_label
 _atom_site_symmetry_multiplicity
 _atom_site_fract_x
 _atom_site_fract_y
 _atom_site_fract_z
 _atom_site_occupancy
  Li  Li0  1  0.50271967  0.99309301  0.74888460  1
  Li  Li1  1  0.83061333  0.34023999  0.58444840  1
  Li  Li2  1  0.17870304  0.67137877  0.42298818  1
  Li  Li3  1  0.49947007  0.99791290  0.24882920  1
  Li  Li4  1  0.83386293  0.33542010  0.08450380  1
  Li  Li5  1  0.15463096  0.66195523  0.91034582  1
  Li  Li6  1  0.66666700  0.66666700  0.66666700  1
  Mn  Mn7  1  0.00608865  0.99446479  0.99945240  1
  Mn  Mn8  1  0.32724435  0.33886821  0.33388060  1
  Co  Co9  1  0.34282504  0.34574673  0.83135275  1
  Co  Co10  1  0.99050796  0.98758627  0.50198025  1
  Co  Co11  1  0.66666700  0.66666700  0.16666700  1
  O  O12  1  0.09416535  0.84977526  0.72372537  1
  O  O13  1  0.39827229  0.17708244  0.53174971  1
  O  O14  1  0.70367340  0.49624820  0.35781079  1
  O  O15  1  0.08962053  0.84368481  0.20051384  1
  O  O16  1  0.38915904  0.17072896  0.05145129  1
  O  O17  1  0.71550046  0.49601254  0.88659655  1
  O  O18  1  0.93506071  0.15625056  0.80158329  1
  O  O19  1  0.23916765  0.48355774  0.60960763  1
  O  O20  1  0.61783354  0.83732146  0.44673745  1
  O  O21  1  0.94417396  0.16260404  0.28188171  1
  O  O22  1  0.24371247  0.48964819  0.13281916  1
  O  O23  1  0.62966060  0.83708580  0.97552321  1
