# generated using pymatgen
data_Li5Mn3O8
_symmetry_space_group_name_H-M   'P 1'
_cell_length_a   2.91095593
_cell_length_b   9.83004109
_cell_length_c   5.09681186
_cell_angle_alpha   79.56640389
_cell_angle_beta   90.29429874
_cell_angle_gamma   91.57215456
_symmetry_Int_Tables_number   1
_chemical_formula_structural   Li5Mn3O8
_chemical_formula_sum   'Li5 Mn3 O8'
_cell_volume   143.37887046
_cell_formula_units_Z   1
loop_
 _symmetry_equiv_pos_site_id
 _symmetry_equiv_pos_as_xyz
  1  'x, y, z'
loop_
 _atom_site_type_symbol
 _atom_site_label
 _atom_site_symmetry_multiplicity
 _atom_site_fract_x
 _atom_site_fract_y
 _atom_site_fract_z
 _atom_site_occupancy
  Li  Li0  1  0.00000000  0.25000000  0.25000000  1
  Li  Li1  1  0.50107190  0.49186121  0.99749349  1
  Li  Li2  1  0.00000000  0.75000000  0.75000000  1
  Li  Li3  1  0.49892810  0.00813879  0.50250651  1
  Li  Li4  1  0.50000000  0.25000000  0.75000000  1
  Mn  Mn5  1  0.99494306  0.00968567  0.98183452  1
  Mn  Mn6  1  0.00505694  0.49031433  0.51816548  1
  Mn  Mn7  1  0.50000000  0.75000000  0.25000000  1
  O  O8  1  0.50546179  0.11012696  0.11047954  1
  O  O9  1  0.99497055  0.38573434  0.84989365  1
  O  O10  1  0.51655021  0.61237724  0.61217644  1
  O  O11  1  0.96919333  0.87118528  0.35061948  1
  O  O12  1  0.49453821  0.38987304  0.38952046  1
  O  O13  1  0.03080667  0.62881472  0.14938052  1
  O  O14  1  0.48344979  0.88762276  0.88782356  1
  O  O15  1  0.00502945  0.11426566  0.65010635  1
