# generated using pymatgen
data_Li5Mn3O8
_symmetry_space_group_name_H-M   'P 1'
_cell_length_a   2.91814960
_cell_length_b   5.95579225
_cell_length_c   8.25217596
_cell_angle_alpha   90.02109278
_cell_angle_beta   89.30680032
_cell_angle_gamma   91.94285499
_symmetry_Int_Tables_number   1
_chemical_formula_structural   Li5Mn3O8
_chemical_formula_sum   'Li5 Mn3 O8'
_cell_volume   143.32899440
_cell_formula_units_Z   1
loop_
 _symmetry_equiv_pos_site_id
 _symmetry_equiv_pos_as_xyz
  1  'x, y, z'
loop_
 _atom_site_type_symbol
 _atom_site_label
 _atom_site_symmetry_multiplicity
 _atom_site_fract_x
 _atom_site_fract_y
 _atom_site_fract_z
 _atom_site_occupancy
  Li  Li0  1  0.00038442  0.50685646  0.01748931  1
  Li  Li1  1  0.50000000  0.25000000  0.25000000  1
  Li  Li2  1  0.50000000  0.75000000  0.75000000  1
  Li  Li3  1  0.99961558  0.99314354  0.48251069  1
  Li  Li4  1  0.50000000  0.75000000  0.25000000  1
  Mn  Mn5  1  0.00429998  0.99324747  0.01301454  1
  Mn  Mn6  1  0.99570002  0.50675253  0.48698546  1
  Mn  Mn7  1  0.50000000  0.25000000  0.75000000  1
  O  O8  1  0.51863728  0.22175445  0.99684525  1
  O  O9  1  0.99695249  0.00097922  0.23137678  1
  O  O10  1  0.96282649  0.48675420  0.74022659  1
  O  O11  1  0.50915059  0.72178096  0.50098896  1
  O  O12  1  0.49084941  0.77821904  0.99901104  1
  O  O13  1  0.00304751  0.49902078  0.26862322  1
  O  O14  1  0.03717351  0.01324580  0.75977341  1
  O  O15  1  0.48136272  0.27824555  0.50315475  1
