# generated using pymatgen
data_Li7Mn2(CoO4)3
_symmetry_space_group_name_H-M   'P 1'
_cell_length_a   5.16893312
_cell_length_b   7.67568758
_cell_length_c   5.91265663
_cell_angle_alpha   77.09670867
_cell_angle_beta   71.05738295
_cell_angle_gamma   75.62102583
_symmetry_Int_Tables_number   1
_chemical_formula_structural   Li7Mn2(CoO4)3
_chemical_formula_sum   'Li7 Mn2 Co3 O12'
_cell_volume   212.30802780
_cell_formula_units_Z   1
loop_
 _symmetry_equiv_pos_site_id
 _symmetry_equiv_pos_as_xyz
  1  'x, y, z'
loop_
 _atom_site_type_symbol
 _atom_site_label
 _atom_site_symmetry_multiplicity
 _atom_site_fract_x
 _atom_site_fract_y
 _atom_site_fract_z
 _atom_site_occupancy
  Li  Li0  1  0.50333938  0.16894979  0.83239014  1
  Li  Li1  1  0.49296241  0.49836162  0.99251979  1
  Li  Li2  1  0.50258518  0.82603682  0.16041248  1
  Li  Li3  1  0.50286221  0.17288366  0.33691374  1
  Li  Li4  1  0.49708682  0.50343144  0.50670183  1
  Li  Li5  1  0.49639117  0.82820857  0.66992066  1
  Li  Li6  1  0.00130284  0.66537357  0.83480943  1
  Mn  Mn7  1  0.99405558  0.99896488  0.99319221  1
  Mn  Mn8  1  0.00264568  0.66569891  0.33103685  1
  Co  Co9  1  -0.00014346  0.33462974  0.16638927  1
  Co  Co10  1  0.99935044  0.99901820  0.49877619  1
  Co  Co11  1  0.00391491  0.34242921  0.67608175  1
  O  O12  1  0.23594584  0.08603456  0.68370683  1
  O  O13  1  0.22609836  0.40566455  0.85289920  1
  O  O14  1  0.23018223  0.76013459  0.01410248  1
  O  O15  1  0.20084051  0.08151443  0.16685225  1
  O  O16  1  0.24625032  0.43252660  0.34211683  1
  O  O17  1  0.20974781  0.76062956  0.48596023  1
  O  O18  1  0.75928720  0.23753918  0.99822355  1
  O  O19  1  0.78963529  0.57554577  0.18451767  1
  O  O20  1  0.76176499  0.90601857  0.30934933  1
  O  O21  1  0.79167946  0.24414542  0.48837481  1
  O  O22  1  0.76731243  0.57739419  0.64928112  1
  O  O23  1  0.78490240  0.92886616  0.82547140  1
