# generated using pymatgen
data_Li7Mn2(CoO4)3
_symmetry_space_group_name_H-M   'P 1'
_cell_length_a   5.05967032
_cell_length_b   7.81221628
_cell_length_c   5.87785009
_cell_angle_alpha   78.52534883
_cell_angle_beta   73.17351598
_cell_angle_gamma   78.09730100
_symmetry_Int_Tables_number   1
_chemical_formula_structural   Li7Mn2(CoO4)3
_chemical_formula_sum   'Li7 Mn2 Co3 O12'
_cell_volume   215.18866699
_cell_formula_units_Z   1
loop_
 _symmetry_equiv_pos_site_id
 _symmetry_equiv_pos_as_xyz
  1  'x, y, z'
loop_
 _atom_site_type_symbol
 _atom_site_label
 _atom_site_symmetry_multiplicity
 _atom_site_fract_x
 _atom_site_fract_y
 _atom_site_fract_z
 _atom_site_occupancy
  Li  Li0  1  0.01099964  0.99380504  0.49667879  1
  Li  Li1  1  0.99697051  0.33346131  0.16598672  1
  Li  Li2  1  0.49902470  0.83337308  0.66535142  1
  Li  Li3  1  0.50365111  0.15792662  0.33560130  1
  Li  Li4  1  0.99361137  0.67271971  0.83593374  1
  Li  Li5  1  0.49508519  0.51061972  0.00182418  1
  Li  Li6  1  0.50211773  0.83245481  0.16372554  1
  Mn  Mn7  1  0.00145045  0.99532308  0.99834367  1
  Mn  Mn8  1  0.49776722  0.50181121  0.50203021  1
  Co  Co9  1  0.99973913  0.33433239  0.66577337  1
  Co  Co10  1  0.99766916  0.67584326  0.32703611  1
  Co  Co11  1  0.49778089  0.15727668  0.84467814  1
  O  O12  1  0.77797958  0.92002931  0.31170434  1
  O  O13  1  0.77367305  0.23591600  0.98483596  1
  O  O14  1  0.25066058  0.72517239  0.49145068  1
  O  O15  1  0.24793351  0.08632885  0.14008419  1
  O  O16  1  0.73416755  0.57554235  0.65848901  1
  O  O17  1  0.25964187  0.41445771  0.81152141  1
  O  O18  1  0.23881417  0.08460026  0.68234006  1
  O  O19  1  0.25545252  0.41902321  0.35473838  1
  O  O20  1  0.76417606  0.92998444  0.83908451  1
  O  O21  1  0.72725498  0.26581502  0.51984922  1
  O  O22  1  0.22433698  0.76642285  0.00236979  1
  O  O23  1  0.75004205  0.57776069  0.20056924  1
