# generated using pymatgen
data_Ge3(MoO6)2
_symmetry_space_group_name_H-M   'P 1'
_cell_length_a   10.72749556
_cell_length_b   10.72749518
_cell_length_c   10.72749488
_cell_angle_alpha   109.47121817
_cell_angle_beta   109.47121744
_cell_angle_gamma   109.47122186
_symmetry_Int_Tables_number   1
_chemical_formula_structural   Ge3(MoO6)2
_chemical_formula_sum   'Ge12 Mo8 O48'
_cell_volume   950.32711411
_cell_formula_units_Z   4
loop_
 _symmetry_equiv_pos_site_id
 _symmetry_equiv_pos_as_xyz
  1  'x, y, z'
loop_
 _atom_site_type_symbol
 _atom_site_label
 _atom_site_symmetry_multiplicity
 _atom_site_fract_x
 _atom_site_fract_y
 _atom_site_fract_z
 _atom_site_occupancy
  Ge  Ge0  1  0.87500000  0.12500000  0.75000000  1
  Ge  Ge1  1  0.12500000  0.87500000  0.25000000  1
  Ge  Ge2  1  0.25000000  0.62500000  0.37500000  1
  Ge  Ge3  1  0.12500000  0.75000000  0.87500000  1
  Ge  Ge4  1  0.75000000  0.87500000  0.12500000  1
  Ge  Ge5  1  0.37500000  0.25000000  0.62500000  1
  Ge  Ge6  1  0.62500000  0.75000000  0.37500000  1
  Ge  Ge7  1  0.87500000  0.25000000  0.12500000  1
  Ge  Ge8  1  0.25000000  0.12500000  0.87500000  1
  Ge  Ge9  1  0.75000000  0.37500000  0.62500000  1
  Ge  Ge10  1  0.37500000  0.62500000  0.75000000  1
  Ge  Ge11  1  0.62500000  0.37500000  0.25000000  1
  Mo  Mo12  1  0.50000000  0.50000000  0.50000000  1
  Mo  Mo13  1  0.50000000  0.50000000  0.00000000  1
  Mo  Mo14  1  0.50000000  0.00000000  0.50000000  1
  Mo  Mo15  1  0.00000000  0.50000000  0.50000000  1
  Mo  Mo16  1  0.50000000  0.00000000  0.00000000  1
  Mo  Mo17  1  0.00000000  0.00000000  0.50000000  1
  Mo  Mo18  1  0.00000000  0.50000000  0.00000000  1
  Mo  Mo19  1  0.00000000  0.00000000  0.00000000  1
  O  O20  1  0.81115461  0.42003293  0.81722333  1
  O  O21  1  0.07996707  0.89112169  0.39719041  1
  O  O22  1  0.68277667  0.10280959  0.99393028  1
  O  O23  1  0.68884539  0.50606972  0.60887831  1
  O  O24  1  0.68884539  0.68277667  0.07996707  1
  O  O25  1  0.50606972  0.60887831  0.68884539  1
  O  O26  1  0.10280959  0.60887831  0.42003293  1
  O  O27  1  0.60887831  0.68884539  0.50606972  1
  O  O28  1  0.39719041  0.81722333  0.50606972  1
  O  O29  1  0.89112169  0.99393028  0.81115461  1
  O  O30  1  0.99393028  0.81115461  0.89112169  1
  O  O31  1  0.07996707  0.68884539  0.68277667  1
  O  O32  1  0.60887831  0.42003293  0.10280959  1
  O  O33  1  0.50606972  0.39719041  0.81722333  1
  O  O34  1  0.68277667  0.07996707  0.68884539  1
  O  O35  1  0.42003293  0.10280959  0.60887831  1
  O  O36  1  0.81722333  0.50606972  0.39719041  1
  O  O37  1  0.39719041  0.07996707  0.89112169  1
  O  O38  1  0.10280959  0.99393028  0.68277667  1
  O  O39  1  0.60280959  0.18277667  0.49393028  1
  O  O40  1  0.99393028  0.68277667  0.10280959  1
  O  O41  1  0.81722333  0.81115461  0.42003293  1
  O  O42  1  0.89112169  0.39719041  0.07996707  1
  O  O43  1  0.81115461  0.89112169  0.99393028  1
  O  O44  1  0.18884539  0.57996707  0.18277667  1
  O  O45  1  0.92003293  0.10887831  0.60280959  1
  O  O46  1  0.31722333  0.89719041  0.00606972  1
  O  O47  1  0.31115461  0.49393028  0.39112169  1
  O  O48  1  0.31115461  0.31722333  0.92003293  1
  O  O49  1  0.49393028  0.39112169  0.31115461  1
  O  O50  1  0.89719041  0.39112169  0.57996707  1
  O  O51  1  0.39112169  0.31115461  0.49393028  1
  O  O52  1  0.18884539  0.10887831  0.00606972  1
  O  O53  1  0.10887831  0.60280959  0.92003293  1
  O  O54  1  0.18277667  0.18884539  0.57996707  1
  O  O55  1  0.57996707  0.18277667  0.18884539  1
  O  O56  1  0.00606972  0.31722333  0.89719041  1
  O  O57  1  0.89719041  0.00606972  0.31722333  1
  O  O58  1  0.60280959  0.92003293  0.10887831  1
  O  O59  1  0.18277667  0.49393028  0.60280959  1
  O  O60  1  0.57996707  0.89719041  0.39112169  1
  O  O61  1  0.31722333  0.92003293  0.31115461  1
  O  O62  1  0.49393028  0.60280959  0.18277667  1
  O  O63  1  0.39112169  0.57996707  0.89719041  1
  O  O64  1  0.92003293  0.31115461  0.31722333  1
  O  O65  1  0.00606972  0.18884539  0.10887831  1
  O  O66  1  0.10887831  0.00606972  0.18884539  1
  O  O67  1  0.42003293  0.81722333  0.81115461  1
