# generated using pymatgen
data_Li7Mn2(CoO4)3
_symmetry_space_group_name_H-M   'P 1'
_cell_length_a   5.90802399
_cell_length_b   5.89378464
_cell_length_c   6.42852259
_cell_angle_alpha   103.04721747
_cell_angle_beta   76.82579631
_cell_angle_gamma   87.90202134
_symmetry_Int_Tables_number   1
_chemical_formula_structural   Li7Mn2(CoO4)3
_chemical_formula_sum   'Li7 Mn2 Co3 O12'
_cell_volume   211.41030081
_cell_formula_units_Z   1
loop_
 _symmetry_equiv_pos_site_id
 _symmetry_equiv_pos_as_xyz
  1  'x, y, z'
loop_
 _atom_site_type_symbol
 _atom_site_label
 _atom_site_symmetry_multiplicity
 _atom_site_fract_x
 _atom_site_fract_y
 _atom_site_fract_z
 _atom_site_occupancy
  Li  Li0  1  0.49759613  0.99431173  0.00512712  1
  Li  Li1  1  0.16930541  0.33567714  0.33557924  1
  Li  Li2  1  0.82480665  0.15400138  0.65925106  1
  Li  Li3  1  0.50813494  0.50991134  0.00135214  1
  Li  Li4  1  0.83160876  0.67354969  0.65890826  1
  Li  Li5  1  0.16608708  0.83419575  0.33846590  1
  Li  Li6  1  0.66399399  0.83143296  0.33475178  1
  Mn  Mn7  1  0.99238095  0.99378952  0.99863666  1
  Mn  Mn8  1  0.66602449  0.33287800  0.33648899  1
  Co  Co9  1  0.33851780  0.67367608  0.66707381  1
  Co  Co10  1  -0.00035184  0.50100356  0.00146468  1
  Co  Co11  1  0.33567091  0.16511160  0.66483472  1
  O  O12  1  0.24267964  0.76723502  0.99295036  1
  O  O13  1  0.91154307  0.08934258  0.31483409  1
  O  O14  1  0.54388824  0.91661822  0.66724633  1
  O  O15  1  0.21572478  0.23685880  0.98474679  1
  O  O16  1  0.60216730  0.41859591  0.65109349  1
  O  O17  1  0.90376092  0.55629798  0.31084285  1
  O  O18  1  0.74602556  0.23161276  0.01524251  1
  O  O19  1  0.42876063  0.57167484  0.34407688  1
  O  O20  1  0.12401546  0.43192719  0.68580556  1
  O  O21  1  0.78513586  0.74996696  0.99665257  1
  O  O22  1  0.07038062  0.92006738  0.68050725  1
  O  O23  1  0.43214264  0.11026361  0.35406696  1
