# generated using pymatgen
data_Li7Mn2(CoO4)3
_symmetry_space_group_name_H-M   'P 1'
_cell_length_a   5.07781092
_cell_length_b   7.64376337
_cell_length_c   5.85513135
_cell_angle_alpha   100.24264406
_cell_angle_beta   105.89542786
_cell_angle_gamma   77.70069423
_symmetry_Int_Tables_number   1
_chemical_formula_structural   Li7Mn2(CoO4)3
_chemical_formula_sum   'Li7 Mn2 Co3 O12'
_cell_volume   211.81931174
_cell_formula_units_Z   1
loop_
 _symmetry_equiv_pos_site_id
 _symmetry_equiv_pos_as_xyz
  1  'x, y, z'
loop_
 _atom_site_type_symbol
 _atom_site_label
 _atom_site_symmetry_multiplicity
 _atom_site_fract_x
 _atom_site_fract_y
 _atom_site_fract_z
 _atom_site_occupancy
  Li  Li0  1  0.50115141  0.16564507  0.17100076  1
  Li  Li1  1  0.50396513  0.16262756  0.65799427  1
  Li  Li2  1  0.49403025  0.49864355  0.49296528  1
  Li  Li3  1  0.49930895  0.49753839  0.00105012  1
  Li  Li4  1  0.50224001  0.83766302  0.83576230  1
  Li  Li5  1  0.50031426  0.83976272  0.34031747  1
  Li  Li6  1  0.99868382  -0.00055327  0.49811325  1
  Mn  Mn7  1  0.00119184  -0.00192086  0.00296739  1
  Mn  Mn8  1  0.00109631  0.66891748  0.17530182  1
  Co  Co9  1  0.99273969  0.32605624  0.33678617  1
  Co  Co10  1  0.00698621  0.32455833  0.82589763  1
  Co  Co11  1  0.00126350  0.66758276  0.66701951  1
  O  O12  1  0.22541512  0.09104350  0.84225042  1
  O  O13  1  0.23121999  0.08468671  0.30964894  1
  O  O14  1  0.21924046  0.42640302  0.16466088  1
  O  O15  1  0.22535230  0.42851542  0.65902073  1
  O  O16  1  0.22025555  0.73842864  0.48835193  1
  O  O17  1  0.23378428  0.76078187  0.01990363  1
  O  O18  1  0.76080333  0.26325383  0.49756076  1
  O  O19  1  0.76611503  0.23414948  0.99732390  1
  O  O20  1  0.79159661  0.58408367  0.84976740  1
  O  O21  1  0.76142747  0.58742079  0.31715838  1
  O  O22  1  0.77820157  0.90764363  0.15862031  1
  O  O23  1  0.78361693  0.90706847  0.69055674  1
