# generated using pymatgen
data_Li4MnCo2O7
_symmetry_space_group_name_H-M   'P 1'
_cell_length_a   4.97866881
_cell_length_b   5.10145740
_cell_length_c   10.61728141
_cell_angle_alpha   85.69728006
_cell_angle_beta   103.33200232
_cell_angle_gamma   108.33911935
_symmetry_Int_Tables_number   1
_chemical_formula_structural   Li4MnCo2O7
_chemical_formula_sum   'Li8 Mn2 Co4 O14'
_cell_volume   249.06760075
_cell_formula_units_Z   2
loop_
 _symmetry_equiv_pos_site_id
 _symmetry_equiv_pos_as_xyz
  1  'x, y, z'
loop_
 _atom_site_type_symbol
 _atom_site_label
 _atom_site_symmetry_multiplicity
 _atom_site_fract_x
 _atom_site_fract_y
 _atom_site_fract_z
 _atom_site_occupancy
  Li  Li0  1  0.07549306  0.50218467  0.14502556  1
  Li  Li1  1  0.64590325  0.49990526  0.28900550  1
  Li  Li2  1  0.22058221  0.49856082  0.44174653  1
  Li  Li3  1  0.78904697  0.49916818  0.57908873  1
  Li  Li4  1  0.34405190  0.49906381  0.69887760  1
  Li  Li5  1  0.92362681  0.49842149  0.85125284  1
  Li  Li6  1  0.49861461  0.50105111  0.99776184  1
  Li  Li7  1  0.28285290  0.99754919  0.57006525  1
  Mn  Mn8  1  0.00156654  0.00192611  0.00126040  1
  Mn  Mn9  1  0.14444278  0.00094871  0.28593151  1
  Co  Co10  1  0.57386157  0.00260630  0.14306408  1
  Co  Co11  1  0.71756574  0.99901795  0.43468012  1
  Co  Co12  1  0.85675313  0.99072607  0.70737850  1
  Co  Co13  1  0.43089940  0.00605818  0.84929051  1
  O  O14  1  0.75118770  0.22087760  0.00918748  1
  O  O15  1  0.31208212  0.21865653  0.14168205  1
  O  O16  1  0.88555000  0.22035069  0.27594944  1
  O  O17  1  0.44772256  0.22429628  0.41115583  1
  O  O18  1  0.00749885  0.23964968  0.57007739  1
  O  O19  1  0.60465893  0.22550350  0.72487655  1
  O  O20  1  0.16804415  0.22904039  0.87094801  1
  O  O21  1  0.39277545  0.78177224  0.27577060  1
  O  O22  1  0.96328650  0.77563087  0.41100598  1
  O  O23  1  0.55610251  0.75645167  0.56961877  1
  O  O24  1  0.10550062  0.76551065  0.72286079  1
  O  O25  1  0.70185684  0.77176191  0.87279305  1
  O  O26  1  0.26502983  0.78832804  0.00726995  1
  O  O27  1  0.83344307  0.78498210  0.14237513  1
