# generated using pymatgen
data_Li6Mn3CoO10
_symmetry_space_group_name_H-M   'P 1'
_cell_length_a   2.88033730
_cell_length_b   9.80119851
_cell_length_c   6.68622402
_cell_angle_alpha   102.84979646
_cell_angle_beta   77.56138661
_cell_angle_gamma   90.00000276
_symmetry_Int_Tables_number   1
_chemical_formula_structural   Li6Mn3CoO10
_chemical_formula_sum   'Li6 Mn3 Co1 O10'
_cell_volume   179.48273031
_cell_formula_units_Z   1
loop_
 _symmetry_equiv_pos_site_id
 _symmetry_equiv_pos_as_xyz
  1  'x, y, z'
loop_
 _atom_site_type_symbol
 _atom_site_label
 _atom_site_symmetry_multiplicity
 _atom_site_fract_x
 _atom_site_fract_y
 _atom_site_fract_z
 _atom_site_occupancy
  Li  Li0  1  0.30485530  0.09179974  0.39028940  1
  Li  Li1  1  0.89838751  0.30098148  0.20322499  1
  Li  Li2  1  0.70508199  0.89802515  0.58983603  1
  Li  Li3  1  0.09477025  0.70128704  0.81045950  1
  Li  Li4  1  0.49688391  0.50713201  0.00623218  1
  Li  Li5  1  0.39957794  0.79919589  0.20084411  1
  Mn  Mn6  1  0.99128799  0.99369265  0.01742401  1
  Mn  Mn7  1  0.80748014  0.60469014  0.38503972  1
  Mn  Mn8  1  0.60057071  0.19976829  0.79885857  1
  Co  Co9  1  0.20202518  0.40319304  0.59594964  1
  O  O10  1  0.45195083  0.13255062  0.09609835  1
  O  O11  1  0.05440592  0.33597159  0.89118815  1
  O  O12  1  0.86070533  0.95557559  0.27858933  1
  O  O13  1  0.25273896  0.73316412  0.49452209  1
  O  O14  1  0.66302897  0.53923696  0.67394205  1
  O  O15  1  0.13875048  0.05809599  0.72249905  1
  O  O16  1  0.74732853  0.27043475  0.50534293  1
  O  O17  1  0.54610906  0.86530214  0.90778187  1
  O  O18  1  0.93783687  0.64394344  0.12432626  1
  O  O19  1  0.34622412  0.46595938  0.30755177  1
