# generated using pymatgen
data_Li7Mn2(CoO4)3
_symmetry_space_group_name_H-M   'P 1'
_cell_length_a   5.15394078
_cell_length_b   5.88362045
_cell_length_c   7.63185505
_cell_angle_alpha   80.05510352
_cell_angle_beta   83.41834098
_cell_angle_gamma   108.15455350
_symmetry_Int_Tables_number   1
_chemical_formula_structural   Li7Mn2(CoO4)3
_chemical_formula_sum   'Li7 Mn2 Co3 O12'
_cell_volume   213.06612176
_cell_formula_units_Z   1
loop_
 _symmetry_equiv_pos_site_id
 _symmetry_equiv_pos_as_xyz
  1  'x, y, z'
loop_
 _atom_site_type_symbol
 _atom_site_label
 _atom_site_symmetry_multiplicity
 _atom_site_fract_x
 _atom_site_fract_y
 _atom_site_fract_z
 _atom_site_occupancy
  Li  Li0  1  0.50470066  0.08953421  0.16513207  1
  Li  Li1  1  0.49550471  0.74647530  0.49868557  1
  Li  Li2  1  0.50421817  0.41686446  0.83778697  1
  Li  Li3  1  0.50272328  0.57930023  0.16364883  1
  Li  Li4  1  0.49602002  0.25546975  0.50052046  1
  Li  Li5  1  0.49811665  0.90983464  0.84069293  1
  Li  Li6  1  0.99965624  0.50123089  -0.00031149  1
  Mn  Mn7  1  0.00205648  0.99801755  0.99787606  1
  Mn  Mn8  1  0.00023410  0.82537072  0.66796502  1
  Co  Co9  1  0.99350638  0.66024026  0.32524447  1
  Co  Co10  1  0.00174035  0.33501500  0.66773678  1
  Co  Co11  1  0.00427243  0.17665188  0.32549854  1
  O  O12  1  0.23080867  0.27157549  0.09031692  1
  O  O13  1  0.22120292  0.94460432  0.42749144  1
  O  O14  1  0.21579470  0.62444942  0.73822335  1
  O  O15  1  0.22619367  0.80780877  0.08479839  1
  O  O16  1  0.22409929  0.45464093  0.42692080  1
  O  O17  1  0.23618662  0.09731834  0.75959687  1
  O  O18  1  0.76699776  0.88590573  0.23328186  1
  O  O19  1  0.75777906  0.56216706  0.58837874  1
  O  O20  1  0.79089417  0.20212765  0.90570567  1
  O  O21  1  0.75943176  0.37999233  0.26421272  1
  O  O22  1  0.79447020  0.04612134  0.58301303  1
  O  O23  1  0.77339171  0.72928370  0.90758400  1
