# generated using pymatgen
data_Li7Mn2(CoO4)3
_symmetry_space_group_name_H-M   'P 1'
_cell_length_a   5.16334204
_cell_length_b   8.59656021
_cell_length_c   5.15784761
_cell_angle_alpha   90.00000000
_cell_angle_beta   68.31940293
_cell_angle_gamma   90.00000000
_symmetry_Int_Tables_number   1
_chemical_formula_structural   Li7Mn2(CoO4)3
_chemical_formula_sum   'Li7 Mn2 Co3 O12'
_cell_volume   212.74545655
_cell_formula_units_Z   1
loop_
 _symmetry_equiv_pos_site_id
 _symmetry_equiv_pos_as_xyz
  1  'x, y, z'
loop_
 _atom_site_type_symbol
 _atom_site_label
 _atom_site_symmetry_multiplicity
 _atom_site_fract_x
 _atom_site_fract_y
 _atom_site_fract_z
 _atom_site_occupancy
  Li  Li0  1  0.50000000  0.16565985  0.00000000  1
  Li  Li1  1  0.50000000  0.33333300  0.50000000  1
  Li  Li2  1  0.50000000  0.50100715  0.00000000  1
  Li  Li3  1  0.50000000  0.67002162  0.50000000  1
  Li  Li4  1  0.50000000  0.83333300  0.00000000  1
  Li  Li5  1  0.50000000  0.99664538  0.50000000  1
  Li  Li6  1  0.00000000  0.83333300  0.50000000  1
  Mn  Mn7  1  0.00000000  -0.00008630  0.00000000  1
  Mn  Mn8  1  0.00000000  0.66675330  0.00000000  1
  Co  Co9  1  0.00000000  0.16535539  0.50000000  1
  Co  Co10  1  0.00000000  0.33333300  0.00000000  1
  Co  Co11  1  0.00000000  0.50131161  0.50000000  1
  O  O12  1  0.23826344  0.16176654  0.77035735  1
  O  O13  1  0.21620214  0.33333300  0.26694547  1
  O  O14  1  0.23826344  0.50490046  0.77035735  1
  O  O15  1  0.21116922  0.65670686  0.24583208  1
  O  O16  1  0.23499590  0.83333300  0.78310660  1
  O  O17  1  0.21116922  0.00996014  0.24583208  1
  O  O18  1  0.76173656  0.16176654  0.22964265  1
  O  O19  1  0.78379786  0.33333300  0.73305453  1
  O  O20  1  0.76173656  0.50490046  0.22964265  1
  O  O21  1  0.78883078  0.65670686  0.75416792  1
  O  O22  1  0.76500410  0.83333300  0.21689340  1
  O  O23  1  0.78883078  0.00996014  0.75416792  1
