# generated using pymatgen
data_Li7Mn2(CoO4)3
_symmetry_space_group_name_H-M   'P 1'
_cell_length_a   5.88332270
_cell_length_b   5.88184928
_cell_length_c   6.47666674
_cell_angle_alpha   103.32900204
_cell_angle_beta   104.59627345
_cell_angle_gamma   87.25939648
_symmetry_Int_Tables_number   1
_chemical_formula_structural   Li7Mn2(CoO4)3
_chemical_formula_sum   'Li7 Mn2 Co3 O12'
_cell_volume   211.03528408
_cell_formula_units_Z   1
loop_
 _symmetry_equiv_pos_site_id
 _symmetry_equiv_pos_as_xyz
  1  'x, y, z'
loop_
 _atom_site_type_symbol
 _atom_site_label
 _atom_site_symmetry_multiplicity
 _atom_site_fract_x
 _atom_site_fract_y
 _atom_site_fract_z
 _atom_site_occupancy
  Li  Li0  1  0.16528805  0.17404162  0.67206313  1
  Li  Li1  1  0.83490094  0.34003296  0.32964452  1
  Li  Li2  1  0.49862641  0.50256075  0.00339119  1
  Li  Li3  1  0.16616723  0.66106272  0.66883148  1
  Li  Li4  1  0.83678420  0.82221625  0.32515243  1
  Li  Li5  1  0.50087238  0.00069195  0.00294979  1
  Li  Li6  1  0.00076188  0.49969973  0.00345497  1
  Mn  Mn7  1  0.00302788  0.99954479  0.00073282  1
  Mn  Mn8  1  0.66941461  0.17448862  0.66716085  1
  Co  Co9  1  0.32934197  0.33405435  0.33412783  1
  Co  Co10  1  0.66875523  0.66895305  0.66633248  1
  Co  Co11  1  0.32547573  0.82291174  0.32745264  1
  O  O12  1  0.91794831  0.94138321  0.68178144  1
  O  O13  1  0.56864192  0.09781051  0.34986454  1
  O  O14  1  0.23394172  0.23419174  0.01971351  1
  O  O15  1  0.88124902  0.41014213  0.66321764  1
  O  O16  1  0.57630207  0.60037161  0.34898299  1
  O  O17  1  0.24568003  0.76439252  0.01053430  1
  O  O18  1  0.42242649  0.40235254  0.65821104  1
  O  O19  1  0.10571336  0.57277377  0.34049108  1
  O  O20  1  0.76642971  0.76275326  0.97719707  1
  O  O21  1  0.44576481  0.92354951  0.65162752  1
  O  O22  1  0.08254860  0.05685377  0.31444636  1
  O  O23  1  0.75393745  0.23316689  0.98263838  1
