# generated using pymatgen
data_Li7Mn2(CoO4)3
_symmetry_space_group_name_H-M   'P 1'
_cell_length_a   5.04476202
_cell_length_b   5.12854692
_cell_length_c   8.81899849
_cell_angle_alpha   106.29769870
_cell_angle_beta   90.23942589
_cell_angle_gamma   99.99423492
_symmetry_Int_Tables_number   1
_chemical_formula_structural   Li7Mn2(CoO4)3
_chemical_formula_sum   'Li7 Mn2 Co3 O12'
_cell_volume   215.33816123
_cell_formula_units_Z   1
loop_
 _symmetry_equiv_pos_site_id
 _symmetry_equiv_pos_as_xyz
  1  'x, y, z'
loop_
 _atom_site_type_symbol
 _atom_site_label
 _atom_site_symmetry_multiplicity
 _atom_site_fract_x
 _atom_site_fract_y
 _atom_site_fract_z
 _atom_site_occupancy
  Li  Li0  1  0.75346171  0.48808506  0.07210346  1
  Li  Li1  1  0.74939923  0.50379014  0.42003552  1
  Li  Li2  1  0.24919978  0.49959853  0.24774475  1
  Li  Li3  1  0.25166399  0.50789717  0.58863256  1
  Li  Li4  1  0.74374047  0.49971081  0.75649994  1
  Li  Li5  1  0.25480600  0.50236826  0.91544641  1
  Li  Li6  1  0.49982940  0.99717893  0.83285727  1
  Mn  Mn7  1  0.99786123  0.99376015  0.99605993  1
  Mn  Mn8  1  0.50016044  0.00421746  0.50270601  1
  Co  Co9  1  0.00123588  0.00105073  0.33340850  1
  Co  Co10  1  0.99928349  0.00093703  0.67529286  1
  Co  Co11  1  0.49816028  0.00168383  0.15620016  1
  O  O12  1  0.89466722  0.22666871  0.88088588  1
  O  O13  1  0.88184674  0.22474628  0.19782857  1
  O  O14  1  0.36231997  0.22515782  0.04876986  1
  O  O15  1  0.37029630  0.22259856  0.37709913  1
  O  O16  1  0.85331987  0.23220943  0.53599425  1
  O  O17  1  0.36260609  0.22389146  0.68986203  1
  O  O18  1  0.62335476  0.78519690  0.30131952  1
  O  O19  1  0.63647504  0.78170803  0.61542524  1
  O  O20  1  0.14289145  0.77354681  0.45946430  1
  O  O21  1  0.10761188  0.76695679  0.80386814  1
  O  O22  1  0.64558412  0.76553589  0.96831575  1
  O  O23  1  0.12022467  0.77150521  0.12417994  1
