# generated using pymatgen
data_Li9Mn2Co5O16
_symmetry_space_group_name_H-M   'P 1'
_cell_length_a   5.88715675
_cell_length_b   5.89556795
_cell_length_c   8.09207607
_cell_angle_alpha   90.72646178
_cell_angle_beta   89.09235795
_cell_angle_gamma   86.86392627
_symmetry_Int_Tables_number   1
_chemical_formula_structural   Li9Mn2Co5O16
_chemical_formula_sum   'Li9 Mn2 Co5 O16'
_cell_volume   280.37924272
_cell_formula_units_Z   1
loop_
 _symmetry_equiv_pos_site_id
 _symmetry_equiv_pos_as_xyz
  1  'x, y, z'
loop_
 _atom_site_type_symbol
 _atom_site_label
 _atom_site_symmetry_multiplicity
 _atom_site_fract_x
 _atom_site_fract_y
 _atom_site_fract_z
 _atom_site_occupancy
  Li  Li0  1  0.50477965  0.99584662  0.00808492  1
  Li  Li1  1  0.25000000  0.25000000  0.25000000  1
  Li  Li2  1  0.75000000  0.25000000  0.75000000  1
  Li  Li3  1  0.50522272  0.50355926  0.00672153  1
  Li  Li4  1  0.99522035  0.50415338  0.49191508  1
  Li  Li5  1  0.75000000  0.75000000  0.75000000  1
  Li  Li6  1  0.25000000  0.75000000  0.25000000  1
  Li  Li7  1  0.99477728  0.99644074  0.49327847  1
  Li  Li8  1  0.75000000  0.75000000  0.25000000  1
  Mn  Mn9  1  0.99483612  0.99365329  0.00319571  1
  Mn  Mn10  1  0.50516388  0.50634671  0.49680429  1
  Co  Co11  1  0.75000000  0.25000000  0.25000000  1
  Co  Co12  1  0.25000000  0.75000000  0.75000000  1
  Co  Co13  1  0.99479833  0.49608502  0.00359792  1
  Co  Co14  1  0.50520167  0.00391498  0.49640208  1
  Co  Co15  1  0.25000000  0.25000000  0.75000000  1
  O  O16  1  0.24642108  0.76551438  0.99095275  1
  O  O17  1  0.99400389  0.01073446  0.23721838  1
  O  O18  1  0.48400763  0.01460032  0.73461735  1
  O  O19  1  0.21811263  0.23665569  0.98889971  1
  O  O20  1  0.74830262  0.27227316  0.49053930  1
  O  O21  1  0.48801649  0.51467974  0.74228910  1
  O  O22  1  0.97729382  0.47990176  0.23156772  1
  O  O23  1  0.71644635  0.74340270  0.50156561  1
  O  O24  1  0.75169738  0.22772684  0.00946070  1
  O  O25  1  0.50599611  0.48926554  0.26278162  1
  O  O26  1  0.01599237  0.48539968  0.76538265  1
  O  O27  1  0.78355365  0.75659730  0.99843439  1
  O  O28  1  0.25357892  0.73448562  0.50904725  1
  O  O29  1  0.01198351  0.98532026  0.75771090  1
  O  O30  1  0.52270618  0.02009824  0.26843228  1
  O  O31  1  0.28188737  0.26334431  0.51110029  1
