# generated using pymatgen
data_Li7Mn4CoO12
_symmetry_space_group_name_H-M   'P 1'
_cell_length_a   2.95470732
_cell_length_b   14.75340027
_cell_length_c   5.09969218
_cell_angle_alpha   88.62601034
_cell_angle_beta   90.36258396
_cell_angle_gamma   79.54058022
_symmetry_Int_Tables_number   1
_chemical_formula_structural   Li7Mn4CoO12
_chemical_formula_sum   'Li7 Mn4 Co1 O12'
_cell_volume   218.53603187
_cell_formula_units_Z   1
loop_
 _symmetry_equiv_pos_site_id
 _symmetry_equiv_pos_as_xyz
  1  'x, y, z'
loop_
 _atom_site_type_symbol
 _atom_site_label
 _atom_site_symmetry_multiplicity
 _atom_site_fract_x
 _atom_site_fract_y
 _atom_site_fract_z
 _atom_site_occupancy
  Li  Li0  1  0.83080489  0.16708926  0.33821094  1
  Li  Li1  1  0.16666700  0.33333300  0.16666700  1
  Li  Li2  1  0.50252811  0.49957774  0.99512206  1
  Li  Li3  1  0.82359682  0.67305735  0.84061008  1
  Li  Li4  1  0.16666700  0.83333300  0.66666700  1
  Li  Li5  1  0.50973618  0.99360965  0.49272292  1
  Li  Li6  1  0.66666700  0.83333300  0.16666700  1
  Mn  Mn7  1  0.01690417  0.99385744  0.00998958  1
  Mn  Mn8  1  0.31642883  0.67280956  0.32334342  1
  Mn  Mn9  1  0.33145366  0.16636106  0.83164408  1
  Mn  Mn10  1  0.00187934  0.50030594  0.50168892  1
  Co  Co11  1  0.66666700  0.33333300  0.66666700  1
  O  O12  1  0.44089960  0.07557867  0.14038492  1
  O  O13  1  0.70746232  0.24620971  0.98634312  1
  O  O14  1  0.12802802  0.41590469  0.81218916  1
  O  O15  1  0.38403935  0.58195298  0.63983238  1
  O  O16  1  0.75670342  0.73970990  0.48059108  1
  O  O17  1  0.07634447  0.92424404  0.31202132  1
  O  O18  1  0.20530498  0.25076231  0.52114384  1
  O  O19  1  0.62587168  0.42045629  0.34699088  1
  O  O20  1  0.89243340  0.59108833  0.19294808  1
  O  O21  1  0.25698853  0.74242296  0.02131168  1
  O  O22  1  0.57663058  0.92695610  0.85274292  1
  O  O23  1  0.94929365  0.08471402  0.69350062  1
