# generated using pymatgen
data_Li7Mn4CoO12
_symmetry_space_group_name_H-M   'P 1'
_cell_length_a   2.96865960
_cell_length_b   14.59777723
_cell_length_c   5.08627614
_cell_angle_alpha   88.19828162
_cell_angle_beta   91.36326122
_cell_angle_gamma   81.66594067
_symmetry_Int_Tables_number   1
_chemical_formula_structural   Li7Mn4CoO12
_chemical_formula_sum   'Li7 Mn4 Co1 O12'
_cell_volume   217.89295340
_cell_formula_units_Z   1
loop_
 _symmetry_equiv_pos_site_id
 _symmetry_equiv_pos_as_xyz
  1  'x, y, z'
loop_
 _atom_site_type_symbol
 _atom_site_label
 _atom_site_symmetry_multiplicity
 _atom_site_fract_x
 _atom_site_fract_y
 _atom_site_fract_z
 _atom_site_occupancy
  Li  Li0  1  0.83125243  0.16746101  0.33866525  1
  Li  Li1  1  0.16544284  0.33364640  0.16772561  1
  Li  Li2  1  0.50206423  0.49967193  0.99516997  1
  Li  Li3  1  0.82555334  0.67180871  0.83914479  1
  Li  Li4  1  0.16699890  0.83295088  0.66602339  1
  Li  Li5  1  0.50859342  0.99466819  0.49428736  1
  Li  Li6  1  0.66699784  0.83244988  0.16727056  1
  Mn  Mn7  1  0.01103734  0.99321864  0.00967104  1
  Mn  Mn8  1  0.32485448  0.67124719  0.32586063  1
  Mn  Mn9  1  0.34298625  0.16520235  0.83013189  1
  Mn  Mn10  1  0.66316040  0.33593863  0.66492710  1
  Co  Co11  1  0.98519806  0.50267284  0.50174531  1
  O  O12  1  0.44808717  0.07597389  0.13868031  1
  O  O13  1  0.71858650  0.25146752  0.98217984  1
  O  O14  1  0.04813612  0.42009773  0.81553608  1
  O  O15  1  0.38055884  0.58100976  0.64098217  1
  O  O16  1  0.77901837  0.73858715  0.47941086  1
  O  O17  1  0.06917439  0.92358125  0.31423571  1
  O  O18  1  0.28587898  0.24961231  0.51160382  1
  O  O19  1  0.60934964  0.41939210  0.35159732  1
  O  O20  1  0.88726164  0.58915877  0.20022782  1
  O  O21  1  0.26689400  0.74059153  0.01962810  1
  O  O22  1  0.55602505  0.92639959  0.85584429  1
  O  O23  1  0.95688979  0.08319173  0.68945077  1
