# generated using pymatgen
data_Li9Co7O16
_symmetry_space_group_name_H-M   'P 1'
_cell_length_a   4.95371020
_cell_length_b   9.73957159
_cell_length_c   5.80800687
_cell_angle_alpha   81.47325864
_cell_angle_beta   90.40950338
_cell_angle_gamma   94.61597159
_symmetry_Int_Tables_number   1
_chemical_formula_structural   Li9Co7O16
_chemical_formula_sum   'Li9 Co7 O16'
_cell_volume   276.21956679
_cell_formula_units_Z   1
loop_
 _symmetry_equiv_pos_site_id
 _symmetry_equiv_pos_as_xyz
  1  'x, y, z'
loop_
 _atom_site_type_symbol
 _atom_site_label
 _atom_site_symmetry_multiplicity
 _atom_site_fract_x
 _atom_site_fract_y
 _atom_site_fract_z
 _atom_site_occupancy
  Li  Li0  1  0.86981066  0.24511937  0.18941404  1
  Li  Li1  1  0.13018934  0.75488063  0.31058596  1
  Li  Li2  1  0.37354697  0.24465974  0.43584925  1
  Li  Li3  1  0.87144786  0.24684343  0.68664255  1
  Li  Li4  1  0.12855214  0.75315657  0.81335745  1
  Li  Li5  1  0.37601341  0.24477819  0.94161188  1
  Li  Li6  1  0.62645303  0.75534026  0.06415075  1
  Li  Li7  1  0.62398659  0.75522181  0.55838812  1
  Li  Li8  1  0.50000000  0.00000000  0.25000000  1
  Co  Co9  1  0.00068915  0.00003542  0.00394805  1
  Co  Co10  1  0.99931085  -0.00003542  0.49605195  1
  Co  Co11  1  0.24972435  0.50104257  0.12732525  1
  Co  Co12  1  0.75027565  0.49895743  0.37267475  1
  Co  Co13  1  0.25070905  0.49879128  0.62279433  1
  Co  Co14  1  0.50000000  0.00000000  0.75000000  1
  Co  Co15  1  0.74929095  0.50120872  0.87720567  1
  O  O16  1  0.69349768  0.10723568  0.95202004  1
  O  O17  1  0.94126453  0.62111753  0.09754958  1
  O  O18  1  0.15427209  0.10848280  0.22375970  1
  O  O19  1  0.69154448  0.10652447  0.49374978  1
  O  O20  1  0.94286070  0.61715536  0.59154010  1
  O  O21  1  0.18519138  0.10678221  0.72409340  1
  O  O22  1  0.44782992  0.61846929  0.84482740  1
  O  O23  1  0.43762438  0.62172658  0.34138244  1
  O  O24  1  0.05873547  0.37888247  0.40245042  1
  O  O25  1  0.30650232  0.89276432  0.54797996  1
  O  O26  1  0.55217008  0.38153071  0.65517260  1
  O  O27  1  0.05713930  0.38284464  0.90845990  1
  O  O28  1  0.30845552  0.89347553  0.00625022  1
  O  O29  1  0.56237562  0.37827342  0.15861756  1
  O  O30  1  0.84572791  0.89151720  0.27624030  1
  O  O31  1  0.81480862  0.89321779  0.77590660  1
