# generated using pymatgen
data_Li7Mn4CoO12
_symmetry_space_group_name_H-M   'P 1'
_cell_length_a   2.94730300
_cell_length_b   5.95464016
_cell_length_c   12.68295111
_cell_angle_alpha   103.46063568
_cell_angle_beta   89.06147969
_cell_angle_gamma   91.91263468
_symmetry_Int_Tables_number   1
_chemical_formula_structural   Li7Mn4CoO12
_chemical_formula_sum   'Li7 Mn4 Co1 O12'
_cell_volume   216.34387526
_cell_formula_units_Z   1
loop_
 _symmetry_equiv_pos_site_id
 _symmetry_equiv_pos_as_xyz
  1  'x, y, z'
loop_
 _atom_site_type_symbol
 _atom_site_label
 _atom_site_symmetry_multiplicity
 _atom_site_fract_x
 _atom_site_fract_y
 _atom_site_fract_z
 _atom_site_occupancy
  Li  Li0  1  0.00166453  0.48283449  0.98426554  1
  Li  Li1  1  0.49981522  0.33326081  0.16730992  1
  Li  Li2  1  0.50000000  0.66666700  0.83333300  1
  Li  Li3  1  -0.00166453  0.85049851  0.68240146  1
  Li  Li4  1  0.50018478  0.00007219  0.49935708  1
  Li  Li5  1  -0.00000000  0.16666700  0.33333300  1
  Li  Li6  1  0.50000000  0.16666700  0.83333300  1
  Mn  Mn7  1  0.99060369  0.00303709  0.99293610  1
  Mn  Mn8  1  0.00939631  0.33029591  0.67373090  1
  Mn  Mn9  1  0.50211968  0.83210182  0.16701308  1
  Mn  Mn10  1  0.49788032  0.50123118  0.49965392  1
  Co  Co11  1  -0.00000000  0.66666700  0.33333300  1
  O  O12  1  0.50565984  0.22020554  0.00062089  1
  O  O13  1  0.96042130  0.06607204  0.15949001  1
  O  O14  1  0.99881886  0.41204087  0.82061681  1
  O  O15  1  0.52271302  0.55314028  0.66254383  1
  O  O16  1  0.95819334  0.73839139  0.49510194  1
  O  O17  1  0.54655367  0.89484408  0.32839108  1
  O  O18  1  0.47728698  0.78019272  0.00412317  1
  O  O19  1  0.04180666  0.59494161  0.17156506  1
  O  O20  1  0.00118114  0.92129313  0.84604919  1
  O  O21  1  0.49434016  0.11312746  0.66604611  1
  O  O22  1  0.03957870  0.26726096  0.50717699  1
  O  O23  1  0.45344633  0.43848992  0.33827492  1
