# generated using pymatgen
data_Li7Mn5O12
_symmetry_space_group_name_H-M   'P 1'
_cell_length_a   2.98553606
_cell_length_b   12.52867114
_cell_length_c   6.02330675
_cell_angle_alpha   103.45614195
_cell_angle_beta   90.00000000
_cell_angle_gamma   90.00000000
_symmetry_Int_Tables_number   1
_chemical_formula_structural   Li7Mn5O12
_chemical_formula_sum   'Li7 Mn5 O12'
_cell_volume   219.11570405
_cell_formula_units_Z   1
loop_
 _symmetry_equiv_pos_site_id
 _symmetry_equiv_pos_as_xyz
  1  'x, y, z'
loop_
 _atom_site_type_symbol
 _atom_site_label
 _atom_site_symmetry_multiplicity
 _atom_site_fract_x
 _atom_site_fract_y
 _atom_site_fract_z
 _atom_site_occupancy
  Li  Li0  1  0.00000000  0.32209407  0.15272319  1
  Li  Li1  1  0.50000000  0.49990350  0.99628416  1
  Li  Li2  1  0.00000000  0.66666700  0.83333300  1
  Li  Li3  1  0.50000000  0.83342950  0.67038284  1
  Li  Li4  1  0.00000000  0.01123893  0.51394381  1
  Li  Li5  1  0.50000000  0.16666700  0.33333300  1
  Li  Li6  1  0.50000000  0.16666700  0.83333300  1
  Mn  Mn7  1  -0.00000000  0.00709142  0.99371261  1
  Mn  Mn8  1  0.00000000  0.32624158  0.67295439  1
  Mn  Mn9  1  0.50000000  0.49971950  0.50713803  1
  Mn  Mn10  1  0.00000000  0.66666700  0.33333300  1
  Mn  Mn11  1  0.50000000  0.83361350  0.15952897  1
  O  O12  1  0.00000000  0.49115543  0.74111123  1
  O  O13  1  0.50000000  0.65756646  0.57550097  1
  O  O14  1  0.00000000  0.82641448  0.40678634  1
  O  O15  1  0.50000000  0.99360226  0.21846041  1
  O  O16  1  0.00000000  0.15631350  0.08212119  1
  O  O17  1  0.50000000  0.33224717  0.88576883  1
  O  O18  1  0.00000000  0.17701950  0.58454581  1
  O  O19  1  0.50000000  0.33973174  0.44820559  1
  O  O20  1  0.00000000  0.50691852  0.25988066  1
  O  O21  1  0.50000000  0.67576654  0.09116603  1
  O  O22  1  0.00000000  0.84217857  0.92555477  1
  O  O23  1  0.50000000  0.00108583  0.78089817  1
