# generated using pymatgen
data_Li7Mn5O12
_symmetry_space_group_name_H-M   'P 1'
_cell_length_a   2.99948932
_cell_length_b   5.07303013
_cell_length_c   14.49907300
_cell_angle_alpha   87.35294324
_cell_angle_beta   90.00000000
_cell_angle_gamma   90.00000000
_symmetry_Int_Tables_number   1
_chemical_formula_structural   Li7Mn5O12
_chemical_formula_sum   'Li7 Mn5 O12'
_cell_volume   220.38972779
_cell_formula_units_Z   1
loop_
 _symmetry_equiv_pos_site_id
 _symmetry_equiv_pos_as_xyz
  1  'x, y, z'
loop_
 _atom_site_type_symbol
 _atom_site_label
 _atom_site_symmetry_multiplicity
 _atom_site_fract_x
 _atom_site_fract_y
 _atom_site_fract_z
 _atom_site_occupancy
  Li  Li0  1  0.00000000  0.33333300  0.16666700  1
  Li  Li1  1  0.50000000  0.15658483  0.32679276  1
  Li  Li2  1  0.00000000  0.00695023  0.49897736  1
  Li  Li3  1  0.50000000  0.83333300  0.66666700  1
  Li  Li4  1  0.00000000  0.65971677  0.83435564  1
  Li  Li5  1  0.50000000  0.51008217  0.00654024  1
  Li  Li6  1  0.50000000  0.83333300  0.16666700  1
  Mn  Mn7  1  -0.00000000  0.99663625  0.00654342  1
  Mn  Mn8  1  0.00000000  0.67003075  0.32678958  1
  Mn  Mn9  1  0.50000000  0.49593365  0.49780187  1
  Mn  Mn10  1  0.00000000  0.33333300  0.66666700  1
  Mn  Mn11  1  0.50000000  0.17073335  0.83553113  1
  O  O12  1  0.00000000  0.97859993  0.25749931  1
  O  O13  1  0.50000000  0.79963773  0.41102476  1
  O  O14  1  -0.00000000  0.64914102  0.58572246  1
  O  O15  1  0.50000000  0.48000071  0.75298945  1
  O  O16  1  0.00000000  0.31381272  0.91629521  1
  O  O17  1  0.50000000  0.14767323  0.07293147  1
  O  O18  1  0.00000000  0.68806707  0.07583369  1
  O  O19  1  0.50000000  0.51899277  0.26040253  1
  O  O20  1  0.00000000  0.35285428  0.41703779  1
  O  O21  1  0.50000000  0.18666629  0.58034355  1
  O  O22  1  -0.00000000  0.01752498  0.74761154  1
  O  O23  1  0.50000000  0.86702927  0.92230824  1
