# generated using pymatgen
data_Li7Mn4CoO12
_symmetry_space_group_name_H-M   'P 1'
_cell_length_a   2.90290657
_cell_length_b   11.82743757
_cell_length_c   6.74512857
_cell_angle_alpha   77.66604600
_cell_angle_beta   77.57358702
_cell_angle_gamma   89.99999814
_symmetry_Int_Tables_number   1
_chemical_formula_structural   Li7Mn4CoO12
_chemical_formula_sum   'Li7 Mn4 Co1 O12'
_cell_volume   220.68494960
_cell_formula_units_Z   1
loop_
 _symmetry_equiv_pos_site_id
 _symmetry_equiv_pos_as_xyz
  1  'x, y, z'
loop_
 _atom_site_type_symbol
 _atom_site_label
 _atom_site_symmetry_multiplicity
 _atom_site_fract_x
 _atom_site_fract_y
 _atom_site_fract_z
 _atom_site_occupancy
  Li  Li0  1  0.33544557  0.07907508  0.32910787  1
  Li  Li1  1  0.00081100  0.25209451  0.99837801  1
  Li  Li2  1  0.66284996  0.42547255  0.67430109  1
  Li  Li3  1  0.66415235  0.90952534  0.67169630  1
  Li  Li4  1  0.99947490  0.74715040  0.00105020  1
  Li  Li5  1  0.33299203  0.59265458  0.33401495  1
  Li  Li6  1  0.66643043  0.66352816  0.66714014  1
  Mn  Mn7  1  0.99461442  0.99500947  0.01077117  1
  Mn  Mn8  1  0.01133405  0.50601513  0.97733190  1
  Mn  Mn9  1  0.66537950  0.16698575  0.66924200  1
  Mn  Mn10  1  0.33751965  0.33744770  0.32495970  1
  Co  Co11  1  0.31224025  0.81937916  0.37551850  1
  O  O12  1  0.49453057  0.10780547  0.01093786  1
  O  O13  1  0.16378746  0.27791469  0.67242508  1
  O  O14  1  0.84517752  0.45146861  0.30964595  1
  O  O15  1  0.84795952  0.95456234  0.30408197  1
  O  O16  1  0.17377775  0.79858493  0.65244449  1
  O  O17  1  0.50056193  0.61055184  -0.00112487  1
  O  O18  1  0.15606828  0.05081337  0.68786245  1
  O  O19  1  0.83687796  0.22219807  0.32624408  1
  O  O20  1  0.50486467  0.38991536  0.99027166  1
  O  O21  1  0.50406565  0.89036988  -0.00813030  1
  O  O22  1  0.83631660  0.71420866  0.32736680  1
  O  O23  1  0.15276799  0.53726897  0.69446303  1
