# generated using pymatgen
data_Li7Mn2(CoO4)3
_symmetry_space_group_name_H-M   'P 1'
_cell_length_a   5.05349611
_cell_length_b   5.10819792
_cell_length_c   8.78698883
_cell_angle_alpha   89.55490639
_cell_angle_beta   89.57847316
_cell_angle_gamma   108.95723898
_symmetry_Int_Tables_number   1
_chemical_formula_structural   Li7Mn2(CoO4)3
_chemical_formula_sum   'Li7 Mn2 Co3 O12'
_cell_volume   214.50847398
_cell_formula_units_Z   1
loop_
 _symmetry_equiv_pos_site_id
 _symmetry_equiv_pos_as_xyz
  1  'x, y, z'
loop_
 _atom_site_type_symbol
 _atom_site_label
 _atom_site_symmetry_multiplicity
 _atom_site_fract_x
 _atom_site_fract_y
 _atom_site_fract_z
 _atom_site_occupancy
  Li  Li0  1  0.99526068  0.49562160  0.15995355  1
  Li  Li1  1  0.50114668  0.50228546  0.32543554  1
  Li  Li2  1  0.99600485  0.49778935  0.49806020  1
  Li  Li3  1  0.49492088  0.49778804  0.66711663  1
  Li  Li4  1  0.00764971  0.50523656  0.83861381  1
  Li  Li5  1  0.50513794  0.49966589  0.00802512  1
  Li  Li6  1  0.50194197  0.00194215  0.16547244  1
  Mn  Mn7  1  0.00297488  0.00734446  0.00287222  1
  Mn  Mn8  1  0.49612839  0.99430741  0.49839271  1
  Co  Co9  1  0.99729258  0.99767795  0.32575365  1
  Co  Co10  1  0.99928194  0.99813749  0.66656143  1
  Co  Co11  1  0.49980859  0.00086637  0.84372444  1
  O  O12  1  0.76569384  0.23155572  0.99317095  1
  O  O13  1  0.22595660  0.23574883  0.15846883  1
  O  O14  1  0.74754770  0.22044971  0.34783407  1
  O  O15  1  0.25243570  0.22110772  0.50423457  1
  O  O16  1  0.72742574  0.21479585  0.66318695  1
  O  O17  1  0.23822691  0.23379446  0.83795083  1
  O  O18  1  0.24972710  0.77761231  0.34639084  1
  O  O19  1  0.73462274  0.76763101  0.50213992  1
  O  O20  1  0.25702923  0.77188880  0.66006628  1
  O  O21  1  0.77335563  0.77817379  0.83911688  1
  O  O22  1  0.25166092  0.78106950  0.98977679  1
  O  O23  1  0.77876881  0.76750959  0.15768134  1
