# generated using pymatgen
data_Y(FeO2)2
_symmetry_space_group_name_H-M   'P 1'
_cell_length_a   5.76137076
_cell_length_b   5.74261979
_cell_length_c   6.47035454
_cell_angle_alpha   116.20937556
_cell_angle_beta   116.30237845
_cell_angle_gamma   90.27169988
_symmetry_Int_Tables_number   1
_chemical_formula_structural   Y(FeO2)2
_chemical_formula_sum   'Y2 Fe4 O8'
_cell_volume   166.74694464
_cell_formula_units_Z   2
loop_
 _symmetry_equiv_pos_site_id
 _symmetry_equiv_pos_as_xyz
  1  'x, y, z'
loop_
 _atom_site_type_symbol
 _atom_site_label
 _atom_site_symmetry_multiplicity
 _atom_site_fract_x
 _atom_site_fract_y
 _atom_site_fract_z
 _atom_site_occupancy
  Y  Y0  1  0.87525474  0.12525474  0.75051048  1
  Y  Y1  1  0.12474526  0.87474526  0.24948952  1
  Fe  Fe2  1  0.50000000  0.00000000  0.00000000  1
  Fe  Fe3  1  0.50000000  0.50000000  0.00000000  1
  Fe  Fe4  1  0.00000000  0.50000000  0.50000000  1
  Fe  Fe5  1  0.50000000  0.50000000  0.50000000  1
  O  O6  1  0.72984492  0.52968451  0.85941734  1
  O  O7  1  0.12957242  0.82973283  0.85941734  1
  O  O8  1  0.27015508  0.47031549  0.14058266  1
  O  O9  1  0.87042758  0.17026717  0.14058266  1
  O  O10  1  0.53273023  0.13060560  0.35923384  1
  O  O11  1  0.82650361  0.72862823  0.35923384  1
  O  O12  1  0.17349639  0.27137177  0.64076616  1
  O  O13  1  0.46726977  0.86939440  0.64076616  1
