# generated using pymatgen
data_Li7Mn4CoO12
_symmetry_space_group_name_H-M   'P 1'
_cell_length_a   2.87708322
_cell_length_b   14.61604968
_cell_length_c   5.20005903
_cell_angle_alpha   88.04172985
_cell_angle_beta   90.00000000
_cell_angle_gamma   90.00000000
_symmetry_Int_Tables_number   1
_chemical_formula_structural   Li7Mn4CoO12
_chemical_formula_sum   'Li7 Mn4 Co1 O12'
_cell_volume   218.54304869
_cell_formula_units_Z   1
loop_
 _symmetry_equiv_pos_site_id
 _symmetry_equiv_pos_as_xyz
  1  'x, y, z'
loop_
 _atom_site_type_symbol
 _atom_site_label
 _atom_site_symmetry_multiplicity
 _atom_site_fract_x
 _atom_site_fract_y
 _atom_site_fract_z
 _atom_site_occupancy
  Li  Li0  1  0.50000000  0.00641087  0.49452440  1
  Li  Li1  1  -0.00000000  0.16610539  0.66562391  1
  Li  Li2  1  0.50000000  0.32895811  0.83769440  1
  Li  Li3  1  -0.00000000  0.49913415  -0.00216700  1
  Li  Li4  1  0.00000000  0.83405961  0.33518161  1
  Li  Li5  1  0.50000000  0.66494322  0.16703697  1
  Li  Li6  1  0.50000000  0.16778571  0.16755676  1
  Mn  Mn7  1  -0.00000000  0.00808325  0.02031492  1
  Mn  Mn8  1  -0.00000000  0.32757786  0.32501027  1
  Mn  Mn9  1  -0.00000000  0.66408335  0.65677381  1
  Mn  Mn10  1  0.50000000  0.83505594  0.84225593  1
  Co  Co11  1  0.50000000  0.49712752  0.48943847  1
  O  O12  1  0.50000000  0.92862102  0.16098690  1
  O  O13  1  -0.00000000  0.07728770  0.30573500  1
  O  O14  1  0.50000000  0.25842196  0.48859294  1
  O  O15  1  -0.00000000  0.41494106  0.63853715  1
  O  O16  1  -0.00000000  0.75876574  0.99381905  1
  O  O17  1  0.50000000  0.58643591  0.80673541  1
  O  O18  1  0.50000000  0.07509588  0.84738044  1
  O  O19  1  -0.00000000  0.26000096  0.03429291  1
  O  O20  1  0.50000000  0.40859957  0.18840239  1
  O  O21  1  0.00000000  0.57623428  0.32352182  1
  O  O22  1  -0.00000000  0.91440392  0.70367353  1
  O  O23  1  0.50000000  0.74186703  0.50907801  1
