# generated using pymatgen
data_Li6MnV3(PO4)6
_symmetry_space_group_name_H-M   'P 1'
_cell_length_a   10.28598258
_cell_length_b   10.28598219
_cell_length_c   10.17380883
_cell_angle_alpha   109.51678262
_cell_angle_beta   108.77828045
_cell_angle_gamma   110.55853061
_symmetry_Int_Tables_number   1
_chemical_formula_structural   Li6MnV3(PO4)6
_chemical_formula_sum   'Li12 Mn2 V6 P12 O48'
_cell_volume   823.93577621
_cell_formula_units_Z   2
loop_
 _symmetry_equiv_pos_site_id
 _symmetry_equiv_pos_as_xyz
  1  'x, y, z'
loop_
 _atom_site_type_symbol
 _atom_site_label
 _atom_site_symmetry_multiplicity
 _atom_site_fract_x
 _atom_site_fract_y
 _atom_site_fract_z
 _atom_site_occupancy
  Li  Li0  1  0.25001047  0.87658869  0.62577359  1
  Li  Li1  1  0.12427445  0.37427445  0.75000000  1
  Li  Li2  1  0.12560190  0.25220283  0.37537401  1
  Li  Li3  1  0.62459994  0.87459994  0.75000000  1
  Li  Li4  1  0.37682882  0.75022789  0.12462599  1
  Li  Li5  1  0.24918589  0.37576412  0.12577359  1
  Li  Li6  1  0.75081411  0.62423588  0.87422641  1
  Li  Li7  1  0.62317118  0.24977211  0.87537401  1
  Li  Li8  1  0.37540006  0.12540006  0.25000000  1
  Li  Li9  1  0.87439810  0.74779717  0.62462599  1
  Li  Li10  1  0.87572555  0.62572555  0.25000000  1
  Li  Li11  1  0.74998953  0.12341131  0.37422641  1
  Mn  Mn12  1  0.50000000  0.50000000  0.50000000  1
  Mn  Mn13  1  0.50000000  0.00000000  -0.00000000  1
  V  V14  1  -0.00000000  0.50000000  0.50000000  1
  V  V15  1  -0.00000000  0.00000000  0.50000000  1
  V  V16  1  -0.00000000  0.50000000  -0.00000000  1
  V  V17  1  -0.00000000  0.00000000  -0.00000000  1
  V  V18  1  0.50000000  0.50000000  -0.00000000  1
  V  V19  1  0.50000000  0.00000000  0.50000000  1
  P  P20  1  0.12672062  0.75102160  0.87432790  1
  P  P21  1  0.12540902  0.87540902  0.25000000  1
  P  P22  1  0.37452303  0.62452303  0.75000000  1
  P  P23  1  0.24723570  0.62449899  0.37279024  1
  P  P24  1  0.24829125  0.12555453  0.87279024  1
  P  P25  1  0.37669370  0.25239272  0.62567210  1
  P  P26  1  0.62330630  0.74760728  0.37432790  1
  P  P27  1  0.75276430  0.37550101  0.62720976  1
  P  P28  1  0.75170875  0.87444547  0.12720976  1
  P  P29  1  0.62547697  0.37547697  0.25000000  1
  P  P30  1  0.87459098  0.12459098  0.75000000  1
  P  P31  1  0.87327938  0.24897840  0.12567210  1
  O  O32  1  0.10503861  0.99247283  0.69887051  1
  O  O33  1  0.11838212  0.61282919  0.90835372  1
  O  O34  1  0.00658539  0.29875153  0.88983017  1
  O  O35  1  0.09315895  0.70861457  0.70004770  1
  O  O36  1  0.09107964  0.88324478  0.38983017  1
  O  O37  1  0.10963965  0.61931205  0.40901555  1
  O  O38  1  0.20166270  0.49401766  0.61049275  1
  O  O39  1  0.41262807  0.80018140  0.79479581  1
  O  O40  1  0.38352591  0.59116996  0.88950725  1
  O  O41  1  0.28970350  0.29937691  0.90901555  1
  O  O42  1  0.29892413  0.91129878  0.29222538  1
  O  O43  1  0.00221581  0.20713407  0.11640584  1
  O  O44  1  0.20447547  0.21002840  0.59164628  1
  O  O45  1  0.20639768  0.59383189  0.19887051  1
  O  O46  1  0.38841795  0.79970918  0.50578599  1
  O  O47  1  0.28404537  0.49244426  0.37683354  1
  O  O48  1  0.30263787  0.89270093  0.00643951  1
  O  O49  1  0.11907340  0.00669876  0.20777462  1
  O  O50  1  0.50538559  0.61783226  0.70520419  1
  O  O51  1  0.38438928  0.09278916  0.87683354  1
  O  O52  1  0.50856686  0.39311125  0.79995230  1
  O  O53  1  0.38626042  0.29619836  0.49356049  1
  O  O54  1  0.59072823  0.88580897  0.38359416  1
  O  O55  1  0.20607581  0.11736704  0.00578599  1
  O  O56  1  0.79392419  0.88263296  0.99421401  1
  O  O57  1  0.40927177  0.11419103  0.61640584  1
  O  O58  1  0.61373958  0.70380164  0.50643951  1
  O  O59  1  0.49143314  0.60688875  0.20004770  1
  O  O60  1  0.61561072  0.90721084  0.12316646  1
  O  O61  1  0.49461441  0.38216774  0.29479581  1
  O  O62  1  0.88092660  0.99330124  0.79222538  1
  O  O63  1  0.69736213  0.10729907  0.99356049  1
  O  O64  1  0.71595463  0.50755574  0.62316646  1
  O  O65  1  0.61158205  0.20029082  0.49421401  1
  O  O66  1  0.79360232  0.40616811  0.80112949  1
  O  O67  1  0.79552453  0.78997160  0.40835372  1
  O  O68  1  0.99778419  0.79286593  0.88359416  1
  O  O69  1  0.70107587  0.08870122  0.70777462  1
  O  O70  1  0.71029650  0.70062309  0.09098445  1
  O  O71  1  0.61647409  0.40883004  0.11049275  1
  O  O72  1  0.58737193  0.19981860  0.20520419  1
  O  O73  1  0.79833730  0.50598234  0.38950725  1
  O  O74  1  0.89036035  0.38068795  0.59098445  1
  O  O75  1  0.90892036  0.11675522  0.61016983  1
  O  O76  1  0.90684105  0.29138543  0.29995230  1
  O  O77  1  0.99341461  0.70124847  0.11016983  1
  O  O78  1  0.88161788  0.38717081  0.09164628  1
  O  O79  1  0.89496139  0.00752717  0.30112949  1
