# generated using pymatgen
data_Mn13Cr3O32
_symmetry_space_group_name_H-M   'P 1'
_cell_length_a   8.27743030
_cell_length_b   10.12678127
_cell_length_c   8.27743030
_cell_angle_alpha   65.95409684
_cell_angle_beta   89.94612735
_cell_angle_gamma   114.15102490
_symmetry_Int_Tables_number   1
_chemical_formula_structural   Mn13Cr3O32
_chemical_formula_sum   'Mn13 Cr3 O32'
_cell_volume   566.34799009
_cell_formula_units_Z   1
loop_
 _symmetry_equiv_pos_site_id
 _symmetry_equiv_pos_as_xyz
  1  'x, y, z'
loop_
 _atom_site_type_symbol
 _atom_site_label
 _atom_site_symmetry_multiplicity
 _atom_site_fract_x
 _atom_site_fract_y
 _atom_site_fract_z
 _atom_site_occupancy
  Mn  Mn0  1  0.25000000  -0.00000000  0.75000000  1
  Mn  Mn1  1  0.75000000  -0.00000000  0.25000000  1
  Mn  Mn2  1  0.87465133  0.25017951  0.37543823  1
  Mn  Mn3  1  0.62561774  0.25017951  0.62447182  1
  Mn  Mn4  1  0.37520960  0.24998953  0.87494289  1
  Mn  Mn5  1  0.12493242  0.24998953  0.12522107  1
  Mn  Mn6  1  0.75000000  0.50000000  0.25000000  1
  Mn  Mn7  1  0.99936074  0.49991300  0.49944774  1
  Mn  Mn8  1  0.50063926  0.50008700  0.00055226  1
  Mn  Mn9  1  0.12479040  0.75001047  0.62505711  1
  Mn  Mn10  1  0.62534867  0.74982049  0.12456177  1
  Mn  Mn11  1  0.87438226  0.74982049  0.87552818  1
  Mn  Mn12  1  0.37506758  0.75001047  0.37477893  1
  Cr  Cr13  1  0.00010466  -0.00000000  0.49989534  1
  Cr  Cr14  1  0.49989534  -0.00000000  0.00010466  1
  Cr  Cr15  1  0.25000000  0.50000000  0.75000000  1
  O  O16  1  0.49199020  0.01557663  0.75712697  1
  O  O17  1  0.77270360  0.01557663  0.47641357  1
  O  O18  1  0.27269690  0.01549930  0.97635987  1
  O  O19  1  0.99185917  0.01549930  0.25719760  1
  O  O20  1  0.10163119  0.23509957  0.36671461  1
  O  O21  1  0.60181419  0.23509957  0.86653162  1
  O  O22  1  0.38298972  0.23495641  0.64782385  1
  O  O23  1  0.88278026  0.23495641  0.14803331  1
  O  O24  1  0.14849380  0.26555120  0.88294260  1
  O  O25  1  0.64742897  0.26488930  0.38253967  1
  O  O26  1  0.86730490  0.26477931  0.60252559  1
  O  O27  1  0.36714496  0.26494200  0.10220196  1
  O  O28  1  0.47763911  0.48447910  0.77419228  1
  O  O29  1  0.25867138  0.48447910  0.99316001  1
  O  O30  1  0.97714927  0.48512827  0.27233549  1
  O  O31  1  0.75746477  0.48512827  0.49202100  1
  O  O32  1  0.02236089  0.51552090  0.72580772  1
  O  O33  1  0.24132862  0.51552090  0.50683999  1
  O  O34  1  0.52285073  0.51487173  0.22766451  1
  O  O35  1  0.74253523  0.51487173  0.00797900  1
  O  O36  1  0.35150620  0.73444880  0.61705740  1
  O  O37  1  0.13285504  0.73505800  0.39779804  1
  O  O38  1  0.63269510  0.73522069  0.89747441  1
  O  O39  1  0.85257103  0.73511070  0.11746033  1
  O  O40  1  0.61721974  0.76504359  0.35196669  1
  O  O41  1  0.89818581  0.76490043  0.63346838  1
  O  O42  1  0.39836881  0.76490043  0.13328539  1
  O  O43  1  0.11701028  0.76504359  0.85217615  1
  O  O44  1  0.50814083  0.98450070  0.24280240  1
  O  O45  1  0.00800980  0.98442337  0.74287303  1
  O  O46  1  0.22730310  0.98450070  0.52364013  1
  O  O47  1  0.72729640  0.98442337  0.02358643  1
