# generated using pymatgen
data_Mg(BiO2)2
_symmetry_space_group_name_H-M   'P 1'
_cell_length_a   6.75594781
_cell_length_b   6.93118909
_cell_length_c   27.31405411
_cell_angle_alpha   59.50134177
_cell_angle_beta   58.62848946
_cell_angle_gamma   59.13817642
_symmetry_Int_Tables_number   1
_chemical_formula_structural   Mg(BiO2)2
_chemical_formula_sum   'Mg8 Bi16 O32'
_cell_volume   885.52599479
_cell_formula_units_Z   8
loop_
 _symmetry_equiv_pos_site_id
 _symmetry_equiv_pos_as_xyz
  1  'x, y, z'
loop_
 _atom_site_type_symbol
 _atom_site_label
 _atom_site_symmetry_multiplicity
 _atom_site_fract_x
 _atom_site_fract_y
 _atom_site_fract_z
 _atom_site_occupancy
  Mg  Mg0  1  0.13011272  0.12296470  0.03098997  1
  Mg  Mg1  1  0.00218659  0.49603031  0.12643770  1
  Mg  Mg2  1  0.12612185  0.12346087  0.28173885  1
  Mg  Mg3  1  0.98519014  0.49255949  0.38242272  1
  Mg  Mg4  1  0.99948912  0.50052796  0.62486349  1
  Mg  Mg5  1  0.49010065  0.49755102  0.50369958  1
  Mg  Mg6  1  0.00906071  0.51187108  0.86679928  1
  Mg  Mg7  1  0.50918480  0.50287967  0.74626346  1
  Bi  Bi8  1  0.49598672  0.49894014  0.12567867  1
  Bi  Bi9  1  0.47844679  0.49700569  0.25688521  1
  Bi  Bi10  1  0.49598672  0.00235848  0.12567867  1
  Bi  Bi11  1  0.13441946  0.12060637  0.53109170  1
  Bi  Bi12  1  0.50896957  0.49457322  0.37779156  1
  Bi  Bi13  1  0.84174126  0.88467360  0.22222788  1
  Bi  Bi14  1  0.12569030  0.12021464  0.78347010  1
  Bi  Bi15  1  0.50896957  0.98529195  0.37779156  1
  Bi  Bi16  1  0.50104399  0.50146488  0.62450732  1
  Bi  Bi17  1  0.87811552  0.88071116  0.46511529  1
  Bi  Bi18  1  0.50104399  0.99946187  0.62450732  1
  Bi  Bi19  1  0.48385583  0.01727820  0.87331097  1
  Bi  Bi20  1  0.48385583  0.50562210  0.87331097  1
  Bi  Bi21  1  0.86803142  0.88328000  0.71635164  1
  Bi  Bi22  1  0.50670899  0.50227710  0.99718445  1
  Bi  Bi23  1  0.82778698  0.89254267  0.97178167  1
  O  O24  1  0.25463277  0.25517816  0.06163826  1
  O  O25  1  0.24017362  0.25767092  0.18612113  1
  O  O26  1  0.25463277  0.74363805  0.06163826  1
  O  O27  1  0.74805882  0.25616162  0.05990474  1
  O  O28  1  0.24237686  0.75009591  0.18935733  1
  O  O29  1  0.23452807  0.25082014  0.31610019  1
  O  O30  1  0.76874640  0.28529615  0.18177218  1
  O  O31  1  0.22606445  0.27677999  0.43009339  1
  O  O32  1  0.23452807  0.75025102  0.31610019  1
  O  O33  1  0.77664345  0.71435417  0.07366180  1
  O  O34  1  0.75300045  0.24077519  0.31636279  1
  O  O35  1  0.76874640  0.71886874  0.18177218  1
  O  O36  1  0.24643261  0.28347441  0.56611315  1
  O  O37  1  0.28163718  0.71691455  0.44613318  1
  O  O38  1  0.73069663  0.29272645  0.44179560  1
  O  O39  1  0.23501490  0.26524975  0.68362165  1
  O  O40  1  0.24643261  0.70563939  0.56611315  1
  O  O41  1  0.77905135  0.71030086  0.32508648  1
  O  O42  1  0.72874834  0.26764903  0.55898840  1
  O  O43  1  0.73069663  0.70939552  0.44179560  1
  O  O44  1  0.27645570  0.73023286  0.69076940  1
  O  O45  1  0.26835468  0.29183835  0.80923617  1
  O  O46  1  0.74862342  0.29831316  0.68437626  1
  O  O47  1  0.25834548  0.24786657  0.93647985  1
  O  O48  1  0.26835468  0.70286027  0.80923617  1
  O  O49  1  0.76424889  0.73600176  0.56593715  1
  O  O50  1  0.71675502  0.27819527  0.80671361  1
  O  O51  1  0.74862342  0.71556039  0.68437626  1
  O  O52  1  0.22438881  0.77006325  0.93387142  1
  O  O53  1  0.79412817  0.28645923  0.92450407  1
  O  O54  1  0.76465267  0.73582737  0.81592290  1
  O  O55  1  0.79412817  0.72139532  0.92450407  1
