# generated using pymatgen
data_LiFePCO7
_symmetry_space_group_name_H-M   'P 1'
_cell_length_a   16.96723721
_cell_length_b   5.17434011
_cell_length_c   6.43754399
_cell_angle_alpha   89.88409757
_cell_angle_beta   89.68784584
_cell_angle_gamma   84.69379590
_symmetry_Int_Tables_number   1
_chemical_formula_structural   LiFePCO7
_chemical_formula_sum   'Li4 Fe4 P4 C4 O28'
_cell_volume   562.74841044
_cell_formula_units_Z   4
loop_
 _symmetry_equiv_pos_site_id
 _symmetry_equiv_pos_as_xyz
  1  'x, y, z'
loop_
 _atom_site_type_symbol
 _atom_site_label
 _atom_site_symmetry_multiplicity
 _atom_site_fract_x
 _atom_site_fract_y
 _atom_site_fract_z
 _atom_site_occupancy
  Li  Li0  1  0.05772978  0.77173424  0.25057490  1
  Li  Li1  1  0.44260129  0.22337041  0.75736558  1
  Li  Li2  1  0.64122400  0.24605912  0.45226083  1
  Li  Li3  1  0.94402262  0.22591078  0.75081275  1
  Fe  Fe4  1  0.16693480  0.80168539  0.75003116  1
  Fe  Fe5  1  0.33355435  0.20477496  0.24780767  1
  Fe  Fe6  1  0.66908773  0.80329582  0.75746710  1
  Fe  Fe7  1  0.83126380  0.19770001  0.25407766  1
  P  P8  1  0.21241003  0.73415805  0.24970824  1
  P  P9  1  0.28769936  0.27101603  0.74818735  1
  P  P10  1  0.71143775  0.73521577  0.25589909  1
  P  P11  1  0.78825323  0.27633234  0.74793498  1
  C  C12  1  0.02145080  0.70255336  0.75155184  1
  C  C13  1  0.47793136  0.28493419  0.25983120  1
  C  C14  1  0.52430825  0.70385340  0.74013782  1
  C  C15  1  0.97821269  0.29426994  0.24795003  1
  O  O16  1  0.03336241  0.94580675  0.75161434  1
  O  O17  1  0.04434129  0.38681975  0.24965236  1
  O  O18  1  0.08547552  0.54130491  0.75092828  1
  O  O19  1  0.15587902  0.79922246  0.06284975  1
  O  O20  1  0.15565190  0.79962459  0.43747286  1
  O  O21  1  0.21350260  0.12136455  0.74916261  1
  O  O22  1  0.23965513  0.44059846  0.24982388  1
  O  O23  1  0.25956654  0.56412726  0.74844798  1
  O  O24  1  0.28577455  0.88467586  0.24876994  1
  O  O25  1  0.34362731  0.20736835  0.56068843  1
  O  O26  1  0.34310567  0.20751416  0.93572862  1
  O  O27  1  0.42030179  0.46791022  0.24669712  1
  O  O28  1  0.45847008  0.61019247  0.74193606  1
  O  O29  1  0.45332303  0.05508225  0.24860940  1
  O  O30  1  0.53574169  0.94637871  0.75077238  1
  O  O31  1  0.54882247  0.32829276  0.28226237  1
  O  O32  1  0.58870474  0.54211680  0.72911368  1
  O  O33  1  0.66267609  0.79576702  0.05824560  1
  O  O34  1  0.65875743  0.84075271  0.44034219  1
  O  O35  1  0.71092590  0.14008905  0.73313716  1
  O  O36  1  0.73200342  0.43492790  0.28283231  1
  O  O37  1  0.76342187  0.57094443  0.74107190  1
  O  O38  1  0.78941331  0.86815551  0.25162000  1
  O  O39  1  0.84627349  0.19912246  0.56595005  1
  O  O40  1  0.83872604  0.20418256  0.94240889  1
  O  O41  1  0.91414644  0.45447987  0.24678425  1
  O  O42  1  0.95533625  0.61026311  0.75201692  1
  O  O43  1  0.96698615  0.05053726  0.24747546  1
