# generated using pymatgen
data_LiSbP(OF3)2
_symmetry_space_group_name_H-M   'P 1'
_cell_length_a   6.13572124
_cell_length_b   7.62098034
_cell_length_c   8.08368810
_cell_angle_alpha   91.35216892
_cell_angle_beta   104.36829240
_cell_angle_gamma   95.19478283
_symmetry_Int_Tables_number   1
_chemical_formula_structural   LiSbP(OF3)2
_chemical_formula_sum   'Li2 Sb2 P2 O4 F12'
_cell_volume   364.25156331
_cell_formula_units_Z   2
loop_
 _symmetry_equiv_pos_site_id
 _symmetry_equiv_pos_as_xyz
  1  'x, y, z'
loop_
 _atom_site_type_symbol
 _atom_site_label
 _atom_site_symmetry_multiplicity
 _atom_site_fract_x
 _atom_site_fract_y
 _atom_site_fract_z
 _atom_site_occupancy
  Li  Li0  1  0.27283715  0.36238620  0.06034453  1
  Li  Li1  1  0.64224031  0.74451061  0.67953226  1
  Sb  Sb2  1  0.47622743  0.25157270  0.73815616  1
  Sb  Sb3  1  0.57365292  0.77562976  0.21534883  1
  P  P4  1  0.22996529  0.82890140  0.83770451  1
  P  P5  1  0.76279651  0.19078205  0.21296283  1
  O  O6  1  0.19919432  0.01805314  0.83359085  1
  O  O7  1  0.43599507  0.75873384  0.96100590  1
  O  O8  1  0.55843279  0.26201618  0.11265740  1
  O  O9  1  0.78202759  0.99159880  0.20182970  1
  F  F10  1  0.23483601  0.37730491  0.82226196  1
  F  F11  1  0.22474759  0.73878123  0.66172063  1
  F  F12  1  0.97874333  0.26947594  0.15819265  1
  F  F13  1  0.28825369  0.21606601  0.50680280  1
  F  F14  1  0.34876467  0.91797359  0.24965438  1
  F  F15  1  0.37848766  0.56567850  0.22900577  1
  F  F16  1  0.59432455  0.49859796  0.67314055  1
  F  F17  1  0.59687216  0.97457158  0.72058548  1
  F  F18  1  0.70979526  0.77599993  0.45589684  1
  F  F19  1  0.01673967  0.72063441  0.87350044  1
  F  F20  1  0.82170648  0.25163838  0.40363091  1
  F  F21  1  0.80055855  0.64176089  0.17239561  1
