# generated using pymatgen
data_Mn3NiO8
_symmetry_space_group_name_H-M   'P 1'
_cell_length_a   9.74260659
_cell_length_b   9.74260782
_cell_length_c   13.71361865
_cell_angle_alpha   20.22178983
_cell_angle_beta   20.22179255
_cell_angle_gamma   34.83698068
_symmetry_Int_Tables_number   1
_chemical_formula_structural   Mn3NiO8
_chemical_formula_sum   'Mn3 Ni1 O8'
_cell_volume   134.68258473
_cell_formula_units_Z   1
loop_
 _symmetry_equiv_pos_site_id
 _symmetry_equiv_pos_as_xyz
  1  'x, y, z'
loop_
 _atom_site_type_symbol
 _atom_site_label
 _atom_site_symmetry_multiplicity
 _atom_site_fract_x
 _atom_site_fract_y
 _atom_site_fract_z
 _atom_site_occupancy
  Mn  Mn0  1  -0.00003015  0.49998925  0.00002759  1
  Mn  Mn1  1  0.49997442  -0.00003833  0.00004271  1
  Mn  Mn2  1  0.50002419  0.50001372  -0.00002599  1
  Ni  Ni3  1  0.00004287  0.00005565  -0.00006552  1
  O  O4  1  0.99996159  0.99996065  0.26325616  1
  O  O5  1  0.99994845  0.50710920  0.25871324  1
  O  O6  1  0.50711538  0.99995115  0.25870529  1
  O  O7  1  0.00004008  0.00003937  0.73674353  1
  O  O8  1  0.49280387  0.49280430  0.27300871  1
  O  O9  1  0.00005127  0.49287816  0.74129880  1
  O  O10  1  0.49288397  0.00005322  0.74129150  1
  O  O11  1  0.50718305  0.50718365  0.72700497  1
