# generated using pymatgen
data_Na2Co3O4
_symmetry_space_group_name_H-M   'P 1'
_cell_length_a   10.91854591
_cell_length_b   7.77077602
_cell_length_c   5.34502212
_cell_angle_alpha   90.00000000
_cell_angle_beta   90.00000000
_cell_angle_gamma   90.00000000
_symmetry_Int_Tables_number   1
_chemical_formula_structural   Na2Co3O4
_chemical_formula_sum   'Na8 Co12 O16'
_cell_volume   453.50147372
_cell_formula_units_Z   4
loop_
 _symmetry_equiv_pos_site_id
 _symmetry_equiv_pos_as_xyz
  1  'x, y, z'
loop_
 _atom_site_type_symbol
 _atom_site_label
 _atom_site_symmetry_multiplicity
 _atom_site_fract_x
 _atom_site_fract_y
 _atom_site_fract_z
 _atom_site_occupancy
  Na  Na0  1  -0.00000000  0.00000000  -0.00000000  1
  Na  Na1  1  -0.00000000  0.50000000  0.00000000  1
  Na  Na2  1  0.02735572  0.75000000  0.51695546  1
  Na  Na3  1  0.47264428  0.25000000  0.01695546  1
  Na  Na4  1  0.50000000  0.00000000  0.50000000  1
  Na  Na5  1  0.50000000  0.50000000  0.50000000  1
  Na  Na6  1  0.52735572  0.75000000  0.98304454  1
  Na  Na7  1  0.97264428  0.25000000  0.48304454  1
  Co  Co8  1  0.20163270  0.25000000  0.80172288  1
  Co  Co9  1  0.26066216  0.58426698  0.85164818  1
  Co  Co10  1  0.26066216  0.91573302  0.85164818  1
  Co  Co11  1  0.23933784  0.08426698  0.35164818  1
  Co  Co12  1  0.23933784  0.41573302  0.35164818  1
  Co  Co13  1  0.29836730  0.75000000  0.30172288  1
  Co  Co14  1  0.70163270  0.25000000  0.69827712  1
  Co  Co15  1  0.76066216  0.58426698  0.64835182  1
  Co  Co16  1  0.76066216  0.91573302  0.64835182  1
  Co  Co17  1  0.73933784  0.08426698  0.14835182  1
  Co  Co18  1  0.73933784  0.41573302  0.14835182  1
  Co  Co19  1  0.79836730  0.75000000  0.19827712  1
  O  O20  1  0.13415230  0.47228562  0.64354083  1
  O  O21  1  0.13415230  0.02771438  0.64354083  1
  O  O22  1  0.15262223  0.75000000  0.07697303  1
  O  O23  1  0.14153549  0.25000000  0.14691077  1
  O  O24  1  0.35846451  0.75000000  0.64691077  1
  O  O25  1  0.34737777  0.25000000  0.57697303  1
  O  O26  1  0.36584770  0.52771438  0.14354083  1
  O  O27  1  0.36584770  0.97228562  0.14354083  1
  O  O28  1  0.63415230  0.02771438  0.85645917  1
  O  O29  1  0.63415230  0.47228562  0.85645917  1
  O  O30  1  0.65262223  0.75000000  0.42302697  1
  O  O31  1  0.64153549  0.25000000  0.35308923  1
  O  O32  1  0.85846451  0.75000000  0.85308923  1
  O  O33  1  0.84737777  0.25000000  0.92302697  1
  O  O34  1  0.86584770  0.52771438  0.35645917  1
  O  O35  1  0.86584770  0.97228562  0.35645917  1
