# generated using pymatgen
data_LiMn2CoO6
_symmetry_space_group_name_H-M   'P 1'
_cell_length_a   2.93885378
_cell_length_b   6.54778754
_cell_length_c   5.91368922
_cell_angle_alpha   104.01741247
_cell_angle_beta   89.78592936
_cell_angle_gamma   102.88322939
_symmetry_Int_Tables_number   1
_chemical_formula_structural   LiMn2CoO6
_chemical_formula_sum   'Li1 Mn2 Co1 O6'
_cell_volume   107.47693389
_cell_formula_units_Z   1
loop_
 _symmetry_equiv_pos_site_id
 _symmetry_equiv_pos_as_xyz
  1  'x, y, z'
loop_
 _atom_site_type_symbol
 _atom_site_label
 _atom_site_symmetry_multiplicity
 _atom_site_fract_x
 _atom_site_fract_y
 _atom_site_fract_z
 _atom_site_occupancy
  Li  Li0  1  0.33337878  0.66673425  0.16672088  1
  Mn  Mn1  1  0.00236751  0.00373799  0.98633554  1
  Mn  Mn2  1  0.66439487  0.32959976  0.34696475  1
  Co  Co3  1  0.33333008  0.66665180  0.66672216  1
  O  O4  1  0.81383274  0.63614076  0.42082344  1
  O  O5  1  0.16008186  0.31982360  0.12384832  1
  O  O6  1  0.85267100  0.69707063  0.91242175  1
  O  O7  1  0.17750512  0.35702390  0.56504887  1
  O  O8  1  0.50637110  0.01351144  0.20935473  1
  O  O9  1  0.48940094  0.97637187  0.76842656  1
