# generated using pymatgen
data_Li4V3Fe5O16
_symmetry_space_group_name_H-M   'P 1'
_cell_length_a   5.94274602
_cell_length_b   5.94453435
_cell_length_c   9.62594338
_cell_angle_alpha   90.45804974
_cell_angle_beta   89.10066237
_cell_angle_gamma   120.17810632
_symmetry_Int_Tables_number   1
_chemical_formula_structural   Li4V3Fe5O16
_chemical_formula_sum   'Li4 V3 Fe5 O16'
_cell_volume   293.92951827
_cell_formula_units_Z   1
loop_
 _symmetry_equiv_pos_site_id
 _symmetry_equiv_pos_as_xyz
  1  'x, y, z'
loop_
 _atom_site_type_symbol
 _atom_site_label
 _atom_site_symmetry_multiplicity
 _atom_site_fract_x
 _atom_site_fract_y
 _atom_site_fract_z
 _atom_site_occupancy
  Li  Li0  1  0.33934004  0.67498840  0.89381767  1
  Li  Li1  1  0.99865094  0.99159483  0.99551734  1
  Li  Li2  1  0.99592660  0.99851885  0.49597909  1
  Li  Li3  1  0.67882668  0.34155218  0.39414822  1
  V  V4  1  0.66116537  0.83452635  0.21564604  1
  V  V5  1  0.81949163  0.66397982  0.71192691  1
  V  V6  1  0.83764189  0.18320740  0.71710505  1
  Fe  Fe7  1  0.16716232  0.82595338  0.21310176  1
  Fe  Fe8  1  0.32626954  0.66012261  0.49105801  1
  Fe  Fe9  1  0.17499521  0.33851053  0.21552812  1
  Fe  Fe10  1  0.33720270  0.16476940  0.71211899  1
  Fe  Fe11  1  0.65476773  0.32422090  0.99181267  1
  O  O12  1  0.14169376  0.81925345  0.60155005  1
  O  O13  1  0.04575606  0.52198758  0.33967816  1
  O  O14  1  0.35866250  0.67506284  0.10368516  1
  O  O15  1  0.98497840  0.99121237  0.30993180  1
  O  O16  1  0.99205080  0.00088038  0.80937302  1
  O  O17  1  0.15896192  0.32444407  0.59923378  1
  O  O18  1  0.50094426  0.96427023  0.33553286  1
  O  O19  1  0.50084256  0.53598099  0.33674340  1
  O  O20  1  0.32160612  0.15750485  0.09858199  1
  O  O21  1  0.67127878  0.84465450  0.60592563  1
  O  O22  1  0.53578829  0.49813371  0.83528557  1
  O  O23  1  0.51942616  0.04204699  0.83883659  1
  O  O24  1  0.67317459  0.33531269  0.60191989  1
  O  O25  1  0.82143959  0.66856880  0.10353324  1
  O  O26  1  0.96137585  0.47355339  0.83676855  1
  O  O27  1  0.82058072  0.14548852  0.10349942  1
