# generated using pymatgen
data_Li5Fe4(P2O7)4
_symmetry_space_group_name_H-M   'P 1'
_cell_length_a   9.76482559
_cell_length_b   9.70573280
_cell_length_c   11.12086626
_cell_angle_alpha   90.01639795
_cell_angle_beta   101.80020188
_cell_angle_gamma   89.79956650
_symmetry_Int_Tables_number   1
_chemical_formula_structural   Li5Fe4(P2O7)4
_chemical_formula_sum   'Li10 Fe8 P16 O56'
_cell_volume   1031.69726849
_cell_formula_units_Z   2
loop_
 _symmetry_equiv_pos_site_id
 _symmetry_equiv_pos_as_xyz
  1  'x, y, z'
loop_
 _atom_site_type_symbol
 _atom_site_label
 _atom_site_symmetry_multiplicity
 _atom_site_fract_x
 _atom_site_fract_y
 _atom_site_fract_z
 _atom_site_occupancy
  Li  Li0  1  0.16166933  0.43205444  0.53216719  1
  Li  Li1  1  0.34311853  0.90162220  0.95781698  1
  Li  Li2  1  0.41931559  0.59306550  0.97824214  1
  Li  Li3  1  0.33564973  0.92079423  0.46251780  1
  Li  Li4  1  0.61986358  0.04666686  0.50368217  1
  Li  Li5  1  0.84686609  0.58033959  0.96409706  1
  Li  Li6  1  0.65387737  0.12273552  0.03643613  1
  Li  Li7  1  0.91996456  0.90430105  0.97608934  1
  Li  Li8  1  0.81853130  0.59722292  0.44792815  1
  Li  Li9  1  0.88101793  0.28453858  0.54331939  1
  Fe  Fe10  1  0.19577480  0.92197610  0.66824693  1
  Fe  Fe11  1  0.24583122  0.21528075  0.82716338  1
  Fe  Fe12  1  0.24510844  0.71620088  0.18088409  1
  Fe  Fe13  1  0.30068631  0.41980538  0.32137298  1
  Fe  Fe14  1  0.69613431  0.57556870  0.67324749  1
  Fe  Fe15  1  0.75107897  0.28374156  0.83030055  1
  Fe  Fe16  1  0.74495215  0.78036144  0.17540969  1
  Fe  Fe17  1  0.80300059  0.07504280  0.31920020  1
  P  P18  1  0.01954768  0.45129237  0.75275387  1
  P  P19  1  0.11574794  0.70909654  0.88740059  1
  P  P20  1  0.07322532  0.92037391  0.24556339  1
  P  P21  1  0.12517872  0.14742301  0.42057505  1
  P  P22  1  0.37465750  0.64432604  0.57861583  1
  P  P23  1  0.42966334  0.42124266  0.76163501  1
  P  P24  1  0.51623716  0.04734358  0.75285260  1
  P  P25  1  0.38769852  0.21348757  0.11273687  1
  P  P26  1  0.61606221  0.79175404  0.88598521  1
  P  P27  1  0.47956391  0.95545006  0.24885017  1
  P  P28  1  0.56739966  0.58142921  0.24243750  1
  P  P29  1  0.62201421  0.35375758  0.41753069  1
  P  P30  1  0.87361943  0.85495935  0.57742086  1
  P  P31  1  0.93123375  0.07861719  0.75978398  1
  P  P32  1  0.90191190  0.28743546  0.11417009  1
  P  P33  1  0.98167196  0.54872493  0.24781293  1
  O  O34  1  0.01752467  0.42265505  0.61901142  1
  O  O35  1  0.02811220  0.84280772  0.57007393  1
  O  O36  1  0.08627121  0.08436069  0.73670965  1
  O  O37  1  0.10867026  0.59053629  0.78518573  1
  O  O38  1  0.09711373  0.34317205  0.84192160  1
  O  O39  1  0.18026045  0.83153600  0.83008646  1
  O  O40  1  0.22493926  0.66372862  0.00443067  1
  O  O41  1  0.04122020  0.24696283  0.09531347  1
  O  O42  1  0.12831268  0.07083936  0.29283782  1
  O  O43  1  0.08445294  0.89689724  0.11294132  1
  O  O44  1  0.13915009  0.54276408  0.22802661  1
  O  O45  1  0.18698421  0.29042494  0.40878431  1
  O  O46  1  0.18163047  0.81813026  0.31958809  1
  O  O47  1  0.20962828  0.05612353  0.52168605  1
  O  O48  1  0.28924259  0.55771682  0.47585466  1
  O  O49  1  0.32622749  0.30964918  0.69658153  1
  O  O50  1  0.31560331  0.78947659  0.59314530  1
  O  O51  1  0.36205679  0.02816051  0.77784769  1
  O  O52  1  0.36573109  0.56785657  0.70541473  1
  O  O53  1  0.42018235  0.42136761  0.89478303  1
  O  O54  1  0.47450141  0.76758440  0.91577043  1
  O  O55  1  0.29416230  0.15105961  0.99343811  1
  O  O56  1  0.31834465  0.33236296  0.16919153  1
  O  O57  1  0.39175903  0.09409185  0.21615107  1
  O  O58  1  0.41248959  0.58817248  0.26487157  1
  O  O59  1  0.39667007  0.84801034  0.15919106  1
  O  O60  1  0.47034075  0.34398079  0.42943157  1
  O  O61  1  0.51730031  0.08323566  0.62293696  1
  O  O62  1  0.48545050  0.93272837  0.38332856  1
  O  O63  1  0.52945292  0.65385048  0.57229441  1
  O  O64  1  0.59609223  0.13984368  0.85473301  1
  O  O65  1  0.57893876  0.41446407  0.73199943  1
  O  O66  1  0.59318384  0.89832565  0.77307332  1
  O  O67  1  0.68264880  0.66526612  0.83447836  1
  O  O68  1  0.72256276  0.85450581  0.99521708  1
  O  O69  1  0.53286211  0.23729276  0.09685925  1
  O  O70  1  0.57613615  0.59504932  0.11003488  1
  O  O71  1  0.62432631  0.43004571  0.29005382  1
  O  O72  1  0.62866561  0.97209415  0.21856954  1
  O  O73  1  0.69016122  0.21096350  0.40854336  1
  O  O74  1  0.66859349  0.68374983  0.31954923  1
  O  O75  1  0.71746060  0.43841320  0.51946434  1
  O  O76  1  0.78868663  0.94326314  0.47436642  1
  O  O77  1  0.83928146  0.19160797  0.68678607  1
  O  O78  1  0.81199206  0.71194043  0.59302224  1
  O  O79  1  0.86964230  0.47565001  0.77778766  1
  O  O80  1  0.91670273  0.07743928  0.89104703  1
  O  O81  1  0.87079394  0.93173228  0.70504845  1
  O  O82  1  0.97180197  0.72947391  0.91133476  1
  O  O83  1  0.80130309  0.35668840  0.00391828  1
  O  O84  1  0.81845773  0.16948985  0.16716566  1
  O  O85  1  0.89977013  0.63957683  0.14479065  1
  O  O86  1  0.91748957  0.39731716  0.22779952  1
  O  O87  1  0.92154787  0.91399548  0.26812061  1
  O  O88  1  0.97044335  0.16134912  0.43083222  1
  O  O89  1  0.97574146  0.58420549  0.37766717  1
