# generated using pymatgen
data_Li4V3Cu3(TeO8)2
_symmetry_space_group_name_H-M   'P 1'
_cell_length_a   5.99745222
_cell_length_b   5.92158771
_cell_length_c   9.89465527
_cell_angle_alpha   89.99479790
_cell_angle_beta   87.54828328
_cell_angle_gamma   119.70793966
_symmetry_Int_Tables_number   1
_chemical_formula_structural   Li4V3Cu3(TeO8)2
_chemical_formula_sum   'Li4 V3 Cu3 Te2 O16'
_cell_volume   304.84452857
_cell_formula_units_Z   1
loop_
 _symmetry_equiv_pos_site_id
 _symmetry_equiv_pos_as_xyz
  1  'x, y, z'
loop_
 _atom_site_type_symbol
 _atom_site_label
 _atom_site_symmetry_multiplicity
 _atom_site_fract_x
 _atom_site_fract_y
 _atom_site_fract_z
 _atom_site_occupancy
  Li  Li0  1  0.33213751  0.66780168  0.91506286  1
  Li  Li1  1  0.99050909  0.99418547  0.98689210  1
  Li  Li2  1  0.00071950  0.99828522  0.47762609  1
  Li  Li3  1  0.69324269  0.34778636  0.40822850  1
  V  V4  1  0.64822621  0.82385753  0.22329099  1
  V  V5  1  0.81687439  0.64778189  0.71920985  1
  V  V6  1  0.81851420  0.16725390  0.71395377  1
  Cu  Cu7  1  0.16760597  0.82630719  0.20771498  1
  Cu  Cu8  1  0.16756338  0.34123303  0.20774752  1
  Cu  Cu9  1  0.33333554  0.16613538  0.70700039  1
  Te  Te10  1  0.33386391  0.66570574  0.48665453  1
  Te  Te11  1  0.65154938  0.32508649  0.98805965  1
  O  O12  1  0.16040220  0.82436374  0.58708819  1
  O  O13  1  0.06195221  0.53075996  0.35330486  1
  O  O14  1  0.36356699  0.68238465  0.11657445  1
  O  O15  1  0.98250940  0.99088684  0.28600905  1
  O  O16  1  0.98242083  0.98041622  0.79471423  1
  O  O17  1  0.15613727  0.33063507  0.58543702  1
  O  O18  1  0.52351965  0.97694079  0.36409551  1
  O  O19  1  0.52091290  0.54424197  0.36274775  1
  O  O20  1  0.31796517  0.15889440  0.08256505  1
  O  O21  1  0.65125687  0.82081426  0.60102877  1
  O  O22  1  0.53057248  0.49653019  0.85283875  1
  O  O23  1  0.53201737  0.03663989  0.85216942  1
  O  O24  1  0.68670662  0.35936538  0.60899220  1
  O  O25  1  0.80737772  0.64584205  0.08769891  1
  O  O26  1  0.95886674  0.48768288  0.84456333  1
  O  O27  1  0.80967382  0.16248082  0.08657327  1
