# generated using pymatgen
data_Li5Cr(CO3)4
_symmetry_space_group_name_H-M   'P 1'
_cell_length_a   11.35884751
_cell_length_b   9.25913859
_cell_length_c   8.48216087
_cell_angle_alpha   90.00000000
_cell_angle_beta   92.02031816
_cell_angle_gamma   90.00000000
_symmetry_Int_Tables_number   1
_chemical_formula_structural   Li5Cr(CO3)4
_chemical_formula_sum   'Li20 Cr4 C16 O48'
_cell_volume   891.54098340
_cell_formula_units_Z   4
loop_
 _symmetry_equiv_pos_site_id
 _symmetry_equiv_pos_as_xyz
  1  'x, y, z'
loop_
 _atom_site_type_symbol
 _atom_site_label
 _atom_site_symmetry_multiplicity
 _atom_site_fract_x
 _atom_site_fract_y
 _atom_site_fract_z
 _atom_site_occupancy
  Li  Li0  1  0.06655681  0.63211850  0.56131545  1
  Li  Li1  1  0.06655681  0.86788150  0.06131545  1
  Li  Li2  1  0.11068830  0.13263809  0.56698657  1
  Li  Li3  1  0.11068830  0.36736191  0.06698657  1
  Li  Li4  1  0.21721541  0.89454502  0.70716834  1
  Li  Li5  1  0.21721541  0.60545498  0.20716834  1
  Li  Li6  1  0.35152296  0.67571336  0.51666040  1
  Li  Li7  1  0.35152296  0.82428664  0.01666040  1
  Li  Li8  1  0.39964644  0.08830786  0.55791205  1
  Li  Li9  1  0.39964644  0.41169214  0.05791205  1
  Li  Li10  1  0.60035356  0.58830786  0.94208795  1
  Li  Li11  1  0.60035356  0.91169214  0.44208795  1
  Li  Li12  1  0.64847704  0.17571336  0.98333960  1
  Li  Li13  1  0.64847704  0.32428664  0.48333960  1
  Li  Li14  1  0.78278459  0.39454502  0.79283166  1
  Li  Li15  1  0.78278459  0.10545498  0.29283166  1
  Li  Li16  1  0.88931170  0.63263809  0.93301343  1
  Li  Li17  1  0.88931170  0.86736191  0.43301343  1
  Li  Li18  1  0.93344319  0.13211850  0.93868455  1
  Li  Li19  1  0.93344319  0.36788150  0.43868455  1
  Cr  Cr20  1  0.26653985  0.37878058  0.71621702  1
  Cr  Cr21  1  0.26653985  0.12121942  0.21621702  1
  Cr  Cr22  1  0.73346015  0.87877958  0.78378298  1
  Cr  Cr23  1  0.73346015  0.62122042  0.28378298  1
  C  C24  1  0.01564610  0.38856120  0.75314787  1
  C  C25  1  0.01564610  0.11143880  0.25314787  1
  C  C26  1  0.20430865  0.63373845  0.87582453  1
  C  C27  1  0.20430865  0.86626155  0.37582453  1
  C  C28  1  0.28435497  0.15047647  0.88843888  1
  C  C29  1  0.28435497  0.34952353  0.38843888  1
  C  C30  1  0.48209150  0.84931445  0.74611922  1
  C  C31  1  0.48209150  0.65068555  0.24611922  1
  C  C32  1  0.51790850  0.34931445  0.75388078  1
  C  C33  1  0.51790850  0.15068555  0.25388078  1
  C  C34  1  0.71564503  0.65047647  0.61156112  1
  C  C35  1  0.71564503  0.84952353  0.11156112  1
  C  C36  1  0.79569135  0.13373845  0.62417547  1
  C  C37  1  0.79569135  0.36626155  0.12417547  1
  C  C38  1  0.98435390  0.88856120  0.74685213  1
  C  C39  1  0.98435390  0.61143880  0.24685213  1
  O  O40  1  0.00425872  0.82293613  0.61839732  1
  O  O41  1  0.00425872  0.67706387  0.11839732  1
  O  O42  1  0.04059944  0.00315359  0.79172192  1
  O  O43  1  0.04059944  0.49684641  0.29172192  1
  O  O44  1  0.09653494  0.33631384  0.65614975  1
  O  O45  1  0.09653494  0.16368616  0.15614975  1
  O  O46  1  0.19749572  0.77124285  0.89842037  1
  O  O47  1  0.19749572  0.72875715  0.39842037  1
  O  O48  1  0.19815944  0.54138097  0.98597047  1
  O  O49  1  0.19815944  0.95861903  0.48597047  1
  O  O50  1  0.22027163  0.58757216  0.72939700  1
  O  O51  1  0.22027163  0.91242784  0.22939700  1
  O  O52  1  0.29363595  0.13513834  0.73771355  1
  O  O53  1  0.25670879  0.27971741  0.93415462  1
  O  O54  1  0.29363595  0.36486166  0.23771355  1
  O  O55  1  0.25670879  0.22028259  0.43415462  1
  O  O56  1  0.30087128  0.04903358  0.99011369  1
  O  O57  1  0.30087128  0.45096642  0.49011369  1
  O  O58  1  0.38771592  0.85114032  0.65739232  1
  O  O59  1  0.38771592  0.64885968  0.15739232  1
  O  O60  1  0.42794211  0.42654195  0.80636846  1
  O  O61  1  0.42794211  0.07345805  0.30636846  1
  O  O62  1  0.50717757  0.28149024  0.62281224  1
  O  O63  1  0.50717757  0.21850976  0.12281224  1
  O  O64  1  0.49282243  0.78149024  0.87718776  1
  O  O65  1  0.49282243  0.71850976  0.37718776  1
  O  O66  1  0.57205789  0.92654195  0.69363154  1
  O  O67  1  0.57205789  0.57345805  0.19363154  1
  O  O68  1  0.61228408  0.35114032  0.84260768  1
  O  O69  1  0.61228408  0.14885968  0.34260768  1
  O  O70  1  0.69912872  0.54903358  0.50988631  1
  O  O71  1  0.69912872  0.95096642  0.00988631  1
  O  O72  1  0.74329121  0.77971741  0.56584538  1
  O  O73  1  0.70636405  0.63513834  0.76228645  1
  O  O74  1  0.74329121  0.72028259  0.06584538  1
  O  O75  1  0.70636405  0.86486166  0.26228645  1
  O  O76  1  0.77972837  0.08757216  0.77060300  1
  O  O77  1  0.77972837  0.41242784  0.27060300  1
  O  O78  1  0.80184056  0.04138097  0.51402953  1
  O  O79  1  0.80184056  0.45861803  0.01402953  1
  O  O80  1  0.80250428  0.27124285  0.60157963  1
  O  O81  1  0.80250428  0.22875715  0.10157963  1
  O  O82  1  0.90346506  0.83631384  0.84385025  1
  O  O83  1  0.90346506  0.66368616  0.34385025  1
  O  O84  1  0.95940056  0.50315359  0.70827808  1
  O  O85  1  0.95940056  0.99684641  0.20827808  1
  O  O86  1  0.99574128  0.32293613  0.88160268  1
  O  O87  1  0.99574128  0.17706387  0.38160268  1
