# generated using pymatgen
data_Li4V5Ni3O16
_symmetry_space_group_name_H-M   'P 1'
_cell_length_a   5.89531975
_cell_length_b   5.90838234
_cell_length_c   9.54242895
_cell_angle_alpha   89.64916953
_cell_angle_beta   90.45945539
_cell_angle_gamma   120.08761263
_symmetry_Int_Tables_number   1
_chemical_formula_structural   Li4V5Ni3O16
_chemical_formula_sum   'Li4 V5 Ni3 O16'
_cell_volume   287.58497083
_cell_formula_units_Z   1
loop_
 _symmetry_equiv_pos_site_id
 _symmetry_equiv_pos_as_xyz
  1  'x, y, z'
loop_
 _atom_site_type_symbol
 _atom_site_label
 _atom_site_symmetry_multiplicity
 _atom_site_fract_x
 _atom_site_fract_y
 _atom_site_fract_z
 _atom_site_occupancy
  Li  Li0  1  0.30679615  0.65371968  0.89977940  1
  Li  Li1  1  0.00382976  0.00590621  0.98847686  1
  Li  Li2  1  0.00560168  0.00506491  0.49608625  1
  Li  Li3  1  0.66456443  0.32966058  0.39821576  1
  V  V4  1  0.18709728  0.83271763  0.22252400  1
  V  V5  1  0.18830455  0.34212158  0.21570306  1
  V  V6  1  0.36498087  0.18324692  0.73769018  1
  V  V7  1  0.33170615  0.66938858  0.50084662  1
  V  V8  1  0.70177526  0.36201603  0.99623841  1
  Ni  Ni9  1  0.66356332  0.83674826  0.21200184  1
  Ni  Ni10  1  0.82882320  0.65577355  0.70760533  1
  Ni  Ni11  1  0.82957426  0.17195748  0.70606463  1
  O  O12  1  0.17759103  0.82304753  0.58991574  1
  O  O13  1  0.04227376  0.52223661  0.34341907  1
  O  O14  1  0.31309497  0.66959718  0.10306027  1
  O  O15  1  0.01556946  0.99505523  0.30587933  1
  O  O16  1  0.02337576  0.01111939  0.79285581  1
  O  O17  1  0.17769498  0.35315312  0.58720412  1
  O  O18  1  0.47241716  0.95410707  0.34939852  1
  O  O19  1  0.46348188  0.50296430  0.33900192  1
  O  O20  1  0.34311753  0.17129171  0.10230024  1
  O  O21  1  0.65075262  0.82376549  0.58212891  1
  O  O22  1  0.49566655  0.46938018  0.84417416  1
  O  O23  1  0.49246665  0.02769500  0.84505862  1
  O  O24  1  0.61862526  0.30936114  0.60431693  1
  O  O25  1  0.83360612  0.66415834  0.09184371  1
  O  O26  1  0.94431461  0.46666188  0.84722175  1
  O  O27  1  0.85933274  0.18838340  0.09882658  1
