# generated using pymatgen
data_Li6MnV3(PO4)6
_symmetry_space_group_name_H-M   'P 1'
_cell_length_a   9.87398208
_cell_length_b   9.81421811
_cell_length_c   9.88939374
_cell_angle_alpha   87.52781321
_cell_angle_beta   86.23928737
_cell_angle_gamma   87.42075817
_symmetry_Int_Tables_number   1
_chemical_formula_structural   Li6MnV3(PO4)6
_chemical_formula_sum   'Li12 Mn2 V6 P12 O48'
_cell_volume   954.52696024
_cell_formula_units_Z   2
loop_
 _symmetry_equiv_pos_site_id
 _symmetry_equiv_pos_as_xyz
  1  'x, y, z'
loop_
 _atom_site_type_symbol
 _atom_site_label
 _atom_site_symmetry_multiplicity
 _atom_site_fract_x
 _atom_site_fract_y
 _atom_site_fract_z
 _atom_site_occupancy
  Li  Li0  1  -0.00097133  0.04960234  0.98166894  1
  Li  Li1  1  0.05345501  0.73434200  0.14210280  1
  Li  Li2  1  0.13247425  0.07028009  0.73241961  1
  Li  Li3  1  0.22752308  0.55504173  0.64550578  1
  Li  Li4  1  0.27129252  0.85048217  0.94725270  1
  Li  Li5  1  0.36899355  0.77043908  0.42923062  1
  Li  Li6  1  0.44379457  0.36225240  0.76119871  1
  Li  Li7  1  0.49858620  0.51791494  0.45078924  1
  Li  Li8  1  0.64370854  0.23016430  0.54674994  1
  Li  Li9  1  0.77515097  0.46995202  0.33304356  1
  Li  Li10  1  0.73110606  0.16067503  0.03575547  1
  Li  Li11  1  0.85408046  0.94806509  0.26714339  1
  Mn  Mn12  1  0.75675396  0.52939679  0.97101835  1
  Mn  Mn13  1  0.97050620  0.75440573  0.53025230  1
  V  V14  1  0.03236799  0.25618978  0.47772845  1
  V  V15  1  0.25134423  0.24940574  0.25253768  1
  V  V16  1  0.25077153  0.46647603  0.03565817  1
  V  V17  1  0.46813530  0.02374856  0.24192103  1
  V  V18  1  0.53252368  0.96365634  0.74787985  1
  V  V19  1  0.74937883  0.74588467  0.75042259  1
  P  P20  1  0.05053647  0.66775011  0.85809478  1
  P  P21  1  0.14585059  0.95171622  0.33322961  1
  P  P22  1  0.17498707  0.55297805  0.35497218  1
  P  P23  1  0.32494062  0.14629450  0.95023372  1
  P  P24  1  0.35438653  0.16606481  0.54746770  1
  P  P25  1  0.44810733  0.64660587  0.82602067  1
  P  P26  1  0.55097249  0.34705951  0.17553342  1
  P  P27  1  0.64577180  0.82267341  0.44946196  1
  P  P28  1  0.67475996  0.84820976  0.04781737  1
  P  P29  1  0.82665962  0.44997839  0.65229443  1
  P  P30  1  0.85236029  0.04628199  0.67487266  1
  P  P31  1  0.95307430  0.32431628  0.15980902  1
  O  O32  1  0.03458479  0.61880587  0.40321637  1
  O  O33  1  0.05601626  0.90532583  0.22565057  1
  O  O34  1  0.11460284  0.32896727  0.12610689  1
  O  O35  1  0.12235686  0.11228683  0.33836998  1
  O  O36  1  0.08871115  0.69024813  0.70584514  1
  O  O37  1  0.10739058  0.88711550  0.47595499  1
  O  O38  1  0.09060927  0.78185264  0.94721492  1
  O  O39  1  0.11443094  0.52869231  0.90524266  1
  O  O40  1  0.17143153  0.39273208  0.38124222  1
  O  O41  1  0.19078880  0.58971017  0.20043665  1
  O  O42  1  0.19894315  0.19312151  0.58323212  1
  O  O43  1  0.20780824  0.06281124  0.90747359  1
  O  O44  1  0.32719562  0.12004631  0.10985131  1
  O  O45  1  0.28810822  0.59729255  0.44011382  1
  O  O46  1  0.30020391  0.91508705  0.30567391  1
  O  O47  1  0.31363884  0.30186728  0.91302995  1
  O  O48  1  0.37883260  0.16301093  0.38638383  1
  O  O49  1  0.39058818  0.37888381  0.16967760  1
  O  O50  1  0.39291919  0.02611392  0.61230677  1
  O  O51  1  0.37822334  0.60745343  0.96639766  1
  O  O52  1  0.40117280  0.55717613  0.71649078  1
  O  O53  1  0.44293375  0.27860763  0.59124673  1
  O  O54  1  0.41204685  0.80277102  0.80271203  1
  O  O55  1  0.46247426  0.09217538  0.88579925  1
  O  O56  1  0.53011625  0.89490375  0.10626412  1
  O  O57  1  0.57928984  0.18899040  0.18254149  1
  O  O58  1  0.59547357  0.41486432  0.29916795  1
  O  O59  1  0.56016483  0.70505677  0.41537467  1
  O  O60  1  0.62221914  0.39324119  0.03746278  1
  O  O61  1  0.59539674  0.96064047  0.38520830  1
  O  O62  1  0.60575018  0.62257633  0.82850078  1
  O  O63  1  0.62476293  0.83251676  0.61206798  1
  O  O64  1  0.69563408  0.08059699  0.68970372  1
  O  O65  1  0.69857270  0.69501154  0.08280972  1
  O  O66  1  0.71850041  0.40306147  0.56334404  1
  O  O67  1  0.67257495  0.87678891  0.88694237  1
  O  O68  1  0.78247219  0.94109443  0.09307421  1
  O  O69  1  0.80020455  0.41685657  0.80544964  1
  O  O70  1  0.79952239  0.80644057  0.40905177  1
  O  O71  1  0.83195720  0.61217464  0.62107849  1
  O  O72  1  0.88571210  0.46320630  0.12093623  1
  O  O73  1  0.90773506  0.20199617  0.08791163  1
  O  O74  1  0.89999135  0.11432534  0.53824405  1
  O  O75  1  0.92366854  0.31128465  0.31719926  1
  O  O76  1  0.87906517  0.88377879  0.66269704  1
  O  O77  1  0.93350876  0.08304313  0.79234869  1
  O  O78  1  0.88727658  0.66208744  0.87911514  1
  O  O79  1  0.97103482  0.39174751  0.60700949  1
