# generated using pymatgen
data_Zn(AgO2)2
_symmetry_space_group_name_H-M   'P 1'
_cell_length_a   6.31368706
_cell_length_b   6.50626805
_cell_length_c   25.63289940
_cell_angle_alpha   59.49258777
_cell_angle_beta   58.91784728
_cell_angle_gamma   58.98576163
_symmetry_Int_Tables_number   1
_chemical_formula_structural   Zn(AgO2)2
_chemical_formula_sum   'Zn8 Ag16 O32'
_cell_volume   729.78213656
_cell_formula_units_Z   8
loop_
 _symmetry_equiv_pos_site_id
 _symmetry_equiv_pos_as_xyz
  1  'x, y, z'
loop_
 _atom_site_type_symbol
 _atom_site_label
 _atom_site_symmetry_multiplicity
 _atom_site_fract_x
 _atom_site_fract_y
 _atom_site_fract_z
 _atom_site_occupancy
  Zn  Zn0  1  0.15273078  0.11015607  0.03173977  1
  Zn  Zn1  1  0.00151718  0.49935765  0.12494138  1
  Zn  Zn2  1  0.15491067  0.11313561  0.27970428  1
  Zn  Zn3  1  0.99762510  0.49638959  0.37739893  1
  Zn  Zn4  1  0.00012481  0.50017927  0.62487891  1
  Zn  Zn5  1  0.49567179  0.50003696  0.50106382  1
  Zn  Zn6  1  0.00319061  0.50239522  0.87300474  1
  Zn  Zn7  1  0.50244801  0.50091056  0.74893222  1
  Ag  Ag8  1  0.50022972  0.49884794  0.12480337  1
  Ag  Ag9  1  0.50006724  0.49670984  0.25162802  1
  Ag  Ag10  1  0.50022972  0.00170887  0.12480337  1
  Ag  Ag11  1  0.15057572  0.11038218  0.53216473  1
  Ag  Ag12  1  0.50235704  0.50195723  0.37528143  1
  Ag  Ag13  1  0.85469831  0.88551447  0.21856819  1
  Ag  Ag14  1  0.15072580  0.10857235  0.78303238  1
  Ag  Ag15  1  0.50235704  0.99456100  0.37528143  1
  Ag  Ag16  1  0.49993175  0.50007959  0.62484347  1
  Ag  Ag17  1  0.84977787  0.89036184  0.46737436  1
  Ag  Ag18  1  0.49993175  0.00061479  0.62484347  1
  Ag  Ag19  1  0.49740062  0.00674115  0.87450389  1
  Ag  Ag20  1  0.49740062  0.49784268  0.87450389  1
  Ag  Ag21  1  0.85118720  0.89056072  0.71692234  1
  Ag  Ag22  1  0.50004229  0.50071322  0.99963307  1
  Ag  Ag23  1  0.85776032  0.88548200  0.96781867  1
  O  O24  1  0.26204315  0.25939128  0.06510768  1
  O  O25  1  0.26209158  0.25785158  0.18055132  1
  O  O26  1  0.26204315  0.71813687  0.06510768  1
  O  O27  1  0.76074394  0.24192184  0.06385334  1
  O  O28  1  0.26560329  0.74417415  0.18651160  1
  O  O29  1  0.26646938  0.25358744  0.31474401  1
  O  O30  1  0.72463720  0.30072736  0.18488820  1
  O  O31  1  0.27727546  0.26419349  0.42358389  1
  O  O32  1  0.26646938  0.72096714  0.31474401  1
  O  O33  1  0.72653768  0.73846712  0.07413177  1
  O  O34  1  0.76185188  0.24363720  0.31271893  1
  O  O35  1  0.72463720  0.73508265  0.18488820  1
  O  O36  1  0.26899031  0.26919141  0.56727907  1
  O  O37  1  0.26432425  0.74225927  0.43778905  1
  O  O38  1  0.72413493  0.30400654  0.43501130  1
  O  O39  1  0.27133639  0.25741197  0.67846017  1
  O  O40  1  0.26899031  0.69270101  0.56727907  1
  O  O41  1  0.73017210  0.73479674  0.32505835  1
  O  O42  1  0.72007428  0.25582431  0.56706927  1
  O  O43  1  0.72413493  0.73181433  0.43501130  1
  O  O44  1  0.28044112  0.74508372  0.68234761  1
  O  O45  1  0.26911892  0.27081830  0.81709385  1
  O  O46  1  0.73158553  0.30783930  0.68210256  1
  O  O47  1  0.25428625  0.25381501  0.93452043  1
  O  O48  1  0.26911892  0.69168538  0.81709385  1
  O  O49  1  0.72656390  0.74338586  0.57166634  1
  O  O50  1  0.72177670  0.25610150  0.81650507  1
  O  O51  1  0.73158553  0.73216692  0.68210256  1
  O  O52  1  0.27600514  0.75344886  0.92927453  1
  O  O53  1  0.72822646  0.30532178  0.93237984  1
  O  O54  1  0.72761333  0.74404847  0.82107218  1
  O  O55  1  0.72822646  0.73693139  0.93237984  1
