# generated using pymatgen
data_Li6MnV3(PO4)6
_symmetry_space_group_name_H-M   'P 1'
_cell_length_a   9.83955100
_cell_length_b   9.82606829
_cell_length_c   9.80101072
_cell_angle_alpha   87.17306908
_cell_angle_beta   93.29232991
_cell_angle_gamma   95.16028894
_symmetry_Int_Tables_number   1
_chemical_formula_structural   Li6MnV3(PO4)6
_chemical_formula_sum   'Li12 Mn2 V6 P12 O48'
_cell_volume   941.27412843
_cell_formula_units_Z   2
loop_
 _symmetry_equiv_pos_site_id
 _symmetry_equiv_pos_as_xyz
  1  'x, y, z'
loop_
 _atom_site_type_symbol
 _atom_site_label
 _atom_site_symmetry_multiplicity
 _atom_site_fract_x
 _atom_site_fract_y
 _atom_site_fract_z
 _atom_site_occupancy
  Li  Li0  1  0.01587711  0.51131638  0.23884976  1
  Li  Li1  1  0.99452130  0.26042214  0.38687554  1
  Li  Li2  1  0.21471588  0.56803343  0.46264579  1
  Li  Li3  1  0.22912851  0.73347627  0.17444947  1
  Li  Li4  1  0.25352149  0.98677443  0.61150138  1
  Li  Li5  1  0.37272709  0.74593477  0.81647620  1
  Li  Li6  1  0.50610249  0.01336430  0.75635884  1
  Li  Li7  1  0.56264819  0.21799428  0.53671869  1
  Li  Li8  1  0.69741344  0.91973028  0.97531341  1
  Li  Li9  1  0.73338846  0.23083538  0.82399580  1
  Li  Li10  1  0.75246111  0.37786204  0.18347433  1
  Li  Li11  1  0.91865366  0.69173955  0.02168866  1
  Mn  Mn12  1  0.24632223  0.24435865  0.99978009  1
  Mn  Mn13  1  0.97139743  0.74205293  0.72206818  1
  V  V14  1  0.02944354  0.25457971  0.78236137  1
  V  V15  1  0.25317861  0.02824473  0.21726292  1
  V  V16  1  0.46548099  0.46180219  0.00205131  1
  V  V17  1  0.53158038  0.53235495  0.50137037  1
  V  V18  1  0.75004654  0.96723751  0.28119858  1
  V  V19  1  0.74854772  0.75063989  0.50343250  1
  P  P20  1  0.04938584  0.82238068  0.40220524  1
  P  P21  1  0.17339922  0.94677018  0.90139315  1
  P  P22  1  0.15941189  0.55288470  0.92779334  1
  P  P23  1  0.31705828  0.34017769  0.30211880  1
  P  P24  1  0.34062050  0.31624115  0.69890235  1
  P  P25  1  0.44395222  0.83704788  0.42720763  1
  P  P26  1  0.55435547  0.15229029  0.07259628  1
  P  P27  1  0.64814568  0.67890393  0.80491592  1
  P  P28  1  0.68147107  0.65006999  0.19887136  1
  P  P29  1  0.83883892  0.44630559  0.57431528  1
  P  P30  1  0.81692510  0.05446485  0.59406384  1
  P  P31  1  0.94825067  0.17445184  0.09599374  1
  O  O32  1  0.03091749  0.87533023  0.86348779  1
  O  O33  1  0.08464979  0.82694694  0.55768166  1
  O  O34  1  0.11683093  0.62069860  0.78983126  1
  O  O35  1  0.10920328  0.95821555  0.33444219  1
  O  O36  1  0.09787195  0.69578694  0.33886970  1
  O  O37  1  0.12134585  0.39522931  0.92013471  1
  O  O38  1  0.09464433  0.60508417  0.05316519  1
  O  O39  1  0.10960341  0.16370995  0.12163018  1
  O  O40  1  0.16174789  0.10753669  0.87609881  1
  O  O41  1  0.18413968  0.31033817  0.66719538  1
  O  O42  1  0.20558023  0.90907218  0.05525166  1
  O  O43  1  0.19152129  0.40453573  0.34729616  1
  O  O44  1  0.28596642  0.91340830  0.81032231  1
  O  O45  1  0.31916516  0.58666763  0.94441952  1
  O  O46  1  0.31099049  0.18356668  0.33280425  1
  O  O47  1  0.32610961  0.37150401  0.14043425  1
  O  O48  1  0.37195383  0.87709876  0.28883028  1
  O  O49  1  0.40672068  0.91085010  0.55011579  1
  O  O50  1  0.37312394  0.32309524  0.86169096  1
  O  O51  1  0.39994808  0.45379994  0.63580197  1
  O  O52  1  0.40720237  0.67712770  0.44620663  1
  O  O53  1  0.40389039  0.19041944  0.65280093  1
  O  O54  1  0.39717451  0.11709199  0.08073525  1
  O  O55  1  0.45454431  0.39862826  0.36773117  1
  O  O56  1  0.57455774  0.80140939  0.84552059  1
  O  O57  1  0.54368487  0.59167610  0.13867108  1
  O  O58  1  0.58889073  0.54004018  0.86285206  1
  O  O59  1  0.60534774  0.86815200  0.41456648  1
  O  O60  1  0.62112139  0.67040308  0.64254148  1
  O  O61  1  0.60540213  0.09424618  0.94327749  1
  O  O62  1  0.59003037  0.31187063  0.06896145  1
  O  O63  1  0.62051572  0.09366873  0.20721038  1
  O  O64  1  0.67258149  0.62281428  0.36056864  1
  O  O65  1  0.70305947  0.80630165  0.15838614  1
  O  O66  1  0.67948402  0.41125707  0.55577406  1
  O  O67  1  0.69290732  0.11049927  0.65404595  1
  O  O68  1  0.80309155  0.69846514  0.84553940  1
  O  O69  1  0.81249409  0.89596731  0.62743824  1
  O  O70  1  0.80442009  0.57777199  0.15752793  1
  O  O71  1  0.82273008  0.08611206  0.43605003  1
  O  O72  1  0.87066705  0.61034977  0.58562741  1
  O  O73  1  0.88807702  0.82523049  0.37244725  1
  O  O74  1  0.88141209  0.37879291  0.71350475  1
  O  O75  1  0.90944701  0.20812291  0.94231607  1
  O  O76  1  0.91139028  0.40874332  0.45171378  1
  O  O77  1  0.87771041  0.03261986  0.13208076  1
  O  O78  1  0.91579396  0.28734372  0.18858392  1
  O  O79  1  0.95416641  0.11445886  0.65956556  1
