# generated using pymatgen
data_Li3MnV(PO4)3
_symmetry_space_group_name_H-M   'P 1'
_cell_length_a   9.91613986
_cell_length_b   9.87538096
_cell_length_c   9.88595413
_cell_angle_alpha   88.32602041
_cell_angle_beta   87.06683021
_cell_angle_gamma   86.51305842
_symmetry_Int_Tables_number   1
_chemical_formula_structural   Li3MnV(PO4)3
_chemical_formula_sum   'Li12 Mn4 V4 P12 O48'
_cell_volume   964.69955181
_cell_formula_units_Z   4
loop_
 _symmetry_equiv_pos_site_id
 _symmetry_equiv_pos_as_xyz
  1  'x, y, z'
loop_
 _atom_site_type_symbol
 _atom_site_label
 _atom_site_symmetry_multiplicity
 _atom_site_fract_x
 _atom_site_fract_y
 _atom_site_fract_z
 _atom_site_occupancy
  Li  Li0  1  0.01086195  0.04907264  0.97495180  1
  Li  Li1  1  0.06482903  0.73990568  0.14060087  1
  Li  Li2  1  0.13730555  0.07115433  0.72426853  1
  Li  Li3  1  0.23399507  0.56262337  0.64252094  1
  Li  Li4  1  0.27202514  0.85560642  0.94287148  1
  Li  Li5  1  0.36416805  0.77107491  0.41718200  1
  Li  Li6  1  0.43654878  0.36055941  0.76518249  1
  Li  Li7  1  0.49312887  0.52572205  0.45025614  1
  Li  Li8  1  0.64085777  0.23169476  0.55994098  1
  Li  Li9  1  0.76474369  0.45678313  0.36576314  1
  Li  Li10  1  0.73807309  0.13096728  0.05168504  1
  Li  Li11  1  0.84632014  0.93581918  0.27272928  1
  Mn  Mn12  1  0.47594373  0.01926934  0.24104986  1
  Mn  Mn13  1  0.52718995  0.96665373  0.74003497  1
  Mn  Mn14  1  0.75307386  0.74508150  0.75251265  1
  Mn  Mn15  1  0.97283185  0.76130722  0.53168105  1
  V  V16  1  0.03130384  0.25634948  0.47267282  1
  V  V17  1  0.25238318  0.24666959  0.25026851  1
  V  V18  1  0.25058694  0.46472713  0.03613961  1
  V  V19  1  0.74881338  0.52944305  0.97000697  1
  P  P20  1  0.05206475  0.66959237  0.85746141  1
  P  P21  1  0.14125996  0.95300637  0.33290879  1
  P  P22  1  0.17280195  0.55119971  0.35668687  1
  P  P23  1  0.32604935  0.14498572  0.94653383  1
  P  P24  1  0.35254518  0.17021401  0.54629215  1
  P  P25  1  0.44843925  0.64251975  0.83294951  1
  P  P26  1  0.54943940  0.35229864  0.17676740  1
  P  P27  1  0.64621749  0.82425996  0.45369351  1
  P  P28  1  0.67072207  0.84326194  0.04182211  1
  P  P29  1  0.82749154  0.45362317  0.65477279  1
  P  P30  1  0.85719375  0.05030395  0.67404354  1
  P  P31  1  0.95325221  0.32073625  0.15185726  1
  O  O32  1  0.03562884  0.61931807  0.41012432  1
  O  O33  1  0.04305125  0.90610785  0.23125730  1
  O  O34  1  0.11230289  0.32902103  0.12253960  1
  O  O35  1  0.12057038  0.11502062  0.33381113  1
  O  O36  1  0.08944515  0.69062915  0.70497460  1
  O  O37  1  0.10621958  0.89554665  0.47823202  1
  O  O38  1  0.09299848  0.78358540  0.94695307  1
  O  O39  1  0.11772340  0.53120029  0.90432291  1
  O  O40  1  0.16779914  0.39205993  0.37979437  1
  O  O41  1  0.18595263  0.58727072  0.20295242  1
  O  O42  1  0.19825638  0.20232413  0.58222369  1
  O  O43  1  0.21199827  0.06052571  0.89989051  1
  O  O44  1  0.32714790  0.12140831  0.10399537  1
  O  O45  1  0.28921765  0.59407001  0.44018953  1
  O  O46  1  0.29041954  0.91106175  0.29867901  1
  O  O47  1  0.31220457  0.29955982  0.91065564  1
  O  O48  1  0.37796778  0.17098056  0.38789528  1
  O  O49  1  0.38834648  0.37929562  0.17152659  1
  O  O50  1  0.38643883  0.02669897  0.60904886  1
  O  O51  1  0.37759938  0.60058458  0.97009189  1
  O  O52  1  0.40723654  0.55297434  0.71924198  1
  O  O53  1  0.44421134  0.27432133  0.59857379  1
  O  O54  1  0.41240371  0.79567028  0.80937832  1
  O  O55  1  0.46484206  0.09221971  0.87951451  1
  O  O56  1  0.52699410  0.87347239  0.09649521  1
  O  O57  1  0.58777405  0.19990710  0.16780920  1
  O  O58  1  0.59201415  0.41743758  0.30441330  1
  O  O59  1  0.55604624  0.71241924  0.41652170  1
  O  O60  1  0.61002555  0.42160351  0.04454932  1
  O  O61  1  0.60792551  0.96462073  0.39191418  1
  O  O62  1  0.60749474  0.61847142  0.84192504  1
  O  O63  1  0.62388679  0.83398991  0.61705896  1
  O  O64  1  0.70358191  0.08746387  0.69194551  1
  O  O65  1  0.71116525  0.68743198  0.07053175  1
  O  O66  1  0.71855805  0.40489479  0.56680085  1
  O  O67  1  0.67684329  0.87242386  0.88162445  1
  O  O68  1  0.77445821  0.93302976  0.09699665  1
  O  O69  1  0.79657865  0.42644403  0.81106293  1
  O  O70  1  0.79894095  0.79392372  0.41561318  1
  O  O71  1  0.82899669  0.61349270  0.62785028  1
  O  O72  1  0.88358658  0.45161706  0.08931888  1
  O  O73  1  0.91123721  0.19194148  0.08984929  1
  O  O74  1  0.90672414  0.11945553  0.53842014  1
  O  O75  1  0.92122109  0.32753104  0.30846113  1
  O  O76  1  0.88075295  0.88929740  0.65721514  1
  O  O77  1  0.94245746  0.08384915  0.79106556  1
  O  O78  1  0.89179459  0.66211054  0.87771050  1
  O  O79  1  0.96849988  0.39196936  0.61412985  1
