# generated using pymatgen
data_Li3Ti2V5O12
_symmetry_space_group_name_H-M   'P 1'
_cell_length_a   5.25780910
_cell_length_b   5.11506346
_cell_length_c   29.54325518
_cell_angle_alpha   88.67757937
_cell_angle_beta   89.48488730
_cell_angle_gamma   60.36557272
_symmetry_Int_Tables_number   1
_chemical_formula_structural   Li3Ti2V5O12
_chemical_formula_sum   'Li9 Ti6 V15 O36'
_cell_volume   690.42342643
_cell_formula_units_Z   3
loop_
 _symmetry_equiv_pos_site_id
 _symmetry_equiv_pos_as_xyz
  1  'x, y, z'
loop_
 _atom_site_type_symbol
 _atom_site_label
 _atom_site_symmetry_multiplicity
 _atom_site_fract_x
 _atom_site_fract_y
 _atom_site_fract_z
 _atom_site_occupancy
  Li  Li0  1  0.15634417  0.17836812  0.49737107  1
  Li  Li1  1  0.16758098  0.83561392  0.16273101  1
  Li  Li2  1  0.83643328  0.16564643  0.08360398  1
  Li  Li3  1  0.82360450  0.18249653  0.33734519  1
  Li  Li4  1  0.82252232  0.15094127  0.82868627  1
  Li  Li5  1  0.84244791  0.49910742  0.41495520  1
  Li  Li6  1  0.83636889  0.50947913  0.66959312  1
  Li  Li7  1  0.84724262  0.83417581  0.00290277  1
  Li  Li8  1  0.83655656  0.83131822  0.75086256  1
  Ti  Ti9  1  0.49926261  0.15311460  0.41990056  1
  Ti  Ti10  1  0.49844230  0.16425945  0.91761214  1
  Ti  Ti11  1  0.50406930  0.49852045  0.24982401  1
  Ti  Ti12  1  0.47772840  0.52784585  0.74651116  1
  Ti  Ti13  1  0.49023901  0.85091567  0.08008603  1
  Ti  Ti14  1  0.50368153  0.83342308  0.58308700  1
  V  V15  1  0.16021623  0.18574631  0.25014953  1
  V  V16  1  0.14489958  0.17639779  0.75178930  1
  V  V17  1  0.14700453  0.50203395  0.08576764  1
  V  V18  1  0.16090774  0.51711274  0.58293723  1
  V  V19  1  0.14667960  0.83958661  0.41478282  1
  V  V20  1  0.51871661  0.16119823  0.16368493  1
  V  V21  1  0.16383749  0.84432096  0.91592748  1
  V  V22  1  0.50988453  0.16341261  0.66886305  1
  V  V23  1  0.51459534  0.48999727  0.00238928  1
  V  V24  1  0.51220199  0.49714634  0.49778227  1
  V  V25  1  0.50339824  0.82591574  0.33635879  1
  V  V26  1  0.85098856  0.14631488  0.58385599  1
  V  V27  1  0.50723422  0.83257816  0.82981449  1
  V  V28  1  0.85708377  0.48085562  0.91523398  1
  V  V29  1  0.85288000  0.80845212  0.24993165  1
  O  O30  1  0.20966150  0.14078893  0.12367887  1
  O  O31  1  0.19323645  0.13887410  0.37632651  1
  O  O32  1  0.19705332  0.15690411  0.62012599  1
  O  O33  1  0.20455517  0.14474924  0.87656196  1
  O  O34  1  0.20383023  0.49654651  0.21012733  1
  O  O35  1  0.19695198  0.48634249  0.45256736  1
  O  O36  1  0.18195422  0.48004576  0.71360440  1
  O  O37  1  0.19592824  0.49574385  0.95327623  1
  O  O38  1  0.49098236  0.16216174  0.04586446  1
  O  O39  1  0.19182992  0.80360657  0.04733982  1
  O  O40  1  0.20107475  0.82026698  0.28708600  1
  O  O41  1  0.52233711  0.14553844  0.28735551  1
  O  O42  1  0.49285338  0.17430681  0.54628574  1
  O  O43  1  0.19748460  0.83713710  0.54412686  1
  O  O44  1  0.48618701  0.14957783  0.78915000  1
  O  O45  1  0.18462528  0.83333545  0.78936357  1
  O  O46  1  0.46517442  0.49959530  0.12374440  1
  O  O47  1  0.49137837  0.52236373  0.37653881  1
  O  O48  1  0.51851285  0.48994038  0.62014463  1
  O  O49  1  0.50316894  0.51165929  0.87930197  1
  O  O50  1  0.49235586  0.84886368  0.21227956  1
  O  O51  1  0.81439331  0.17005564  0.21282778  1
  O  O52  1  0.81532459  0.16643454  0.45137619  1
  O  O53  1  0.46655038  0.85754201  0.45425416  1
  O  O54  1  0.48837400  0.83443938  0.71243411  1
  O  O55  1  0.81790258  0.15244741  0.95463989  1
  O  O56  1  0.80444667  0.20894819  0.71441558  1
  O  O57  1  0.51709732  0.82569370  0.95349671  1
  O  O58  1  0.80791543  0.49761773  0.28967038  1
  O  O59  1  0.81188604  0.52948780  0.04826304  1
  O  O60  1  0.81815568  0.50508759  0.54609195  1
  O  O61  1  0.78053849  0.49953619  0.79047125  1
  O  O62  1  0.80500219  0.84800064  0.12294577  1
  O  O63  1  0.81432344  0.82404273  0.62237889  1
  O  O64  1  0.78981321  0.87346470  0.37656552  1
  O  O65  1  0.80561291  0.86621520  0.87802135  1
