# generated using pymatgen
data_Li3Co2SnO6
_symmetry_space_group_name_H-M   'P 1'
_cell_length_a   15.64819598
_cell_length_b   10.02599086
_cell_length_c   10.02599092
_cell_angle_alpha   17.59245112
_cell_angle_beta   16.78944458
_cell_angle_gamma   16.78944427
_symmetry_Int_Tables_number   1
_chemical_formula_structural   Li3Co2SnO6
_chemical_formula_sum   'Li3 Co2 Sn1 O6'
_cell_volume   117.89124389
_cell_formula_units_Z   1
loop_
 _symmetry_equiv_pos_site_id
 _symmetry_equiv_pos_as_xyz
  1  'x, y, z'
loop_
 _atom_site_type_symbol
 _atom_site_label
 _atom_site_symmetry_multiplicity
 _atom_site_fract_x
 _atom_site_fract_y
 _atom_site_fract_z
 _atom_site_occupancy
  Li  Li0  1  0.16666700  0.50000000  0.50000000  1
  Li  Li1  1  0.48670943  0.50557460  0.50557460  1
  Li  Li2  1  0.84662357  0.49442540  0.49442540  1
  Co  Co3  1  0.96679178  0.02451697  0.02451697  1
  Co  Co4  1  0.36654122  0.97548303  0.97548303  1
  Sn  Sn5  1  0.66666700  0.00000000  0.00000000  1
  O  O6  1  0.24224686  0.26206792  0.26206792  1
  O  O7  1  0.58213053  0.25376606  0.25376606  1
  O  O8  1  0.09108714  0.73793208  0.73793208  1
  O  O9  1  0.91281134  0.25624835  0.25624835  1
  O  O10  1  0.42052266  0.74375165  0.74375165  1
  O  O11  1  0.75120247  0.74623394  0.74623394  1
