# generated using pymatgen
data_Li4Mn3(FeO4)3
_symmetry_space_group_name_H-M   'P 1'
_cell_length_a   6.00692952
_cell_length_b   7.94440963
_cell_length_c   5.13378232
_cell_angle_alpha   78.15957928
_cell_angle_beta   73.05872809
_cell_angle_gamma   78.70390908
_symmetry_Int_Tables_number   1
_chemical_formula_structural   Li4Mn3(FeO4)3
_chemical_formula_sum   'Li4 Mn3 Fe3 O12'
_cell_volume   226.93756218
_cell_formula_units_Z   1
loop_
 _symmetry_equiv_pos_site_id
 _symmetry_equiv_pos_as_xyz
  1  'x, y, z'
loop_
 _atom_site_type_symbol
 _atom_site_label
 _atom_site_symmetry_multiplicity
 _atom_site_fract_x
 _atom_site_fract_y
 _atom_site_fract_z
 _atom_site_occupancy
  Li  Li0  1  0.83431334  0.16756056  0.49999834  1
  Li  Li1  1  0.16568666  0.83243944  0.50000166  1
  Li  Li2  1  0.66748969  0.33470184  0.00327211  1
  Li  Li3  1  0.33251031  0.66529816  0.99672789  1
  Mn  Mn4  1  0.82999838  0.66959643  0.00364897  1
  Mn  Mn5  1  0.50000000  0.00000000  -0.00000000  1
  Mn  Mn6  1  0.17000162  0.33040357  0.99635103  1
  Fe  Fe7  1  0.66671608  0.83276552  0.49811230  1
  Fe  Fe8  1  0.33328392  0.16723448  0.50188770  1
  Fe  Fe9  1  0.00000000  0.50000000  0.50000000  1
  O  O10  1  0.80211467  0.91582505  0.75800813  1
  O  O11  1  0.97603010  0.73198107  0.26155125  1
  O  O12  1  0.68716268  0.59648110  0.76069325  1
  O  O13  1  0.36096042  0.92511451  0.74797163  1
  O  O14  1  0.86723221  0.41434126  0.22997850  1
  O  O15  1  0.51533379  0.77184461  0.22463148  1
  O  O16  1  0.48466621  0.22815539  0.77536852  1
  O  O17  1  0.13276779  0.58565874  0.77002150  1
  O  O18  1  0.63903958  0.07488549  0.25202837  1
  O  O19  1  0.31283732  0.40351890  0.23930675  1
  O  O20  1  0.02396990  0.26801893  0.73844875  1
  O  O21  1  0.19788533  0.08417495  0.24199187  1
