# generated using pymatgen
data_Li3MnV(PO4)3
_symmetry_space_group_name_H-M   'P 1'
_cell_length_a   8.79223242
_cell_length_b   8.76627330
_cell_length_c   14.45516996
_cell_angle_alpha   105.41742693
_cell_angle_beta   73.65206491
_cell_angle_gamma   118.96997147
_symmetry_Int_Tables_number   1
_chemical_formula_structural   Li3MnV(PO4)3
_chemical_formula_sum   'Li12 Mn4 V4 P12 O48'
_cell_volume   924.11978641
_cell_formula_units_Z   4
loop_
 _symmetry_equiv_pos_site_id
 _symmetry_equiv_pos_as_xyz
  1  'x, y, z'
loop_
 _atom_site_type_symbol
 _atom_site_label
 _atom_site_symmetry_multiplicity
 _atom_site_fract_x
 _atom_site_fract_y
 _atom_site_fract_z
 _atom_site_occupancy
  Li  Li0  1  0.01312039  0.85959520  0.11163510  1
  Li  Li1  1  0.00035332  0.50114474  0.00004832  1
  Li  Li2  1  0.10969183  0.76517853  0.63818708  1
  Li  Li3  1  0.25304744  0.25429873  0.24865193  1
  Li  Li4  1  0.48737439  0.64234804  0.38624575  1
  Li  Li5  1  0.39183574  0.73313539  0.86306690  1
  Li  Li6  1  0.60833221  0.26657851  0.13714803  1
  Li  Li7  1  0.51458675  0.35895870  0.61180137  1
  Li  Li8  1  0.75059575  0.74947136  0.74976829  1
  Li  Li9  1  0.50347668  0.00368133  0.50159928  1
  Li  Li10  1  0.89182861  0.23561066  0.36438128  1
  Li  Li11  1  0.98591706  0.14106643  0.88796156  1
  Mn  Mn12  1  0.32740289  0.17816312  0.03469890  1
  Mn  Mn13  1  0.67093590  0.82036950  0.96506054  1
  Mn  Mn14  1  0.42661175  0.07540684  0.71532909  1
  Mn  Mn15  1  0.82907808  0.67864136  0.53514119  1
  V  V16  1  0.06698724  0.42339841  0.78690195  1
  V  V17  1  0.17517359  0.31816857  0.46274773  1
  V  V18  1  0.57079481  0.92466583  0.28666993  1
  V  V19  1  0.93190868  0.57838343  0.21318771  1
  P  P20  1  0.33239283  0.86742276  0.11659794  1
  P  P21  1  0.16964867  0.63422632  0.38172351  1
  P  P22  1  0.06574101  0.81826017  0.87706733  1
  P  P23  1  0.11821396  0.08190913  0.63492206  1
  P  P24  1  0.42556979  0.67563635  0.62443118  1
  P  P25  1  0.61917923  0.58434103  0.13241189  1
  P  P26  1  0.38084438  0.41443933  0.86735932  1
  P  P27  1  0.57382664  0.32350324  0.37505624  1
  P  P28  1  0.88244733  0.91774465  0.36959255  1
  P  P29  1  0.92980139  0.17822881  0.12384998  1
  P  P30  1  0.83235757  0.36843881  0.61552948  1
  P  P31  1  0.66548917  0.13090968  0.88149591  1
  O  O32  1  0.14232556  0.72020348  0.11331507  1
  O  O33  1  0.08882158  0.61899612  0.29776559  1
  O  O34  1  0.06029877  0.67150888  0.48154153  1
  O  O35  1  0.44246142  0.82941338  0.01725744  1
  O  O36  1  0.41249198  0.88732778  0.20168157  1
  O  O37  1  0.11047970  0.18820778  0.12834863  1
  O  O38  1  0.18361602  0.88674255  0.78177472  1
  O  O39  1  0.18160801  0.45543272  0.36514301  1
  O  O40  1  0.13658827  0.93603659  0.96980104  1
  O  O41  1  0.03247245  0.10843571  0.36495181  1
  O  O42  1  0.36018813  0.78283857  0.38518384  1
  O  O43  1  0.05030872  0.63411170  0.88010777  1
  O  O44  1  0.43770643  0.85883629  0.62181632  1
  O  O45  1  0.13601333  0.15824754  0.54716137  1
  O  O46  1  0.63050600  0.66078060  0.04597104  1
  O  O47  1  0.35455238  0.55689197  0.53097239  1
  O  O48  1  0.08692555  0.19874784  0.73135349  1
  O  O49  1  0.47099606  0.39607088  0.14104157  1
  O  O50  1  0.30366216  0.60317940  0.71891207  1
  O  O51  1  0.58935579  0.70034832  0.23022298  1
  O  O52  1  0.32203136  0.04816022  0.13084918  1
  O  O53  1  0.19961339  0.42232209  0.88477707  1
  O  O54  1  0.39162324  0.30849180  0.37010803  1
  O  O55  1  0.70354886  0.92898918  0.38610145  1
  O  O56  1  0.30061015  0.07341278  0.61812940  1
  O  O57  1  0.60724512  0.68780506  0.62737216  1
  O  O58  1  0.80046185  0.57634871  0.11491064  1
  O  O59  1  0.67797947  0.95167475  0.86755230  1
  O  O60  1  0.41668284  0.30107885  0.76911184  1
  O  O61  1  0.69712109  0.39739841  0.28142291  1
  O  O62  1  0.52812370  0.60285303  0.85861346  1
  O  O63  1  0.91711712  0.80740646  0.27094252  1
  O  O64  1  0.63938302  0.43907204  0.46931827  1
  O  O65  1  0.36833335  0.33719193  0.95370209  1
  O  O66  1  0.86731571  0.83804057  0.45547619  1
  O  O67  1  0.55771250  0.13913011  0.37734681  1
  O  O68  1  0.94657076  0.36331224  0.12252711  1
  O  O69  1  0.64504358  0.22082619  0.60902385  1
  O  O70  1  0.97011458  0.89424059  0.64293385  1
  O  O71  1  0.86137036  0.06325639  0.03006628  1
  O  O72  1  0.82166541  0.55004021  0.63150503  1
  O  O73  1  0.80663808  0.10431244  0.21796768  1
  O  O74  1  0.88323551  0.80685030  0.87414133  1
  O  O75  1  0.58418875  0.10950188  0.79605227  1
  O  O76  1  0.55651391  0.16910905  0.98093733  1
  O  O77  1  0.94945979  0.33773025  0.51804832  1
  O  O78  1  0.90869298  0.38669247  0.70235257  1
  O  O79  1  0.85566012  0.27906893  0.88411648  1
