# generated using pymatgen
data_Li4Mn5SbO12
_symmetry_space_group_name_H-M   'P 1'
_cell_length_a   5.27731959
_cell_length_b   5.27732007
_cell_length_c   10.63135940
_cell_angle_alpha   85.02107544
_cell_angle_beta   85.02107643
_cell_angle_gamma   116.77148363
_symmetry_Int_Tables_number   1
_chemical_formula_structural   Li4Mn5SbO12
_chemical_formula_sum   'Li4 Mn5 Sb1 O12'
_cell_volume   260.69888192
_cell_formula_units_Z   1
loop_
 _symmetry_equiv_pos_site_id
 _symmetry_equiv_pos_as_xyz
  1  'x, y, z'
loop_
 _atom_site_type_symbol
 _atom_site_label
 _atom_site_symmetry_multiplicity
 _atom_site_fract_x
 _atom_site_fract_y
 _atom_site_fract_z
 _atom_site_occupancy
  Li  Li0  1  0.07711212  0.43053056  0.71059274  1
  Li  Li1  1  0.56946944  0.92288788  0.28940726  1
  Li  Li2  1  0.43053056  0.07711212  0.71059274  1
  Li  Li3  1  0.92288788  0.56946944  0.28940726  1
  Mn  Mn4  1  0.16438924  0.83561076  0.50000000  1
  Mn  Mn5  1  0.33382466  0.66617534  0.00000000  1
  Mn  Mn6  1  0.50000000  0.50000000  0.50000000  1
  Mn  Mn7  1  0.66617534  0.33382466  1.00000000  1
  Mn  Mn8  1  0.83561076  0.16438924  0.50000000  1
  Sb  Sb9  1  -0.00000000  -0.00000000  0.00000000  1
  O  O10  1  0.99865360  0.66245461  0.10389516  1
  O  O11  1  0.33754539  0.00134640  0.89610484  1
  O  O12  1  0.22619910  0.59103880  0.39066628  1
  O  O13  1  0.40896120  0.77380090  0.60933372  1
  O  O14  1  0.15716576  0.15716576  0.59027515  1
  O  O15  1  0.30145921  0.30145921  0.08820480  1
  O  O16  1  0.69854079  0.69854079  0.91179520  1
  O  O17  1  0.84283424  0.84283424  0.40972485  1
  O  O18  1  0.59103880  0.22619910  0.39066628  1
  O  O19  1  0.77380090  0.40896120  0.60933372  1
  O  O20  1  0.66245461  0.99865360  0.10389516  1
  O  O21  1  0.00134640  0.33754539  0.89610484  1
