# generated using pymatgen
data_Li3MnV(PO4)3
_symmetry_space_group_name_H-M   'P 1'
_cell_length_a   9.90337523
_cell_length_b   9.82637201
_cell_length_c   9.79412136
_cell_angle_alpha   88.22759620
_cell_angle_beta   94.66805212
_cell_angle_gamma   94.70441260
_symmetry_Int_Tables_number   1
_chemical_formula_structural   Li3MnV(PO4)3
_chemical_formula_sum   'Li12 Mn4 V4 P12 O48'
_cell_volume   946.46345570
_cell_formula_units_Z   4
loop_
 _symmetry_equiv_pos_site_id
 _symmetry_equiv_pos_as_xyz
  1  'x, y, z'
loop_
 _atom_site_type_symbol
 _atom_site_label
 _atom_site_symmetry_multiplicity
 _atom_site_fract_x
 _atom_site_fract_y
 _atom_site_fract_z
 _atom_site_occupancy
  Li  Li0  1  0.01921313  0.51314266  0.24957513  1
  Li  Li1  1  0.99085070  0.25915740  0.38769148  1
  Li  Li2  1  0.22931208  0.56903137  0.47511585  1
  Li  Li3  1  0.22359915  0.73186843  0.17610367  1
  Li  Li4  1  0.24658178  0.96896027  0.61215121  1
  Li  Li5  1  0.37891845  0.74651582  0.83262213  1
  Li  Li6  1  0.51054488  0.01582129  0.73369503  1
  Li  Li7  1  0.56033139  0.23329587  0.53313212  1
  Li  Li8  1  0.68720769  0.91667258  0.97544685  1
  Li  Li9  1  0.73181449  0.22581392  0.82452056  1
  Li  Li10  1  0.75379618  0.37555813  0.18310177  1
  Li  Li11  1  0.91204702  0.67187567  0.01602300  1
  Mn  Mn12  1  0.47636118  0.46857752  0.99428451  1
  Mn  Mn13  1  0.53060999  0.53311026  0.51011534  1
  Mn  Mn14  1  0.75041524  0.75644546  0.49290862  1
  Mn  Mn15  1  0.97136606  0.74130806  0.72017708  1
  V  V16  1  0.02961001  0.25056187  0.78696692  1
  V  V17  1  0.25141757  0.24996035  0.00613960  1
  V  V18  1  0.24875191  0.02678721  0.21996217  1
  V  V19  1  0.74775114  0.96712042  0.27675431  1
  P  P20  1  0.04973294  0.82351303  0.40491983  1
  P  P21  1  0.17390483  0.94708637  0.89784113  1
  P  P22  1  0.15745366  0.55088782  0.93415152  1
  P  P23  1  0.32054159  0.34324586  0.30764780  1
  P  P24  1  0.33876326  0.32708080  0.70193700  1
  P  P25  1  0.44439825  0.83849698  0.42410476  1
  P  P26  1  0.54937106  0.15001151  0.06660844  1
  P  P27  1  0.65273940  0.67802356  0.79771017  1
  P  P28  1  0.68756081  0.65015718  0.19508770  1
  P  P29  1  0.84141196  0.44710676  0.57843179  1
  P  P30  1  0.81405757  0.05450536  0.59010196  1
  P  P31  1  0.94839291  0.17271294  0.09770261  1
  O  O32  1  0.03214127  0.87495305  0.85311674  1
  O  O33  1  0.08311173  0.82702363  0.56287976  1
  O  O34  1  0.10066317  0.60842572  0.79605542  1
  O  O35  1  0.11222309  0.95905375  0.34356646  1
  O  O36  1  0.09870236  0.69605320  0.34342836  1
  O  O37  1  0.12542591  0.38938650  0.93083460  1
  O  O38  1  0.09205155  0.60202975  0.05877687  1
  O  O39  1  0.10770182  0.16169376  0.12464045  1
  O  O40  1  0.16382778  0.10607702  0.87468183  1
  O  O41  1  0.18158539  0.30593922  0.67624191  1
  O  O42  1  0.20140439  0.91007099  0.05276798  1
  O  O43  1  0.19823264  0.40818227  0.35667183  1
  O  O44  1  0.28504086  0.90814653  0.81028797  1
  O  O45  1  0.31348969  0.59009343  0.94692041  1
  O  O46  1  0.31372184  0.18559721  0.32977394  1
  O  O47  1  0.32868115  0.37914020  0.14975860  1
  O  O48  1  0.36386457  0.87485262  0.28667614  1
  O  O49  1  0.40844558  0.91438014  0.54760076  1
  O  O50  1  0.37765995  0.33353057  0.86764442  1
  O  O51  1  0.38041552  0.46805730  0.63988027  1
  O  O52  1  0.41151528  0.67889092  0.44139796  1
  O  O53  1  0.41077141  0.20741716  0.65485229  1
  O  O54  1  0.39000731  0.12070174  0.07340295  1
  O  O55  1  0.46043257  0.39282748  0.38286432  1
  O  O56  1  0.57628611  0.79748738  0.84133195  1
  O  O57  1  0.54723702  0.59174617  0.13331170  1
  O  O58  1  0.60158786  0.53831782  0.85491195  1
  O  O59  1  0.60057396  0.87335871  0.40546689  1
  O  O60  1  0.62537060  0.67093460  0.63434822  1
  O  O61  1  0.59565181  0.09031879  0.93620470  1
  O  O62  1  0.59052530  0.30623892  0.07213143  1
  O  O63  1  0.61021586  0.08122770  0.19906181  1
  O  O64  1  0.68073072  0.62818724  0.35491812  1
  O  O65  1  0.70649099  0.80443759  0.15172579  1
  O  O66  1  0.68201314  0.41646574  0.56005588  1
  O  O67  1  0.69032887  0.10963181  0.64862544  1
  O  O68  1  0.80754266  0.70365478  0.83927963  1
  O  O69  1  0.81296187  0.89463884  0.62030766  1
  O  O70  1  0.80546479  0.57308554  0.15198202  1
  O  O71  1  0.81905032  0.08714675  0.43302798  1
  O  O72  1  0.87792249  0.60903092  0.59081738  1
  O  O73  1  0.89042219  0.82954121  0.36996613  1
  O  O74  1  0.88430802  0.37637653  0.71631241  1
  O  O75  1  0.90894074  0.20557251  0.94251232  1
  O  O76  1  0.90832364  0.40551298  0.45423922  1
  O  O77  1  0.87419670  0.03360057  0.13143404  1
  O  O78  1  0.91637369  0.28732492  0.19009779  1
  O  O79  1  0.95033450  0.11202710  0.66047623  1
