# generated using pymatgen
data_Li3MnV(PO4)3
_symmetry_space_group_name_H-M   'P 1'
_cell_length_a   8.79612657
_cell_length_b   8.76520430
_cell_length_c   14.47678922
_cell_angle_alpha   105.57020004
_cell_angle_beta   73.40724082
_cell_angle_gamma   119.00701561
_symmetry_Int_Tables_number   1
_chemical_formula_structural   Li3MnV(PO4)3
_chemical_formula_sum   'Li12 Mn4 V4 P12 O48'
_cell_volume   924.18829080
_cell_formula_units_Z   4
loop_
 _symmetry_equiv_pos_site_id
 _symmetry_equiv_pos_as_xyz
  1  'x, y, z'
loop_
 _atom_site_type_symbol
 _atom_site_label
 _atom_site_symmetry_multiplicity
 _atom_site_fract_x
 _atom_site_fract_y
 _atom_site_fract_z
 _atom_site_occupancy
  Li  Li0  1  0.01266817  0.85856930  0.11244715  1
  Li  Li1  1  0.99644915  0.49690595  0.99848919  1
  Li  Li2  1  0.10779919  0.76650314  0.63714235  1
  Li  Li3  1  0.25101301  0.24892380  0.24977636  1
  Li  Li4  1  0.48737648  0.64133023  0.38783335  1
  Li  Li5  1  0.39062016  0.73511172  0.86214192  1
  Li  Li6  1  0.60709942  0.26427933  0.13593643  1
  Li  Li7  1  0.51442000  0.35977751  0.61189740  1
  Li  Li8  1  0.75214051  0.75339364  0.74861591  1
  Li  Li9  1  0.50145386  0.99947722  0.49972840  1
  Li  Li10  1  0.89193366  0.23362989  0.36343397  1
  Li  Li11  1  0.98558824  0.14350026  0.88689847  1
  Mn  Mn12  1  0.07322243  0.42462607  0.78442978  1
  Mn  Mn13  1  0.17286915  0.32161167  0.46488303  1
  Mn  Mn14  1  0.32532163  0.17687800  0.03520404  1
  Mn  Mn15  1  0.82905955  0.67972752  0.53463922  1
  V  V16  1  0.56829941  0.92274615  0.28682289  1
  V  V17  1  0.67230772  0.81594644  0.96243219  1
  V  V18  1  0.43333365  0.07861579  0.71324777  1
  V  V19  1  0.93022471  0.57484489  0.21281982  1
  P  P20  1  0.33059456  0.86746349  0.11781016  1
  P  P21  1  0.16774134  0.63249695  0.38291554  1
  P  P22  1  0.07258811  0.81968123  0.87351628  1
  P  P23  1  0.11922608  0.08655115  0.63293962  1
  P  P24  1  0.43441665  0.68205057  0.62295534  1
  P  P25  1  0.61742866  0.58119536  0.13354988  1
  P  P26  1  0.38098402  0.41727948  0.86852197  1
  P  P27  1  0.57070320  0.32224113  0.37623285  1
  P  P28  1  0.88066115  0.91577895  0.36784721  1
  P  P29  1  0.92497300  0.17268767  0.12287216  1
  P  P30  1  0.83440663  0.36931088  0.61814763  1
  P  P31  1  0.66672597  0.13293887  0.88328475  1
  O  O32  1  0.14064379  0.71774693  0.11487949  1
  O  O33  1  0.08748929  0.61207381  0.29789415  1
  O  O34  1  0.05747919  0.67082100  0.48235750  1
  O  O35  1  0.44270254  0.83280809  0.01909800  1
  O  O36  1  0.41001066  0.88665804  0.20320028  1
  O  O37  1  0.10646363  0.18341555  0.12561819  1
  O  O38  1  0.19701520  0.89617473  0.78062741  1
  O  O39  1  0.17909028  0.45242956  0.36867768  1
  O  O40  1  0.13751815  0.93169402  0.96855288  1
  O  O41  1  0.02957112  0.10390265  0.35902068  1
  O  O42  1  0.35773251  0.78069947  0.38601455  1
  O  O43  1  0.05996549  0.63517054  0.87469563  1
  O  O44  1  0.45022119  0.86652469  0.62036458  1
  O  O45  1  0.13190742  0.16361815  0.54677778  1
  O  O46  1  0.63010062  0.65791315  0.04707537  1
  O  O47  1  0.36344541  0.56410187  0.53036795  1
  O  O48  1  0.08396999  0.20065710  0.73157613  1
  O  O49  1  0.46788690  0.39349155  0.14243522  1
  O  O50  1  0.31680603  0.61263991  0.71845727  1
  O  O51  1  0.58707184  0.69809173  0.23102592  1
  O  O52  1  0.31648634  0.04628874  0.13312573  1
  O  O53  1  0.20137723  0.42880868  0.88394942  1
  O  O54  1  0.38981159  0.31160029  0.37199134  1
  O  O55  1  0.69997464  0.92541609  0.38579726  1
  O  O56  1  0.30075298  0.07951607  0.61616689  1
  O  O57  1  0.61680334  0.69319450  0.62578489  1
  O  O58  1  0.79850958  0.57221592  0.11470151  1
  O  O59  1  0.67591337  0.95208632  0.86604599  1
  O  O60  1  0.41622819  0.30663909  0.77015889  1
  O  O61  1  0.69453233  0.39556548  0.28213510  1
  O  O62  1  0.53101157  0.60755219  0.86403960  1
  O  O63  1  0.91074817  0.79873207  0.27035686  1
  O  O64  1  0.63871946  0.43720591  0.47014198  1
  O  O65  1  0.36144743  0.33673590  0.95490648  1
  O  O66  1  0.86915746  0.83982326  0.45451567  1
  O  O67  1  0.55380123  0.13708382  0.37767666  1
  O  O68  1  0.94230714  0.35733143  0.12030973  1
  O  O69  1  0.64436252  0.22143472  0.61491751  1
  O  O70  1  0.97185799  0.89806216  0.64180188  1
  O  O71  1  0.85311591  0.05325494  0.03003557  1
  O  O72  1  0.82242388  0.54904934  0.63225830  1
  O  O73  1  0.80430631  0.10242165  0.21807124  1
  O  O74  1  0.89012513  0.80444183  0.86958503  1
  O  O75  1  0.58926087  0.12032837  0.79845906  1
  O  O76  1  0.55193466  0.16725886  0.98248814  1
  O  O77  1  0.94459641  0.33163482  0.51868671  1
  O  O78  1  0.91486516  0.38936857  0.70334139  1
  O  O79  1  0.85482636  0.28024222  0.89042151  1
