# generated using pymatgen
data_Li3MnV(PO4)3
_symmetry_space_group_name_H-M   'P 1'
_cell_length_a   8.61768986
_cell_length_b   8.84991684
_cell_length_c   12.28656014
_cell_angle_alpha   90.00000000
_cell_angle_beta   86.89441651
_cell_angle_gamma   90.00000000
_symmetry_Int_Tables_number   1
_chemical_formula_structural   Li3MnV(PO4)3
_chemical_formula_sum   'Li12 Mn4 V4 P12 O48'
_cell_volume   935.66866528
_cell_formula_units_Z   4
loop_
 _symmetry_equiv_pos_site_id
 _symmetry_equiv_pos_as_xyz
  1  'x, y, z'
loop_
 _atom_site_type_symbol
 _atom_site_label
 _atom_site_symmetry_multiplicity
 _atom_site_fract_x
 _atom_site_fract_y
 _atom_site_fract_z
 _atom_site_occupancy
  Li  Li0  1  0.00305227  0.00818502  0.00652017  1
  Li  Li1  1  0.97993917  0.10770791  0.24383851  1
  Li  Li2  1  0.00305227  0.99181498  0.50652017  1
  Li  Li3  1  0.97993917  0.89229209  0.74383851  1
  Li  Li4  1  0.27558706  0.80460193  0.06134740  1
  Li  Li5  1  0.27558706  0.19539807  0.56134740  1
  Li  Li6  1  0.50932931  0.50606096  0.99884799  1
  Li  Li7  1  0.50752548  0.40659714  0.26279473  1
  Li  Li8  1  0.50932931  0.49393904  0.49884699  1
  Li  Li9  1  0.50752548  0.59340286  0.76279473  1
  Li  Li10  1  0.71801825  0.80046663  0.44258697  1
  Li  Li11  1  0.71801825  0.19953337  0.94258697  1
  Mn  Mn12  1  0.71217991  0.00234585  0.14234918  1
  Mn  Mn13  1  0.71217991  0.99765415  0.64234918  1
  Mn  Mn14  1  0.79506206  0.49893035  0.35449754  1
  Mn  Mn15  1  0.79506206  0.50106965  0.85449754  1
  V  V16  1  0.21146643  0.50034573  0.14486817  1
  V  V17  1  0.21146643  0.49965427  0.64486817  1
  V  V18  1  0.28640093  0.99706238  0.35433818  1
  V  V19  1  0.28640093  0.00293762  0.85433818  1
  P  P20  1  0.00415508  0.80511582  0.24907891  1
  P  P21  1  0.00415508  0.19488418  0.74907891  1
  P  P22  1  0.16332669  0.35247877  0.39471224  1
  P  P23  1  0.16332669  0.64752123  0.89471224  1
  P  P24  1  0.35080238  0.15131474  0.09831659  1
  P  P25  1  0.35080238  0.84868526  0.59831659  1
  P  P26  1  0.49687973  0.70962069  0.25012908  1
  P  P27  1  0.49687973  0.29037931  0.75012908  1
  P  P28  1  0.64788392  0.14248651  0.39674717  1
  P  P29  1  0.64788392  0.85751349  0.89674717  1
  P  P30  1  0.83941854  0.35913128  0.10673527  1
  P  P31  1  0.83941854  0.64086872  0.60673527  1
  O  O32  1  0.00287951  0.42421345  0.11194721  1
  O  O33  1  0.00287951  0.57578655  0.61194721  1
  O  O34  1  0.07671993  0.91504533  0.33557598  1
  O  O35  1  0.07671993  0.08495467  0.83557598  1
  O  O36  1  0.13057185  0.70385639  0.19283778  1
  O  O37  1  0.13057185  0.29614361  0.69283678  1
  O  O38  1  0.16635882  0.17376554  0.41015520  1
  O  O39  1  0.16635882  0.82623446  0.91015520  1
  O  O40  1  0.25825808  0.40165533  0.29093707  1
  O  O41  1  0.25318995  0.06081724  0.01534715  1
  O  O42  1  0.25399972  0.40704499  0.49323490  1
  O  O43  1  0.25825808  0.59834467  0.79093707  1
  O  O44  1  0.25318995  0.93918276  0.51534715  1
  O  O45  1  0.27924458  0.09500767  0.21109744  1
  O  O46  1  0.25399972  0.59295501  0.99323490  1
  O  O47  1  0.27924458  0.90499233  0.71109744  1
  O  O48  1  0.32934076  0.32316653  0.08318189  1
  O  O49  1  0.32934076  0.67683347  0.58318189  1
  O  O50  1  0.36752989  0.81270853  0.30714614  1
  O  O51  1  0.36752989  0.18729147  0.80714614  1
  O  O52  1  0.42721592  0.60388800  0.16379765  1
  O  O53  1  0.42721592  0.39611200  0.66379765  1
  O  O54  1  0.47759242  0.08232675  0.39831571  1
  O  O55  1  0.47759242  0.91767325  0.89831571  1
  O  O56  1  0.52429377  0.12054281  0.08403368  1
  O  O57  1  0.52429377  0.87945719  0.58403368  1
  O  O58  1  0.55944663  0.61172971  0.34175346  1
  O  O59  1  0.55944663  0.38827029  0.84175346  1
  O  O60  1  0.61526777  0.81075092  0.19038434  1
  O  O61  1  0.61526777  0.18924908  0.69038434  1
  O  O62  1  0.63157575  0.31398104  0.41173361  1
  O  O63  1  0.63157575  0.68601896  0.91173361  1
  O  O64  1  0.73786932  0.09377880  0.28944254  1
  O  O65  1  0.74568644  0.41039450  0.00911652  1
  O  O66  1  0.73786932  0.90622120  0.78944254  1
  O  O67  1  0.74266999  0.05969000  0.48359672  1
  O  O68  1  0.73835799  0.40053422  0.20942122  1
  O  O69  1  0.74568644  0.58960550  0.50911652  1
  O  O70  1  0.74266999  0.94031000  0.98359572  1
  O  O71  1  0.73835799  0.59946578  0.70942122  1
  O  O72  1  0.86189955  0.18241277  0.09266437  1
  O  O73  1  0.86189955  0.81758723  0.59266437  1
  O  O74  1  0.87550268  0.72086742  0.31349319  1
  O  O75  1  0.87550268  0.27913258  0.81349319  1
  O  O76  1  0.94931266  0.91346298  0.15975353  1
  O  O77  1  0.94931266  0.08653702  0.65975353  1
  O  O78  1  0.99418680  0.39486310  0.39332861  1
  O  O79  1  0.99418680  0.60513690  0.89332861  1
