# generated using pymatgen
data_Sr(H8O5)2
_symmetry_space_group_name_H-M   'P 1'
_cell_length_a   6.38836739
_cell_length_b   6.38836739
_cell_length_c   6.59517299
_cell_angle_alpha   87.96180826
_cell_angle_beta   87.96180826
_cell_angle_gamma   90.53453569
_symmetry_Int_Tables_number   1
_chemical_formula_structural   Sr(H8O5)2
_chemical_formula_sum   'Sr1 H16 O10'
_cell_volume   268.80158838
_cell_formula_units_Z   1
loop_
 _symmetry_equiv_pos_site_id
 _symmetry_equiv_pos_as_xyz
  1  'x, y, z'
loop_
 _atom_site_type_symbol
 _atom_site_label
 _atom_site_symmetry_multiplicity
 _atom_site_fract_x
 _atom_site_fract_y
 _atom_site_fract_z
 _atom_site_occupancy
  Sr  Sr0  1  0.01462740  0.98537260  0.00000000  1
  H  H1  1  0.32832571  0.34196382  0.69194547  1
  H  H2  1  0.24359390  0.12520322  0.62346832  1
  H  H3  1  0.67200218  0.67912118  0.69404674  1
  H  H4  1  0.72923435  0.92522928  0.69552679  1
  H  H5  1  0.92067997  0.27356626  0.69088995  1
  H  H6  1  0.67603529  0.32219990  0.69880641  1
  H  H7  1  0.32846989  0.66729972  0.69329576  1
  H  H8  1  0.08435628  0.71316385  0.68094255  1
  H  H9  1  0.65803618  0.67167429  0.30805453  1
  H  H10  1  0.87479678  0.75640610  0.37653168  1
  H  H11  1  0.32087882  0.32799782  0.30595326  1
  H  H12  1  0.07477072  0.27076565  0.30447321  1
  H  H13  1  0.33270028  0.67153011  0.30670424  1
  H  H14  1  0.28683615  0.91564372  0.31905745  1
  H  H15  1  0.67780010  0.32396571  0.30119359  1
  H  H16  1  0.72643374  0.07932003  0.30911005  1
  O  O17  1  0.50593229  0.49971289  0.61377321  1
  O  O18  1  0.50028711  0.49406771  0.38622679  1
  O  O19  1  0.21390694  0.22962902  0.72435978  1
  O  O20  1  0.77877391  0.78524315  0.73749729  1
  O  O21  1  0.78442459  0.21719355  0.74331220  1
  O  O22  1  0.21281137  0.76542221  0.73860355  1
  O  O23  1  0.77037098  0.78609306  0.27564022  1
  O  O24  1  0.21475685  0.22122609  0.26250271  1
  O  O25  1  0.23457779  0.78718863  0.26139645  1
  O  O26  1  0.78280645  0.21557541  0.25668780  1
