# generated using pymatgen
data_Li2FeF4
_symmetry_space_group_name_H-M   'P 1'
_cell_length_a   8.62819850
_cell_length_b   8.62819850
_cell_length_c   6.51544847
_cell_angle_alpha   90.00000000
_cell_angle_beta   90.00000000
_cell_angle_gamma   90.00000000
_symmetry_Int_Tables_number   1
_chemical_formula_structural   Li2FeF4
_chemical_formula_sum   'Li8 Fe4 F16'
_cell_volume   485.04783466
_cell_formula_units_Z   4
loop_
 _symmetry_equiv_pos_site_id
 _symmetry_equiv_pos_as_xyz
  1  'x, y, z'
loop_
 _atom_site_type_symbol
 _atom_site_label
 _atom_site_symmetry_multiplicity
 _atom_site_fract_x
 _atom_site_fract_y
 _atom_site_fract_z
 _atom_site_occupancy
  Li  Li0  1  0.25150480  0.77320192  0.50000000  1
  Li  Li1  1  0.22679808  0.25150480  0.00000000  1
  Li  Li2  1  0.27320192  0.75150480  -0.00000000  1
  Li  Li3  1  0.24849520  0.27320192  0.50000000  1
  Li  Li4  1  0.75150480  0.72679808  0.50000000  1
  Li  Li5  1  0.72679808  0.24849520  0.00000000  1
  Li  Li6  1  0.77320192  0.74849520  0.00000000  1
  Li  Li7  1  0.74849520  0.22679808  0.50000000  1
  Fe  Fe8  1  0.00000000  0.50000000  0.25000000  1
  Fe  Fe9  1  0.00000000  0.50000000  0.75000000  1
  Fe  Fe10  1  0.50000000  -0.00000000  0.75000000  1
  Fe  Fe11  1  0.50000000  0.00000000  0.25000000  1
  F  F12  1  0.11249483  0.61409206  0.00000000  1
  F  F13  1  0.11409206  0.61249483  0.50000000  1
  F  F14  1  0.16804539  0.33195461  0.25000000  1
  F  F15  1  0.16804539  0.33195461  0.75000000  1
  F  F16  1  0.33195461  0.83195461  0.25000000  1
  F  F17  1  0.33195461  0.83195461  0.75000000  1
  F  F18  1  0.38590794  0.11249483  0.50000000  1
  F  F19  1  0.38750517  0.11409206  -0.00000000  1
  F  F20  1  0.61249483  0.88590794  -0.00000000  1
  F  F21  1  0.61409206  0.88750517  0.50000000  1
  F  F22  1  0.66804539  0.16804539  0.25000000  1
  F  F23  1  0.66804539  0.16804539  0.75000000  1
  F  F24  1  0.83195461  0.66804539  0.25000000  1
  F  F25  1  0.83195461  0.66804539  0.75000000  1
  F  F26  1  0.88590794  0.38750517  0.50000000  1
  F  F27  1  0.88750517  0.38590794  -0.00000000  1
