# generated using pymatgen
data_Fe5(OF4)2
_symmetry_space_group_name_H-M   'P 1'
_cell_length_a   4.78946540
_cell_length_b   4.78901324
_cell_length_c   16.14784159
_cell_angle_alpha   90.00000000
_cell_angle_beta   90.00000000
_cell_angle_gamma   90.70801407
_symmetry_Int_Tables_number   1
_chemical_formula_structural   Fe5(OF4)2
_chemical_formula_sum   'Fe10 O4 F16'
_cell_volume   370.35174810
_cell_formula_units_Z   2
loop_
 _symmetry_equiv_pos_site_id
 _symmetry_equiv_pos_as_xyz
  1  'x, y, z'
loop_
 _atom_site_type_symbol
 _atom_site_label
 _atom_site_symmetry_multiplicity
 _atom_site_fract_x
 _atom_site_fract_y
 _atom_site_fract_z
 _atom_site_occupancy
  Fe  Fe0  1  0.95575034  0.95751016  0.00000000  1
  Fe  Fe1  1  0.02781465  0.02637240  0.20122742  1
  Fe  Fe2  1  0.00437550  0.98861471  0.40486439  1
  Fe  Fe3  1  0.00437550  0.98861471  0.59513561  1
  Fe  Fe4  1  0.02781465  0.02637240  0.79877258  1
  Fe  Fe5  1  0.49587988  0.49706212  0.09931360  1
  Fe  Fe6  1  0.47227212  0.52535579  0.50000000  1
  Fe  Fe7  1  0.49619840  0.48865333  0.29412519  1
  Fe  Fe8  1  0.49619840  0.48865333  0.70587481  1
  Fe  Fe9  1  0.49587988  0.49706212  0.90068640  1
  O  O10  1  0.20836108  0.79704491  0.50000000  1
  O  O11  1  0.32034066  0.31876657  0.18669216  1
  O  O12  1  0.32034066  0.31876657  0.81330784  1
  O  O13  1  0.67901499  0.68028315  0.00000000  1
  F  F14  1  0.19432143  0.80147818  0.08948918  1
  F  F15  1  0.20291340  0.79650373  0.29897551  1
  F  F16  1  0.20291340  0.79650373  0.70102449  1
  F  F17  1  0.19432143  0.80147818  0.91051082  1
  F  F18  1  0.28716750  0.28887221  0.00000000  1
  F  F19  1  0.30573858  0.30375960  0.40276559  1
  F  F20  1  0.30573858  0.30375960  0.59723441  1
  F  F21  1  0.71571545  0.71467945  0.18672260  1
  F  F22  1  0.69053575  0.68765186  0.40052639  1
  F  F23  1  0.69053575  0.68765186  0.59947361  1
  F  F24  1  0.71571545  0.71467945  0.81327740  1
  F  F25  1  0.80069693  0.19544389  0.08969713  1
  F  F26  1  0.78006178  0.22096482  0.50000000  1
  F  F27  1  0.80415596  0.19599816  0.30187495  1
  F  F28  1  0.80069693  0.19544389  0.91030287  1
  F  F29  1  0.80415596  0.19599816  0.69812505  1
