# generated using pymatgen
data_Cd(CoO2)2
_symmetry_space_group_name_H-M   'P 1'
_cell_length_a   5.79429562
_cell_length_b   6.35612126
_cell_length_c   5.79429562
_cell_angle_alpha   62.88329963
_cell_angle_beta   90.00000000
_cell_angle_gamma   117.11670037
_symmetry_Int_Tables_number   1
_chemical_formula_structural   Cd(CoO2)2
_chemical_formula_sum   'Cd2 Co4 O8'
_cell_volume   163.14736693
_cell_formula_units_Z   2
loop_
 _symmetry_equiv_pos_site_id
 _symmetry_equiv_pos_as_xyz
  1  'x, y, z'
loop_
 _atom_site_type_symbol
 _atom_site_label
 _atom_site_symmetry_multiplicity
 _atom_site_fract_x
 _atom_site_fract_y
 _atom_site_fract_z
 _atom_site_occupancy
  Cd  Cd0  1  -0.00000000  -0.00000000  0.00000000  1
  Cd  Cd1  1  0.75000000  0.50000000  0.75000000  1
  Co  Co2  1  0.37500000  0.25000000  0.37500000  1
  Co  Co3  1  0.87500000  0.25000000  0.37500000  1
  Co  Co4  1  0.37500000  0.75000000  0.37500000  1
  Co  Co5  1  0.37500000  0.75000000  0.87500000  1
  O  O6  1  0.14664043  0.29328086  0.13727532  1
  O  O7  1  0.60335957  0.20671914  0.18055518  1
  O  O8  1  0.56944482  0.70671914  0.14664043  1
  O  O9  1  0.13727532  0.70671914  0.14664043  1
  O  O10  1  0.60335957  0.20671914  0.61272468  1
  O  O11  1  0.14664043  0.29328086  0.56944482  1
  O  O12  1  0.18055518  0.79328086  0.60335957  1
  O  O13  1  0.61272468  0.79328086  0.60335957  1
