# generated using pymatgen
data_Fe5(OF4)2
_symmetry_space_group_name_H-M   'P 1'
_cell_length_a   4.82144655
_cell_length_b   8.03304103
_cell_length_c   10.13756388
_cell_angle_alpha   108.84941016
_cell_angle_beta   89.81895486
_cell_angle_gamma   89.86264931
_symmetry_Int_Tables_number   1
_chemical_formula_structural   Fe5(OF4)2
_chemical_formula_sum   'Fe10 O4 F16'
_cell_volume   371.57575304
_cell_formula_units_Z   2
loop_
 _symmetry_equiv_pos_site_id
 _symmetry_equiv_pos_as_xyz
  1  'x, y, z'
loop_
 _atom_site_type_symbol
 _atom_site_label
 _atom_site_symmetry_multiplicity
 _atom_site_fract_x
 _atom_site_fract_y
 _atom_site_fract_z
 _atom_site_occupancy
  Fe  Fe0  1  0.48445116  0.29346923  0.89306368  1
  Fe  Fe1  1  0.51532343  0.10318137  0.29763656  1
  Fe  Fe2  1  0.48598546  0.91190247  0.70267244  1
  Fe  Fe3  1  0.51344589  0.70090851  0.08985431  1
  Fe  Fe4  1  0.51962684  0.50172964  0.49576508  1
  Fe  Fe5  1  0.98621671  0.61216593  0.80858268  1
  Fe  Fe6  1  0.03173671  0.19864040  0.60725997  1
  Fe  Fe7  1  0.98810150  0.77869303  0.39418579  1
  Fe  Fe8  1  0.96890319  0.38605220  0.20663237  1
  Fe  Fe9  1  0.96762853  0.99211422  0.01422632  1
  O  O10  1  0.80456087  0.77512689  0.98562529  1
  O  O11  1  0.81441056  0.56107783  0.37266815  1
  O  O12  1  0.80608098  0.16401122  0.17944070  1
  O  O13  1  0.29892638  0.14304276  0.71166792  1
  F  F14  1  0.81612582  0.95425959  0.56964084  1
  F  F15  1  0.80560721  0.35368221  0.76975967  1
  F  F16  1  0.72335116  0.06445485  0.87936555  1
  F  F17  1  0.69808872  0.66939309  0.67944787  1
  F  F18  1  0.70890755  0.45260556  0.07622978  1
  F  F19  1  0.70227042  0.85720656  0.28916953  1
  F  F20  1  0.71325136  0.25424188  0.48976727  1
  F  F21  1  0.29230113  0.74475904  0.51381844  1
  F  F22  1  0.29286614  0.34235233  0.31966779  1
  F  F23  1  0.28942412  0.94280986  0.12460437  1
  F  F24  1  0.29476813  0.53636431  0.91543992  1
  F  F25  1  0.19509179  0.43551055  0.61169926  1
  F  F26  1  0.18847027  0.02989348  0.41677176  1
  F  F27  1  0.20260899  0.85937685  0.83481912  1
  F  F28  1  0.19382636  0.24375747  0.03103895  1
  F  F29  1  0.19764163  0.63721665  0.21947863  1
