# generated using pymatgen
data_Zn2SbWO6
_symmetry_space_group_name_H-M   'P 1'
_cell_length_a   5.47123150
_cell_length_b   5.46274711
_cell_length_c   8.18731042
_cell_angle_alpha   90.00000000
_cell_angle_beta   88.69828104
_cell_angle_gamma   90.00000000
_symmetry_Int_Tables_number   1
_chemical_formula_structural   Zn2SbWO6
_chemical_formula_sum   'Zn4 Sb2 W2 O12'
_cell_volume   244.63880680
_cell_formula_units_Z   2
loop_
 _symmetry_equiv_pos_site_id
 _symmetry_equiv_pos_as_xyz
  1  'x, y, z'
loop_
 _atom_site_type_symbol
 _atom_site_label
 _atom_site_symmetry_multiplicity
 _atom_site_fract_x
 _atom_site_fract_y
 _atom_site_fract_z
 _atom_site_occupancy
  Zn  Zn0  1  0.02221577  0.01759113  0.25382931  1
  Zn  Zn1  1  0.47778423  0.51759213  0.24617069  1
  Zn  Zn2  1  0.97778523  0.98240987  0.74617069  1
  Zn  Zn3  1  0.52221477  0.48240887  0.75382931  1
  Sb  Sb4  1  0.50000000  0.00000000  0.00000000  1
  Sb  Sb5  1  0.00000100  0.49999900  0.50000000  1
  W  W6  1  0.50000000  0.00000000  0.49999900  1
  W  W7  1  0.00000000  0.49999900  0.00000000  1
  O  O8  1  0.63762205  0.31732741  0.41669087  1
  O  O9  1  0.86237795  0.81732841  0.08330913  1
  O  O10  1  0.36237695  0.68267259  0.58330913  1
  O  O11  1  0.13762305  0.18267159  0.91669087  1
  O  O12  1  0.17937929  0.14465815  0.56425009  1
  O  O13  1  0.32062071  0.64465715  0.93574991  1
  O  O14  1  0.82062171  0.85534185  0.43574991  1
  O  O15  1  0.67937829  0.35534285  0.06425009  1
  O  O16  1  0.12230632  0.38172100  0.22752077  1
  O  O17  1  0.37769468  0.88172200  0.27247823  1
  O  O18  1  0.62230632  0.11827800  0.72752177  1
  O  O19  1  0.87769468  0.61827900  0.77247923  1
