# generated using pymatgen
data_Li2MnV4CoO12
_symmetry_space_group_name_H-M   'P 1'
_cell_length_a   6.94471378
_cell_length_b   6.94471422
_cell_length_c   5.76173479
_cell_angle_alpha   74.87938788
_cell_angle_beta   105.12061676
_cell_angle_gamma   96.68968308
_symmetry_Int_Tables_number   1
_chemical_formula_structural   Li2MnV4CoO12
_chemical_formula_sum   'Li2 Mn1 V4 Co1 O12'
_cell_volume   258.62464868
_cell_formula_units_Z   1
loop_
 _symmetry_equiv_pos_site_id
 _symmetry_equiv_pos_as_xyz
  1  'x, y, z'
loop_
 _atom_site_type_symbol
 _atom_site_label
 _atom_site_symmetry_multiplicity
 _atom_site_fract_x
 _atom_site_fract_y
 _atom_site_fract_z
 _atom_site_occupancy
  Li  Li0  1  0.24486892  0.24486892  0.25000000  1
  Li  Li1  1  0.75297488  0.75297488  0.75000000  1
  Mn  Mn2  1  0.91356780  0.91356780  0.25000000  1
  V  V3  1  0.18628908  0.60344459  0.76869021  1
  V  V4  1  0.39121097  0.79557101  0.27151870  1
  V  V5  1  0.60344459  0.18628908  0.73130979  1
  V  V6  1  0.79557101  0.39121097  0.22848130  1
  Co  Co7  1  0.08507730  0.08507730  0.75000000  1
  O  O8  1  0.01634537  0.80181966  0.65091533  1
  O  O9  1  0.10802222  0.35415649  0.84054349  1
  O  O10  1  0.21148113  0.97720088  0.15367031  1
  O  O11  1  0.36542894  0.64817891  0.56063181  1
  O  O12  1  0.35415649  0.10802222  0.65945651  1
  O  O13  1  0.36603259  0.64450044  0.06207865  1
  O  O14  1  0.64817891  0.36542894  0.93936819  1
  O  O15  1  0.62802576  0.90580107  0.32496872  1
  O  O16  1  0.64450044  0.36603259  0.43792235  1
  O  O17  1  0.80181966  0.01634537  0.84908467  1
  O  O18  1  0.90580107  0.62802576  0.17503128  1
  O  O19  1  0.97720088  0.21148113  0.34632969  1
