# generated using pymatgen
data_FeOF
_symmetry_space_group_name_H-M   'P 1'
_cell_length_a   14.16129552
_cell_length_b   14.20891562
_cell_length_c   3.10558664
_cell_angle_alpha   90.00000000
_cell_angle_beta   90.00000000
_cell_angle_gamma   90.23154005
_symmetry_Int_Tables_number   1
_chemical_formula_structural   FeOF
_chemical_formula_sum   'Fe18 O18 F18'
_cell_volume   624.89064729
_cell_formula_units_Z   18
loop_
 _symmetry_equiv_pos_site_id
 _symmetry_equiv_pos_as_xyz
  1  'x, y, z'
loop_
 _atom_site_type_symbol
 _atom_site_label
 _atom_site_symmetry_multiplicity
 _atom_site_fract_x
 _atom_site_fract_y
 _atom_site_fract_z
 _atom_site_occupancy
  Fe  Fe0  1  0.01368390  0.99925419  0.00000000  1
  Fe  Fe1  1  0.00597468  0.33789436  -0.00000000  1
  Fe  Fe2  1  0.00656664  0.65931368  -0.00000000  1
  Fe  Fe3  1  0.17052382  0.14754650  0.50000000  1
  Fe  Fe4  1  0.15586701  0.49999060  0.50000000  1
  Fe  Fe5  1  0.14977499  0.82735629  0.50000000  1
  Fe  Fe6  1  0.33476561  0.99811113  -0.00000000  1
  Fe  Fe7  1  0.34516736  0.32987832  0.00000000  1
  Fe  Fe8  1  0.34722800  0.66592190  0.00000000  1
  Fe  Fe9  1  0.48650325  0.49795184  0.50000000  1
  Fe  Fe10  1  0.50319632  0.18041486  0.50000000  1
  Fe  Fe11  1  0.48471762  0.83512102  0.50000000  1
  Fe  Fe12  1  0.67827012  0.99656832  -0.00000000  1
  Fe  Fe13  1  0.67134143  0.32307974  -0.00000000  1
  Fe  Fe14  1  0.67646338  0.66611140  -0.00000000  1
  Fe  Fe15  1  0.82005959  0.16369665  0.50000000  1
  Fe  Fe16  1  0.83386065  0.51918599  0.50000000  1
  Fe  Fe17  1  0.82121039  0.83154269  0.50000000  1
  O  O18  1  0.06748012  0.59983385  0.50000000  1
  O  O19  1  0.06504051  0.93652334  0.50000000  1
  O  O20  1  0.09775992  0.10744772  -0.00000000  1
  O  O21  1  0.10016545  0.43073009  0.00000000  1
  O  O22  1  0.09787066  0.76467038  0.00000000  1
  O  O23  1  0.27226554  0.06402491  0.50000000  1
  O  O24  1  0.39343273  0.26401076  0.50000000  1
  O  O25  1  0.39734929  0.60102731  0.50000000  1
  O  O26  1  0.39951636  0.93820760  0.50000000  1
  O  O27  1  0.43540072  0.43344052  0.00000000  1
  O  O28  1  0.43553628  0.76867362  0.00000000  1
  O  O29  1  0.56692750  0.23393028  -0.00000000  1
  O  O30  1  0.73799783  0.27325871  0.50000000  1
  O  O31  1  0.72580290  0.59967900  0.50000000  1
  O  O32  1  0.73206445  0.93567417  0.50000000  1
  O  O33  1  0.76729815  0.10300234  -0.00000000  1
  O  O34  1  0.76827383  0.76780550  0.00000000  1
  O  O35  1  0.90094939  0.56566987  0.00000000  1
  F  F36  1  0.06373222  0.26871292  0.50000000  1
  F  F37  1  0.22680218  0.23809127  -0.00000000  1
  F  F38  1  0.23287699  0.56431842  -0.00000000  1
  F  F39  1  0.23048493  0.89302744  0.00000000  1
  F  F40  1  0.26676434  0.73110006  0.50000000  1
  F  F41  1  0.26586795  0.40078520  0.50000000  1
  F  F42  1  0.44025240  0.10246666  0.00000000  1
  F  F43  1  0.56481174  0.56689867  0.00000000  1
  F  F44  1  0.56759932  0.90001925  0.00000000  1
  F  F45  1  0.59808724  0.06330456  0.50000000  1
  F  F46  1  0.60485959  0.40342715  0.50000000  1
  F  F47  1  0.59995179  0.73356203  0.50000000  1
  F  F48  1  0.76994621  0.43569041  -0.00000000  1
  F  F49  1  0.90544627  0.23435476  0.00000000  1
  F  F50  1  0.89896138  0.90092464  -0.00000000  1
  F  F51  1  0.93229076  0.06795401  0.50000000  1
  F  F52  1  0.93115907  0.39403434  0.50000000  1
  F  F53  1  0.93380022  0.73477773  0.50000000  1
