# generated using pymatgen
data_Cs2MgO2
_symmetry_space_group_name_H-M   'P 1'
_cell_length_a   10.06912709
_cell_length_b   6.78398725
_cell_length_c   16.71256894
_cell_angle_alpha   90.00000000
_cell_angle_beta   116.89696315
_cell_angle_gamma   90.00000000
_symmetry_Int_Tables_number   1
_chemical_formula_structural   Cs2MgO2
_chemical_formula_sum   'Cs16 Mg8 O16'
_cell_volume   1018.11772727
_cell_formula_units_Z   8
loop_
 _symmetry_equiv_pos_site_id
 _symmetry_equiv_pos_as_xyz
  1  'x, y, z'
loop_
 _atom_site_type_symbol
 _atom_site_label
 _atom_site_symmetry_multiplicity
 _atom_site_fract_x
 _atom_site_fract_y
 _atom_site_fract_z
 _atom_site_occupancy
  Cs  Cs0  1  0.14794314  0.66477819  0.97256235  1
  Cs  Cs1  1  0.07511554  0.13409898  0.83649457  1
  Cs  Cs2  1  0.32056168  0.91406806  0.74141157  1
  Cs  Cs3  1  0.42801808  0.42957111  0.87810368  1
  Cs  Cs4  1  0.14794314  0.83522181  0.47256235  1
  Cs  Cs5  1  0.07511554  0.36590102  0.33649457  1
  Cs  Cs6  1  0.57198192  0.92957111  0.62189632  1
  Cs  Cs7  1  0.67943832  0.41406806  0.75858843  1
  Cs  Cs8  1  0.32056168  0.58593194  0.24141157  1
  Cs  Cs9  1  0.42801808  0.07042889  0.37810368  1
  Cs  Cs10  1  0.92488446  0.63409898  0.66350543  1
  Cs  Cs11  1  0.85205686  0.16477819  0.52743765  1
  Cs  Cs12  1  0.57198192  0.57042889  0.12189632  1
  Cs  Cs13  1  0.67943832  0.08593194  0.25858843  1
  Cs  Cs14  1  0.92488446  0.86590102  0.16350543  1
  Cs  Cs15  1  0.85205686  0.33522181  0.02743865  1
  Mg  Mg16  1  0.24636241  0.37118741  0.62583752  1
  Mg  Mg17  1  0.58667127  0.94961923  0.96013998  1
  Mg  Mg18  1  0.41332873  0.44961923  0.53986002  1
  Mg  Mg19  1  0.75363759  0.87118741  0.87416248  1
  Mg  Mg20  1  0.24636241  0.12881259  0.12583752  1
  Mg  Mg21  1  0.58667127  0.55038077  0.46013998  1
  Mg  Mg22  1  0.41332873  0.05038077  0.03986002  1
  Mg  Mg23  1  0.75363759  0.62881259  0.37416248  1
  O  O24  1  0.14311374  0.30953601  0.69386906  1
  O  O25  1  0.37528716  0.88113090  0.93276341  1
  O  O26  1  0.26628454  0.23290357  0.52853750  1
  O  O27  1  0.38336461  0.58808582  0.63961098  1
  O  O28  1  0.61663539  0.08808582  0.86038902  1
  O  O29  1  0.73371546  0.73290357  0.97146250  1
  O  O30  1  0.14311374  0.19046399  0.19386906  1
  O  O31  1  0.37528716  0.61886910  0.43276341  1
  O  O32  1  0.62471284  0.38113090  0.56723659  1
  O  O33  1  0.85688626  0.80953601  0.80613094  1
  O  O34  1  0.26628454  0.26709643  0.02853750  1
  O  O35  1  0.38336461  0.91191418  0.13961098  1
  O  O36  1  0.61663539  0.41191418  0.36038902  1
  O  O37  1  0.73371546  0.76709643  0.47146250  1
  O  O38  1  0.62471284  0.11886910  0.06723659  1
  O  O39  1  0.85688626  0.69046399  0.30613094  1
