# generated using pymatgen
data_Mg(SnO2)2
_symmetry_space_group_name_H-M   'P 1'
_cell_length_a   6.34891238
_cell_length_b   6.37264815
_cell_length_c   27.49502355
_cell_angle_alpha   62.38362826
_cell_angle_beta   62.69920014
_cell_angle_gamma   59.87625245
_symmetry_Int_Tables_number   1
_chemical_formula_structural   Mg(SnO2)2
_chemical_formula_sum   'Mg8 Sn16 O32'
_cell_volume   814.65085982
_cell_formula_units_Z   8
loop_
 _symmetry_equiv_pos_site_id
 _symmetry_equiv_pos_as_xyz
  1  'x, y, z'
loop_
 _atom_site_type_symbol
 _atom_site_label
 _atom_site_symmetry_multiplicity
 _atom_site_fract_x
 _atom_site_fract_y
 _atom_site_fract_z
 _atom_site_occupancy
  Mg  Mg0  1  0.12012131  0.10157458  0.04418288  1
  Mg  Mg1  1  0.99843995  0.50084125  0.12496889  1
  Mg  Mg2  1  0.12867919  0.09716286  0.29424852  1
  Mg  Mg3  1  0.99774386  0.49254238  0.37929284  1
  Mg  Mg4  1  0.99794768  0.49918615  0.62591976  1
  Mg  Mg5  1  0.49937176  0.49653087  0.50189187  1
  Mg  Mg6  1  0.99614976  0.51238491  0.86977010  1
  Mg  Mg7  1  0.49778622  0.50284670  0.74912960  1
  Sn  Sn8  1  0.50028508  0.50039098  0.12475631  1
  Sn  Sn9  1  0.49104070  0.49055432  0.25696241  1
  Sn  Sn10  1  0.50028508  0.00029869  0.12475631  1
  Sn  Sn11  1  0.13808220  0.11816806  0.53139517  1
  Sn  Sn12  1  0.50826173  0.49535293  0.37716894  1
  Sn  Sn13  1  0.86271860  0.88712114  0.21575978  1
  Sn  Sn14  1  0.12722896  0.12177934  0.78230309  1
  Sn  Sn15  1  0.50826173  0.98771059  0.37716894  1
  Sn  Sn16  1  0.49898843  0.49890292  0.62576997  1
  Sn  Sn17  1  0.86448555  0.87438271  0.47168701  1
  Sn  Sn18  1  0.49898843  0.99902876  0.62576997  1
  Sn  Sn19  1  0.48991959  0.01412052  0.87260227  1
  Sn  Sn20  1  0.48991959  0.50555081  0.87260227  1
  Sn  Sn21  1  0.86022364  0.87928886  0.72029916  1
  Sn  Sn22  1  0.48790172  0.49934815  0.00335074  1
  Sn  Sn23  1  0.85543283  0.89772938  0.96227685  1
  O  O24  1  0.25803726  0.24144227  0.07146145  1
  O  O25  1  0.28111629  0.26142373  0.17400906  1
  O  O26  1  0.25803726  0.71467668  0.07146145  1
  O  O27  1  0.72292997  0.24755382  0.07049085  1
  O  O28  1  0.27666070  0.76496296  0.17335284  1
  O  O29  1  0.26366896  0.22705016  0.32293580  1
  O  O30  1  0.76471443  0.27976146  0.17042589  1
  O  O31  1  0.29088340  0.27445230  0.41505250  1
  O  O32  1  0.26366896  0.71753766  0.32293580  1
  O  O33  1  0.71625200  0.72450654  0.08368348  1
  O  O34  1  0.74105893  0.22874222  0.32536466  1
  O  O35  1  0.76471443  0.77382057  0.17042589  1
  O  O36  1  0.27075544  0.24863580  0.56924287  1
  O  O37  1  0.29721796  0.73966378  0.43086337  1
  O  O38  1  0.72850995  0.29127964  0.43470497  1
  O  O39  1  0.27721738  0.27601316  0.66768932  1
  O  O40  1  0.27075544  0.70363629  0.56924287  1
  O  O41  1  0.73169801  0.71364591  0.33525229  1
  O  O42  1  0.70807767  0.25185907  0.57205104  1
  O  O43  1  0.72850995  0.74139152  0.43470497  1
  O  O44  1  0.29371916  0.74659041  0.67827475  1
  O  O45  1  0.26456703  0.26665548  0.81690829  1
  O  O46  1  0.72717174  0.29631458  0.68156996  1
  O  O47  1  0.27577793  0.25884867  0.92663069  1
  O  O48  1  0.26456703  0.70114232  0.81690829  1
  O  O49  1  0.72154631  0.72334649  0.58294043  1
  O  O50  1  0.69201154  0.26922730  0.81738346  1
  O  O51  1  0.72717174  0.75023585  0.68156996  1
  O  O52  1  0.26541509  0.78089693  0.91819801  1
  O  O53  1  0.76670282  0.28973293  0.91525314  1
  O  O54  1  0.70189983  0.73960594  0.82972182  1
  O  O55  1  0.76670282  0.78255068  0.91525314  1
