# generated using pymatgen
data_AlAgO2
_symmetry_space_group_name_H-M   'P 1'
_cell_length_a   5.47647353
_cell_length_b   5.48628201
_cell_length_c   7.03259004
_cell_angle_alpha   90.00000000
_cell_angle_beta   90.00000000
_cell_angle_gamma   90.00000000
_symmetry_Int_Tables_number   1
_chemical_formula_structural   AlAgO2
_chemical_formula_sum   'Al4 Ag4 O8'
_cell_volume   211.29753078
_cell_formula_units_Z   4
loop_
 _symmetry_equiv_pos_site_id
 _symmetry_equiv_pos_as_xyz
  1  'x, y, z'
loop_
 _atom_site_type_symbol
 _atom_site_label
 _atom_site_symmetry_multiplicity
 _atom_site_fract_x
 _atom_site_fract_y
 _atom_site_fract_z
 _atom_site_occupancy
  O  O0  1  0.37584299  0.56365565  0.17451199  1
  O  O1  1  0.62415701  0.06365565  0.82548801  1
  O  O2  1  0.12415701  0.06365565  0.67451199  1
  O  O3  1  0.87584299  0.56365565  0.32548801  1
  O  O4  1  0.46922516  0.68593365  0.56801515  1
  O  O5  1  0.96922516  0.68593365  0.93198485  1
  O  O6  1  0.03077484  0.18593365  0.06801515  1
  O  O7  1  0.53077484  0.18593365  0.43198485  1
  Al  Al8  1  0.93652562  0.99983873  0.87548263  1
  Al  Al9  1  0.56347438  0.49983873  0.37548263  1
  Al  Al10  1  0.06347438  0.49983873  0.12451737  1
  Al  Al11  1  0.43652562  0.99983873  0.62451737  1
  Ag  Ag12  1  0.44509773  0.99847198  0.13497634  1
  Ag  Ag13  1  0.55490227  0.49847198  0.86502366  1
  Ag  Ag14  1  0.05490227  0.49847198  0.63497634  1
  Ag  Ag15  1  0.94509773  0.99847198  0.36502366  1
