# generated using pymatgen
data_BaNa2Sn
_symmetry_space_group_name_H-M   'P 1'
_cell_length_a   5.64958457
_cell_length_b   5.64703846
_cell_length_c   5.64358526
_cell_angle_alpha   60.04843836
_cell_angle_beta   60.00529057
_cell_angle_gamma   59.96046621
_symmetry_Int_Tables_number   1
_chemical_formula_structural   BaNa2Sn
_chemical_formula_sum   'Ba1 Na2 Sn1'
_cell_volume   127.32785633
_cell_formula_units_Z   1
loop_
 _symmetry_equiv_pos_site_id
 _symmetry_equiv_pos_as_xyz
  1  'x, y, z'
loop_
 _atom_site_type_symbol
 _atom_site_label
 _atom_site_symmetry_multiplicity
 _atom_site_fract_x
 _atom_site_fract_y
 _atom_site_fract_z
 _atom_site_occupancy
  Ba  Ba0  1  0.24999828  0.24999720  0.25001291  1
  Na  Na1  1  0.99998008  -0.00001755  0.00006857  1
  Na  Na2  1  0.50001197  0.50001433  0.49995428  1
  Sn  Sn3  1  0.75001067  0.75000701  0.74996524  1
