# generated using pymatgen
data_FeH2Cl5O3
_symmetry_space_group_name_H-M   'P 1'
_cell_length_a   6.55763762
_cell_length_b   8.53146514
_cell_length_c   19.09068162
_cell_angle_alpha   90.00000000
_cell_angle_beta   90.00000000
_cell_angle_gamma   90.00000000
_symmetry_Int_Tables_number   1
_chemical_formula_structural   FeH2Cl5O3
_chemical_formula_sum   'Fe4 H8 Cl20 O12'
_cell_volume   1068.05217556
_cell_formula_units_Z   4
loop_
 _symmetry_equiv_pos_site_id
 _symmetry_equiv_pos_as_xyz
  1  'x, y, z'
loop_
 _atom_site_type_symbol
 _atom_site_label
 _atom_site_symmetry_multiplicity
 _atom_site_fract_x
 _atom_site_fract_y
 _atom_site_fract_z
 _atom_site_occupancy
  Fe  Fe0  1  0.88427018  0.25000000  0.91149365  1
  Fe  Fe1  1  0.61572982  0.25000000  0.41149365  1
  Fe  Fe2  1  0.11572982  0.75000000  0.08850635  1
  Fe  Fe3  1  0.38427018  0.75000000  0.58850635  1
  H  H4  1  0.53305724  0.06000242  0.65376628  1
  H  H5  1  0.96694276  0.43999758  0.15376628  1
  H  H6  1  0.46694276  0.56000242  0.34623372  1
  H  H7  1  0.03305724  0.93999758  0.84623372  1
  H  H8  1  0.46694276  0.93999758  0.34623372  1
  H  H9  1  0.03305724  0.56000242  0.84623372  1
  H  H10  1  0.53305724  0.43999758  0.65376628  1
  H  H11  1  0.96694276  0.06000242  0.15376628  1
  Cl  Cl12  1  0.21591867  0.25000000  0.89056361  1
  Cl  Cl13  1  0.28408133  0.25000000  0.39056361  1
  Cl  Cl14  1  0.78408133  0.75000000  0.10943639  1
  Cl  Cl15  1  0.71591867  0.75000000  0.60943639  1
  Cl  Cl16  1  0.67937958  0.25000000  0.71076379  1
  Cl  Cl17  1  0.82062042  0.25000000  0.21076379  1
  Cl  Cl18  1  0.32062042  0.75000000  0.28923621  1
  Cl  Cl19  1  0.17937958  0.75000000  0.78923621  1
  Cl  Cl20  1  0.75666328  0.02981491  0.85736911  1
  Cl  Cl21  1  0.74333672  0.47018509  0.35736911  1
  Cl  Cl22  1  0.24333672  0.52981491  0.14263089  1
  Cl  Cl23  1  0.25666328  0.97018509  0.64263089  1
  Cl  Cl24  1  0.24333672  0.97018509  0.14263089  1
  Cl  Cl25  1  0.25666328  0.52981491  0.64263089  1
  Cl  Cl26  1  0.75666328  0.47018509  0.85736911  1
  Cl  Cl27  1  0.74333672  0.02981491  0.35736911  1
  Cl  Cl28  1  0.60291087  0.25000000  0.01514368  1
  Cl  Cl29  1  0.89708913  0.25000000  0.51514368  1
  Cl  Cl30  1  0.39708913  0.75000000  0.98485632  1
  Cl  Cl31  1  0.10291087  0.75000000  0.48485632  1
  O  O32  1  0.86052075  0.25000000  0.01001558  1
  O  O33  1  0.63947925  0.25000000  0.51001558  1
  O  O34  1  0.13947925  0.75000000  0.98998442  1
  O  O35  1  0.36052075  0.75000000  0.48998442  1
  O  O36  1  0.18185112  0.59437503  0.83770218  1
  O  O37  1  0.31814888  0.90562497  0.33770218  1
  O  O38  1  0.81814888  0.09437503  0.16229782  1
  O  O39  1  0.68185112  0.40562497  0.66229782  1
  O  O40  1  0.81814888  0.40562497  0.16229782  1
  O  O41  1  0.68185112  0.09437503  0.66229782  1
  O  O42  1  0.18185112  0.90562497  0.83770218  1
  O  O43  1  0.31814888  0.59437503  0.33770218  1
