# generated using pymatgen
data_Pb10S(ClO3)4
_symmetry_space_group_name_H-M   'P 1'
_cell_length_a   13.22889821
_cell_length_b   9.06672950
_cell_length_c   10.84359491
_cell_angle_alpha   77.45240031
_cell_angle_beta   114.67973300
_cell_angle_gamma   94.89696404
_symmetry_Int_Tables_number   1
_chemical_formula_structural   Pb10S(ClO3)4
_chemical_formula_sum   'Pb20 S2 Cl8 O24'
_cell_volume   1153.56098327
_cell_formula_units_Z   2
loop_
 _symmetry_equiv_pos_site_id
 _symmetry_equiv_pos_as_xyz
  1  'x, y, z'
loop_
 _atom_site_type_symbol
 _atom_site_label
 _atom_site_symmetry_multiplicity
 _atom_site_fract_x
 _atom_site_fract_y
 _atom_site_fract_z
 _atom_site_occupancy
  Pb  Pb0  1  0.02590011  0.99779362  0.68075172  1
  Pb  Pb1  1  0.97409989  0.00220638  0.31924828  1
  Pb  Pb2  1  0.64774407  0.45412774  0.06453827  1
  Pb  Pb3  1  0.35225593  0.54587226  0.93546173  1
  Pb  Pb4  1  0.94294659  0.34964576  0.77388224  1
  Pb  Pb5  1  0.05705341  0.65035424  0.22611776  1
  Pb  Pb6  1  0.09343637  0.64986574  0.59009162  1
  Pb  Pb7  1  0.90656363  0.35013426  0.40990838  1
  Pb  Pb8  1  0.56016506  0.82116122  0.12900909  1
  Pb  Pb9  1  0.43983494  0.17883878  0.87099091  1
  Pb  Pb10  1  0.20484218  0.28391691  0.53236047  1
  Pb  Pb11  1  0.79515782  0.71608309  0.46763953  1
  Pb  Pb12  1  0.46765534  0.15001399  0.22743185  1
  Pb  Pb13  1  0.53234466  0.84998601  0.77256815  1
  Pb  Pb14  1  0.74602842  0.14289041  0.97353988  1
  Pb  Pb15  1  0.25397158  0.85710959  0.02646012  1
  Pb  Pb16  1  0.38502453  0.55422856  0.31845835  1
  Pb  Pb17  1  0.61497547  0.44577144  0.68154165  1
  Pb  Pb18  1  0.28758904  0.88000859  0.41041655  1
  Pb  Pb19  1  0.71241096  0.11999141  0.58958345  1
  S  S20  1  0.80798382  0.77226952  0.82481468  1
  S  S21  1  0.19201618  0.22773048  0.17518532  1
  Cl  Cl22  1  0.52300306  0.80471157  0.42735660  1
  Cl  Cl23  1  0.47699694  0.19528843  0.57264340  1
  Cl  Cl24  1  0.17571146  0.27966522  0.78745579  1
  Cl  Cl25  1  0.82428854  0.72033478  0.21254421  1
  Cl  Cl26  1  0.35477837  0.57721803  0.62159897  1
  Cl  Cl27  1  0.64522163  0.42278197  0.37840103  1
  Cl  Cl28  1  0.70075021  0.06119295  0.29359917  1
  Cl  Cl29  1  0.29924979  0.93880705  0.70640083  1
  O  O30  1  0.74863736  0.91462301  0.81433377  1
  O  O31  1  0.25136264  0.08537699  0.18566623  1
  O  O32  1  0.91495621  0.75319844  0.94570282  1
  O  O33  1  0.08504379  0.24680156  0.05429718  1
  O  O34  1  0.73119057  0.64264430  0.83248871  1
  O  O35  1  0.26880943  0.35735570  0.16751129  1
  O  O36  1  0.82673844  0.79303128  0.69455194  1
  O  O37  1  0.17326156  0.20696872  0.30544806  1
  O  O38  1  0.07371212  0.48038004  0.43149434  1
  O  O39  1  0.92628788  0.51961996  0.56850566  1
  O  O40  1  0.61389479  0.33224355  0.89051303  1
  O  O41  1  0.38610521  0.66775645  0.10948697  1
  O  O42  1  0.24466891  0.72834556  0.24642214  1
  O  O43  1  0.75533109  0.27165444  0.75357786  1
  O  O44  1  0.52219463  0.66460433  0.95067549  1
  O  O45  1  0.47780537  0.33539567  0.04932451  1
  O  O46  1  0.95950153  0.84857189  0.51218844  1
  O  O47  1  0.04049847  0.15142811  0.48781156  1
  O  O48  1  0.10524901  0.81733637  0.37811766  1
  O  O49  1  0.89475099  0.18266363  0.62188234  1
  O  O50  1  0.41830521  0.00208209  0.06426861  1
  O  O51  1  0.58169479  0.99791791  0.93573139  1
  O  O52  1  0.82001899  0.33513817  0.16979533  1
  O  O53  1  0.17998101  0.66486183  0.83020467  1
