# generated using pymatgen
data_Ac3Eu
_symmetry_space_group_name_H-M   'P 1'
_cell_length_a   8.15556570
_cell_length_b   8.15556648
_cell_length_c   6.55359001
_cell_angle_alpha   90.00000000
_cell_angle_beta   90.00000000
_cell_angle_gamma   120.00000620
_symmetry_Int_Tables_number   1
_chemical_formula_structural   Ac3Eu
_chemical_formula_sum   'Ac6 Eu2'
_cell_volume   377.50099087
_cell_formula_units_Z   2
loop_
 _symmetry_equiv_pos_site_id
 _symmetry_equiv_pos_as_xyz
  1  'x, y, z'
loop_
 _atom_site_type_symbol
 _atom_site_label
 _atom_site_symmetry_multiplicity
 _atom_site_fract_x
 _atom_site_fract_y
 _atom_site_fract_z
 _atom_site_occupancy
  Ac  Ac0  1  0.16626603  0.33253105  0.25000000  1
  Ac  Ac1  1  0.66746895  0.83373397  0.25000000  1
  Ac  Ac2  1  0.16626603  0.83373397  0.25000000  1
  Ac  Ac3  1  0.83373397  0.66746795  0.75000100  1
  Ac  Ac4  1  0.33253105  0.16626603  0.75000100  1
  Ac  Ac5  1  0.83373497  0.16626603  0.75000100  1
  Eu  Eu6  1  0.33333300  0.66666600  0.75000100  1
  Eu  Eu7  1  0.66666800  0.33333500  0.25000000  1
