# generated using pymatgen
data_Zn(AgO2)2
_symmetry_space_group_name_H-M   'P 1'
_cell_length_a   6.33869389
_cell_length_b   6.49548979
_cell_length_c   19.18423356
_cell_angle_alpha   59.47142865
_cell_angle_beta   58.90304695
_cell_angle_gamma   59.22394887
_symmetry_Int_Tables_number   1
_chemical_formula_structural   Zn(AgO2)2
_chemical_formula_sum   'Zn6 Ag12 O24'
_cell_volume   548.30845170
_cell_formula_units_Z   6
loop_
 _symmetry_equiv_pos_site_id
 _symmetry_equiv_pos_as_xyz
  1  'x, y, z'
loop_
 _atom_site_type_symbol
 _atom_site_label
 _atom_site_symmetry_multiplicity
 _atom_site_fract_x
 _atom_site_fract_y
 _atom_site_fract_z
 _atom_site_occupancy
  Zn  Zn0  1  0.14718651  0.11344718  0.04200307  1
  Zn  Zn1  1  0.49753957  0.50032660  0.33397843  1
  Zn  Zn2  1  0.99746553  0.49682410  0.16946163  1
  Zn  Zn3  1  0.50200290  0.50050589  0.66561941  1
  Zn  Zn4  1  0.99960126  0.50018776  0.49990381  1
  Zn  Zn5  1  0.00429293  0.50225265  0.83062630  1
  Ag  Ag6  1  0.50258003  0.99624192  0.16658318  1
  Ag  Ag7  1  0.14104450  0.11186253  0.37832377  1
  Ag  Ag8  1  0.50021182  0.49871971  0.00075822  1
  Ag  Ag9  1  0.50240353  0.50150040  0.16649583  1
  Ag  Ag10  1  0.50002742  0.00049543  0.49979233  1
  Ag  Ag11  1  0.14334511  0.11364857  0.70986803  1
  Ag  Ag12  1  0.50000631  0.49986637  0.49990533  1
  Ag  Ag13  1  0.49689899  0.00684394  0.83327430  1
  Ag  Ag14  1  0.85922297  0.88666418  0.28919561  1
  Ag  Ag15  1  0.49659694  0.49681832  0.83348961  1
  Ag  Ag16  1  0.85809016  0.88692733  0.62243466  1
  Ag  Ag17  1  0.86507835  0.88254585  0.95640265  1
  O  O18  1  0.26467133  0.25584426  0.08650093  1
  O  O19  1  0.27526054  0.26357974  0.23222413  1
  O  O20  1  0.26668466  0.71777658  0.08635190  1
  O  O21  1  0.75651248  0.24235081  0.08481480  1
  O  O22  1  0.27014885  0.26571704  0.42298564  1
  O  O23  1  0.27127297  0.74339907  0.24850177  1
  O  O24  1  0.26831447  0.25899835  0.57104341  1
  O  O25  1  0.72518418  0.30273786  0.24514860  1
  O  O26  1  0.27059635  0.69473165  0.42322589  1
  O  O27  1  0.72957464  0.73767308  0.09870120  1
  O  O28  1  0.71545001  0.25771218  0.42293510  1
  O  O29  1  0.72649235  0.73534411  0.24544060  1
  O  O30  1  0.26985460  0.26566229  0.75721214  1
  O  O31  1  0.28448605  0.74266685  0.57687864  1
  O  O32  1  0.73012304  0.30531156  0.57624308  1
  O  O33  1  0.27078937  0.69286466  0.75722830  1
  O  O34  1  0.25356394  0.25415081  0.91277238  1
  O  O35  1  0.72936722  0.74220310  0.42883373  1
  O  O36  1  0.72018520  0.25766237  0.75455934  1
  O  O37  1  0.73055306  0.73515636  0.57624914  1
  O  O38  1  0.28033326  0.74799231  0.90882995  1
  O  O39  1  0.72439770  0.30468449  0.91130312  1
  O  O40  1  0.72713919  0.74201454  0.76288504  1
  O  O41  1  0.72544872  0.73808521  0.91101600  1
