# generated using pymatgen
data_Ca3SiO5
_symmetry_space_group_name_H-M   'P 1'
_cell_length_a   7.09521564
_cell_length_b   7.09520615
_cell_length_c   9.25819501
_cell_angle_alpha   68.08787166
_cell_angle_beta   111.91204834
_cell_angle_gamma   119.44181820
_symmetry_Int_Tables_number   1
_chemical_formula_structural   Ca3SiO5
_chemical_formula_sum   'Ca9 Si3 O15'
_cell_volume   366.03053391
_cell_formula_units_Z   3
loop_
 _symmetry_equiv_pos_site_id
 _symmetry_equiv_pos_as_xyz
  1  'x, y, z'
loop_
 _atom_site_type_symbol
 _atom_site_label
 _atom_site_symmetry_multiplicity
 _atom_site_fract_x
 _atom_site_fract_y
 _atom_site_fract_z
 _atom_site_occupancy
  Ca  Ca0  1  0.00753081  0.47119290  0.98549850  1
  Ca  Ca1  1  0.52881027  0.99246489  0.98549164  1
  Ca  Ca2  1  0.24160675  0.28705474  0.70556983  1
  Ca  Ca3  1  0.71294422  0.75839846  0.70556989  1
  Ca  Ca4  1  0.75621271  0.74270049  0.34629132  1
  Ca  Ca5  1  0.25730884  0.24379323  0.34630322  1
  Ca  Ca6  1  0.54986525  0.45011826  0.04686185  1
  Ca  Ca7  1  0.68381574  0.31619504  0.64847285  1
  Ca  Ca8  1  0.27054491  0.72945419  0.29382548  1
  Si  Si9  1  0.79162919  0.20837576  0.35532045  1
  Si  Si10  1  0.21400823  0.78599351  0.64880473  1
  Si  Si11  1  0.99880033  0.00119328  0.99085447  1
  O  O12  1  0.98342003  0.39189332  0.25477455  1
  O  O13  1  0.88100301  0.11899306  0.81516871  1
  O  O14  1  0.60811140  0.01658999  0.25476959  1
  O  O15  1  0.66152710  0.33847115  0.37266612  1
  O  O16  1  0.89388834  0.73489661  0.00052911  1
  O  O17  1  0.39267148  0.60732412  0.12883301  1
  O  O18  1  0.26509559  0.10609251  0.00052755  1
  O  O19  1  0.63540924  0.36459255  0.86638238  1
  O  O20  1  0.94834298  0.05166961  0.12995361  1
  O  O21  1  0.16715374  0.83283718  0.45143631  1
  O  O22  1  0.34968652  0.02958904  0.69479736  1
  O  O23  1  0.36253352  0.63746366  0.75710489  1
  O  O24  1  0.97041762  0.65031796  0.69480651  1
  O  O25  1  0.46868861  0.53131963  0.49764449  1
  O  O26  1  0.91548057  0.08451787  0.52313957  1
