# generated using pymatgen
data_La5Mg
_symmetry_space_group_name_H-M   'P 1'
_cell_length_a   3.73028307
_cell_length_b   9.60624312
_cell_length_c   5.96859369
_cell_angle_alpha   90.00000000
_cell_angle_beta   90.00000000
_cell_angle_gamma   78.80438618
_symmetry_Int_Tables_number   1
_chemical_formula_structural   La5Mg
_chemical_formula_sum   'La5 Mg1'
_cell_volume   209.80851697
_cell_formula_units_Z   1
loop_
 _symmetry_equiv_pos_site_id
 _symmetry_equiv_pos_as_xyz
  1  'x, y, z'
loop_
 _atom_site_type_symbol
 _atom_site_label
 _atom_site_symmetry_multiplicity
 _atom_site_fract_x
 _atom_site_fract_y
 _atom_site_fract_z
 _atom_site_occupancy
  La  La0  1  0.99454577  0.01090746  0.00000000  1
  La  La1  1  0.32658790  0.34682720  0.00000000  1
  La  La2  1  0.66768720  0.66462360  0.00000000  1
  La  La3  1  0.44342336  0.11315429  0.50000000  1
  La  La4  1  0.12161215  0.75677769  0.50000000  1
  Mg  Mg5  1  0.77947862  0.44104176  0.50000000  1
