# generated using pymatgen
data_Pr3Sc
_symmetry_space_group_name_H-M   'P 1'
_cell_length_a   7.24776114
_cell_length_b   7.24776096
_cell_length_c   5.87458496
_cell_angle_alpha   90.00000000
_cell_angle_beta   90.00000000
_cell_angle_gamma   120.00000565
_symmetry_Int_Tables_number   1
_chemical_formula_structural   Pr3Sc
_chemical_formula_sum   'Pr6 Sc2'
_cell_volume   267.24865584
_cell_formula_units_Z   2
loop_
 _symmetry_equiv_pos_site_id
 _symmetry_equiv_pos_as_xyz
  1  'x, y, z'
loop_
 _atom_site_type_symbol
 _atom_site_label
 _atom_site_symmetry_multiplicity
 _atom_site_fract_x
 _atom_site_fract_y
 _atom_site_fract_z
 _atom_site_occupancy
  Pr  Pr0  1  0.17075259  0.34150418  0.24999900  1
  Pr  Pr1  1  0.17075159  0.82924941  0.24999900  1
  Pr  Pr2  1  0.65849782  0.82924941  0.24999900  1
  Pr  Pr3  1  0.82924841  0.65849582  0.75000000  1
  Pr  Pr4  1  0.34150218  0.17075159  0.75000000  1
  Pr  Pr5  1  0.82924941  0.17075159  0.75000000  1
  Sc  Sc6  1  0.33333400  0.66666700  0.75000000  1
  Sc  Sc7  1  0.66666700  0.33333300  0.24999900  1
