# generated using pymatgen
data_Cs3As
_symmetry_space_group_name_H-M   'P 1'
_cell_length_a   9.39167229
_cell_length_b   9.39167271
_cell_length_c   5.64491561
_cell_angle_alpha   90.00000000
_cell_angle_beta   90.00000000
_cell_angle_gamma   119.99999855
_symmetry_Int_Tables_number   1
_chemical_formula_structural   Cs3As
_chemical_formula_sum   'Cs6 As2'
_cell_volume   431.19525318
_cell_formula_units_Z   2
loop_
 _symmetry_equiv_pos_site_id
 _symmetry_equiv_pos_as_xyz
  1  'x, y, z'
loop_
 _atom_site_type_symbol
 _atom_site_label
 _atom_site_symmetry_multiplicity
 _atom_site_fract_x
 _atom_site_fract_y
 _atom_site_fract_z
 _atom_site_occupancy
  Cs  Cs0  1  0.19241263  0.38482626  0.24999900  1
  Cs  Cs1  1  0.61517374  0.80758637  0.24999900  1
  Cs  Cs2  1  0.19241163  0.80758637  0.24999900  1
  Cs  Cs3  1  0.80758737  0.61517474  0.74999900  1
  Cs  Cs4  1  0.38482526  0.19241263  0.74999900  1
  Cs  Cs5  1  0.80758737  0.19241263  0.74999900  1
  As  As6  1  0.33333300  0.66666700  0.74999900  1
  As  As7  1  0.66666600  0.33333300  0.24999900  1
