# generated using pymatgen
data_Mg16ZrAl12
_symmetry_space_group_name_H-M   'P 1'
_cell_length_a   8.95854963
_cell_length_b   9.20209034
_cell_length_c   9.14429786
_cell_angle_alpha   110.10176744
_cell_angle_beta   109.02839631
_cell_angle_gamma   108.99924431
_symmetry_Int_Tables_number   1
_chemical_formula_structural   Mg16ZrAl12
_chemical_formula_sum   'Mg16 Zr1 Al12'
_cell_volume   582.27423470
_cell_formula_units_Z   1
loop_
 _symmetry_equiv_pos_site_id
 _symmetry_equiv_pos_as_xyz
  1  'x, y, z'
loop_
 _atom_site_type_symbol
 _atom_site_label
 _atom_site_symmetry_multiplicity
 _atom_site_fract_x
 _atom_site_fract_y
 _atom_site_fract_z
 _atom_site_occupancy
  Mg  Mg0  1  0.34854338  0.99504540  1.00000000  1
  Mg  Mg1  1  0.99764728  0.00101727  1.00000000  1
  Mg  Mg2  1  0.31896602  0.59888519  0.99999900  1
  Mg  Mg3  1  0.99333659  0.34480730  0.00000000  1
  Mg  Mg4  1  0.68874308  0.68469039  0.28838122  1
  Mg  Mg5  1  0.99698624  0.60006057  0.31602376  1
  Mg  Mg6  1  0.60517172  0.99895837  0.31933393  1
  Mg  Mg7  1  0.99520640  0.00446767  0.34066586  1
  Mg  Mg8  1  0.39464965  0.71038819  0.39400866  1
  Mg  Mg9  1  0.71652848  0.40208177  0.40358467  1
  Mg  Mg10  1  0.31294381  0.99849810  0.59641533  1
  Mg  Mg11  1  0.00063999  0.31637953  0.60599234  1
  Mg  Mg12  1  0.65454054  0.66380181  0.65933414  1
  Mg  Mg13  1  0.28583780  0.67962544  0.68066707  1
  Mg  Mg14  1  0.68096248  0.28403681  0.68397624  1
  Mg  Mg15  1  0.40036186  0.39630917  0.71161878  1
  Zr  Zr16  1  0.59502717  0.31547244  1.00000000  1
  Al  Al17  1  0.63707669  0.81791528  0.99999900  1
  Al  Al18  1  0.80952332  0.62607786  1.00000000  1
  Al  Al19  1  0.36988053  0.36532279  0.17871141  1
  Al  Al20  1  0.81538883  0.18933520  0.18352859  1
  Al  Al21  1  0.18571090  0.82105995  0.18447483  1
  Al  Al22  1  0.36505544  0.17727543  0.36130830  1
  Al  Al23  1  0.18474533  0.36487363  0.36622843  1
  Al  Al24  1  0.81851690  0.99864420  0.63377257  1
  Al  Al25  1  0.00374614  0.81596713  0.63869170  1
  Al  Al26  1  0.00123606  0.63658611  0.81552517  1
  Al  Al27  1  0.63186024  0.00580661  0.81647041  1
  Al  Al28  1  0.19116713  0.18661038  0.82128759  1
