# generated using pymatgen
data_Zn(SnO2)2
_symmetry_space_group_name_H-M   'P 1'
_cell_length_a   6.39974623
_cell_length_b   6.38337724
_cell_length_c   20.34019092
_cell_angle_alpha   61.94919518
_cell_angle_beta   62.95897613
_cell_angle_gamma   60.10545277
_symmetry_Int_Tables_number   1
_chemical_formula_structural   Zn(SnO2)2
_chemical_formula_sum   'Zn6 Sn12 O24'
_cell_volume   608.84251440
_cell_formula_units_Z   6
loop_
 _symmetry_equiv_pos_site_id
 _symmetry_equiv_pos_as_xyz
  1  'x, y, z'
loop_
 _atom_site_type_symbol
 _atom_site_label
 _atom_site_symmetry_multiplicity
 _atom_site_fract_x
 _atom_site_fract_y
 _atom_site_fract_z
 _atom_site_occupancy
  Zn  Zn0  1  0.13497434  0.10136894  0.05403317  1
  Zn  Zn1  1  0.49549567  0.49989671  0.33492908  1
  Zn  Zn2  1  0.99520156  0.49354404  0.17266407  1
  Zn  Zn3  1  0.50086128  0.50142575  0.66543803  1
  Zn  Zn4  1  0.99883353  0.49889872  0.50113832  1
  Zn  Zn5  1  0.99359322  0.51442639  0.82576086  1
  Sn  Sn6  1  0.51010802  0.98953992  0.16752098  1
  Sn  Sn7  1  0.13331735  0.12184382  0.37419058  1
  Sn  Sn8  1  0.49212717  0.49554607  0.00556094  1
  Sn  Sn9  1  0.50999548  0.49797930  0.16751860  1
  Sn  Sn10  1  0.49966038  0.99898958  0.50087508  1
  Sn  Sn11  1  0.12270119  0.12363712  0.70970518  1
  Sn  Sn12  1  0.49965797  0.49900765  0.50083144  1
  Sn  Sn13  1  0.48807348  0.01242510  0.83215612  1
  Sn  Sn14  1  0.87259380  0.87220230  0.29456504  1
  Sn  Sn15  1  0.48813714  0.50257441  0.83220092  1
  Sn  Sn16  1  0.86574149  0.87593258  0.62778809  1
  Sn  Sn17  1  0.86061959  0.89187385  0.95190271  1
  O  O18  1  0.27039028  0.22724352  0.09336242  1
  O  O19  1  0.29006642  0.27726053  0.21853873  1
  O  O20  1  0.27000089  0.72225763  0.09344217  1
  O  O21  1  0.74069830  0.23152019  0.09875799  1
  O  O22  1  0.27087558  0.24756413  0.42525171  1
  O  O23  1  0.30162242  0.74104860  0.23883668  1
  O  O24  1  0.27975539  0.27151951  0.55917935  1
  O  O25  1  0.72170170  0.28877814  0.24787509  1
  O  O26  1  0.27094266  0.70549361  0.42520044  1
  O  O27  1  0.73612902  0.71384629  0.11208474  1
  O  O28  1  0.70760701  0.24960373  0.43109724  1
  O  O29  1  0.72181872  0.74632760  0.24787282  1
  O  O30  1  0.26187561  0.26372184  0.75710824  1
  O  O31  1  0.29706087  0.74635737  0.57012379  1
  O  O32  1  0.72559756  0.29381387  0.57672787  1
  O  O33  1  0.26198441  0.70212354  0.75713585  1
  O  O34  1  0.28499816  0.24813505  0.90612594  1
  O  O35  1  0.71962910  0.72761157  0.44178746  1
  O  O36  1  0.68778910  0.26802095  0.75861054  1
  O  O37  1  0.72563600  0.75104799  0.57677475  1
  O  O38  1  0.27127841  0.77169331  0.89500275  1
  O  O39  1  0.76410828  0.29045185  0.88959854  1
  O  O40  1  0.69261407  0.74661230  0.77120358  1
  O  O41  1  0.76412639  0.77683262  0.88952313  1
