# generated using pymatgen
data_Pr5Mg
_symmetry_space_group_name_H-M   'P 1'
_cell_length_a   3.75310060
_cell_length_b   9.44099714
_cell_length_c   5.92689146
_cell_angle_alpha   90.00000000
_cell_angle_beta   90.00000000
_cell_angle_gamma   78.53518607
_symmetry_Int_Tables_number   1
_chemical_formula_structural   Pr5Mg
_chemical_formula_sum   'Pr5 Mg1'
_cell_volume   205.81732478
_cell_formula_units_Z   1
loop_
 _symmetry_equiv_pos_site_id
 _symmetry_equiv_pos_as_xyz
  1  'x, y, z'
loop_
 _atom_site_type_symbol
 _atom_site_label
 _atom_site_symmetry_multiplicity
 _atom_site_fract_x
 _atom_site_fract_y
 _atom_site_fract_z
 _atom_site_occupancy
  Pr  Pr0  1  0.99216669  0.01566862  0.00000000  1
  Pr  Pr1  1  0.32309352  0.35381295  0.00000000  1
  Pr  Pr2  1  0.66375240  0.67249820  0.00000000  1
  Pr  Pr3  1  0.44629064  0.10742072  0.50000000  1
  Pr  Pr4  1  0.12454455  0.75091191  0.50000000  1
  Mg  Mg5  1  0.78349120  0.43302059  0.50000000  1
