# generated using pymatgen
data_Mg16Al12Cu
_symmetry_space_group_name_H-M   'P 1'
_cell_length_a   9.27036220
_cell_length_b   9.04090138
_cell_length_c   9.04090217
_cell_angle_alpha   108.95138554
_cell_angle_beta   109.98617962
_cell_angle_gamma   109.98617506
_symmetry_Int_Tables_number   1
_chemical_formula_structural   Mg16Al12Cu
_chemical_formula_sum   'Mg16 Al12 Cu1'
_cell_volume   579.56044901
_cell_formula_units_Z   1
loop_
 _symmetry_equiv_pos_site_id
 _symmetry_equiv_pos_as_xyz
  1  'x, y, z'
loop_
 _atom_site_type_symbol
 _atom_site_label
 _atom_site_symmetry_multiplicity
 _atom_site_fract_x
 _atom_site_fract_y
 _atom_site_fract_z
 _atom_site_occupancy
  Mg  Mg0  1  0.31755312  0.59761202  0.00000000  1
  Mg  Mg1  1  0.58231159  0.28276871  1.00000000  1
  Mg  Mg2  1  0.99604562  0.00000000  1.00000000  1
  Mg  Mg3  1  0.00250051  0.34835714  1.00000000  1
  Mg  Mg4  1  0.68336848  0.67871674  0.27894554  1
  Mg  Mg5  1  0.58231259  1.00000000  0.28276871  1
  Mg  Mg6  1  0.00465274  0.60022881  0.32128326  1
  Mg  Mg7  1  0.00250051  1.00000000  0.34835714  1
  Mg  Mg8  1  0.40442393  0.72105346  0.39977119  1
  Mg  Mg9  1  0.71994110  0.40238898  0.40238898  1
  Mg  Mg10  1  0.31755312  0.00000000  0.59761202  1
  Mg  Mg11  1  0.00465274  0.32128326  0.60022881  1
  Mg  Mg12  1  0.65414238  0.65164286  0.65164286  1
  Mg  Mg13  1  0.68336848  0.27894554  0.67871574  1
  Mg  Mg14  1  0.29954388  0.71723129  0.71723129  1
  Mg  Mg15  1  0.40442293  0.39977119  0.72105446  1
  Al  Al16  1  0.81510504  0.62097243  0.00000000  1
  Al  Al17  1  0.64513667  0.81132299  0.00000000  1
  Al  Al18  1  0.36687185  0.36306106  0.18189754  1
  Al  Al19  1  0.18497331  0.81810146  0.18116251  1
  Al  Al20  1  0.83381268  0.18867801  0.18867701  1
  Al  Al21  1  0.36687185  0.18189754  0.36306106  1
  Al  Al22  1  0.19413361  0.37902957  0.37902957  1
  Al  Al23  1  0.81510604  0.00000000  0.62097143  1
  Al  Al24  1  0.00381079  0.81883749  0.63693994  1
  Al  Al25  1  0.64513667  0.00000000  0.81132299  1
  Al  Al26  1  0.00381079  0.63694094  0.81883749  1
  Al  Al27  1  0.18497331  0.18116251  0.81810146  1
  Cu  Cu28  1  0.28096465  1.00000000  0.00000000  1
