# generated using pymatgen
data_LiNbAs2
_symmetry_space_group_name_H-M   'P 1'
_cell_length_a   4.93323570
_cell_length_b   4.93333380
_cell_length_c   43.76787627
_cell_angle_alpha   42.87967376
_cell_angle_beta   42.88356034
_cell_angle_gamma   41.62671929
_symmetry_Int_Tables_number   1
_chemical_formula_structural   LiNbAs2
_chemical_formula_sum   'Li6 Nb6 As12'
_cell_volume   439.31178525
_cell_formula_units_Z   6
loop_
 _symmetry_equiv_pos_site_id
 _symmetry_equiv_pos_as_xyz
  1  'x, y, z'
loop_
 _atom_site_type_symbol
 _atom_site_label
 _atom_site_symmetry_multiplicity
 _atom_site_fract_x
 _atom_site_fract_y
 _atom_site_fract_z
 _atom_site_occupancy
  Li  Li0  1  0.66093709  0.66073712  0.58032293  1
  Li  Li1  1  0.65440284  0.65395314  0.66884338  1
  Li  Li2  1  0.60127969  0.60137869  0.75771189  1
  Li  Li3  1  0.66855854  0.66828034  0.83907369  1
  Li  Li4  1  0.67487720  0.67503432  0.92547041  1
  Li  Li5  1  0.72649485  0.72686772  0.00565297  1
  Nb  Nb6  1  0.72638044  0.72668589  0.08267320  1
  Nb  Nb7  1  0.70295793  0.70319251  0.16833758  1
  Nb  Nb8  1  0.69304261  0.69319363  0.25031356  1
  Nb  Nb9  1  0.68126931  0.68131828  0.33281366  1
  Nb  Nb10  1  0.66335670  0.66326639  0.41644740  1
  Nb  Nb11  1  0.66154458  0.66135339  0.49719210  1
  As  As12  1  0.09482524  0.09513319  0.98451558  1
  As  As13  1  0.05361814  0.05390318  0.07327133  1
  As  As14  1  0.04768406  0.04800807  0.15252537  1
  As  As15  1  0.03350319  0.03367273  0.23605093  1
  As  As16  1  0.01990293  0.01999315  0.31885667  1
  As  As17  1  0.00777254  0.00774020  0.40081993  1
  As  As18  1  0.99512531  0.99495185  0.48409482  1
  As  As19  1  0.04854516  0.04830729  0.56004548  1
  As  As20  1  0.22039132  0.22010017  0.61132175  1
  As  As21  1  0.96634156  0.96614240  0.73844483  1
  As  As22  1  0.11596646  0.11578155  0.80210074  1
  As  As23  1  0.28122231  0.28100480  0.86309983  1
