# generated using pymatgen
data_YbPr3
_symmetry_space_group_name_H-M   'P 1'
_cell_length_a   7.48422220
_cell_length_b   7.48422341
_cell_length_c   6.03197555
_cell_angle_alpha   90.00000000
_cell_angle_beta   90.00000000
_cell_angle_gamma   120.00000000
_symmetry_Int_Tables_number   1
_chemical_formula_structural   YbPr3
_chemical_formula_sum   'Yb2 Pr6'
_cell_volume   292.60626464
_cell_formula_units_Z   2
loop_
 _symmetry_equiv_pos_site_id
 _symmetry_equiv_pos_as_xyz
  1  'x, y, z'
loop_
 _atom_site_type_symbol
 _atom_site_label
 _atom_site_symmetry_multiplicity
 _atom_site_fract_x
 _atom_site_fract_y
 _atom_site_fract_z
 _atom_site_occupancy
  Yb  Yb0  1  0.33333400  0.66666700  0.74999900  1
  Yb  Yb1  1  0.66666700  0.33333200  0.24999900  1
  Pr  Pr2  1  0.16518033  0.33035966  0.24999900  1
  Pr  Pr3  1  0.66964034  0.83482067  0.24999900  1
  Pr  Pr4  1  0.16518033  0.83482067  0.24999900  1
  Pr  Pr5  1  0.83482167  0.66964234  0.74999900  1
  Pr  Pr6  1  0.33035866  0.16517933  0.74999900  1
  Pr  Pr7  1  0.83482067  0.16517933  0.74999900  1
