# generated using pymatgen
data_Ce2Fe12Co5
_symmetry_space_group_name_H-M   'P 1'
_cell_length_a   6.41325682
_cell_length_b   6.41325682
_cell_length_c   6.41325686
_cell_angle_alpha   82.09424861
_cell_angle_beta   82.09424861
_cell_angle_gamma   82.09424760
_symmetry_Int_Tables_number   1
_chemical_formula_structural   Ce2Fe12Co5
_chemical_formula_sum   'Ce2 Fe12 Co5'
_cell_volume   256.88747397
_cell_formula_units_Z   1
loop_
 _symmetry_equiv_pos_site_id
 _symmetry_equiv_pos_as_xyz
  1  'x, y, z'
loop_
 _atom_site_type_symbol
 _atom_site_label
 _atom_site_symmetry_multiplicity
 _atom_site_fract_x
 _atom_site_fract_y
 _atom_site_fract_z
 _atom_site_occupancy
  Ce  Ce0  1  0.65487308  0.65487308  0.65487308  1
  Ce  Ce1  1  0.34512692  0.34512692  0.34512692  1
  Fe  Fe2  1  0.28988877  0.71011123  0.00000000  1
  Fe  Fe3  1  0.71011123  1.00000000  0.28988877  1
  Fe  Fe4  1  0.00000000  0.28988877  0.71011123  1
  Fe  Fe5  1  0.28988877  0.00000000  0.71011123  1
  Fe  Fe6  1  1.00000000  0.71011123  0.28988877  1
  Fe  Fe7  1  0.71011123  0.28988877  0.00000000  1
  Fe  Fe8  1  0.34051190  0.34051190  0.84755089  1
  Fe  Fe9  1  0.34051190  0.84755089  0.34051190  1
  Fe  Fe10  1  0.84755089  0.34051190  0.34051190  1
  Fe  Fe11  1  0.65948810  0.65948810  0.15244911  1
  Fe  Fe12  1  0.65948810  0.15244911  0.65948810  1
  Fe  Fe13  1  0.15244911  0.65948810  0.65948810  1
  Co  Co14  1  -0.00000000  -0.00000000  0.50000000  1
  Co  Co15  1  -0.00000000  0.50000000  0.00000000  1
  Co  Co16  1  0.50000000  -0.00000000  0.00000000  1
  Co  Co17  1  0.90729814  0.90729814  0.90729814  1
  Co  Co18  1  0.09270186  0.09270186  0.09270186  1
