# generated using pymatgen
data_TiCd3
_symmetry_space_group_name_H-M   'P 1'
_cell_length_a   6.20315031
_cell_length_b   6.20315043
_cell_length_c   4.83173678
_cell_angle_alpha   90.00000000
_cell_angle_beta   90.00000000
_cell_angle_gamma   119.99999334
_symmetry_Int_Tables_number   1
_chemical_formula_structural   TiCd3
_chemical_formula_sum   'Ti2 Cd6'
_cell_volume   161.01211180
_cell_formula_units_Z   2
loop_
 _symmetry_equiv_pos_site_id
 _symmetry_equiv_pos_as_xyz
  1  'x, y, z'
loop_
 _atom_site_type_symbol
 _atom_site_label
 _atom_site_symmetry_multiplicity
 _atom_site_fract_x
 _atom_site_fract_y
 _atom_site_fract_z
 _atom_site_occupancy
  Ti  Ti0  1  0.33333300  0.66666600  0.75000100  1
  Ti  Ti1  1  0.66666700  0.33333300  0.25000000  1
  Cd  Cd2  1  0.16998455  0.33996810  0.25000000  1
  Cd  Cd3  1  0.66003090  0.83001545  0.25000000  1
  Cd  Cd4  1  0.16998455  0.83001545  0.25000000  1
  Cd  Cd5  1  0.83001645  0.66003290  0.75000100  1
  Cd  Cd6  1  0.33996710  0.16998255  0.75000100  1
  Cd  Cd7  1  0.83001445  0.16998255  0.75000100  1
