# generated using pymatgen
data_MnPbO3
_symmetry_space_group_name_H-M   'P 1'
_cell_length_a   5.40508446
_cell_length_b   5.84605831
_cell_length_c   10.04697629
_cell_angle_alpha   90.00000000
_cell_angle_beta   88.09771253
_cell_angle_gamma   90.00000000
_symmetry_Int_Tables_number   1
_chemical_formula_structural   MnPbO3
_chemical_formula_sum   'Mn4 Pb4 O12'
_cell_volume   317.29380714
_cell_formula_units_Z   4
loop_
 _symmetry_equiv_pos_site_id
 _symmetry_equiv_pos_as_xyz
  1  'x, y, z'
loop_
 _atom_site_type_symbol
 _atom_site_label
 _atom_site_symmetry_multiplicity
 _atom_site_fract_x
 _atom_site_fract_y
 _atom_site_fract_z
 _atom_site_occupancy
  Mn  Mn0  1  0.25000000  0.87474717  -0.00000000  1
  Mn  Mn1  1  0.75000000  0.12525283  0.00000000  1
  Mn  Mn2  1  0.25000000  0.37612532  -0.00000000  1
  Mn  Mn3  1  0.75000000  0.62387468  0.00000000  1
  Pb  Pb4  1  0.99276354  0.75005692  0.62204698  1
  Pb  Pb5  1  0.50723646  0.75005692  0.37795302  1
  Pb  Pb6  1  0.00723646  0.24994308  0.37795302  1
  Pb  Pb7  1  0.49276354  0.24994308  0.62204698  1
  O  O8  1  0.91383535  0.87324933  0.90312873  1
  O  O9  1  0.58616465  0.87324933  0.09687127  1
  O  O10  1  0.08616465  0.12675067  0.09687127  1
  O  O11  1  0.41383535  0.12675067  0.90312873  1
  O  O12  1  0.92570853  0.37659200  0.90451081  1
  O  O13  1  0.57429147  0.37659200  0.09548919  1
  O  O14  1  0.07429147  0.62340800  0.09548919  1
  O  O15  1  0.42570853  0.62340800  0.90451081  1
  O  O16  1  0.25000000  0.99770960  0.50000000  1
  O  O17  1  0.75000000  0.00229040  0.50000000  1
  O  O18  1  0.25000000  0.49628869  0.50000000  1
  O  O19  1  0.75000000  0.50371131  0.50000000  1
