# generated using pymatgen
data_RbSO4
_symmetry_space_group_name_H-M   'P 1'
_cell_length_a   7.61036452
_cell_length_b   7.67173630
_cell_length_c   7.93662918
_cell_angle_alpha   90.00000000
_cell_angle_beta   90.00000000
_cell_angle_gamma   112.13606637
_symmetry_Int_Tables_number   1
_chemical_formula_structural   RbSO4
_chemical_formula_sum   'Rb4 S4 O16'
_cell_volume   429.22296649
_cell_formula_units_Z   4
loop_
 _symmetry_equiv_pos_site_id
 _symmetry_equiv_pos_as_xyz
  1  'x, y, z'
loop_
 _atom_site_type_symbol
 _atom_site_label
 _atom_site_symmetry_multiplicity
 _atom_site_fract_x
 _atom_site_fract_y
 _atom_site_fract_z
 _atom_site_occupancy
  Rb  Rb0  1  0.78445161  0.04134059  0.49035907  1
  Rb  Rb1  1  0.21554839  0.95865941  0.99035907  1
  Rb  Rb2  1  0.78162307  0.53628144  0.74734767  1
  Rb  Rb3  1  0.21837693  0.46371856  0.24734767  1
  S  S4  1  0.73883759  0.02381320  0.99385093  1
  S  S5  1  0.26116241  0.97618680  0.49385093  1
  S  S6  1  0.74024391  0.52667602  0.24314609  1
  S  S7  1  0.25975609  0.47332398  0.74314609  1
  O  O8  1  0.68037608  0.17306430  0.91771769  1
  O  O9  1  0.31962392  0.82693570  0.41771769  1
  O  O10  1  0.57006771  0.89121408  0.08452829  1
  O  O11  1  0.42993229  0.10878592  0.58452829  1
  O  O12  1  0.79561672  0.92951548  0.85237611  1
  O  O13  1  0.20438328  0.07048452  0.35237611  1
  O  O14  1  0.89813218  0.10775656  0.11232502  1
  O  O15  1  0.10186782  0.89224344  0.61232502  1
  O  O16  1  0.81481831  0.43757245  0.37691711  1
  O  O17  1  0.18518169  0.56242755  0.87691711  1
  O  O18  1  0.66836821  0.66233626  0.32632750  1
  O  O19  1  0.33163179  0.33766374  0.82632750  1
  O  O20  1  0.88968460  0.62407111  0.11935923  1
  O  O21  1  0.11031540  0.37592889  0.61935923  1
  O  O22  1  0.57490989  0.38458745  0.15484528  1
  O  O23  1  0.42509011  0.61541255  0.65484528  1
