# generated using pymatgen
data_Hf9Ni11
_symmetry_space_group_name_H-M   'P 1'
_cell_length_a   6.37896559
_cell_length_b   7.69553329
_cell_length_c   7.69553329
_cell_angle_alpha   80.10889258
_cell_angle_beta   65.51475267
_cell_angle_gamma   65.51475267
_symmetry_Int_Tables_number   1
_chemical_formula_structural   Hf9Ni11
_chemical_formula_sum   'Hf9 Ni11'
_cell_volume   312.87827330
_cell_formula_units_Z   1
loop_
 _symmetry_equiv_pos_site_id
 _symmetry_equiv_pos_as_xyz
  1  'x, y, z'
loop_
 _atom_site_type_symbol
 _atom_site_label
 _atom_site_symmetry_multiplicity
 _atom_site_fract_x
 _atom_site_fract_y
 _atom_site_fract_z
 _atom_site_occupancy
  Hf  Hf0  1  0.00000000  0.00000000  0.00000000  1
  Hf  Hf1  1  0.69071263  0.40187473  0.21670000  1
  Hf  Hf2  1  0.30928737  0.59812527  0.78330000  1
  Hf  Hf3  1  0.09258737  0.21670000  0.59812527  1
  Hf  Hf4  1  0.90741263  0.78330000  0.40187473  1
  Hf  Hf5  1  0.75621460  0.65619003  0.83138076  1
  Hf  Hf6  1  0.24378540  0.34380997  0.16861924  1
  Hf  Hf7  1  0.41240463  0.83138076  0.34380997  1
  Hf  Hf8  1  0.58759537  0.16861924  0.65619003  1
  Ni  Ni9  1  0.50000000  0.00000000  0.00000000  1
  Ni  Ni10  1  0.25000000  0.50000000  0.50000000  1
  Ni  Ni11  1  0.75000000  0.50000000  0.50000000  1
  Ni  Ni12  1  0.67466942  0.33647533  0.89438622  1
  Ni  Ni13  1  0.90553097  0.66352467  0.10561378  1
  Ni  Ni14  1  0.01114475  0.89438622  0.66352467  1
  Ni  Ni15  1  0.56905564  0.10561378  0.33647533  1
  Ni  Ni16  1  0.32533058  0.66352467  0.10561378  1
  Ni  Ni17  1  0.09446903  0.33647533  0.89438622  1
  Ni  Ni18  1  0.98885525  0.10561378  0.33647533  1
  Ni  Ni19  1  0.43094436  0.89438622  0.66352467  1
