# generated using pymatgen
data_CsYb2Cu3Se5
_symmetry_space_group_name_H-M   'P 1'
_cell_length_a   4.15230138
_cell_length_b   7.64306168
_cell_length_c   17.55196551
_cell_angle_alpha   90.00000000
_cell_angle_beta   90.00000000
_cell_angle_gamma   105.76179729
_symmetry_Int_Tables_number   1
_chemical_formula_structural   CsYb2Cu3Se5
_chemical_formula_sum   'Cs2 Yb4 Cu6 Se10'
_cell_volume   536.08949758
_cell_formula_units_Z   2
loop_
 _symmetry_equiv_pos_site_id
 _symmetry_equiv_pos_as_xyz
  1  'x, y, z'
loop_
 _atom_site_type_symbol
 _atom_site_label
 _atom_site_symmetry_multiplicity
 _atom_site_fract_x
 _atom_site_fract_y
 _atom_site_fract_z
 _atom_site_occupancy
  Cs  Cs0  1  0.93953773  0.87907545  0.25000000  1
  Cs  Cs1  1  0.06046227  0.12092455  0.75000000  1
  Yb  Yb2  1  0.19593701  0.39187402  0.08918170  1
  Yb  Yb3  1  0.80406299  0.60812598  0.91081830  1
  Yb  Yb4  1  0.19593701  0.39187402  0.41081830  1
  Yb  Yb5  1  0.80406299  0.60812598  0.58918170  1
  Cu  Cu6  1  0.65411513  0.30823026  0.25000000  1
  Cu  Cu7  1  0.34588487  0.69176974  0.75000000  1
  Cu  Cu8  1  0.41508601  0.83017202  0.46782214  1
  Cu  Cu9  1  0.58491399  0.16982798  0.53217786  1
  Cu  Cu10  1  0.41508601  0.83017202  0.03217786  1
  Cu  Cu11  1  0.58491399  0.16982798  0.96782214  1
  Se  Se12  1  0.22551552  0.45103105  0.25000000  1
  Se  Se13  1  0.77448448  0.54896895  0.75000000  1
  Se  Se14  1  0.43999565  0.87999129  0.89320156  1
  Se  Se15  1  0.56000435  0.12000871  0.10679844  1
  Se  Se16  1  0.43999565  0.87999129  0.60679844  1
  Se  Se17  1  0.56000435  0.12000871  0.39320156  1
  Se  Se18  1  0.16130799  0.32261599  0.92917927  1
  Se  Se19  1  0.83869201  0.67738401  0.07082073  1
  Se  Se20  1  0.16130799  0.32261599  0.57082073  1
  Se  Se21  1  0.83869201  0.67738401  0.42917927  1
