# generated using pymatgen
data_NaNb6O16
_symmetry_space_group_name_H-M   'P 1'
_cell_length_a   3.93146482
_cell_length_b   9.19207240
_cell_length_c   9.19207240
_cell_angle_alpha   110.13995042
_cell_angle_beta   90.00000000
_cell_angle_gamma   90.00000000
_symmetry_Int_Tables_number   1
_chemical_formula_structural   NaNb6O16
_chemical_formula_sum   'Na1 Nb6 O16'
_cell_volume   311.87424633
_cell_formula_units_Z   1
loop_
 _symmetry_equiv_pos_site_id
 _symmetry_equiv_pos_as_xyz
  1  'x, y, z'
loop_
 _atom_site_type_symbol
 _atom_site_label
 _atom_site_symmetry_multiplicity
 _atom_site_fract_x
 _atom_site_fract_y
 _atom_site_fract_z
 _atom_site_occupancy
  Na  Na0  1  0.50000000  0.59681560  0.40318440  1
  Nb  Nb1  1  -0.00000000  0.00301319  0.99698681  1
  Nb  Nb2  1  -0.00000000  0.78875218  0.21124782  1
  Nb  Nb3  1  -0.00000000  0.25899447  0.38116208  1
  Nb  Nb4  1  -0.00000000  0.61883792  0.74100553  1
  Nb  Nb5  1  0.00000000  -0.00006824  0.62798455  1
  Nb  Nb6  1  -0.00000000  0.37201545  0.00006824  1
  O  O7  1  0.50000000  0.00266968  0.99733032  1
  O  O8  1  0.50000000  0.77634106  0.22365894  1
  O  O9  1  0.50000000  0.27806423  0.36767781  1
  O  O10  1  0.50000000  0.63232219  0.72193577  1
  O  O11  1  0.50000000  0.01213992  0.63271552  1
  O  O12  1  0.50000000  0.36728448  0.98786008  1
  O  O13  1  0.00000000  0.01238825  0.23238784  1
  O  O14  1  -0.00000000  0.76761216  0.98761175  1
  O  O15  1  -0.00000000  0.82151948  0.44268586  1
  O  O16  1  0.00000000  0.55731414  0.17848052  1
  O  O17  1  -0.00000000  0.85124702  0.75921269  1
  O  O18  1  -0.00000000  0.24078731  0.14875298  1
  O  O19  1  -0.00000000  0.16606968  0.53580242  1
  O  O20  1  -0.00000000  0.46419758  0.83393032  1
  O  O21  1  -0.00000000  0.14023478  0.85976522  1
  O  O22  1  -0.00000000  0.48344746  0.51655254  1
