# generated using pymatgen
data_MgAgAsO5
_symmetry_space_group_name_H-M   'P 1'
_cell_length_a   7.92509879
_cell_length_b   6.16728588
_cell_length_c   9.26958486
_cell_angle_alpha   89.96331714
_cell_angle_beta   89.99910307
_cell_angle_gamma   90.04329545
_symmetry_Int_Tables_number   1
_chemical_formula_structural   MgAgAsO5
_chemical_formula_sum   'Mg4 Ag4 As4 O20'
_cell_volume   453.06325010
_cell_formula_units_Z   4
loop_
 _symmetry_equiv_pos_site_id
 _symmetry_equiv_pos_as_xyz
  1  'x, y, z'
loop_
 _atom_site_type_symbol
 _atom_site_label
 _atom_site_symmetry_multiplicity
 _atom_site_fract_x
 _atom_site_fract_y
 _atom_site_fract_z
 _atom_site_occupancy
  Mg  Mg0  1  0.92822386  0.64265543  0.06668621  1
  Mg  Mg1  1  0.57144445  0.35716929  0.56662780  1
  Mg  Mg2  1  0.42783884  0.85744309  0.93316421  1
  Mg  Mg3  1  0.07174741  0.14278868  0.43322522  1
  Ag  Ag4  1  0.99824452  0.50832549  0.74097224  1
  Ag  Ag5  1  0.50184385  0.49160044  0.24089876  1
  Ag  Ag6  1  0.49820007  0.99164885  0.25886268  1
  Ag  Ag7  1  0.00188144  0.00838871  0.75892576  1
  As  As8  1  0.64131139  0.30994003  0.89852775  1
  As  As9  1  0.85851886  0.68921623  0.39861648  1
  As  As10  1  0.14119771  0.19034048  0.10142165  1
  As  As11  1  0.35851361  0.81074205  0.60125336  1
  O  O12  1  0.81572187  0.25629266  0.77949142  1
  O  O13  1  0.68433074  0.74346447  0.27957495  1
  O  O14  1  0.31554880  0.24346489  0.22071495  1
  O  O15  1  0.18452786  0.75672105  0.72065767  1
  O  O16  1  0.49670812  0.38676836  0.77350281  1
  O  O17  1  0.00342170  0.61302626  0.27334244  1
  O  O18  1  0.99629702  0.11329316  0.22645930  1
  O  O19  1  0.50381404  0.88702895  0.72664443  1
  O  O20  1  0.59242895  0.08536054  0.99655470  1
  O  O21  1  0.90757067  0.91453610  0.49666563  1
  O  O22  1  0.09265763  0.41462190  0.00351904  1
  O  O23  1  0.40742144  0.58540274  0.50338243  1
  O  O24  1  0.69272205  0.51851895  0.01363246  1
  O  O25  1  0.80755844  0.48099422  0.51333305  1
  O  O26  1  0.19252195  0.98123555  0.98659378  1
  O  O27  1  0.30769415  0.01905389  0.48693126  1
  O  O28  1  0.89299043  0.75618591  0.85922345  1
  O  O29  1  0.60704015  0.24386426  0.35919613  1
  O  O30  1  0.39285075  0.74359921  0.14067434  1
  O  O31  1  0.10720522  0.25631016  0.64072363  1
