# generated using pymatgen
data_Sm5Si3C
_symmetry_space_group_name_H-M   'P 1'
_cell_length_a   6.60051005
_cell_length_b   8.65808923
_cell_length_c   8.65838071
_cell_angle_alpha   119.99888218
_cell_angle_beta   90.00000000
_cell_angle_gamma   90.00000000
_symmetry_Int_Tables_number   1
_chemical_formula_structural   Sm5Si3C
_chemical_formula_sum   'Sm10 Si6 C2'
_cell_volume   428.52065031
_cell_formula_units_Z   2
loop_
 _symmetry_equiv_pos_site_id
 _symmetry_equiv_pos_as_xyz
  1  'x, y, z'
loop_
 _atom_site_type_symbol
 _atom_site_label
 _atom_site_symmetry_multiplicity
 _atom_site_fract_x
 _atom_site_fract_y
 _atom_site_fract_z
 _atom_site_occupancy
  Sm  Sm0  1  0.49999999  0.33330995  0.66665597  1
  Sm  Sm1  1  0.49999999  0.66665398  0.33334403  1
  Sm  Sm2  1  -0.00000001  0.66669005  0.33334403  1
  Sm  Sm3  1  -0.00000001  0.33334602  0.66665597  1
  Sm  Sm4  1  0.74999521  0.22455806  0.00000000  1
  Sm  Sm5  1  0.75000362  0.77569582  0.77569428  1
  Sm  Sm6  1  0.75000362  0.00000154  0.22430572  1
  Sm  Sm7  1  0.24999521  0.77544194  1.00000000  1
  Sm  Sm8  1  0.25000362  0.22430418  0.22430572  1
  Sm  Sm9  1  0.25000362  -0.00000154  0.77569428  1
  Si  Si10  1  0.75001958  0.59236742  0.00000000  1
  Si  Si11  1  0.74998896  0.40773276  0.40730401  1
  Si  Si12  1  0.74998896  0.00042875  0.59269599  1
  Si  Si13  1  0.25001958  0.40763258  1.00000000  1
  Si  Si14  1  0.24998896  0.59226724  0.59269599  1
  Si  Si15  1  0.24998896  0.99957125  0.40730401  1
  C  C16  1  0.50000006  0.99999059  -0.00000000  1
  C  C17  1  0.00000006  0.00000941  0.00000000  1
