# generated using pymatgen
data_CsSm2Cu3Se5
_symmetry_space_group_name_H-M   'P 1'
_cell_length_a   4.25042763
_cell_length_b   7.64867555
_cell_length_c   17.69027160
_cell_angle_alpha   90.00000000
_cell_angle_beta   90.00000000
_cell_angle_gamma   106.13215643
_symmetry_Int_Tables_number   1
_chemical_formula_structural   CsSm2Cu3Se5
_chemical_formula_sum   'Cs2 Sm4 Cu6 Se10'
_cell_volume   552.46721532
_cell_formula_units_Z   2
loop_
 _symmetry_equiv_pos_site_id
 _symmetry_equiv_pos_as_xyz
  1  'x, y, z'
loop_
 _atom_site_type_symbol
 _atom_site_label
 _atom_site_symmetry_multiplicity
 _atom_site_fract_x
 _atom_site_fract_y
 _atom_site_fract_z
 _atom_site_occupancy
  Cs  Cs0  1  0.93865942  0.87731884  0.25000000  1
  Cs  Cs1  1  0.06134058  0.12268116  0.75000000  1
  Sm  Sm2  1  0.19234980  0.38469959  0.09042299  1
  Sm  Sm3  1  0.80765020  0.61530041  0.90957701  1
  Sm  Sm4  1  0.19234980  0.38469959  0.40957701  1
  Sm  Sm5  1  0.80765020  0.61530041  0.59042299  1
  Cu  Cu6  1  0.65909050  0.31818101  0.25000000  1
  Cu  Cu7  1  0.34090950  0.68181899  0.75000000  1
  Cu  Cu8  1  0.41738656  0.83477313  0.46930426  1
  Cu  Cu9  1  0.58261344  0.16522687  0.53069574  1
  Cu  Cu10  1  0.41738656  0.83477313  0.03069574  1
  Cu  Cu11  1  0.58261344  0.16522687  0.96930426  1
  Se  Se12  1  0.23505670  0.47011340  0.25000000  1
  Se  Se13  1  0.76494330  0.52988660  0.75000000  1
  Se  Se14  1  0.44052667  0.88105333  0.89011028  1
  Se  Se15  1  0.55947333  0.11894667  0.10988972  1
  Se  Se16  1  0.44052667  0.88105333  0.60988972  1
  Se  Se17  1  0.55947333  0.11894667  0.39011028  1
  Se  Se18  1  0.16889009  0.33778017  0.92945678  1
  Se  Se19  1  0.83110991  0.66221983  0.07054322  1
  Se  Se20  1  0.16889009  0.33778017  0.57054322  1
  Se  Se21  1  0.83110991  0.66221983  0.42945678  1
