# generated using pymatgen
data_MgH12(NO)6
_symmetry_space_group_name_H-M   'P 1'
_cell_length_a   6.65071356
_cell_length_b   6.57347328
_cell_length_c   7.41105301
_cell_angle_alpha   76.88023034
_cell_angle_beta   63.33954254
_cell_angle_gamma   59.61053601
_symmetry_Int_Tables_number   1
_chemical_formula_structural   MgH12(NO)6
_chemical_formula_sum   'Mg1 H12 N6 O6'
_cell_volume   249.76901061
_cell_formula_units_Z   1
loop_
 _symmetry_equiv_pos_site_id
 _symmetry_equiv_pos_as_xyz
  1  'x, y, z'
loop_
 _atom_site_type_symbol
 _atom_site_label
 _atom_site_symmetry_multiplicity
 _atom_site_fract_x
 _atom_site_fract_y
 _atom_site_fract_z
 _atom_site_occupancy
  Mg  Mg0  1  0.50000000  -0.00000000  0.00000000  1
  H  H1  1  0.66873624  0.54018964  0.12233789  1
  H  H2  1  0.33126376  0.45981036  0.87766211  1
  H  H3  1  0.79107412  0.54018964  0.87766211  1
  H  H4  1  0.20892588  0.45981036  0.12233789  1
  H  H5  1  0.00711430  0.86200428  0.72958168  1
  H  H6  1  0.59870025  0.13799572  0.27041832  1
  H  H7  1  0.13088143  0.86200428  0.27041832  1
  H  H8  1  0.26330403  0.13799572  0.72958168  1
  H  H9  1  0.99288570  0.13799572  0.27041832  1
  H  H10  1  0.40129975  0.86200428  0.72958168  1
  H  H11  1  0.86911857  0.13799572  0.72958168  1
  H  H12  1  0.73669597  0.86200428  0.27041832  1
  N  N13  1  0.36774794  0.61557225  0.64893186  1
  N  N14  1  0.63225206  0.38442775  0.35106814  1
  N  N15  1  0.01667980  0.61557225  0.35106814  1
  N  N16  1  0.98332020  0.38442775  0.64893186  1
  N  N17  1  0.50000000  0.50000000  0.50000000  1
  N  N18  1  0.00000000  0.50000000  0.50000000  1
  O  O19  1  0.67873956  0.64252088  0.00000000  1
  O  O20  1  0.32126044  0.35747912  0.00000000  1
  O  O21  1  0.39365408  -0.00000000  0.76887096  1
  O  O22  1  0.16252503  -0.00000000  0.23112904  1
  O  O23  1  0.60634592  -0.00000000  0.23112904  1
  O  O24  1  0.83747497  -0.00000000  0.76887096  1
