# generated using pymatgen
data_AsH4CNF8
_symmetry_space_group_name_H-M   'P 1'
_cell_length_a   7.81841002
_cell_length_b   9.04146246
_cell_length_c   9.73883802
_cell_angle_alpha   96.71514105
_cell_angle_beta   92.87929320
_cell_angle_gamma   91.06212092
_symmetry_Int_Tables_number   1
_chemical_formula_structural   AsH4CNF8
_chemical_formula_sum   'As4 H16 C4 N4 F32'
_cell_volume   682.64432247
_cell_formula_units_Z   4
loop_
 _symmetry_equiv_pos_site_id
 _symmetry_equiv_pos_as_xyz
  1  'x, y, z'
loop_
 _atom_site_type_symbol
 _atom_site_label
 _atom_site_symmetry_multiplicity
 _atom_site_fract_x
 _atom_site_fract_y
 _atom_site_fract_z
 _atom_site_occupancy
  As  As0  1  0.25581618  0.37042757  0.59873237  1
  As  As1  1  0.74418382  0.62957243  0.40126763  1
  As  As2  1  0.22921076  0.92810259  0.23882018  1
  As  As3  1  0.77078924  0.07189741  0.76117982  1
  H  H4  1  0.73418666  0.02936785  0.17424414  1
  H  H5  1  0.26581334  0.97063215  0.82575586  1
  H  H6  1  0.74819405  0.24306532  0.43507019  1
  H  H7  1  0.25180595  0.75693468  0.56492981  1
  H  H8  1  0.85688095  0.08214174  0.41111946  1
  H  H9  1  0.14311905  0.91785826  0.58888054  1
  H  H10  1  0.64132944  0.07613939  0.41327164  1
  H  H11  1  0.35867056  0.92386061  0.58672836  1
  H  H12  1  0.10372736  0.32774081  0.02862587  1
  H  H13  1  0.89627264  0.67225919  0.97137413  1
  H  H14  1  0.34391799  0.48795306  0.25090081  1
  H  H15  1  0.65608201  0.51204694  0.74909919  1
  H  H16  1  0.24024250  0.32234858  0.25526235  1
  H  H17  1  0.75975750  0.67765142  0.74473765  1
  H  H18  1  0.12823151  0.48111704  0.26014688  1
  H  H19  1  0.87176849  0.51888296  0.73985312  1
  C  C20  1  0.73269755  0.14124922  0.23160144  1
  C  C21  1  0.26730245  0.85875078  0.76839856  1
  C  C22  1  0.21235101  0.40361710  0.06444330  1
  C  C23  1  0.78764899  0.59638290  0.93555670  1
  N  N24  1  0.74572152  0.13498464  0.38408252  1
  N  N25  1  0.25427848  0.86501536  0.61591748  1
  N  N26  1  0.23259604  0.42569456  0.21899836  1
  N  N27  1  0.76740396  0.57430544  0.78100164  1
  F  F28  1  0.86773036  0.22612323  0.20108685  1
  F  F29  1  0.13226964  0.77387677  0.79891315  1
  F  F30  1  0.58602876  0.21065181  0.20242649  1
  F  F31  1  0.41397124  0.78934819  0.79757351  1
  F  F32  1  0.36038547  0.34830125  0.01688686  1
  F  F33  1  0.63961453  0.65169875  0.98311314  1
  F  F34  1  0.18843761  0.54016939  0.02219631  1
  F  F35  1  0.81156239  0.45983061  0.97780369  1
  F  F36  1  0.09867119  0.42980679  0.71824344  1
  F  F37  1  0.90132881  0.57019321  0.28175656  1
  F  F38  1  0.09212710  0.29640910  0.47607310  1
  F  F39  1  0.90787290  0.70359090  0.52392690  1
  F  F40  1  0.41025449  0.31658560  0.47676626  1
  F  F41  1  0.58974551  0.68341440  0.52323374  1
  F  F42  1  0.42021662  0.45016275  0.71885819  1
  F  F43  1  0.57978338  0.54983725  0.28114181  1
  F  F44  1  0.27138142  0.19896766  0.66730502  1
  F  F45  1  0.72861858  0.80103234  0.33269498  1
  F  F46  1  0.23878502  0.54461311  0.52838289  1
  F  F47  1  0.76121498  0.45538689  0.47161711  1
  F  F48  1  0.38351770  0.88668916  0.11627028  1
  F  F49  1  0.61648230  0.11331084  0.88372972  1
  F  F50  1  0.39409613  0.99180172  0.36781828  1
  F  F51  1  0.60590387  0.00819828  0.63218172  1
  F  F52  1  0.07528436  0.97417348  0.36658269  1
  F  F53  1  0.92471564  0.02582652  0.63341731  1
  F  F54  1  0.06069800  0.86785976  0.11688739  1
  F  F55  1  0.93930200  0.13214024  0.88311261  1
  F  F56  1  0.21495290  0.11257561  0.19200186  1
  F  F57  1  0.78504710  0.88742439  0.80799814  1
  F  F58  1  0.24305923  0.74880928  0.29453952  1
  F  F59  1  0.75694077  0.25119072  0.70546048  1
