# generated using pymatgen
data_Cu3TePbO8
_symmetry_space_group_name_H-M   'P 1'
_cell_length_a   5.80109859
_cell_length_b   5.69028899
_cell_length_c   12.55970632
_cell_angle_alpha   83.23951777
_cell_angle_beta   76.64752741
_cell_angle_gamma   59.35369924
_symmetry_Int_Tables_number   1
_chemical_formula_structural   Cu3TePbO8
_chemical_formula_sum   'Cu6 Te2 Pb2 O16'
_cell_volume   347.04658661
_cell_formula_units_Z   2
loop_
 _symmetry_equiv_pos_site_id
 _symmetry_equiv_pos_as_xyz
  1  'x, y, z'
loop_
 _atom_site_type_symbol
 _atom_site_label
 _atom_site_symmetry_multiplicity
 _atom_site_fract_x
 _atom_site_fract_y
 _atom_site_fract_z
 _atom_site_occupancy
  Cu  Cu0  1  0.45385405  0.50000000  0.09229190  1
  Cu  Cu1  1  0.70385405  0.00000000  0.59229190  1
  Cu  Cu2  1  0.95458243  0.00000000  0.09083513  1
  Cu  Cu3  1  0.70458243  0.50000000  0.59083513  1
  Cu  Cu4  1  0.51230720  0.00000000  0.97538560  1
  Cu  Cu5  1  0.26230720  0.50000000  0.47538560  1
  Te  Te6  1  0.01187627  0.50000000  0.97624747  1
  Te  Te7  1  0.26187627  0.00000000  0.47624747  1
  Pb  Pb8  1  0.11316134  0.00000000  0.77367732  1
  Pb  Pb9  1  0.86316134  0.50000000  0.27367732  1
  O  O10  1  0.12596941  0.73113432  0.18928515  1
  O  O11  1  0.68474544  0.26886568  0.18928515  1
  O  O12  1  0.70361112  0.23113432  0.68928515  1
  O  O13  1  0.60710373  0.76886568  0.68928515  1
  O  O14  1  0.82370053  0.75851926  0.87068516  1
  O  O15  1  0.30561431  0.24148074  0.87068516  1
  O  O16  1  0.29709505  0.25851926  0.37068516  1
  O  O17  1  0.33221979  0.74148074  0.37068516  1
  O  O18  1  0.21183798  0.70843772  0.98569957  1
  O  O19  1  0.80246245  0.29156228  0.98569957  1
  O  O20  1  0.84402473  0.20843772  0.48569957  1
  O  O21  1  0.67027570  0.79156228  0.48569957  1
  O  O22  1  0.70423555  0.75300142  0.08299141  1
  O  O23  1  0.21277304  0.24699858  0.08299141  1
  O  O24  1  0.20977162  0.25300142  0.58299141  1
  O  O25  1  0.20723697  0.74699858  0.58299141  1
