# generated using pymatgen
data_B10H33C10I
_symmetry_space_group_name_H-M   'P 1'
_cell_length_a   9.61898610
_cell_length_b   10.01187930
_cell_length_c   13.57716906
_cell_angle_alpha   106.61211597
_cell_angle_beta   105.22083754
_cell_angle_gamma   90.41430723
_symmetry_Int_Tables_number   1
_chemical_formula_structural   B10H33C10I
_chemical_formula_sum   'B20 H66 C20 I2'
_cell_volume   1204.21374877
_cell_formula_units_Z   2
loop_
 _symmetry_equiv_pos_site_id
 _symmetry_equiv_pos_as_xyz
  1  'x, y, z'
loop_
 _atom_site_type_symbol
 _atom_site_label
 _atom_site_symmetry_multiplicity
 _atom_site_fract_x
 _atom_site_fract_y
 _atom_site_fract_z
 _atom_site_occupancy
  B  B0  1  0.11673590  0.63307796  0.38280070  1
  B  B1  1  0.88326410  0.36692204  0.61719930  1
  B  B2  1  0.22220269  0.66412062  0.30017372  1
  B  B3  1  0.77779731  0.33587938  0.69982628  1
  B  B4  1  0.14522240  0.80381665  0.37515635  1
  B  B5  1  0.85477760  0.19618335  0.62484365  1
  B  B6  1  0.11187394  0.78026574  0.49158661  1
  B  B7  1  0.88812606  0.21973426  0.50841339  1
  B  B8  1  0.28109230  0.55773860  0.38671313  1
  B  B9  1  0.71890770  0.44226140  0.61328687  1
  B  B10  1  0.40669213  0.66659915  0.35739713  1
  B  B11  1  0.59330787  0.33340085  0.64260287  1
  B  B12  1  0.32480552  0.82967848  0.37526498  1
  B  B13  1  0.67519448  0.17032152  0.62473502  1
  B  B14  1  0.25325478  0.90493765  0.50015889  1
  B  B15  1  0.74674522  0.09506235  0.49984111  1
  B  B16  1  0.26859164  0.80977088  0.59656953  1
  B  B17  1  0.73140836  0.19022912  0.40343047  1
  B  B18  1  0.20632285  0.63316902  0.51335781  1
  B  B19  1  0.79367715  0.36683098  0.48664219  1
  H  H20  1  0.53721321  0.50865252  0.28505428  1
  H  H21  1  0.46278679  0.49134748  0.71494572  1
  H  H22  1  0.64119504  0.66318413  0.37185112  1
  H  H23  1  0.35880496  0.33681587  0.62814888  1
  H  H24  1  0.52855000  0.79027270  0.23408486  1
  H  H25  1  0.47145000  0.20972730  0.76591514  1
  H  H26  1  0.43750686  0.62956950  0.14788145  1
  H  H27  1  0.56249314  0.37043050  0.85211855  1
  H  H28  1  0.68518032  0.53326469  0.15186622  1
  H  H29  1  0.31481968  0.46673531  0.84813378  1
  H  H30  1  0.76661941  0.70241098  0.22806682  1
  H  H31  1  0.23338059  0.29758902  0.77193318  1
  H  H32  1  0.55339835  0.62431136  0.00357221  1
  H  H33  1  0.44660165  0.37568864  0.99642779  1
  H  H34  1  0.62640482  0.79623602  0.07925381  1
  H  H35  1  0.37359518  0.20376398  0.92074619  1
  H  H36  1  0.80566296  0.55289588  0.00409962  1
  H  H37  1  0.19433704  0.44710412  0.99590038  1
  H  H38  1  0.76219196  0.69115390  0.94623907  1
  H  H39  1  0.23780804  0.30884610  0.05376093  1
  H  H40  1  0.87720088  0.72700815  0.07878459  1
  H  H41  1  0.12279912  0.27299185  0.92121541  1
  H  H42  1  0.26798962  0.98378346  0.73539415  1
  H  H43  1  0.73201038  0.01621654  0.26460585  1
  H  H44  1  0.41891964  0.88817449  0.75944375  1
  H  H45  1  0.58108036  0.11182551  0.24055625  1
  H  H46  1  0.11069179  0.77393681  0.73800600  1
  H  H47  1  0.88930821  0.22606319  0.26199400  1
  H  H48  1  0.27182527  0.69710471  0.77742502  1
  H  H49  1  0.72817473  0.30289529  0.22257498  1
  H  H50  1  0.19337743  0.98205831  0.89958233  1
  H  H51  1  0.80662257  0.01794169  0.10041767  1
  H  H52  1  0.35875254  0.91157694  0.93970889  1
  H  H53  1  0.64124746  0.08842306  0.06029111  1
  H  H54  1  0.06021137  0.77308243  0.91492769  1
  H  H55  1  0.93978863  0.22691757  0.08507231  1
  H  H56  1  0.22742277  0.70812782  0.95924614  1
  H  H57  1  0.77257723  0.29187218  0.04075386  1
  H  H58  1  0.13178609  0.99067053  0.07261118  1
  H  H59  1  0.86821391  0.00932947  0.92738882  1
  H  H60  1  0.14207903  0.83754702  0.11542090  1
  H  H61  1  0.85792097  0.16245298  0.88457910  1
  H  H62  1  0.30222689  0.92845483  0.11638535  1
  H  H63  1  0.69777311  0.07154517  0.88361465  1
  H  H64  1  0.01099836  0.55342041  0.34027314  1
  H  H65  1  0.98900164  0.44657959  0.65972686  1
  H  H66  1  0.17252788  0.62111831  0.20529625  1
  H  H67  1  0.82747212  0.37888169  0.79470375  1
  H  H68  1  0.06240446  0.86661674  0.32723018  1
  H  H69  1  0.93759554  0.13338326  0.67276982  1
  H  H70  1  0.99773683  0.80752063  0.50790945  1
  H  H71  1  0.00226317  0.19247937  0.49209055  1
  H  H72  1  0.36079818  0.91445493  0.33831848  1
  H  H73  1  0.63920182  0.08554507  0.66168152  1
  H  H74  1  0.25279318  0.02910813  0.52845326  1
  H  H75  1  0.74720682  0.97089187  0.47154674  1
  H  H76  1  0.16938192  0.54741923  0.54902319  1
  H  H77  1  0.83061808  0.45258077  0.45097681  1
  H  H78  1  0.41438406  0.60799231  0.43978930  1
  H  H79  1  0.58561594  0.39200769  0.56021070  1
  H  H80  1  0.44260743  0.79515841  0.43340014  1
  H  H81  1  0.55739257  0.20484159  0.56659986  1
  H  H82  1  0.36754931  0.87459596  0.56441333  1
  H  H83  1  0.63245069  0.12540404  0.43558667  1
  H  H84  1  0.33579715  0.68785014  0.57391557  1
  H  H85  1  0.66420285  0.31214986  0.42608443  1
  C  C86  1  0.53853099  0.62362443  0.30889079  1
  C  C87  1  0.46146901  0.37637557  0.69110921  1
  C  C88  1  0.53682483  0.67653685  0.21254446  1
  C  C89  1  0.46317517  0.32346315  0.78745554  1
  C  C90  1  0.66728226  0.64515931  0.16774596  1
  C  C91  1  0.33271774  0.35484069  0.83225404  1
  C  C92  1  0.64948484  0.68568930  0.06491020  1
  C  C93  1  0.35051516  0.31431070  0.93508980  1
  C  C94  1  0.78066697  0.66289249  0.02087552  1
  C  C95  1  0.21933303  0.33710751  0.97912448  1
  C  C96  1  0.30090784  0.87618954  0.72205311  1
  C  C97  1  0.69909216  0.12381046  0.27794689  1
  C  C98  1  0.22710668  0.79871759  0.78029938  1
  C  C99  1  0.77289332  0.20128241  0.21970062  1
  C  C100  1  0.24274192  0.88244596  0.89674900  1
  C  C101  1  0.75725808  0.11755404  0.10325100  1
  C  C102  1  0.17539806  0.80548575  0.95776269  1
  C  C103  1  0.82460194  0.19451425  0.04223731  1
  C  C104  1  0.18800615  0.89522664  0.07184891  1
  C  C105  1  0.81199385  0.10477336  0.92815109  1
  I  I106  1  0.28533523  0.32972642  0.33734291  1
  I  I107  1  0.71466477  0.67027358  0.66265709  1
