# generated using pymatgen
data_Zn(FeO2)2
_symmetry_space_group_name_H-M   'P 1'
_cell_length_a   6.05736425
_cell_length_b   6.05146245
_cell_length_c   18.13404314
_cell_angle_alpha   59.96961331
_cell_angle_beta   59.59773187
_cell_angle_gamma   60.04076779
_symmetry_Int_Tables_number   1
_chemical_formula_structural   Zn(FeO2)2
_chemical_formula_sum   'Zn6 Fe12 O24'
_cell_volume   468.61854525
_cell_formula_units_Z   6
loop_
 _symmetry_equiv_pos_site_id
 _symmetry_equiv_pos_as_xyz
  1  'x, y, z'
loop_
 _atom_site_type_symbol
 _atom_site_label
 _atom_site_symmetry_multiplicity
 _atom_site_fract_x
 _atom_site_fract_y
 _atom_site_fract_z
 _atom_site_occupancy
  Zn  Zn0  1  0.13107904  0.12265623  0.04222516  1
  Zn  Zn1  1  0.49868773  0.50091535  0.33265857  1
  Zn  Zn2  1  0.99971694  0.49838935  0.16757740  1
  Zn  Zn3  1  0.50185973  0.49783588  0.66680853  1
  Zn  Zn4  1  0.99994980  0.50052188  0.49978310  1
  Zn  Zn5  1  0.00494308  0.49778968  0.83286906  1
  Fe  Fe6  1  0.49713680  0.00333098  0.16582851  1
  Fe  Fe7  1  0.13060098  0.11754182  0.37809716  1
  Fe  Fe8  1  0.49491642  0.50115730  0.00239704  1
  Fe  Fe9  1  0.49692245  0.50102209  0.16631821  1
  Fe  Fe10  1  0.50042963  0.00030327  0.49977014  1
  Fe  Fe11  1  0.13439752  0.11671087  0.70974338  1
  Fe  Fe12  1  0.49997775  0.50094658  0.49959235  1
  Fe  Fe13  1  0.49953215  0.00139882  0.83362779  1
  Fe  Fe14  1  0.86733870  0.88323858  0.28807701  1
  Fe  Fe15  1  0.49965477  0.49738456  0.83388825  1
  Fe  Fe16  1  0.86835850  0.88081324  0.62326115  1
  Fe  Fe17  1  0.85717683  0.88327500  0.95960782  1
  O  O18  1  0.27063073  0.25498839  0.08566165  1
  O  O19  1  0.26461611  0.24775453  0.24640405  1
  O  O20  1  0.27090209  0.71922151  0.08633244  1
  O  O21  1  0.72043343  0.26156621  0.08576919  1
  O  O22  1  0.26251199  0.24495626  0.42082274  1
  O  O23  1  0.26479942  0.75271136  0.24340357  1
  O  O24  1  0.26676503  0.25037441  0.57736728  1
  O  O25  1  0.73764421  0.27058107  0.24411695  1
  O  O26  1  0.26238549  0.73012562  0.42084242  1
  O  O27  1  0.73371473  0.75367024  0.08693749  1
  O  O28  1  0.73268711  0.25105748  0.42174573  1
  O  O29  1  0.73760905  0.75687435  0.24428550  1
  O  O30  1  0.26358239  0.23977886  0.75425862  1
  O  O31  1  0.26629546  0.74970451  0.57837102  1
  O  O32  1  0.73777773  0.26837194  0.57931166  1
  O  O33  1  0.26399917  0.73080120  0.75400997  1
  O  O34  1  0.27225473  0.25427005  0.90597289  1
  O  O35  1  0.73384708  0.75098630  0.42141364  1
  O  O36  1  0.73798270  0.24734428  0.75571271  1
  O  O37  1  0.73789115  0.75518883  0.57943025  1
  O  O38  1  0.27682875  0.73840757  0.91541595  1
  O  O39  1  0.73183446  0.26855025  0.91696050  1
  O  O40  1  0.73743335  0.74597464  0.75672967  1
  O  O41  1  0.73289383  0.75150669  0.91659447  1
