# generated using pymatgen
data_KCo(PO3)3
_symmetry_space_group_name_H-M   'P 1'
_cell_length_a   7.71854654
_cell_length_b   7.61923693
_cell_length_c   10.30000546
_cell_angle_alpha   109.32855857
_cell_angle_beta   91.90306624
_cell_angle_gamma   124.02732457
_symmetry_Int_Tables_number   1
_chemical_formula_structural   KCo(PO3)3
_chemical_formula_sum   'K2 Co2 P6 O18'
_cell_volume   454.87046603
_cell_formula_units_Z   2
loop_
 _symmetry_equiv_pos_site_id
 _symmetry_equiv_pos_as_xyz
  1  'x, y, z'
loop_
 _atom_site_type_symbol
 _atom_site_label
 _atom_site_symmetry_multiplicity
 _atom_site_fract_x
 _atom_site_fract_y
 _atom_site_fract_z
 _atom_site_occupancy
  K  K0  1  0.10270080  0.66090243  0.95938344  1
  K  K1  1  0.13836598  0.68687583  0.60492613  1
  Co  Co2  1  0.20554264  0.16892671  0.52865488  1
  Co  Co3  1  0.68624456  0.14427997  0.99700095  1
  P  P4  1  0.37908401  0.28052004  0.14737070  1
  P  P5  1  0.61457069  0.27504968  0.72666071  1
  P  P6  1  0.82953164  0.67503542  0.25378973  1
  P  P7  1  0.96336507  0.12546272  0.26301645  1
  P  P8  1  0.45942067  0.56024840  0.79643196  1
  P  P9  1  0.11443372  0.18201186  0.88524631  1
  O  O10  1  0.41107950  0.52794433  0.64275405  1
  O  O11  1  0.42148347  0.13455246  0.59112189  1
  O  O12  1  0.55549347  0.13995139  0.81972462  1
  O  O13  1  0.83386900  0.38030626  0.70010012  1
  O  O14  1  0.22335060  0.32423146  0.78851377  1
  O  O15  1  0.32259687  0.35344292  0.03634840  1
  O  O16  1  0.42436255  0.10793912  0.09170111  1
  O  O17  1  0.02632364  0.22620966  0.42432342  1
  O  O18  1  0.98102555  0.81244140  0.40289142  1
  O  O19  1  0.85411454  0.18624682  0.18713962  1
  O  O20  1  0.19481856  0.19346804  0.22434749  1
  O  O21  1  0.82375460  0.84597516  0.19645301  1
  O  O22  1  0.85428001  0.52121861  0.13518650  1
  O  O23  1  0.50667136  0.77321004  0.91433113  1
  O  O24  1  0.06223372  0.94735922  0.82145514  1
  O  O25  1  0.62549775  0.51213653  0.82996630  1
  O  O26  1  0.58051866  0.52416018  0.26982126  1
  O  O27  1  0.95286637  0.22329336  0.92713949  1
