# generated using pymatgen
data_Ti2Fe
_symmetry_space_group_name_H-M   'P 1'
_cell_length_a   7.93410734
_cell_length_b   7.93410734
_cell_length_c   7.93410734
_cell_angle_alpha   60.00000000
_cell_angle_beta   60.00000000
_cell_angle_gamma   60.00000000
_symmetry_Int_Tables_number   1
_chemical_formula_structural   Ti2Fe
_chemical_formula_sum   'Ti16 Fe8'
_cell_volume   353.16626849
_cell_formula_units_Z   8
loop_
 _symmetry_equiv_pos_site_id
 _symmetry_equiv_pos_as_xyz
  1  'x, y, z'
loop_
 _atom_site_type_symbol
 _atom_site_label
 _atom_site_symmetry_multiplicity
 _atom_site_fract_x
 _atom_site_fract_y
 _atom_site_fract_z
 _atom_site_occupancy
  Ti  Ti0  1  -0.00000000  -0.00000000  0.50000000  1
  Ti  Ti1  1  -0.00000000  0.50000000  0.00000000  1
  Ti  Ti2  1  0.50000000  -0.00000000  0.00000000  1
  Ti  Ti3  1  -0.00000000  -0.00000000  0.00000000  1
  Ti  Ti4  1  0.43525191  0.81474809  0.81474809  1
  Ti  Ti5  1  0.81474809  0.43525191  0.43525191  1
  Ti  Ti6  1  0.81474809  0.43525191  0.81474809  1
  Ti  Ti7  1  0.43525191  0.81474809  0.43525191  1
  Ti  Ti8  1  0.81474809  0.81474809  0.43525191  1
  Ti  Ti9  1  0.43525191  0.43525191  0.81474809  1
  Ti  Ti10  1  0.56474809  0.18525191  0.18525191  1
  Ti  Ti11  1  0.18525191  0.56474809  0.56474809  1
  Ti  Ti12  1  0.18525191  0.56474809  0.18525191  1
  Ti  Ti13  1  0.56474809  0.18525191  0.56474809  1
  Ti  Ti14  1  0.18525191  0.18525191  0.56474809  1
  Ti  Ti15  1  0.56474809  0.56474809  0.18525191  1
  Fe  Fe16  1  0.21298067  0.21298067  0.86105798  1
  Fe  Fe17  1  0.21298067  0.86105798  0.21298067  1
  Fe  Fe18  1  0.86105798  0.21298067  0.21298067  1
  Fe  Fe19  1  0.21298067  0.21298067  0.21298067  1
  Fe  Fe20  1  0.78701933  0.78701933  0.13894202  1
  Fe  Fe21  1  0.78701933  0.13894202  0.78701933  1
  Fe  Fe22  1  0.13894202  0.78701933  0.78701933  1
  Fe  Fe23  1  0.78701933  0.78701933  0.78701933  1
