# generated using pymatgen
data_AgH6CSN3
_symmetry_space_group_name_H-M   'P 1'
_cell_length_a   7.27444555
_cell_length_b   7.70700269
_cell_length_c   13.33725897
_cell_angle_alpha   96.59944856
_cell_angle_beta   90.00000003
_cell_angle_gamma   118.16013301
_symmetry_Int_Tables_number   1
_chemical_formula_structural   AgH6CSN3
_chemical_formula_sum   'Ag4 H24 C4 S4 N12'
_cell_volume   653.60840895
_cell_formula_units_Z   4
loop_
 _symmetry_equiv_pos_site_id
 _symmetry_equiv_pos_as_xyz
  1  'x, y, z'
loop_
 _atom_site_type_symbol
 _atom_site_label
 _atom_site_symmetry_multiplicity
 _atom_site_fract_x
 _atom_site_fract_y
 _atom_site_fract_z
 _atom_site_occupancy
  Ag  Ag0  1  0.96441430  0.89104476  0.34984293  1
  Ag  Ag1  1  0.07336954  0.10895524  0.15015707  1
  Ag  Ag2  1  0.03558570  0.10895524  0.65015707  1
  Ag  Ag3  1  0.92663046  0.89104476  0.84984293  1
  H  H4  1  0.13161933  0.62502155  0.32795577  1
  H  H5  1  0.50659778  0.37497845  0.17204423  1
  H  H6  1  0.86838067  0.37497845  0.67204423  1
  H  H7  1  0.49340222  0.62502155  0.82795577  1
  H  H8  1  0.93131934  0.52977746  0.39971273  1
  H  H9  1  0.40154188  0.47022254  0.10028727  1
  H  H10  1  0.06868066  0.47022254  0.60028727  1
  H  H11  1  0.59845812  0.52977746  0.89971273  1
  H  H12  1  0.16188131  0.70935908  0.44998709  1
  H  H13  1  0.45252223  0.29064092  0.05001291  1
  H  H14  1  0.83811869  0.29064092  0.55001291  1
  H  H15  1  0.54747777  0.70935908  0.94998709  1
  H  H16  1  0.52917531  0.67613303  0.36531319  1
  H  H17  1  0.85304228  0.32386697  0.13468681  1
  H  H18  1  0.47082469  0.32386697  0.63468681  1
  H  H19  1  0.14695772  0.67613303  0.86531319  1
  H  H20  1  0.56345148  0.78654518  0.26169032  1
  H  H21  1  0.77690630  0.21345482  0.23830968  1
  H  H22  1  0.43654852  0.21345482  0.73830968  1
  H  H23  1  0.22309370  0.78654518  0.76169032  1
  H  H24  1  0.59894347  0.91735309  0.37409056  1
  H  H25  1  0.68159038  0.08264691  0.12590944  1
  H  H26  1  0.40105653  0.08264691  0.62590944  1
  H  H27  1  0.31840962  0.91735309  0.87409056  1
  C  C28  1  0.45724669  0.23119285  0.39134898  1
  C  C29  1  0.22605383  0.76880715  0.10865102  1
  C  C30  1  0.54275331  0.76880715  0.60865102  1
  C  C31  1  0.77394617  0.23119285  0.89134898  1
  S  S32  1  0.23966742  0.24692026  0.38319248  1
  S  S33  1  0.99274716  0.75307974  0.11680752  1
  S  S34  1  0.76033258  0.75307974  0.61680752  1
  S  S35  1  0.00725284  0.24692026  0.88319248  1
  N  N36  1  0.61794757  0.22712277  0.39772357  1
  N  N37  1  0.39082480  0.77287723  0.10227643  1
  N  N38  1  0.38205243  0.77287723  0.60227643  1
  N  N39  1  0.60917520  0.22712277  0.89772357  1
  N  N40  1  0.06032907  0.65840117  0.38731692  1
  N  N41  1  0.40192790  0.34159883  0.11268308  1
  N  N42  1  0.93967093  0.34159883  0.61268308  1
  N  N43  1  0.59807210  0.65840117  0.88731692  1
  N  N44  1  0.61724776  0.80447944  0.33509337  1
  N  N45  1  0.81276831  0.19552056  0.16490663  1
  N  N46  1  0.38275224  0.19552056  0.66490663  1
  N  N47  1  0.18723169  0.80447944  0.83509337  1
