# generated using pymatgen
data_Dy3GaCoS7
_symmetry_space_group_name_H-M   'P 1'
_cell_length_a   6.13363802
_cell_length_b   9.54072190
_cell_length_c   9.54094500
_cell_angle_alpha   120.00103254
_cell_angle_beta   90.00000000
_cell_angle_gamma   90.00000000
_symmetry_Int_Tables_number   1
_chemical_formula_structural   Dy3GaCoS7
_chemical_formula_sum   'Dy6 Ga2 Co2 S14'
_cell_volume   483.52271867
_cell_formula_units_Z   2
loop_
 _symmetry_equiv_pos_site_id
 _symmetry_equiv_pos_as_xyz
  1  'x, y, z'
loop_
 _atom_site_type_symbol
 _atom_site_label
 _atom_site_symmetry_multiplicity
 _atom_site_fract_x
 _atom_site_fract_y
 _atom_site_fract_z
 _atom_site_occupancy
  Dy  Dy0  1  0.17563281  0.84555614  0.21885826  1
  Dy  Dy1  1  0.17563928  0.78113751  0.62670404  1
  Dy  Dy2  1  0.17563865  0.37328265  0.15443413  1
  Dy  Dy3  1  0.67563281  0.15444386  0.78114174  1
  Dy  Dy4  1  0.67563928  0.21886249  0.37329596  1
  Dy  Dy5  1  0.67563865  0.62671735  0.84556587  1
  Ga  Ga6  1  0.10389257  0.33334463  0.66666413  1
  Ga  Ga7  1  0.60389257  0.66665537  0.33333587  1
  Co  Co8  1  0.50962943  0.00000282  0.99999723  1
  Co  Co9  1  0.00962943  0.99999718  0.00000277  1
  S  S10  1  0.44616651  0.56692601  0.08573475  1
  S  S11  1  0.44618095  0.91425911  0.48119790  1
  S  S12  1  0.44616951  0.51879695  0.43305844  1
  S  S13  1  0.94616651  0.43307399  0.91426525  1
  S  S14  1  0.94618095  0.08574089  0.51880210  1
  S  S15  1  0.94616951  0.48120305  0.56694156  1
  S  S16  1  0.47072049  0.33333920  0.66666925  1
  S  S17  1  0.97072049  0.66666080  0.33333075  1
  S  S18  1  0.26610876  0.12805674  0.22362724  1
  S  S19  1  0.26611417  0.77638195  0.90443224  1
  S  S20  1  0.26610689  0.09556919  0.87193678  1
  S  S21  1  0.76610876  0.87194326  0.77637276  1
  S  S22  1  0.76611417  0.22361805  0.09556776  1
  S  S23  1  0.76610689  0.90443081  0.12806322  1
