# generated using pymatgen
data_KNa2P3H7N3O8
_symmetry_space_group_name_H-M   'P 1'
_cell_length_a   8.08767175
_cell_length_b   8.18121830
_cell_length_c   8.65874967
_cell_angle_alpha   75.22170440
_cell_angle_beta   82.26117297
_cell_angle_gamma   76.03037316
_symmetry_Int_Tables_number   1
_chemical_formula_structural   KNa2P3H7N3O8
_chemical_formula_sum   'K2 Na4 P6 H14 N6 O16'
_cell_volume   535.95402360
_cell_formula_units_Z   2
loop_
 _symmetry_equiv_pos_site_id
 _symmetry_equiv_pos_as_xyz
  1  'x, y, z'
loop_
 _atom_site_type_symbol
 _atom_site_label
 _atom_site_symmetry_multiplicity
 _atom_site_fract_x
 _atom_site_fract_y
 _atom_site_fract_z
 _atom_site_occupancy
  K  K0  1  0.63642975  0.70277970  0.44267574  1
  K  K1  1  0.36357025  0.29722030  0.55732426  1
  Na  Na2  1  0.93092739  0.98651331  0.33983164  1
  Na  Na3  1  0.06907261  0.01348669  0.66016836  1
  Na  Na4  1  0.14640095  0.15600896  0.99068280  1
  Na  Na5  1  0.85359905  0.84399104  0.00931720  1
  P  P6  1  0.25293300  0.71281207  0.15422349  1
  P  P7  1  0.74706700  0.28718793  0.84577651  1
  P  P8  1  0.55817129  0.16071042  0.15455314  1
  P  P9  1  0.44182871  0.83928958  0.84544686  1
  P  P10  1  0.78773697  0.40759525  0.13273782  1
  P  P11  1  0.21226303  0.59240475  0.86726218  1
  H  H12  1  0.54090013  0.71551447  0.09318498  1
  H  H13  1  0.45909987  0.28448553  0.90681502  1
  H  H14  1  0.25263996  0.43447828  0.12711559  1
  H  H15  1  0.74736004  0.56552172  0.87288441  1
  H  H16  1  0.51163508  0.41713995  0.22950386  1
  H  H17  1  0.48836492  0.58286005  0.77049614  1
  H  H18  1  0.97755155  0.70173442  0.63078957  1
  H  H19  1  0.02244845  0.29826558  0.36921043  1
  H  H20  1  0.06341098  0.63784935  0.47669958  1
  H  H21  1  0.93658902  0.36215065  0.52330042  1
  H  H22  1  0.25815156  0.83484784  0.40049948  1
  H  H23  1  0.74184844  0.16515216  0.59950052  1
  H  H24  1  0.28123330  0.02927279  0.34344181  1
  H  H25  1  0.71876670  0.97072721  0.65655819  1
  N  N26  1  0.42483862  0.78281226  0.04813552  1
  N  N27  1  0.57516138  0.21718774  0.95186448  1
  N  N28  1  0.21677590  0.56231224  0.06787588  1
  N  N29  1  0.78322410  0.43768776  0.93212412  1
  N  N30  1  0.61606337  0.31986349  0.21731815  1
  N  N31  1  0.38393663  0.68013651  0.78268185  1
  O  O32  1  0.10106961  0.86419570  0.13273209  1
  O  O33  1  0.89893039  0.13580430  0.86726791  1
  O  O34  1  0.68428288  0.99223976  0.21037705  1
  O  O35  1  0.31571712  0.00776024  0.78962295  1
  O  O36  1  0.30469772  0.62492295  0.32378651  1
  O  O37  1  0.69530228  0.37507705  0.67621349  1
  O  O38  1  0.94686119  0.27332150  0.18780811  1
  O  O39  1  0.05313881  0.72667850  0.81219189  1
  O  O40  1  0.75499861  0.58449600  0.16924604  1
  O  O41  1  0.24500139  0.41550400  0.83075396  1
  O  O42  1  0.36909005  0.17634648  0.20631397  1
  O  O43  1  0.63090995  0.82365352  0.79368603  1
  O  O44  1  0.95420811  0.69476555  0.52323468  1
  O  O45  1  0.04579189  0.30523445  0.47676532  1
  O  O46  1  0.22604524  0.94766857  0.42962302  1
  O  O47  1  0.77395476  0.05233143  0.57037698  1
