# generated using pymatgen
data_MnP2(HO)4
_symmetry_space_group_name_H-M   'P 1'
_cell_length_a   8.26694223
_cell_length_b   12.50434530
_cell_length_c   12.50434477
_cell_angle_alpha   115.28696329
_cell_angle_beta   102.73107208
_cell_angle_gamma   102.73107150
_symmetry_Int_Tables_number   1
_chemical_formula_structural   MnP2(HO)4
_chemical_formula_sum   'Mn6 P12 H24 O24'
_cell_volume   1065.06582937
_cell_formula_units_Z   6
loop_
 _symmetry_equiv_pos_site_id
 _symmetry_equiv_pos_as_xyz
  1  'x, y, z'
loop_
 _atom_site_type_symbol
 _atom_site_label
 _atom_site_symmetry_multiplicity
 _atom_site_fract_x
 _atom_site_fract_y
 _atom_site_fract_z
 _atom_site_occupancy
  Mn  Mn0  1  0.98455249  0.56125696  0.32234951  1
  Mn  Mn1  1  0.66220298  0.67765049  0.23890745  1
  Mn  Mn2  1  0.42329553  0.76109255  0.43874304  1
  Mn  Mn3  1  0.01544751  0.43874304  0.67765049  1
  Mn  Mn4  1  0.33779702  0.32234951  0.76109255  1
  Mn  Mn5  1  0.57670447  0.23890745  0.56125696  1
  P  P6  1  0.27811079  0.45361129  0.19951822  1
  P  P7  1  0.07859257  0.80048178  0.25409307  1
  P  P8  1  0.82449950  0.74590693  0.54638871  1
  P  P9  1  0.72188921  0.54638871  0.80048178  1
  P  P10  1  0.92140743  0.19951822  0.74590693  1
  P  P11  1  0.17550050  0.25409307  0.45361129  1
  P  P12  1  0.71107397  0.37442598  0.39709487  1
  P  P13  1  0.31397910  0.60290513  0.97733110  1
  P  P14  1  0.33664800  0.02266890  0.62557402  1
  P  P15  1  0.28892603  0.62557402  0.60290513  1
  P  P16  1  0.68602090  0.39709487  0.02266890  1
  P  P17  1  0.66335200  0.97733110  0.37442598  1
  H  H18  1  0.27455159  0.38695012  0.07398023  1
  H  H19  1  0.20057136  0.92601977  0.31296989  1
  H  H20  1  0.88760147  0.68703011  0.61304988  1
  H  H21  1  0.72544841  0.61304988  0.92601977  1
  H  H22  1  0.79942864  0.07398023  0.68703011  1
  H  H23  1  0.11239853  0.31296989  0.38695012  1
  H  H24  1  0.33282513  0.38265782  0.25439892  1
  H  H25  1  0.07842620  0.74560108  0.12825889  1
  H  H26  1  0.95016731  0.87174111  0.61734218  1
  H  H27  1  0.66717487  0.61734218  0.74560108  1
  H  H28  1  0.92157380  0.25439892  0.87174111  1
  H  H29  1  0.04983269  0.12825889  0.38265782  1
  H  H30  1  0.61803605  0.45988172  0.42011859  1
  H  H31  1  0.19791746  0.57988141  0.03976313  1
  H  H32  1  0.15815433  0.96023687  0.54011828  1
  H  H33  1  0.38196395  0.54011828  0.57988141  1
  H  H34  1  0.80208254  0.42011859  0.96023687  1
  H  H35  1  0.84184567  0.03976313  0.45988172  1
  H  H36  1  0.58149232  0.25695262  0.29816874  1
  H  H37  1  0.28332358  0.70183126  0.95878388  1
  H  H38  1  0.32453970  0.04121612  0.74304738  1
  H  H39  1  0.41850768  0.74304738  0.70183126  1
  H  H40  1  0.71667642  0.29816874  0.04121612  1
  H  H41  1  0.67546030  0.95878388  0.25695262  1
  O  O42  1  0.09121540  0.44682779  0.19546821  1
  O  O43  1  0.89574719  0.80453179  0.25135958  1
  O  O44  1  0.64438761  0.74864042  0.55317221  1
  O  O45  1  0.90878460  0.55317221  0.80453179  1
  O  O46  1  0.10425281  0.19546821  0.74864042  1
  O  O47  1  0.35561239  0.25135958  0.44682779  1
  O  O48  1  0.42396273  0.58518720  0.26852027  1
  O  O49  1  0.15544246  0.73147973  0.31666693  1
  O  O50  1  0.83877553  0.68333307  0.41481280  1
  O  O51  1  0.57603727  0.41481280  0.73147973  1
  O  O52  1  0.84455754  0.26852027  0.68333307  1
  O  O53  1  0.16122447  0.31666693  0.58518720  1
  O  O54  1  0.85561727  0.41458162  0.35117835  1
  O  O55  1  0.50443891  0.64882165  0.06340326  1
  O  O56  1  0.44103565  0.93659674  0.58541838  1
  O  O57  1  0.14438273  0.58541838  0.64882165  1
  O  O58  1  0.49556109  0.35117835  0.93659674  1
  O  O59  1  0.55896435  0.06340326  0.41458162  1
  O  O60  1  0.76585502  0.36000258  0.51460412  1
  O  O61  1  0.25125091  0.48539588  0.84539847  1
  O  O62  1  0.40585244  0.15460153  0.63999742  1
  O  O63  1  0.23414498  0.63999742  0.48539588  1
  O  O64  1  0.74874909  0.51460412  0.15460153  1
  O  O65  1  0.59414756  0.84539847  0.36000258  1
