# generated using pymatgen
data_MnH4S(NO2)2
_symmetry_space_group_name_H-M   'P 1'
_cell_length_a   6.69879639
_cell_length_b   7.99779157
_cell_length_c   9.18976361
_cell_angle_alpha   90.00000000
_cell_angle_beta   90.00000000
_cell_angle_gamma   90.00000000
_symmetry_Int_Tables_number   1
_chemical_formula_structural   MnH4S(NO2)2
_chemical_formula_sum   'Mn4 H16 S4 N8 O16'
_cell_volume   492.34689063
_cell_formula_units_Z   4
loop_
 _symmetry_equiv_pos_site_id
 _symmetry_equiv_pos_as_xyz
  1  'x, y, z'
loop_
 _atom_site_type_symbol
 _atom_site_label
 _atom_site_symmetry_multiplicity
 _atom_site_fract_x
 _atom_site_fract_y
 _atom_site_fract_z
 _atom_site_occupancy
  Mn  Mn0  1  -0.00000000  0.50000000  0.50000000  1
  Mn  Mn1  1  0.50000000  0.00000000  0.50000000  1
  Mn  Mn2  1  0.50000000  0.50000000  0.00000000  1
  Mn  Mn3  1  0.00000000  -0.00000000  0.00000000  1
  H  H4  1  0.30376659  0.37605883  0.67645749  1
  H  H5  1  0.19623341  0.12394117  0.67645749  1
  H  H6  1  0.80376659  0.62394117  0.82354251  1
  H  H7  1  0.69623341  0.87605883  0.82354251  1
  H  H8  1  0.69623341  0.62394117  0.32354251  1
  H  H9  1  0.80376659  0.87605883  0.32354251  1
  H  H10  1  0.19623341  0.37605883  0.17645749  1
  H  H11  1  0.30376659  0.12394117  0.17645749  1
  H  H12  1  0.38087569  0.36611429  0.50691575  1
  H  H13  1  0.11912431  0.13388571  0.50691575  1
  H  H14  1  0.88087569  0.63388571  0.99308425  1
  H  H15  1  0.61912431  0.86611429  0.99308425  1
  H  H16  1  0.61912431  0.63388571  0.49308425  1
  H  H17  1  0.88087569  0.86611429  0.49308425  1
  H  H18  1  0.11912431  0.36611429  0.00691575  1
  H  H19  1  0.38087569  0.13388571  0.00691575  1
  S  S20  1  0.75000000  0.25000000  0.75967194  1
  S  S21  1  0.25000000  0.75000000  0.74032806  1
  S  S22  1  0.25000000  0.75000000  0.24032806  1
  S  S23  1  0.75000000  0.25000000  0.25967194  1
  N  N24  1  0.26141760  0.34102118  0.57323714  1
  N  N25  1  0.23858240  0.15897882  0.57323714  1
  N  N26  1  0.76141760  0.65897882  0.92676286  1
  N  N27  1  0.73858240  0.84102118  0.92676286  1
  N  N28  1  0.73858240  0.65897882  0.42676286  1
  N  N29  1  0.76141760  0.84102118  0.42676286  1
  N  N30  1  0.23858240  0.34102118  0.07323714  1
  N  N31  1  0.26141760  0.15897882  0.07323714  1
  O  O32  1  0.92670000  0.20830820  0.85201791  1
  O  O33  1  0.57330000  0.29169180  0.85201791  1
  O  O34  1  0.42670000  0.79169180  0.64798209  1
  O  O35  1  0.07330000  0.70830820  0.64798209  1
  O  O36  1  0.07330000  0.79169180  0.14798209  1
  O  O37  1  0.42670000  0.70830820  0.14798209  1
  O  O38  1  0.57330000  0.20830820  0.35201791  1
  O  O39  1  0.92670000  0.29169180  0.35201791  1
  O  O40  1  0.79959350  0.39826687  0.66835128  1
  O  O41  1  0.70040650  0.10173313  0.66835128  1
  O  O42  1  0.29959350  0.60173313  0.83164872  1
  O  O43  1  0.20040650  0.89826687  0.83164872  1
  O  O44  1  0.20040650  0.60173313  0.33164872  1
  O  O45  1  0.29959350  0.89826687  0.33164872  1
  O  O46  1  0.70040650  0.39826687  0.16835128  1
  O  O47  1  0.79959350  0.10173313  0.16835128  1
