# generated using pymatgen
data_MgNiAsO5
_symmetry_space_group_name_H-M   'P 1'
_cell_length_a   7.48795001
_cell_length_b   5.80486961
_cell_length_c   8.38538896
_cell_angle_alpha   89.99955730
_cell_angle_beta   90.02157771
_cell_angle_gamma   89.99360258
_symmetry_Int_Tables_number   1
_chemical_formula_structural   MgNiAsO5
_chemical_formula_sum   'Mg4 Ni4 As4 O20'
_cell_volume   364.48409694
_cell_formula_units_Z   4
loop_
 _symmetry_equiv_pos_site_id
 _symmetry_equiv_pos_as_xyz
  1  'x, y, z'
loop_
 _atom_site_type_symbol
 _atom_site_label
 _atom_site_symmetry_multiplicity
 _atom_site_fract_x
 _atom_site_fract_y
 _atom_site_fract_z
 _atom_site_occupancy
  Mg  Mg0  1  0.91641794  0.72286152  0.07067410  1
  Mg  Mg1  1  0.58377394  0.27713121  0.57079582  1
  Mg  Mg2  1  0.41628804  0.77737886  0.92928701  1
  Mg  Mg3  1  0.08337734  0.22300884  0.42930531  1
  Ni  Ni4  1  0.99427901  0.49323281  0.75146718  1
  Ni  Ni5  1  0.50584898  0.50670237  0.25148088  1
  Ni  Ni6  1  0.49421870  0.00671825  0.24858445  1
  Ni  Ni7  1  0.00573853  0.99328483  0.74851806  1
  As  As8  1  0.63898699  0.27210511  0.92943997  1
  As  As9  1  0.86108640  0.72791210  0.42939084  1
  As  As10  1  0.13897169  0.22782322  0.07060596  1
  As  As11  1  0.36100055  0.77211171  0.57055676  1
  O  O12  1  0.82880326  0.23575224  0.81597412  1
  O  O13  1  0.67110228  0.76422960  0.31608293  1
  O  O14  1  0.32892904  0.26427583  0.18394240  1
  O  O15  1  0.17107438  0.73579796  0.68386848  1
  O  O16  1  0.48165846  0.34437922  0.79292758  1
  O  O17  1  0.01830438  0.65567170  0.29289230  1
  O  O18  1  0.98167691  0.15562204  0.20703911  1
  O  O19  1  0.51827494  0.84440923  0.70710716  1
  O  O20  1  0.60318408  0.01570625  0.02769327  1
  O  O21  1  0.89674069  0.98433923  0.52762941  1
  O  O22  1  0.10309079  0.48424487  0.97238641  1
  O  O23  1  0.39691232  0.51569356  0.47235986  1
  O  O24  1  0.65975215  0.50879496  0.05287330  1
  O  O25  1  0.84051391  0.49104918  0.55270957  1
  O  O26  1  0.15964011  0.99109016  0.94720883  1
  O  O27  1  0.34025259  0.00881972  0.44713138  1
  O  O28  1  0.87743645  0.75068424  0.83371798  1
  O  O29  1  0.62261259  0.24926200  0.33383300  1
  O  O30  1  0.37747204  0.74936430  0.16624592  1
  O  O31  1  0.12257855  0.25054490  0.66627066  1
