# generated using pymatgen
data_Zn2AsO5
_symmetry_space_group_name_H-M   'P 1'
_cell_length_a   6.07099568
_cell_length_b   8.62337522
_cell_length_c   8.48002848
_cell_angle_alpha   90.00000000
_cell_angle_beta   90.00000000
_cell_angle_gamma   90.00000000
_symmetry_Int_Tables_number   1
_chemical_formula_structural   Zn2AsO5
_chemical_formula_sum   'Zn8 As4 O20'
_cell_volume   443.95046804
_cell_formula_units_Z   4
loop_
 _symmetry_equiv_pos_site_id
 _symmetry_equiv_pos_as_xyz
  1  'x, y, z'
loop_
 _atom_site_type_symbol
 _atom_site_label
 _atom_site_symmetry_multiplicity
 _atom_site_fract_x
 _atom_site_fract_y
 _atom_site_fract_z
 _atom_site_occupancy
  Zn  Zn0  1  -0.00000000  0.87366973  0.14383908  1
  Zn  Zn1  1  0.00000000  0.12633027  0.85616092  1
  Zn  Zn2  1  0.50000000  0.37366973  0.35616092  1
  Zn  Zn3  1  0.50000000  0.62633027  0.64383908  1
  Zn  Zn4  1  0.75457245  -0.00000000  0.50000000  1
  Zn  Zn5  1  0.74542755  0.50000000  -0.00000000  1
  Zn  Zn6  1  0.24542755  0.00000000  0.50000000  1
  Zn  Zn7  1  0.25457245  0.50000000  -0.00000000  1
  As  As8  1  0.50000000  0.74893829  0.25859596  1
  As  As9  1  0.50000000  0.25106171  0.74140404  1
  As  As10  1  -0.00000000  0.24893829  0.24140404  1
  As  As11  1  0.00000000  0.75106171  0.75859596  1
  O  O12  1  0.50000000  0.60607097  0.40186018  1
  O  O13  1  0.50000000  0.39392903  0.59813982  1
  O  O14  1  -0.00000000  0.10607097  0.09813982  1
  O  O15  1  0.00000000  0.89392903  0.90186018  1
  O  O16  1  0.50000000  0.92307712  0.36400462  1
  O  O17  1  0.50000000  0.07692288  0.63599538  1
  O  O18  1  0.00000000  0.42307712  0.13599538  1
  O  O19  1  -0.00000000  0.57692288  0.86400462  1
  O  O20  1  0.73173760  0.73549483  0.14277057  1
  O  O21  1  0.73173760  0.26450517  0.85722943  1
  O  O22  1  0.76826240  0.23549483  0.35722943  1
  O  O23  1  0.76826240  0.76450517  0.64277057  1
  O  O24  1  0.26826240  0.26450517  0.85722943  1
  O  O25  1  0.26826240  0.73549483  0.14277057  1
  O  O26  1  0.23173760  0.76450517  0.64277057  1
  O  O27  1  0.23173760  0.23549483  0.35722943  1
  O  O28  1  -0.00000000  0.92379517  0.37010543  1
  O  O29  1  -0.00000000  0.07620483  0.62989457  1
  O  O30  1  0.50000000  0.42379517  0.12989457  1
  O  O31  1  0.50000000  0.57620483  0.87010543  1
