# generated using pymatgen
data_USi5H45C15N3Cl
_symmetry_space_group_name_H-M   'P 1'
_cell_length_a   12.31790938
_cell_length_b   14.83944004
_cell_length_c   18.41154646
_cell_angle_alpha   90.00000000
_cell_angle_beta   99.29934138
_cell_angle_gamma   90.00000000
_symmetry_Int_Tables_number   1
_chemical_formula_structural   USi5H45C15N3Cl
_chemical_formula_sum   'U4 Si20 H180 C60 N12 Cl4'
_cell_volume   3321.23239208
_cell_formula_units_Z   4
loop_
 _symmetry_equiv_pos_site_id
 _symmetry_equiv_pos_as_xyz
  1  'x, y, z'
loop_
 _atom_site_type_symbol
 _atom_site_label
 _atom_site_symmetry_multiplicity
 _atom_site_fract_x
 _atom_site_fract_y
 _atom_site_fract_z
 _atom_site_occupancy
  U  U0  1  0.53633692  0.61473791  0.59011005  1
  U  U1  1  0.03633692  0.88526209  0.09011005  1
  U  U2  1  0.46366308  0.38526209  0.40988995  1
  U  U3  1  0.96366308  0.11473791  0.90988995  1
  Si  Si4  1  0.76536441  0.73412280  0.54754651  1
  Si  Si5  1  0.26536441  0.76587720  0.04754651  1
  Si  Si6  1  0.23463559  0.26587720  0.45245349  1
  Si  Si7  1  0.73463559  0.23412280  0.95245349  1
  Si  Si8  1  0.81610251  0.58316179  0.65687746  1
  Si  Si9  1  0.31610251  0.91683821  0.15687746  1
  Si  Si10  1  0.18389749  0.41683821  0.34312254  1
  Si  Si11  1  0.68389749  0.08316179  0.84312254  1
  Si  Si12  1  0.49925792  0.67061346  0.77138367  1
  Si  Si13  1  0.99925792  0.82938654  0.27138367  1
  Si  Si14  1  0.50074208  0.32938654  0.22861633  1
  Si  Si15  1  0.00074208  0.17061346  0.72861633  1
  Si  Si16  1  0.36043764  0.51968464  0.69838111  1
  Si  Si17  1  0.86043764  0.98031536  0.19838111  1
  Si  Si18  1  0.63956236  0.48031536  0.30161889  1
  Si  Si19  1  0.13956236  0.01968464  0.80161889  1
  Si  Si20  1  0.38411389  0.82345078  0.54529435  1
  Si  Si21  1  0.88411389  0.67654922  0.04529435  1
  Si  Si22  1  0.61588611  0.17654922  0.45470565  1
  Si  Si23  1  0.11588611  0.32345078  0.95470565  1
  H  H24  1  0.58802469  0.76734660  0.46433437  1
  H  H25  1  0.08802469  0.73265340  0.96433437  1
  H  H26  1  0.41197531  0.23265340  0.53566563  1
  H  H27  1  0.91197531  0.26734660  0.03566563  1
  H  H28  1  0.67161027  0.69447966  0.42008278  1
  H  H29  1  0.17161027  0.80552034  0.92008278  1
  H  H30  1  0.32838973  0.30552034  0.57991722  1
  H  H31  1  0.82838973  0.19447966  0.07991722  1
  H  H32  1  0.70459848  0.81062294  0.43027582  1
  H  H33  1  0.20459848  0.68937706  0.93027582  1
  H  H34  1  0.29540152  0.18937706  0.56972418  1
  H  H35  1  0.79540152  0.31062294  0.06972418  1
  H  H36  1  0.69517449  0.86225915  0.61425536  1
  H  H37  1  0.19517449  0.63774085  0.11425536  1
  H  H38  1  0.30482551  0.13774085  0.38574464  1
  H  H39  1  0.80482551  0.36225915  0.88574464  1
  H  H40  1  0.79863066  0.89781238  0.56332672  1
  H  H41  1  0.29863066  0.60218762  0.06332672  1
  H  H42  1  0.20136934  0.10218762  0.43667328  1
  H  H43  1  0.70136934  0.39781238  0.93667328  1
  H  H44  1  0.83612220  0.84294620  0.64944307  1
  H  H45  1  0.33612220  0.65705380  0.14944307  1
  H  H46  1  0.16387780  0.15705380  0.35055693  1
  H  H47  1  0.66387780  0.34294620  0.85055693  1
  H  H48  1  0.91035431  0.65213812  0.48938417  1
  H  H49  1  0.41035431  0.84786188  0.98938417  1
  H  H50  1  0.08964569  0.34786188  0.51061583  1
  H  H51  1  0.58964569  0.15213812  0.01061583  1
  H  H52  1  0.97304051  0.70864219  0.57071110  1
  H  H53  1  0.47304051  0.79135781  0.07071110  1
  H  H54  1  0.02695949  0.29135781  0.42928890  1
  H  H55  1  0.52695949  0.20864219  0.92928890  1
  H  H56  1  0.92420679  0.77089247  0.49020031  1
  H  H57  1  0.42420679  0.72910753  0.99020031  1
  H  H58  1  0.07579321  0.22910753  0.50979969  1
  H  H59  1  0.57579321  0.27089247  0.00979969  1
  H  H60  1  0.81258004  0.48025718  0.75942948  1
  H  H61  1  0.31258004  0.01974282  0.25942948  1
  H  H62  1  0.18741996  0.51974282  0.24057052  1
  H  H63  1  0.68741996  0.98025718  0.74057052  1
  H  H64  1  0.69670076  0.45762193  0.69168250  1
  H  H65  1  0.19670076  0.04237807  0.19168250  1
  H  H66  1  0.30329924  0.54237807  0.30831750  1
  H  H67  1  0.80329924  0.95762193  0.80831750  1
  H  H68  1  0.69583781  0.55065114  0.75299980  1
  H  H69  1  0.19583781  0.94934886  0.25299980  1
  H  H70  1  0.30416219  0.44934886  0.24700020  1
  H  H71  1  0.80416219  0.05065114  0.74700020  1
  H  H72  1  0.98008626  0.49697414  0.63575155  1
  H  H73  1  0.48008626  0.00302586  0.13575155  1
  H  H74  1  0.01991374  0.50302586  0.36424845  1
  H  H75  1  0.51991374  0.99697414  0.86424845  1
  H  H76  1  0.89748152  0.51766847  0.54900842  1
  H  H77  1  0.39748152  0.98233153  0.04900842  1
  H  H78  1  0.10251848  0.48233153  0.45099158  1
  H  H79  1  0.60251848  0.01766847  0.95099158  1
  H  H80  1  0.85864204  0.43317757  0.60787550  1
  H  H81  1  0.35864204  0.06682243  0.10787550  1
  H  H82  1  0.14135796  0.56682243  0.39212450  1
  H  H83  1  0.64135796  0.93317757  0.89212450  1
  H  H84  1  0.99864412  0.61988546  0.72822673  1
  H  H85  1  0.49864412  0.88011454  0.22822673  1
  H  H86  1  0.00135588  0.38011454  0.27177327  1
  H  H87  1  0.50135588  0.11988546  0.77177327  1
  H  H88  1  0.89456426  0.66696644  0.77202198  1
  H  H89  1  0.39456426  0.83303356  0.27202198  1
  H  H90  1  0.10543574  0.33303356  0.22797802  1
  H  H91  1  0.60543574  0.16696644  0.72797802  1
  H  H92  1  0.93553888  0.72238513  0.69576944  1
  H  H93  1  0.43553888  0.77761487  0.19576944  1
  H  H94  1  0.06446112  0.27761487  0.30423056  1
  H  H95  1  0.56446112  0.22238513  0.80423056  1
  H  H96  1  0.69500494  0.69988859  0.75395497  1
  H  H97  1  0.19500494  0.80011141  0.25395497  1
  H  H98  1  0.30499506  0.30011141  0.24604503  1
  H  H99  1  0.80499506  0.19988859  0.74604503  1
  H  H100  1  0.64429420  0.78125967  0.81020942  1
  H  H101  1  0.14429420  0.71874033  0.31020942  1
  H  H102  1  0.35570580  0.21874033  0.18979058  1
  H  H103  1  0.85570580  0.28125967  0.68979058  1
  H  H104  1  0.60480621  0.78572205  0.71289230  1
  H  H105  1  0.10480621  0.71427795  0.21289230  1
  H  H106  1  0.39519379  0.21427795  0.28710770  1
  H  H107  1  0.89519379  0.28572205  0.78710770  1
  H  H108  1  0.59873070  0.55516425  0.85905512  1
  H  H109  1  0.09873070  0.94483575  0.35905512  1
  H  H110  1  0.40126930  0.44483575  0.14094488  1
  H  H111  1  0.90126930  0.05516425  0.64094488  1
  H  H112  1  0.46226690  0.57022091  0.87619433  1
  H  H113  1  0.96226690  0.92977909  0.37619433  1
  H  H114  1  0.53773310  0.42977909  0.12380567  1
  H  H115  1  0.03773310  0.07022091  0.62380567  1
  H  H116  1  0.56304900  0.65384992  0.90427630  1
  H  H117  1  0.06304900  0.84615008  0.40427630  1
  H  H118  1  0.43695100  0.34615008  0.09572370  1
  H  H119  1  0.93695100  0.15384992  0.59572370  1
  H  H120  1  0.36759200  0.79816754  0.73646908  1
  H  H121  1  0.86759200  0.70183246  0.23646908  1
  H  H122  1  0.63240800  0.20183246  0.26353092  1
  H  H123  1  0.13240800  0.29816754  0.76353092  1
  H  H124  1  0.42395410  0.79891182  0.83160511  1
  H  H125  1  0.92395410  0.70108818  0.33160511  1
  H  H126  1  0.57604590  0.20108818  0.16839489  1
  H  H127  1  0.07604590  0.29891182  0.66839489  1
  H  H128  1  0.31423841  0.72529605  0.79838056  1
  H  H129  1  0.81423841  0.77470395  0.29838056  1
  H  H130  1  0.68576159  0.27470395  0.20161944  1
  H  H131  1  0.18576159  0.22529605  0.70161944  1
  H  H132  1  0.20646643  0.46739412  0.60646238  1
  H  H133  1  0.70646643  0.03260588  0.10646238  1
  H  H134  1  0.79353357  0.53260588  0.39353762  1
  H  H135  1  0.29353357  0.96739412  0.89353762  1
  H  H136  1  0.32784035  0.46175288  0.56698530  1
  H  H137  1  0.82784035  0.03824712  0.06698530  1
  H  H138  1  0.67215965  0.53824712  0.43301470  1
  H  H139  1  0.17215965  0.96175288  0.93301470  1
  H  H140  1  0.26063841  0.56716758  0.57386312  1
  H  H141  1  0.76063841  0.93283242  0.07386312  1
  H  H142  1  0.73936159  0.43283242  0.42613688  1
  H  H143  1  0.23936159  0.06716758  0.92613688  1
  H  H144  1  0.35913410  0.37685563  0.76827243  1
  H  H145  1  0.85913410  0.12314437  0.26827243  1
  H  H146  1  0.64086590  0.62314437  0.23172757  1
  H  H147  1  0.14086590  0.87685563  0.73172757  1
  H  H148  1  0.49636758  0.41616621  0.77334079  1
  H  H149  1  0.99636758  0.08383379  0.27334079  1
  H  H150  1  0.50363242  0.58383379  0.22665921  1
  H  H151  1  0.00363242  0.91616621  0.72665921  1
  H  H152  1  0.42978434  0.36191261  0.69234985  1
  H  H153  1  0.92978434  0.13808739  0.19234985  1
  H  H154  1  0.57021566  0.63808739  0.30765015  1
  H  H155  1  0.07021566  0.86191261  0.80765015  1
  H  H156  1  0.21694642  0.49083081  0.77273963  1
  H  H157  1  0.71694642  0.00916919  0.27273963  1
  H  H158  1  0.78305358  0.50916919  0.22726037  1
  H  H159  1  0.28305358  0.99083081  0.72726037  1
  H  H160  1  0.18349349  0.59024286  0.72008605  1
  H  H161  1  0.68349349  0.90975714  0.22008605  1
  H  H162  1  0.81650651  0.40975714  0.27991395  1
  H  H163  1  0.31650651  0.09024286  0.77991395  1
  H  H164  1  0.27794192  0.59428628  0.80359285  1
  H  H165  1  0.77794192  0.90571372  0.30359285  1
  H  H166  1  0.72205808  0.40571372  0.19640715  1
  H  H167  1  0.22205808  0.09428628  0.69640715  1
  H  H168  1  0.33610780  0.78971233  0.41067108  1
  H  H169  1  0.83610780  0.71028767  0.91067108  1
  H  H170  1  0.66389220  0.21028767  0.58932892  1
  H  H171  1  0.16389220  0.28971233  0.08932892  1
  H  H172  1  0.44294253  0.87138951  0.42636843  1
  H  H173  1  0.94294253  0.62861049  0.92636843  1
  H  H174  1  0.55705747  0.12861049  0.57363157  1
  H  H175  1  0.05705747  0.37138951  0.07363157  1
  H  H176  1  0.30538781  0.90322594  0.43059114  1
  H  H177  1  0.80538781  0.59677406  0.93059114  1
  H  H178  1  0.69461219  0.09677406  0.56940886  1
  H  H179  1  0.19461219  0.40322594  0.06940886  1
  H  H180  1  0.43928427  0.92144290  0.65664059  1
  H  H181  1  0.93928427  0.57855710  0.15664059  1
  H  H182  1  0.56071573  0.07855710  0.34335941  1
  H  H183  1  0.06071573  0.42144290  0.84335941  1
  H  H184  1  0.37305392  0.98467058  0.58034317  1
  H  H185  1  0.87305392  0.51532942  0.08034317  1
  H  H186  1  0.62694608  0.01532942  0.41965683  1
  H  H187  1  0.12694608  0.48467058  0.91965683  1
  H  H188  1  0.51248481  0.95230847  0.58478305  1
  H  H189  1  0.01248481  0.54769153  0.08478305  1
  H  H190  1  0.48751519  0.04769153  0.41521695  1
  H  H191  1  0.98751519  0.45230847  0.91521695  1
  H  H192  1  0.24730932  0.78271503  0.62661779  1
  H  H193  1  0.74730932  0.71728497  0.12661779  1
  H  H194  1  0.75269068  0.21728497  0.37338221  1
  H  H195  1  0.25269068  0.28271503  0.87338221  1
  H  H196  1  0.21325113  0.73139869  0.53869592  1
  H  H197  1  0.71325113  0.76860131  0.03869592  1
  H  H198  1  0.78674887  0.26860131  0.46130408  1
  H  H199  1  0.28674887  0.23139869  0.96130408  1
  H  H200  1  0.18459215  0.84734252  0.54980677  1
  H  H201  1  0.68459215  0.65265748  0.04980677  1
  H  H202  1  0.81540785  0.15265748  0.45019323  1
  H  H203  1  0.31540785  0.34734252  0.95019323  1
  C  C204  1  0.67268780  0.75239483  0.45719899  1
  C  C205  1  0.17268780  0.74760517  0.95719899  1
  C  C206  1  0.32731220  0.24760517  0.54280101  1
  C  C207  1  0.82731220  0.25239483  0.04280101  1
  C  C208  1  0.77487135  0.84424557  0.59910388  1
  C  C209  1  0.27487135  0.65575443  0.09910388  1
  C  C210  1  0.22512865  0.15575443  0.40089612  1
  C  C211  1  0.72512865  0.34424557  0.90089612  1
  C  C212  1  0.90664258  0.71251830  0.52329379  1
  C  C213  1  0.40664258  0.78748170  0.02329379  1
  C  C214  1  0.09335742  0.28748170  0.47670621  1
  C  C215  1  0.59335742  0.21251830  0.97670621  1
  C  C216  1  0.74649302  0.51201501  0.72044247  1
  C  C217  1  0.24649302  0.98798499  0.22044247  1
  C  C218  1  0.25350698  0.48798499  0.27955753  1
  C  C219  1  0.75350698  0.01201501  0.77955753  1
  C  C220  1  0.89500311  0.50072062  0.60662446  1
  C  C221  1  0.39500311  0.99927938  0.10662446  1
  C  C222  1  0.10499689  0.49927938  0.39337554  1
  C  C223  1  0.60499689  0.00072062  0.89337554  1
  C  C224  1  0.91973329  0.65605433  0.71809866  1
  C  C225  1  0.41973329  0.84394567  0.21809866  1
  C  C226  1  0.08026671  0.34394567  0.28190134  1
  C  C227  1  0.58026671  0.15605433  0.78190134  1
  C  C228  1  0.62281492  0.74019124  0.76029904  1
  C  C229  1  0.12281492  0.75980876  0.26029904  1
  C  C230  1  0.37718508  0.25980876  0.23970096  1
  C  C231  1  0.87718508  0.24019124  0.73970096  1
  C  C232  1  0.53351831  0.60525443  0.86044308  1
  C  C233  1  0.03351831  0.89474557  0.36044308  1
  C  C234  1  0.46648169  0.39474557  0.13955692  1
  C  C235  1  0.96648169  0.10525443  0.63955692  1
  C  C236  1  0.38978356  0.75528489  0.78519067  1
  C  C237  1  0.88978356  0.74471511  0.28519067  1
  C  C238  1  0.61021644  0.24471511  0.21480933  1
  C  C239  1  0.11021644  0.25528489  0.71480933  1
  C  C240  1  0.28356567  0.50286449  0.60195264  1
  C  C241  1  0.78356567  0.99713551  0.10195264  1
  C  C242  1  0.71643433  0.49713551  0.39804736  1
  C  C243  1  0.21643433  0.00286449  0.89804736  1
  C  C244  1  0.41734502  0.40834093  0.73663606  1
  C  C245  1  0.91734502  0.09165907  0.23663606  1
  C  C246  1  0.58265498  0.59165907  0.26336394  1
  C  C247  1  0.08265498  0.90834093  0.76336394  1
  C  C248  1  0.25073280  0.55380262  0.75428910  1
  C  C249  1  0.75073280  0.94619738  0.25428910  1
  C  C250  1  0.74926720  0.44619738  0.24571090  1
  C  C251  1  0.24926720  0.05380262  0.74571090  1
  C  C252  1  0.36636425  0.84883850  0.44367839  1
  C  C253  1  0.86636425  0.65116150  0.94367839  1
  C  C254  1  0.63363575  0.15116150  0.55632161  1
  C  C255  1  0.13363575  0.34883850  0.05632161  1
  C  C256  1  0.43243685  0.92981893  0.59683875  1
  C  C257  1  0.93243685  0.57018107  0.09683875  1
  C  C258  1  0.56756315  0.07018107  0.40316125  1
  C  C259  1  0.06756315  0.42981893  0.90316125  1
  C  C260  1  0.24437004  0.79328529  0.56743519  1
  C  C261  1  0.74437004  0.70671471  0.06743519  1
  C  C262  1  0.75562996  0.20671471  0.43256481  1
  C  C263  1  0.25562996  0.29328529  0.93256481  1
  N  N264  1  0.47425013  0.73274965  0.56909347  1
  N  N265  1  0.97425013  0.76725035  0.06909347  1
  N  N266  1  0.52574987  0.26725035  0.43090653  1
  N  N267  1  0.02574987  0.23274965  0.93090653  1
  N  N268  1  0.71541000  0.64576189  0.59808768  1
  N  N269  1  0.21541000  0.85423811  0.09808768  1
  N  N270  1  0.28459000  0.35423811  0.40191232  1
  N  N271  1  0.78459000  0.14576189  0.90191232  1
  N  N272  1  0.46553353  0.59932807  0.69459770  1
  N  N273  1  0.96553353  0.90067193  0.19459770  1
  N  N274  1  0.53446647  0.40067193  0.30540230  1
  N  N275  1  0.03446647  0.09932807  0.80540230  1
  Cl  Cl276  1  0.43624369  0.57408801  0.44296863  1
  Cl  Cl277  1  0.93624369  0.92591199  0.94296863  1
  Cl  Cl278  1  0.56375631  0.42591199  0.55703137  1
  Cl  Cl279  1  0.06375631  0.07408801  0.05703137  1
