# generated using pymatgen
data_H5CN3
_symmetry_space_group_name_H-M   'P 1'
_cell_length_a   6.48570389
_cell_length_b   6.58060058
_cell_length_c   7.92049466
_cell_angle_alpha   90.00000000
_cell_angle_beta   90.00000000
_cell_angle_gamma   90.00000000
_symmetry_Int_Tables_number   1
_chemical_formula_structural   H5CN3
_chemical_formula_sum   'H20 C4 N12'
_cell_volume   338.04534010
_cell_formula_units_Z   4
loop_
 _symmetry_equiv_pos_site_id
 _symmetry_equiv_pos_as_xyz
  1  'x, y, z'
loop_
 _atom_site_type_symbol
 _atom_site_label
 _atom_site_symmetry_multiplicity
 _atom_site_fract_x
 _atom_site_fract_y
 _atom_site_fract_z
 _atom_site_occupancy
  H  H0  1  0.27427414  0.15794715  0.58109786  1
  H  H1  1  0.22572586  0.84205285  0.08109786  1
  H  H2  1  0.77427414  0.34205285  0.41890214  1
  H  H3  1  0.72572586  0.65794715  0.91890214  1
  H  H4  1  0.89397121  0.15505628  0.17193285  1
  H  H5  1  0.60602879  0.84494372  0.67193285  1
  H  H6  1  0.39397121  0.34494372  0.82806715  1
  H  H7  1  0.10602879  0.65505628  0.32806715  1
  H  H8  1  0.10669785  0.07913415  0.42233395  1
  H  H9  1  0.39330215  0.92086585  0.92233395  1
  H  H10  1  0.60669785  0.42086585  0.57766605  1
  H  H11  1  0.89330215  0.57913415  0.07766605  1
  H  H12  1  0.17949849  0.91133413  0.57519218  1
  H  H13  1  0.32050151  0.08866587  0.07519218  1
  H  H14  1  0.67949849  0.58866587  0.42480782  1
  H  H15  1  0.82050151  0.41133413  0.92480782  1
  H  H16  1  0.35562542  0.98656411  0.43261571  1
  H  H17  1  0.14437458  0.01343589  0.93261571  1
  H  H18  1  0.85562542  0.51343589  0.56738429  1
  H  H19  1  0.64437458  0.48656411  0.06738429  1
  C  C20  1  0.73330795  0.98096028  0.31639037  1
  C  C21  1  0.76669205  0.01903972  0.81639037  1
  C  C22  1  0.23330795  0.51903972  0.68360963  1
  C  C23  1  0.26669205  0.48096028  0.18360963  1
  N  N24  1  0.87064161  0.11995615  0.29660766  1
  N  N25  1  0.62935839  0.88004385  0.79660766  1
  N  N26  1  0.37064161  0.38004385  0.70339234  1
  N  N27  1  0.12935839  0.61995615  0.20339234  1
  N  N28  1  0.60700078  0.85488906  0.35125315  1
  N  N29  1  0.89299922  0.14511094  0.85125315  1
  N  N30  1  0.10700078  0.64511094  0.64874685  1
  N  N31  1  0.39299922  0.35488906  0.14874685  1
  N  N32  1  0.22880395  0.03586911  0.50305419  1
  N  N33  1  0.27119605  0.96413089  0.00305419  1
  N  N34  1  0.72880395  0.46413089  0.49694581  1
  N  N35  1  0.77119605  0.53586911  0.99694581  1
