# generated using pymatgen
data_LiBH4C2(O3F)2
_symmetry_space_group_name_H-M   'P 1'
_cell_length_a   5.68557510
_cell_length_b   9.63083877
_cell_length_c   13.07942799
_cell_angle_alpha   90.00000000
_cell_angle_beta   90.00000000
_cell_angle_gamma   105.68144788
_symmetry_Int_Tables_number   1
_chemical_formula_structural   LiBH4C2(O3F)2
_chemical_formula_sum   'Li4 B4 H16 C8 O24 F8'
_cell_volume   689.53134806
_cell_formula_units_Z   4
loop_
 _symmetry_equiv_pos_site_id
 _symmetry_equiv_pos_as_xyz
  1  'x, y, z'
loop_
 _atom_site_type_symbol
 _atom_site_label
 _atom_site_symmetry_multiplicity
 _atom_site_fract_x
 _atom_site_fract_y
 _atom_site_fract_z
 _atom_site_occupancy
  Li  Li0  1  0.54804425  0.29764788  0.25139499  1
  Li  Li1  1  0.95195575  0.70235212  0.75139499  1
  Li  Li2  1  0.45195575  0.70235212  0.74860501  1
  Li  Li3  1  0.04804425  0.29764788  0.24860501  1
  B  B4  1  0.48240685  0.82363199  0.38174481  1
  B  B5  1  0.01759315  0.17636801  0.88174481  1
  B  B6  1  0.51759315  0.17636801  0.61825519  1
  B  B7  1  0.98240685  0.82363199  0.11825519  1
  H  H8  1  0.24108431  0.16317846  0.39868433  1
  H  H9  1  0.25891569  0.83682154  0.89868433  1
  H  H10  1  0.75891569  0.83682154  0.60131567  1
  H  H11  1  0.74108431  0.16317846  0.10131567  1
  H  H12  1  0.18268298  0.06224673  0.30187892  1
  H  H13  1  0.31731702  0.93775327  0.80187892  1
  H  H14  1  0.81731702  0.93775327  0.69812108  1
  H  H15  1  0.68268298  0.06224673  0.19812108  1
  H  H16  1  0.32259410  0.39693460  0.09878275  1
  H  H17  1  0.17740590  0.60306540  0.59878275  1
  H  H18  1  0.67740590  0.60306540  0.90121725  1
  H  H19  1  0.82259410  0.39693460  0.40121725  1
  H  H20  1  0.28113423  0.23117643  0.07884525  1
  H  H21  1  0.21886577  0.76882357  0.57884525  1
  H  H22  1  0.71886577  0.76882357  0.92115475  1
  H  H23  1  0.78113423  0.23117643  0.42115475  1
  C  C24  1  0.45498665  0.58559976  0.34120201  1
  C  C25  1  0.04501335  0.41440024  0.84120201  1
  C  C26  1  0.54501335  0.41440024  0.65879799  1
  C  C27  1  0.95498665  0.58559976  0.15879799  1
  C  C28  1  0.66308823  0.63989051  0.41950416  1
  C  C29  1  0.83691177  0.36010949  0.91950416  1
  C  C30  1  0.33691177  0.36010949  0.58049584  1
  C  C31  1  0.16308823  0.63989051  0.08049584  1
  O  O32  1  0.35507356  0.69098582  0.32111282  1
  O  O33  1  0.14492644  0.30901418  0.82111282  1
  O  O34  1  0.64492644  0.30901418  0.67888718  1
  O  O35  1  0.85507356  0.69098582  0.17888718  1
  O  O36  1  0.66719740  0.77361407  0.44584716  1
  O  O37  1  0.83280260  0.22638593  0.94584716  1
  O  O38  1  0.33280260  0.22638593  0.55415284  1
  O  O39  1  0.16719740  0.77361407  0.05415284  1
  O  O40  1  0.39120759  0.46335505  0.30627226  1
  O  O41  1  0.10879241  0.53664495  0.80627226  1
  O  O42  1  0.60879241  0.53664495  0.69372774  1
  O  O43  1  0.89120759  0.46335505  0.19372774  1
  O  O44  1  0.79636845  0.57001446  0.45313193  1
  O  O45  1  0.70363155  0.42998554  0.95313193  1
  O  O46  1  0.20363155  0.42998554  0.54686807  1
  O  O47  1  0.29636845  0.57001446  0.04686807  1
  O  O48  1  0.23116047  0.16287892  0.32403002  1
  O  O49  1  0.26883953  0.83712108  0.82403002  1
  O  O50  1  0.76883953  0.83712108  0.67596998  1
  O  O51  1  0.73116047  0.16287892  0.17596998  1
  O  O52  1  0.30486818  0.30330013  0.13318523  1
  O  O53  1  0.19513182  0.69669987  0.63318523  1
  O  O54  1  0.69513182  0.69669987  0.86681477  1
  O  O55  1  0.80486818  0.30330013  0.36681477  1
  F  F56  1  0.60226513  0.93426997  0.31631315  1
  F  F57  1  0.89773487  0.06573003  0.81631315  1
  F  F58  1  0.39773487  0.06573003  0.68368685  1
  F  F59  1  0.10226513  0.93426997  0.18368685  1
  F  F60  1  0.31654713  0.86574500  0.44487295  1
  F  F61  1  0.18345287  0.13425500  0.94487295  1
  F  F62  1  0.68345287  0.13425500  0.55512705  1
  F  F63  1  0.81654713  0.86574500  0.05512705  1
