# generated using pymatgen
data_RbU(SeO4)2
_symmetry_space_group_name_H-M   'P 1'
_cell_length_a   9.06746179
_cell_length_b   10.02674717
_cell_length_c   10.40619843
_cell_angle_alpha   90.00000000
_cell_angle_beta   90.00000000
_cell_angle_gamma   93.01078678
_symmetry_Int_Tables_number   1
_chemical_formula_structural   RbU(SeO4)2
_chemical_formula_sum   'Rb4 U4 Se8 O32'
_cell_volume   944.79593184
_cell_formula_units_Z   4
loop_
 _symmetry_equiv_pos_site_id
 _symmetry_equiv_pos_as_xyz
  1  'x, y, z'
loop_
 _atom_site_type_symbol
 _atom_site_label
 _atom_site_symmetry_multiplicity
 _atom_site_fract_x
 _atom_site_fract_y
 _atom_site_fract_z
 _atom_site_occupancy
  Rb  Rb0  1  0.28466798  0.55817982  0.43974773  1
  Rb  Rb1  1  0.78466798  0.05817982  0.06025227  1
  Rb  Rb2  1  0.71533202  0.44182018  0.56025227  1
  Rb  Rb3  1  0.21533202  0.94182018  0.93974773  1
  U  U4  1  0.87532129  0.68599214  0.20358502  1
  U  U5  1  0.37532129  0.18599214  0.29641498  1
  U  U6  1  0.12467871  0.31400786  0.79641498  1
  U  U7  1  0.62467871  0.81400786  0.70358502  1
  Se  Se8  1  0.49416067  0.69657775  0.03365564  1
  Se  Se9  1  0.99416067  0.19657775  0.46634436  1
  Se  Se10  1  0.50583933  0.30342225  0.96634436  1
  Se  Se11  1  0.00583933  0.80342225  0.53365564  1
  Se  Se12  1  0.88571640  0.59837607  0.87367333  1
  Se  Se13  1  0.38571640  0.09837607  0.62632667  1
  Se  Se14  1  0.11428360  0.40162393  0.12632667  1
  Se  Se15  1  0.61428360  0.90162393  0.37367333  1
  O  O16  1  0.35480194  0.73568071  0.12856192  1
  O  O17  1  0.85480194  0.23568071  0.37143808  1
  O  O18  1  0.64519806  0.26431929  0.87143808  1
  O  O19  1  0.14519806  0.76431929  0.62856192  1
  O  O20  1  0.65598177  0.76432352  0.09622169  1
  O  O21  1  0.15598177  0.26432352  0.40377831  1
  O  O22  1  0.34401823  0.23567648  0.90377831  1
  O  O23  1  0.84401823  0.73567648  0.59622169  1
  O  O24  1  0.83598837  0.54391580  0.02701135  1
  O  O25  1  0.33598837  0.04391580  0.47298865  1
  O  O26  1  0.16401163  0.45608420  0.97298865  1
  O  O27  1  0.66401163  0.95608420  0.52701135  1
  O  O28  1  0.71224827  0.62389968  0.81044083  1
  O  O29  1  0.21224827  0.12389968  0.68955917  1
  O  O30  1  0.28775173  0.37610032  0.18955917  1
  O  O31  1  0.78775173  0.87610032  0.31044083  1
  O  O32  1  0.07235934  0.54467373  0.20706922  1
  O  O33  1  0.57235934  0.04467373  0.29293078  1
  O  O34  1  0.92764066  0.45532627  0.79293078  1
  O  O35  1  0.42764066  0.95532627  0.70706922  1
  O  O36  1  0.03176256  0.72368519  0.39070766  1
  O  O37  1  0.53176256  0.22368519  0.10929234  1
  O  O38  1  0.96823744  0.27631481  0.60929234  1
  O  O39  1  0.46823744  0.77631481  0.89070766  1
  O  O40  1  0.97874713  0.80541159  0.09977340  1
  O  O41  1  0.47874713  0.30541159  0.40022660  1
  O  O42  1  0.02125287  0.19458841  0.90022660  1
  O  O43  1  0.52125287  0.69458841  0.59977340  1
  O  O44  1  0.75655237  0.57462306  0.30165650  1
  O  O45  1  0.25655237  0.07462306  0.19834350  1
  O  O46  1  0.24344763  0.42537694  0.69834350  1
  O  O47  1  0.74344763  0.92537694  0.80165650  1
