# generated using pymatgen
data_Er4In5S13
_symmetry_space_group_name_H-M   'P 1'
_cell_length_a   3.84725843
_cell_length_b   11.84737030
_cell_length_c   21.49718586
_cell_angle_alpha   90.00000000
_cell_angle_beta   90.00000000
_cell_angle_gamma   90.00000000
_symmetry_Int_Tables_number   1
_chemical_formula_structural   Er4In5S13
_chemical_formula_sum   'Er8 In10 S26'
_cell_volume   979.83947988
_cell_formula_units_Z   2
loop_
 _symmetry_equiv_pos_site_id
 _symmetry_equiv_pos_as_xyz
  1  'x, y, z'
loop_
 _atom_site_type_symbol
 _atom_site_label
 _atom_site_symmetry_multiplicity
 _atom_site_fract_x
 _atom_site_fract_y
 _atom_site_fract_z
 _atom_site_occupancy
  Er  Er0  1  -0.00000000  0.67195157  0.34025819  1
  Er  Er1  1  -0.00000000  0.32804843  0.65974181  1
  Er  Er2  1  -0.00000000  0.82804843  0.84025819  1
  Er  Er3  1  -0.00000000  0.17195157  0.15974181  1
  Er  Er4  1  -0.00000000  0.51467254  0.17194581  1
  Er  Er5  1  0.00000000  0.48532746  0.82805419  1
  Er  Er6  1  0.00000000  0.98532746  0.67194581  1
  Er  Er7  1  -0.00000000  0.01467254  0.32805419  1
  In  In8  1  -0.00000000  0.50000000  0.50000000  1
  In  In9  1  -0.00000000  0.00000000  -0.00000000  1
  In  In10  1  0.50000000  0.84501548  0.49310675  1
  In  In11  1  0.50000000  0.15498452  0.50689325  1
  In  In12  1  0.50000000  0.65498452  0.99310675  1
  In  In13  1  0.50000000  0.34501548  0.00689325  1
  In  In14  1  0.50000000  0.84419424  0.17106604  1
  In  In15  1  0.50000000  0.15580576  0.82893396  1
  In  In16  1  0.50000000  0.65580576  0.67106604  1
  In  In17  1  0.50000000  0.34419424  0.32893396  1
  S  S18  1  0.50000000  0.84836279  0.36523904  1
  S  S19  1  0.50000000  0.15163721  0.63476096  1
  S  S20  1  0.50000000  0.65163721  0.86523904  1
  S  S21  1  0.50000000  0.34836279  0.13476096  1
  S  S22  1  0.50000000  0.57952499  0.26103481  1
  S  S23  1  0.50000000  0.42047501  0.73896519  1
  S  S24  1  0.50000000  0.92047501  0.76103481  1
  S  S25  1  0.50000000  0.07952499  0.23896519  1
  S  S26  1  0.50000000  0.50653393  0.40462500  1
  S  S27  1  0.50000000  0.49346607  0.59537500  1
  S  S28  1  0.50000000  0.99346607  0.90462500  1
  S  S29  1  0.50000000  0.00653393  0.09537500  1
  S  S30  1  -0.00000000  0.70310652  0.47244034  1
  S  S31  1  -0.00000000  0.29689348  0.52755966  1
  S  S32  1  -0.00000000  0.79689348  0.97244034  1
  S  S33  1  -0.00000000  0.20310652  0.02755966  1
  S  S34  1  0.00000000  0.83236057  0.24374887  1
  S  S35  1  0.00000000  0.16763943  0.75625113  1
  S  S36  1  -0.00000000  0.66763943  0.74374887  1
  S  S37  1  -0.00000000  0.33236057  0.25625113  1
  S  S38  1  0.50000000  0.65463804  0.11596176  1
  S  S39  1  0.50000000  0.34536196  0.88403824  1
  S  S40  1  0.50000000  0.84536196  0.61596176  1
  S  S41  1  0.50000000  0.15463804  0.38403824  1
  S  S42  1  -0.00000000  0.00000000  0.50000000  1
  S  S43  1  -0.00000000  0.50000000  -0.00000000  1
