# generated using pymatgen
data_CuH6C2SeCl
_symmetry_space_group_name_H-M   'P 1'
_cell_length_a   6.97783567
_cell_length_b   7.48058917
_cell_length_c   11.66644335
_cell_angle_alpha   98.28363952
_cell_angle_beta   90.00000000
_cell_angle_gamma   90.00000000
_symmetry_Int_Tables_number   1
_chemical_formula_structural   CuH6C2SeCl
_chemical_formula_sum   'Cu4 H24 C8 Se4 Cl4'
_cell_volume   602.61537537
_cell_formula_units_Z   4
loop_
 _symmetry_equiv_pos_site_id
 _symmetry_equiv_pos_as_xyz
  1  'x, y, z'
loop_
 _atom_site_type_symbol
 _atom_site_label
 _atom_site_symmetry_multiplicity
 _atom_site_fract_x
 _atom_site_fract_y
 _atom_site_fract_z
 _atom_site_occupancy
  Cu  Cu0  1  0.54527478  0.99546231  0.87116659  1
  Cu  Cu1  1  0.04527478  0.00453769  0.62883341  1
  Cu  Cu2  1  0.45472522  0.00453769  0.12883341  1
  Cu  Cu3  1  0.95472522  0.99546231  0.37116659  1
  H  H4  1  0.58802970  0.86746188  0.55725861  1
  H  H5  1  0.08802970  0.13253812  0.94274139  1
  H  H6  1  0.41197030  0.13253812  0.44274139  1
  H  H7  1  0.91197030  0.86746188  0.05725861  1
  H  H8  1  0.71041263  0.65528553  0.55460890  1
  H  H9  1  0.21041263  0.34471447  0.94539110  1
  H  H10  1  0.28958737  0.34471447  0.44539110  1
  H  H11  1  0.78958737  0.65528553  0.05460890  1
  H  H12  1  0.49567356  0.70283208  0.64103580  1
  H  H13  1  0.99567356  0.29716792  0.85896420  1
  H  H14  1  0.50432644  0.29716792  0.35896420  1
  H  H15  1  0.00432644  0.70283208  0.14103580  1
  H  H16  1  0.00109233  0.67889512  0.83857588  1
  H  H17  1  0.50109233  0.32110488  0.66142412  1
  H  H18  1  -0.00109233  0.32110488  0.16142412  1
  H  H19  1  0.49890767  0.67889512  0.33857588  1
  H  H20  1  0.92159718  0.55699672  0.70200135  1
  H  H21  1  0.42159718  0.44300328  0.79799865  1
  H  H22  1  0.07840282  0.44300328  0.29799865  1
  H  H23  1  0.57840282  0.55699672  0.20200135  1
  H  H24  1  0.76482256  0.58019704  0.82640864  1
  H  H25  1  0.26482256  0.41980296  0.67359136  1
  H  H26  1  0.23517744  0.41980296  0.17359136  1
  H  H27  1  0.73517744  0.58019704  0.32640864  1
  C  C28  1  0.87861821  0.64292044  0.78146706  1
  C  C29  1  0.37861821  0.35707956  0.71853294  1
  C  C30  1  0.12138179  0.35707956  0.21853294  1
  C  C31  1  0.62138179  0.64292044  0.28146706  1
  C  C32  1  0.62436313  0.75874350  0.60657620  1
  C  C33  1  0.12436313  0.24125650  0.89342380  1
  C  C34  1  0.37563687  0.24125650  0.39342380  1
  C  C35  1  0.87563687  0.75874350  0.10657620  1
  Se  Se36  1  0.78398202  0.87170460  0.73610484  1
  Se  Se37  1  0.28398202  0.12829540  0.76389516  1
  Se  Se38  1  0.21601798  0.12829540  0.26389516  1
  Se  Se39  1  0.71601798  0.87170460  0.23610484  1
  Cl  Cl40  1  0.62664921  0.20913429  0.03079929  1
  Cl  Cl41  1  0.12664921  0.79086571  0.46920071  1
  Cl  Cl42  1  0.37335079  0.79086571  0.96920071  1
  Cl  Cl43  1  0.87335079  0.20913429  0.53079929  1
