# generated using pymatgen
data_SrH4Ir(OF3)2
_symmetry_space_group_name_H-M   'P 1'
_cell_length_a   6.23299130
_cell_length_b   10.17852124
_cell_length_c   11.35716608
_cell_angle_alpha   90.00000000
_cell_angle_beta   98.87945619
_cell_angle_gamma   90.00000000
_symmetry_Int_Tables_number   1
_chemical_formula_structural   SrH4Ir(OF3)2
_chemical_formula_sum   'Sr4 H16 Ir4 O8 F24'
_cell_volume   711.89319869
_cell_formula_units_Z   4
loop_
 _symmetry_equiv_pos_site_id
 _symmetry_equiv_pos_as_xyz
  1  'x, y, z'
loop_
 _atom_site_type_symbol
 _atom_site_label
 _atom_site_symmetry_multiplicity
 _atom_site_fract_x
 _atom_site_fract_y
 _atom_site_fract_z
 _atom_site_occupancy
  Sr  Sr0  1  0.84228921  0.68693292  0.04932604  1
  Sr  Sr1  1  0.34228921  0.81306708  0.54932604  1
  Sr  Sr2  1  0.15771079  0.31306708  0.95067396  1
  Sr  Sr3  1  0.65771079  0.18693292  0.45067396  1
  H  H4  1  0.40208671  0.84686913  0.05471047  1
  H  H5  1  0.90208671  0.65313087  0.55471047  1
  H  H6  1  0.59791329  0.15313087  0.94528953  1
  H  H7  1  0.09791329  0.34686913  0.44528953  1
  H  H8  1  0.25254383  0.62600584  0.92257621  1
  H  H9  1  0.75254383  0.87399416  0.42257621  1
  H  H10  1  0.74745617  0.37399416  0.07742379  1
  H  H11  1  0.24745617  0.12600584  0.57742379  1
  H  H12  1  0.04946666  0.59006033  0.82792875  1
  H  H13  1  0.54946666  0.90993967  0.32792875  1
  H  H14  1  0.95053334  0.40993967  0.17207125  1
  H  H15  1  0.45053334  0.09006033  0.67207125  1
  H  H16  1  0.46416231  0.86607053  0.92745140  1
  H  H17  1  0.96416231  0.63392947  0.42745140  1
  H  H18  1  0.53583769  0.13392947  0.07254860  1
  H  H19  1  0.03583769  0.36607053  0.57254860  1
  Ir  Ir20  1  0.09571173  0.03528845  0.23554258  1
  Ir  Ir21  1  0.59571173  0.46471155  0.73554258  1
  Ir  Ir22  1  0.90428827  0.96471155  0.76445742  1
  Ir  Ir23  1  0.40428827  0.53528845  0.26445742  1
  O  O24  1  0.46444549  0.80145981  0.99137592  1
  O  O25  1  0.96444549  0.69854019  0.49137592  1
  O  O26  1  0.53555451  0.19854019  0.00862408  1
  O  O27  1  0.03555451  0.30145981  0.50862408  1
  O  O28  1  0.11523436  0.57746221  0.91204171  1
  O  O29  1  0.61523436  0.92253779  0.41204171  1
  O  O30  1  0.88476564  0.42253779  0.08795829  1
  O  O31  1  0.38476564  0.07746221  0.58795829  1
  F  F32  1  0.85727670  0.14155121  0.28370273  1
  F  F33  1  0.35727670  0.35844879  0.78370273  1
  F  F34  1  0.14272330  0.85844879  0.71629727  1
  F  F35  1  0.64272330  0.64155121  0.21629727  1
  F  F36  1  0.88128224  0.90917554  0.15977208  1
  F  F37  1  0.38128224  0.59082446  0.65977208  1
  F  F38  1  0.11871776  0.09082446  0.84022792  1
  F  F39  1  0.61871776  0.40917554  0.34022792  1
  F  F40  1  0.34002863  0.93358419  0.18770798  1
  F  F41  1  0.84002863  0.56641581  0.68770798  1
  F  F42  1  0.65997137  0.06641581  0.81229202  1
  F  F43  1  0.15997137  0.43358419  0.31229202  1
  F  F44  1  0.31216527  0.16003594  0.31366414  1
  F  F45  1  0.81216527  0.33996406  0.81366414  1
  F  F46  1  0.68783473  0.83996406  0.68633586  1
  F  F47  1  0.18783473  0.66003594  0.18633586  1
  F  F48  1  0.11270877  0.93384457  0.38449909  1
  F  F49  1  0.61270877  0.56615543  0.88449909  1
  F  F50  1  0.88729123  0.06615543  0.61550091  1
  F  F51  1  0.38729123  0.43384457  0.11550091  1
  F  F52  1  0.07509278  0.14003783  0.08957953  1
  F  F53  1  0.57509278  0.35996217  0.58957953  1
  F  F54  1  0.92490722  0.85996217  0.91042047  1
  F  F55  1  0.42490722  0.64003783  0.41042047  1
