# generated using pymatgen
data_Fe12PbO19
_symmetry_space_group_name_H-M   'P 1'
_cell_length_a   6.01766468
_cell_length_b   6.01766468
_cell_length_c   23.30012557
_cell_angle_alpha   90.00000000
_cell_angle_beta   90.00000000
_cell_angle_gamma   119.95032854
_symmetry_Int_Tables_number   1
_chemical_formula_structural   Fe12PbO19
_chemical_formula_sum   'Fe24 Pb2 O38'
_cell_volume   731.07514316
_cell_formula_units_Z   2
loop_
 _symmetry_equiv_pos_site_id
 _symmetry_equiv_pos_as_xyz
  1  'x, y, z'
loop_
 _atom_site_type_symbol
 _atom_site_label
 _atom_site_symmetry_multiplicity
 _atom_site_fract_x
 _atom_site_fract_y
 _atom_site_fract_z
 _atom_site_occupancy
  Fe  Fe0  1  -0.00000000  -0.00000000  0.50000000  1
  Fe  Fe1  1  -0.00000000  -0.00000000  0.00000000  1
  Fe  Fe2  1  0.00044246  0.99955754  0.75000000  1
  Fe  Fe3  1  0.99955754  0.00044246  0.25000000  1
  Fe  Fe4  1  0.66665983  0.33334017  0.52789528  1
  Fe  Fe5  1  0.33334017  0.66665983  0.47210472  1
  Fe  Fe6  1  0.33334017  0.66665983  0.02789528  1
  Fe  Fe7  1  0.66665983  0.33334017  0.97210472  1
  Fe  Fe8  1  0.66670326  0.33329674  0.69087712  1
  Fe  Fe9  1  0.33329674  0.66670326  0.30912288  1
  Fe  Fe10  1  0.33329674  0.66670326  0.19087712  1
  Fe  Fe11  1  0.66670326  0.33329674  0.80912288  1
  Fe  Fe12  1  0.83239427  0.66431267  0.39033638  1
  Fe  Fe13  1  0.83222884  0.16777116  0.39029730  1
  Fe  Fe14  1  0.33568733  0.16760573  0.39033638  1
  Fe  Fe15  1  0.16760573  0.33568733  0.60966362  1
  Fe  Fe16  1  0.16777116  0.83222884  0.60970270  1
  Fe  Fe17  1  0.66431267  0.83239427  0.60966362  1
  Fe  Fe18  1  0.16760573  0.33568733  0.89033638  1
  Fe  Fe19  1  0.16777116  0.83222884  0.89029730  1
  Fe  Fe20  1  0.66431267  0.83239427  0.89033638  1
  Fe  Fe21  1  0.83239427  0.66431267  0.10966362  1
  Fe  Fe22  1  0.83222884  0.16777116  0.10970270  1
  Fe  Fe23  1  0.33568733  0.16760573  0.10966362  1
  Pb  Pb24  1  0.66317775  0.33682225  0.25000000  1
  Pb  Pb25  1  0.33682225  0.66317775  0.75000000  1
  O  O26  1  -0.00006294  0.00006294  0.65289881  1
  O  O27  1  0.00006294  -0.00006294  0.34710119  1
  O  O28  1  0.00006294  -0.00006294  0.15289881  1
  O  O29  1  -0.00006294  0.00006294  0.84710119  1
  O  O30  1  0.66681539  0.33318461  0.44491617  1
  O  O31  1  0.33318461  0.66681539  0.55508383  1
  O  O32  1  0.33318461  0.66681539  0.94491617  1
  O  O33  1  0.66681539  0.33318461  0.05508383  1
  O  O34  1  0.81412524  0.63252903  0.75000000  1
  O  O35  1  0.81650467  0.18349533  0.75000000  1
  O  O36  1  0.36747097  0.18587476  0.75000000  1
  O  O37  1  0.18587476  0.36747097  0.25000000  1
  O  O38  1  0.18349533  0.81650467  0.25000000  1
  O  O39  1  0.63252903  0.81412524  0.25000000  1
  O  O40  1  0.84460674  0.68957419  0.55341878  1
  O  O41  1  0.84486143  0.15513857  0.55345838  1
  O  O42  1  0.31042581  0.15539326  0.55341878  1
  O  O43  1  0.15539326  0.31042581  0.44658122  1
  O  O44  1  0.15513857  0.84486143  0.44654162  1
  O  O45  1  0.68957419  0.84460674  0.44658122  1
  O  O46  1  0.15539326  0.31042581  0.05341878  1
  O  O47  1  0.15513857  0.84486143  0.05345838  1
  O  O48  1  0.68957419  0.84460674  0.05341878  1
  O  O49  1  0.84460674  0.68957419  0.94658122  1
  O  O50  1  0.84486143  0.15513857  0.94654162  1
  O  O51  1  0.31042581  0.15539326  0.94658122  1
  O  O52  1  0.49386758  0.50613242  0.65113199  1
  O  O53  1  0.01193764  0.50606598  0.65113396  1
  O  O54  1  0.49393402  0.98806236  0.65113396  1
  O  O55  1  0.50613242  0.49386758  0.34886801  1
  O  O56  1  0.98806236  0.49393402  0.34886604  1
  O  O57  1  0.50606598  0.01193764  0.34886604  1
  O  O58  1  0.50613242  0.49386758  0.15113199  1
  O  O59  1  0.98806236  0.49393402  0.15113396  1
  O  O60  1  0.50606598  0.01193764  0.15113396  1
  O  O61  1  0.49386758  0.50613242  0.84886801  1
  O  O62  1  0.01193764  0.50606598  0.84886604  1
  O  O63  1  0.49393402  0.98806236  0.84886604  1
