# generated using pymatgen
data_KTbP2H4O9
_symmetry_space_group_name_H-M   'P 1'
_cell_length_a   7.71400928
_cell_length_b   10.34691713
_cell_length_c   10.83220101
_cell_angle_alpha   90.00000000
_cell_angle_beta   90.00000000
_cell_angle_gamma   92.00731447
_symmetry_Int_Tables_number   1
_chemical_formula_structural   KTbP2H4O9
_chemical_formula_sum   'K4 Tb4 P8 H16 O36'
_cell_volume   864.05474180
_cell_formula_units_Z   4
loop_
 _symmetry_equiv_pos_site_id
 _symmetry_equiv_pos_as_xyz
  1  'x, y, z'
loop_
 _atom_site_type_symbol
 _atom_site_label
 _atom_site_symmetry_multiplicity
 _atom_site_fract_x
 _atom_site_fract_y
 _atom_site_fract_z
 _atom_site_occupancy
  K  K0  1  0.74056783  0.36442694  0.79139166  1
  K  K1  1  0.25943217  0.13557306  0.29139166  1
  K  K2  1  0.25943217  0.63557306  0.20860834  1
  K  K3  1  0.74056783  0.86442694  0.70860834  1
  Tb  Tb4  1  0.24911503  0.33431861  0.87573688  1
  Tb  Tb5  1  0.75088497  0.16568139  0.37573688  1
  Tb  Tb6  1  0.75088497  0.66568139  0.12426312  1
  Tb  Tb7  1  0.24911503  0.83431861  0.62426312  1
  P  P8  1  0.40062704  0.16299919  0.60607106  1
  P  P9  1  0.59937296  0.33700081  0.10607106  1
  P  P10  1  0.59937296  0.83700081  0.39392894  1
  P  P11  1  0.40062704  0.66299919  0.89392894  1
  P  P12  1  0.03233787  0.13233993  0.64686340  1
  P  P13  1  0.96766213  0.36766007  0.14686340  1
  P  P14  1  0.96766213  0.86766007  0.35313660  1
  P  P15  1  0.03233787  0.63233993  0.85313660  1
  H  H16  1  0.55869174  0.60445855  0.67768499  1
  H  H17  1  0.44130826  0.89554145  0.17768499  1
  H  H18  1  0.44130826  0.39554145  0.32231501  1
  H  H19  1  0.55869174  0.10445855  0.82231501  1
  H  H20  1  0.70699865  0.61473053  0.58034683  1
  H  H21  1  0.29300135  0.88526947  0.08034683  1
  H  H22  1  0.29300135  0.38526947  0.41965317  1
  H  H23  1  0.70699865  0.11473053  0.91965317  1
  H  H24  1  0.33014285  0.05610977  0.94321057  1
  H  H25  1  0.66985715  0.44389023  0.44321057  1
  H  H26  1  0.66985715  0.94389023  0.05678943  1
  H  H27  1  0.33014285  0.55610977  0.55678943  1
  H  H28  1  0.18338542  0.09290381  0.02938709  1
  H  H29  1  0.81661458  0.40709619  0.52938709  1
  H  H30  1  0.81661458  0.90709619  0.97061291  1
  H  H31  1  0.18338542  0.59290381  0.47061291  1
  O  O32  1  0.42194098  0.02152069  0.64132597  1
  O  O33  1  0.57805902  0.47847931  0.14132597  1
  O  O34  1  0.57805902  0.97847931  0.35867403  1
  O  O35  1  0.42194098  0.52152069  0.85867403  1
  O  O36  1  0.50383872  0.20987550  0.49386867  1
  O  O37  1  0.49616128  0.29012450  0.99386867  1
  O  O38  1  0.49616128  0.79012450  0.50613133  1
  O  O39  1  0.50383872  0.70987550  0.00613133  1
  O  O40  1  0.42362224  0.25108392  0.72033111  1
  O  O41  1  0.57637776  0.24891608  0.22033111  1
  O  O42  1  0.57637776  0.74891608  0.27966889  1
  O  O43  1  0.42362224  0.75108392  0.77966889  1
  O  O44  1  0.19891789  0.17631192  0.55805415  1
  O  O45  1  0.80108211  0.32368808  0.05805415  1
  O  O46  1  0.80108211  0.82368808  0.44194585  1
  O  O47  1  0.19891789  0.67631192  0.94194585  1
  O  O48  1  0.05523450  0.99036385  0.67944252  1
  O  O49  1  0.94476550  0.50963615  0.17944252  1
  O  O50  1  0.94476550  0.00963615  0.32055748  1
  O  O51  1  0.05523450  0.49036385  0.82055748  1
  O  O52  1  0.87331638  0.15227647  0.56555511  1
  O  O53  1  0.12668362  0.34772353  0.06555511  1
  O  O54  1  0.12668362  0.84772353  0.43444489  1
  O  O55  1  0.87331638  0.65227647  0.93444489  1
  O  O56  1  0.03812471  0.22478929  0.75688568  1
  O  O57  1  0.96187529  0.27521071  0.25688568  1
  O  O58  1  0.96187529  0.77521071  0.24311432  1
  O  O59  1  0.03812471  0.72478929  0.74311432  1
  O  O60  1  0.64113793  0.55262215  0.63091565  1
  O  O61  1  0.35886207  0.94737785  0.13091565  1
  O  O62  1  0.35886207  0.44737785  0.36908435  1
  O  O63  1  0.64113793  0.05262215  0.86908435  1
  O  O64  1  0.21851840  0.09802302  0.94330921  1
  O  O65  1  0.78148160  0.40197698  0.44330921  1
  O  O66  1  0.78148160  0.90197698  0.05669079  1
  O  O67  1  0.21851840  0.59802302  0.55669079  1
