# generated using pymatgen
data_HoMnSn2
_symmetry_space_group_name_H-M   'P 1'
_cell_length_a   9.00240561
_cell_length_b   10.41484897
_cell_length_c   11.40256207
_cell_angle_alpha   90.00000000
_cell_angle_beta   90.00000000
_cell_angle_gamma   90.00000000
_symmetry_Int_Tables_number   1
_chemical_formula_structural   HoMnSn2
_chemical_formula_sum   'Ho12 Mn12 Sn24'
_cell_volume   1069.08933700
_cell_formula_units_Z   12
loop_
 _symmetry_equiv_pos_site_id
 _symmetry_equiv_pos_as_xyz
  1  'x, y, z'
loop_
 _atom_site_type_symbol
 _atom_site_label
 _atom_site_symmetry_multiplicity
 _atom_site_fract_x
 _atom_site_fract_y
 _atom_site_fract_z
 _atom_site_occupancy
  Ho  Ho0  1  0.24224391  0.82859301  0.45232606  1
  Ho  Ho1  1  0.24224391  0.17140699  0.54767394  1
  Ho  Ho2  1  0.75775609  0.32859301  0.04767394  1
  Ho  Ho3  1  0.75775609  0.67140699  0.95232606  1
  Ho  Ho4  1  0.75775609  0.17140699  0.54767394  1
  Ho  Ho5  1  0.75775609  0.82859301  0.45232606  1
  Ho  Ho6  1  0.24224391  0.67140699  0.95232606  1
  Ho  Ho7  1  0.24224391  0.32859301  0.04767394  1
  Ho  Ho8  1  0.00000000  0.83606194  0.17924682  1
  Ho  Ho9  1  0.00000000  0.16393806  0.82075318  1
  Ho  Ho10  1  0.00000000  0.33606194  0.32075318  1
  Ho  Ho11  1  0.00000000  0.66393806  0.67924682  1
  Mn  Mn12  1  0.24833668  0.58864466  0.25225994  1
  Mn  Mn13  1  0.24833668  0.41135534  0.74774006  1
  Mn  Mn14  1  0.75166332  0.08864466  0.24774006  1
  Mn  Mn15  1  0.75166332  0.91135534  0.75225994  1
  Mn  Mn16  1  0.75166332  0.41135534  0.74774006  1
  Mn  Mn17  1  0.75166332  0.58864466  0.25225994  1
  Mn  Mn18  1  0.24833668  0.91135534  0.75225994  1
  Mn  Mn19  1  0.24833668  0.08864466  0.24774006  1
  Mn  Mn20  1  0.24326092  0.50000000  0.50000000  1
  Mn  Mn21  1  0.75673908  0.00000000  -0.00000000  1
  Mn  Mn22  1  0.75673908  0.50000000  0.50000000  1
  Mn  Mn23  1  0.24326092  0.00000000  -0.00000000  1
  Sn  Sn24  1  0.33800519  0.83808614  0.18102225  1
  Sn  Sn25  1  0.33800519  0.16191386  0.81897775  1
  Sn  Sn26  1  0.66199481  0.33808614  0.31897775  1
  Sn  Sn27  1  0.66199481  0.66191386  0.68102225  1
  Sn  Sn28  1  0.66199481  0.16191386  0.81897775  1
  Sn  Sn29  1  0.66199481  0.83808614  0.18102225  1
  Sn  Sn30  1  0.33800519  0.66191386  0.68102225  1
  Sn  Sn31  1  0.33800519  0.33808614  0.31897775  1
  Sn  Sn32  1  0.50000000  0.54324480  0.12379469  1
  Sn  Sn33  1  0.50000000  0.45675520  0.87620531  1
  Sn  Sn34  1  0.50000000  0.04324480  0.37620531  1
  Sn  Sn35  1  0.50000000  0.95675520  0.62379469  1
  Sn  Sn36  1  0.00000000  0.54166934  0.12226714  1
  Sn  Sn37  1  0.00000000  0.45833066  0.87773286  1
  Sn  Sn38  1  0.00000000  0.04166934  0.37773286  1
  Sn  Sn39  1  0.00000000  0.95833066  0.62226714  1
  Sn  Sn40  1  0.50000000  0.62600722  0.40527451  1
  Sn  Sn41  1  0.50000000  0.37399278  0.59472549  1
  Sn  Sn42  1  0.50000000  0.12600722  0.09472549  1
  Sn  Sn43  1  0.50000000  0.87399278  0.90527451  1
  Sn  Sn44  1  0.00000000  0.62899652  0.39795555  1
  Sn  Sn45  1  0.00000000  0.37100348  0.60204445  1
  Sn  Sn46  1  0.00000000  0.12899652  0.10204445  1
  Sn  Sn47  1  0.00000000  0.87100348  0.89795555  1
