# generated using pymatgen
data_Ca2TiWO6
_symmetry_space_group_name_H-M   'P 1'
_cell_length_a   5.67657349
_cell_length_b   5.74858854
_cell_length_c   7.94578554
_cell_angle_alpha   89.06312490
_cell_angle_beta   135.08567866
_cell_angle_gamma   121.38400565
_symmetry_Int_Tables_number   1
_chemical_formula_structural   Ca2TiWO6
_chemical_formula_sum   'Ca2 Ti1 W1 O6'
_cell_volume   126.78538290
_cell_formula_units_Z   1
loop_
 _symmetry_equiv_pos_site_id
 _symmetry_equiv_pos_as_xyz
  1  'x, y, z'
loop_
 _atom_site_type_symbol
 _atom_site_label
 _atom_site_symmetry_multiplicity
 _atom_site_fract_x
 _atom_site_fract_y
 _atom_site_fract_z
 _atom_site_occupancy
  Ca  Ca0  1  0.00845899  0.53608185  0.25631297  1
  Ca  Ca1  1  0.99435846  0.52444301  0.74990775  1
  Ti  Ti2  1  0.00148198  0.98435270  0.50199398  1
  W  W3  1  0.00069499  0.98156715  0.00153990  1
  O  O4  1  0.00253030  0.97599714  0.25797432  1
  O  O5  1  0.99783853  0.95177026  0.74568047  1
  O  O6  1  0.51883604  0.48785079  0.25729481  1
  O  O7  1  0.47897546  0.96784346  0.73648465  1
  O  O8  1  0.49560081  0.95918652  0.25304766  1
  O  O9  1  0.51065843  0.46649813  0.76008749  1
