# generated using pymatgen
data_MnV5H20NO22
_symmetry_space_group_name_H-M   'P 1'
_cell_length_a   9.10086082
_cell_length_b   10.97450676
_cell_length_c   11.59640687
_cell_angle_alpha   64.99481672
_cell_angle_beta   71.70589138
_cell_angle_gamma   72.58705705
_symmetry_Int_Tables_number   1
_chemical_formula_structural   MnV5H20NO22
_chemical_formula_sum   'Mn2 V10 H40 N2 O44'
_cell_volume   977.75478965
_cell_formula_units_Z   2
loop_
 _symmetry_equiv_pos_site_id
 _symmetry_equiv_pos_as_xyz
  1  'x, y, z'
loop_
 _atom_site_type_symbol
 _atom_site_label
 _atom_site_symmetry_multiplicity
 _atom_site_fract_x
 _atom_site_fract_y
 _atom_site_fract_z
 _atom_site_occupancy
  Mn  Mn0  1  0.79286195  0.73111624  0.77898011  1
  Mn  Mn1  1  0.20713805  0.26888376  0.22101989  1
  V  V2  1  0.33183087  0.48350423  0.48843592  1
  V  V3  1  0.66816913  0.51649577  0.51156408  1
  V  V4  1  0.61734584  0.22345549  0.55043858  1
  V  V5  1  0.38265416  0.77654451  0.44956142  1
  V  V6  1  0.65169439  0.44935489  0.27422411  1
  V  V7  1  0.34830561  0.55064511  0.72577589  1
  V  V8  1  0.31005839  0.25764907  0.76494950  1
  V  V9  1  0.68994161  0.74235093  0.23505050  1
  V  V10  1  0.37097978  0.70833947  0.21134841  1
  V  V11  1  0.62902022  0.29166053  0.78865159  1
  H  H12  1  0.19425677  0.92980833  0.82685228  1
  H  H13  1  0.80574323  0.07019167  0.17314772  1
  H  H14  1  0.38189465  0.83324455  0.82457834  1
  H  H15  1  0.61810535  0.16675545  0.17542166  1
  H  H16  1  0.35950011  0.00055031  0.73192784  1
  H  H17  1  0.64049989  0.99944969  0.26807216  1
  H  H18  1  0.30356092  0.89084936  0.69468003  1
  H  H19  1  0.69643908  0.10915064  0.30531997  1
  H  H20  1  0.91784464  0.75930250  0.40036196  1
  H  H21  1  0.08215536  0.24069750  0.59963804  1
  H  H22  1  0.65010058  0.98691762  0.81668540  1
  H  H23  1  0.34989942  0.01308238  0.18331460  1
  H  H24  1  0.60474815  0.87007219  0.95365085  1
  H  H25  1  0.39525185  0.12992781  0.04634915  1
  H  H26  1  0.68966170  0.91215293  0.55429617  1
  H  H27  1  0.31033830  0.08784707  0.44570383  1
  H  H28  1  0.62551353  0.77729008  0.58772077  1
  H  H29  1  0.37448647  0.22270992  0.41227923  1
  H  H30  1  0.58375812  0.54489416  0.86832691  1
  H  H31  1  0.41624188  0.45510584  0.13167309  1
  H  H32  1  0.58962815  0.57202924  0.99249727  1
  H  H33  1  0.41037185  0.42797076  0.00750273  1
  H  H34  1  0.91186261  0.97314324  0.60730118  1
  H  H35  1  0.08813739  0.02685676  0.39269882  1
  H  H36  1  0.88109197  0.50232017  0.69266946  1
  H  H37  1  0.11890803  0.49767983  0.30733054  1
  H  H38  1  0.88857126  0.63527633  0.02358830  1
  H  H39  1  0.11142874  0.36472367  0.97641170  1
  H  H40  1  0.04100359  0.95132928  0.14929949  1
  H  H41  1  0.95899641  0.04867072  0.85070051  1
  H  H42  1  0.06604241  0.86543936  0.63764762  1
  H  H43  1  0.93395759  0.13456064  0.36235238  1
  H  H44  1  0.02847249  0.50566328  0.73706731  1
  H  H45  1  0.97152751  0.49433672  0.26293269  1
  H  H46  1  0.03522960  0.66949994  0.90122631  1
  H  H47  1  0.96477040  0.33050006  0.09877369  1
  H  H48  1  0.06141122  0.82502656  0.36900102  1
  H  H49  1  0.93858878  0.17497344  0.63099898  1
  H  H50  1  0.05743949  0.07854442  0.01751312  1
  H  H51  1  0.94256051  0.92145558  0.98248688  1
  N  N52  1  0.31004792  0.91389575  0.77004648  1
  N  N53  1  0.68995208  0.08610425  0.22995352  1
  O  O54  1  0.48463968  0.40443191  0.61810301  1
  O  O55  1  0.51536032  0.59556809  0.38189699  1
  O  O56  1  0.48509948  0.34878782  0.41753496  1
  O  O57  1  0.51490052  0.65121218  0.58246504  1
  O  O58  1  0.50317412  0.54877075  0.17316664  1
  O  O59  1  0.49682588  0.45122925  0.82683336  1
  O  O60  1  0.75547954  0.33236363  0.21138882  1
  O  O61  1  0.24452046  0.66763637  0.78861118  1
  O  O62  1  0.21516187  0.36927676  0.60355315  1
  O  O63  1  0.78483813  0.63072324  0.39644685  1
  O  O64  1  0.77888799  0.57886182  0.19736563  1
  O  O65  1  0.22111201  0.42113818  0.80263437  1
  O  O66  1  0.26402284  0.62315433  0.56185832  1
  O  O67  1  0.73597716  0.37684567  0.43814168  1
  O  O68  1  0.24459693  0.57215403  0.35345886  1
  O  O69  1  0.75540307  0.42784597  0.64654114  1
  O  O70  1  0.44335081  0.15519534  0.66064197  1
  O  O71  1  0.55664919  0.84480466  0.33935803  1
  O  O72  1  0.17960922  0.16266882  0.85881266  1
  O  O73  1  0.82039078  0.83733118  0.14118734  1
  O  O74  1  0.54327660  0.79606653  0.13358055  1
  O  O75  1  0.45672340  0.20393347  0.86641945  1
  O  O76  1  0.71749690  0.10550422  0.48426360  1
  O  O77  1  0.28250310  0.89449578  0.51573640  1
  O  O78  1  0.71573642  0.18224330  0.68242191  1
  O  O79  1  0.28426358  0.81775670  0.31757809  1
  O  O80  1  0.26361365  0.77860415  0.10265614  1
  O  O81  1  0.73638635  0.22139585  0.89734386  1
  O  O82  1  0.63398161  0.89205547  0.85828335  1
  O  O83  1  0.36601839  0.10794453  0.14171665  1
  O  O84  1  0.92574986  0.65570578  0.92902715  1
  O  O85  1  0.07425014  0.34429422  0.07097285  1
  O  O86  1  0.65247518  0.83138012  0.62518416  1
  O  O87  1  0.34752482  0.16861988  0.37481584  1
  O  O88  1  0.60866074  0.60912284  0.89640054  1
  O  O89  1  0.39133926  0.39087716  0.10359946  1
  O  O90  1  0.95188933  0.87605991  0.64945160  1
  O  O91  1  0.04811067  0.12394009  0.35054840  1
  O  O92  1  0.92531979  0.55795835  0.71645997  1
  O  O93  1  0.07468021  0.44204165  0.28354003  1
  O  O94  1  0.99916403  0.04877075  0.10866774  1
  O  O95  1  0.00083597  0.95122925  0.89133226  1
  O  O96  1  0.94743981  0.84753807  0.37266507  1
  O  O97  1  0.05256019  0.15246193  0.62733493  1
