# generated using pymatgen
data_P3Pb5O13
_symmetry_space_group_name_H-M   'P 1'
_cell_length_a   7.32663404
_cell_length_b   9.91904028
_cell_length_c   9.90118301
_cell_angle_alpha   120.11540779
_cell_angle_beta   90.00000000
_cell_angle_gamma   90.00000000
_symmetry_Int_Tables_number   1
_chemical_formula_structural   P3Pb5O13
_chemical_formula_sum   'P6 Pb10 O26'
_cell_volume   622.42301850
_cell_formula_units_Z   2
loop_
 _symmetry_equiv_pos_site_id
 _symmetry_equiv_pos_as_xyz
  1  'x, y, z'
loop_
 _atom_site_type_symbol
 _atom_site_label
 _atom_site_symmetry_multiplicity
 _atom_site_fract_x
 _atom_site_fract_y
 _atom_site_fract_z
 _atom_site_occupancy
  P  P0  1  0.75000000  0.38384763  0.97880950  1
  P  P1  1  0.75000000  0.02080829  0.40395238  1
  P  P2  1  0.75000000  0.59687539  0.61699127  1
  P  P3  1  0.25000000  0.61615237  0.02119050  1
  P  P4  1  0.25000000  0.97919171  0.59604762  1
  P  P5  1  0.25000000  0.40312461  0.38300873  1
  Pb  Pb6  1  0.99889143  0.66650932  0.33291814  1
  Pb  Pb7  1  0.49889143  0.33349068  0.66708186  1
  Pb  Pb8  1  0.00110857  0.33349068  0.66708186  1
  Pb  Pb9  1  0.50110857  0.66650932  0.33291814  1
  Pb  Pb10  1  0.75000000  0.01394377  0.78142962  1
  Pb  Pb11  1  0.75000000  0.22136994  0.23318288  1
  Pb  Pb12  1  0.75000000  0.77085031  0.99007263  1
  Pb  Pb13  1  0.25000000  0.98605623  0.21857038  1
  Pb  Pb14  1  0.25000000  0.77863006  0.76681712  1
  Pb  Pb15  1  0.25000000  0.22914969  0.00992737  1
  O  O16  1  0.75000000  0.48625346  0.15906095  1
  O  O17  1  0.75000000  0.84046734  0.32704774  1
  O  O18  1  0.75000000  0.67234619  0.51244596  1
  O  O19  1  0.25000000  0.51374654  0.84093905  1
  O  O20  1  0.25000000  0.15953266  0.67295226  1
  O  O21  1  0.25000000  0.32765381  0.48755404  1
  O  O22  1  0.75000000  0.48656817  0.89974649  1
  O  O23  1  0.75000000  0.10089652  0.58643095  1
  O  O24  1  0.75000000  0.41484629  0.51478406  1
  O  O25  1  0.25000000  0.51343183  0.10025351  1
  O  O26  1  0.25000000  0.89910348  0.41356905  1
  O  O27  1  0.25000000  0.58515371  0.48521594  1
  O  O28  1  0.57982600  0.27451191  0.92051636  1
  O  O29  1  0.57995215  0.07770004  0.35176552  1
  O  O30  1  0.57989487  0.64933316  0.72648039  1
  O  O31  1  0.07982600  0.72548809  0.07948364  1
  O  O32  1  0.07995215  0.92229996  0.64823448  1
  O  O33  1  0.07989487  0.35066684  0.27351961  1
  O  O34  1  0.42017400  0.72548809  0.07948364  1
  O  O35  1  0.42004785  0.92229996  0.64823448  1
  O  O36  1  0.42010513  0.35066684  0.27351961  1
  O  O37  1  0.92017400  0.27451191  0.92051636  1
  O  O38  1  0.92004785  0.07770004  0.35176552  1
  O  O39  1  0.92010513  0.64933316  0.72648039  1
  O  O40  1  0.50000000  -0.00000000  0.00000000  1
  O  O41  1  -0.00000000  -0.00000000  0.00000000  1
