# generated using pymatgen
data_NdH16N7O19
_symmetry_space_group_name_H-M   'P 1'
_cell_length_a   7.22948031
_cell_length_b   7.22948031
_cell_length_c   18.13094393
_cell_angle_alpha   80.92022410
_cell_angle_beta   80.92022410
_cell_angle_gamma   77.96380830
_symmetry_Int_Tables_number   1
_chemical_formula_structural   NdH16N7O19
_chemical_formula_sum   'Nd2 H32 N14 O38'
_cell_volume   907.48933365
_cell_formula_units_Z   2
loop_
 _symmetry_equiv_pos_site_id
 _symmetry_equiv_pos_as_xyz
  1  'x, y, z'
loop_
 _atom_site_type_symbol
 _atom_site_label
 _atom_site_symmetry_multiplicity
 _atom_site_fract_x
 _atom_site_fract_y
 _atom_site_fract_z
 _atom_site_occupancy
  Nd  Nd0  1  0.02097839  0.13730201  0.57509859  1
  Nd  Nd1  1  0.13730201  0.02097839  0.07509859  1
  H  H2  1  0.71676021  0.87222842  0.58551441  1
  H  H3  1  0.87222842  0.71676021  0.08551441  1
  H  H4  1  0.87483358  0.74624952  0.62855206  1
  H  H5  1  0.74624952  0.87483358  0.12855206  1
  H  H6  1  0.23905056  0.49182091  0.54795779  1
  H  H7  1  0.49182091  0.23905056  0.04795779  1
  H  H8  1  0.39710388  0.31239706  0.53149074  1
  H  H9  1  0.31239706  0.39710388  0.03149074  1
  H  H10  1  0.16699130  0.62336305  0.73706270  1
  H  H11  1  0.62336305  0.16699130  0.23706270  1
  H  H12  1  0.15871063  0.40368738  0.74117461  1
  H  H13  1  0.40368738  0.15871063  0.24117461  1
  H  H14  1  0.52842354  0.85221139  0.79417503  1
  H  H15  1  0.85221139  0.52842354  0.29417503  1
  H  H16  1  0.68426002  0.91253853  0.72949543  1
  H  H17  1  0.91253853  0.68426002  0.22949543  1
  H  H18  1  0.15576981  0.55072166  0.31504703  1
  H  H19  1  0.55072166  0.15576981  0.81504703  1
  H  H20  1  0.36296701  0.38193380  0.31159277  1
  H  H21  1  0.38193380  0.36296701  0.81159277  1
  H  H22  1  0.31365785  0.53548640  0.37645861  1
  H  H23  1  0.53548640  0.31365785  0.87645861  1
  H  H24  1  0.18483076  0.36604383  0.38340728  1
  H  H25  1  0.36604383  0.18483076  0.88340728  1
  H  H26  1  0.57495213  0.98678830  0.35450001  1
  H  H27  1  0.98678830  0.57495213  0.85450001  1
  H  H28  1  0.76416620  0.94760525  0.40496828  1
  H  H29  1  0.94760525  0.76416620  0.90496828  1
  H  H30  1  0.75839881  0.79900924  0.34241168  1
  H  H31  1  0.79900924  0.75839881  0.84241168  1
  H  H32  1  0.60857519  0.79948854  0.42424130  1
  H  H33  1  0.79948854  0.60857519  0.92424130  1
  N  N34  1  0.25500144  0.45930351  0.34626947  1
  N  N35  1  0.45930351  0.25500144  0.84626947  1
  N  N36  1  0.67436135  0.88493115  0.38176724  1
  N  N37  1  0.88493115  0.67436135  0.88176724  1
  N  N38  1  0.76205342  0.41296194  0.67465868  1
  N  N39  1  0.41296194  0.76205342  0.17465868  1
  N  N40  1  0.73834296  0.36765133  0.46505853  1
  N  N41  1  0.36765133  0.73834296  0.96505853  1
  N  N42  1  0.13570883  0.96394382  0.42382731  1
  N  N43  1  0.96394382  0.13570883  0.92382731  1
  N  N44  1  0.38050715  0.79888186  0.56499511  1
  N  N45  1  0.79888186  0.38050715  0.06499511  1
  N  N46  1  0.15382297  0.01549969  0.73377526  1
  N  N47  1  0.01549969  0.15382297  0.23377526  1
  O  O48  1  0.81409141  0.88051497  0.61637545  1
  O  O49  1  0.88051497  0.81409141  0.11637545  1
  O  O50  1  0.25766387  0.35971904  0.53664180  1
  O  O51  1  0.35971904  0.25766387  0.03664180  1
  O  O52  1  0.74349569  0.23949298  0.67885365  1
  O  O53  1  0.23949298  0.74349569  0.17885365  1
  O  O54  1  0.89273450  0.46695985  0.62320697  1
  O  O55  1  0.46695985  0.89273450  0.12320697  1
  O  O56  1  0.66302058  0.52330655  0.71714294  1
  O  O57  1  0.52330655  0.66302058  0.21714294  1
  O  O58  1  0.67189506  0.25819504  0.52118749  1
  O  O59  1  0.25819504  0.67189506  0.02118749  1
  O  O60  1  0.91113549  0.38730090  0.46323884  1
  O  O61  1  0.38730090  0.91113549  0.96323884  1
  O  O62  1  0.64071075  0.45067602  0.41464994  1
  O  O63  1  0.45067602  0.64071075  0.91464994  1
  O  O64  1  0.96555858  0.97360464  0.45848580  1
  O  O65  1  0.97360464  0.96555858  0.95848580  1
  O  O66  1  0.23986176  0.06266506  0.44580189  1
  O  O67  1  0.06266506  0.23986176  0.94580189  1
  O  O68  1  0.19743686  0.86311933  0.37266919  1
  O  O69  1  0.86311933  0.19743686  0.87266919  1
  O  O70  1  0.22252096  0.74634687  0.56532902  1
  O  O71  1  0.74634687  0.22252096  0.06532902  1
  O  O72  1  0.37416962  0.96426257  0.58308420  1
  O  O73  1  0.96426257  0.37416962  0.08308420  1
  O  O74  1  0.53741876  0.69548255  0.54648589  1
  O  O75  1  0.69548255  0.53741876  0.04648589  1
  O  O76  1  0.08362053  0.89831864  0.70549070  1
  O  O77  1  0.89831864  0.08362053  0.20549070  1
  O  O78  1  0.15153784  0.18130366  0.69564029  1
  O  O79  1  0.18130366  0.15153784  0.19564029  1
  O  O80  1  0.22162341  0.97156653  0.79428439  1
  O  O81  1  0.97156653  0.22162341  0.29428439  1
  O  O82  1  0.17442643  0.50177115  0.77053953  1
  O  O83  1  0.50177115  0.17442643  0.27053953  1
  O  O84  1  0.64460573  0.90644925  0.78407213  1
  O  O85  1  0.90644925  0.64460573  0.28407213  1
