# generated using pymatgen
data_NiH20PdC4(NO3)4
_symmetry_space_group_name_H-M   'P 1'
_cell_length_a   7.45101909
_cell_length_b   7.19067745
_cell_length_c   9.12756241
_cell_angle_alpha   113.19733220
_cell_angle_beta   114.08932517
_cell_angle_gamma   90.00000000
_symmetry_Int_Tables_number   1
_chemical_formula_structural   NiH20PdC4(NO3)4
_chemical_formula_sum   'Ni1 H20 Pd1 C4 N4 O12'
_cell_volume   402.74925474
_cell_formula_units_Z   1
loop_
 _symmetry_equiv_pos_site_id
 _symmetry_equiv_pos_as_xyz
  1  'x, y, z'
loop_
 _atom_site_type_symbol
 _atom_site_label
 _atom_site_symmetry_multiplicity
 _atom_site_fract_x
 _atom_site_fract_y
 _atom_site_fract_z
 _atom_site_occupancy
  Ni  Ni0  1  -0.00000000  0.50000000  -0.00000000  1
  H  H1  1  0.87281901  0.96918407  0.16798189  1
  H  H2  1  0.29516288  0.19879782  0.16798189  1
  H  H3  1  0.70483712  0.03081593  0.83201811  1
  H  H4  1  0.12718099  0.80120218  0.83201811  1
  H  H5  1  0.87318873  0.21170652  0.20087579  1
  H  H6  1  0.32768706  0.98916927  0.20087579  1
  H  H7  1  0.67231294  0.78829348  0.79912421  1
  H  H8  1  0.12681127  0.01083073  0.79912421  1
  H  H9  1  0.79768464  0.12023148  0.31358181  1
  H  H10  1  0.51589717  0.19335033  0.31358181  1
  H  H11  1  0.48410283  0.87976852  0.68641819  1
  H  H12  1  0.20231536  0.80664967  0.68641819  1
  H  H13  1  0.69275887  0.79504608  0.37097096  1
  H  H14  1  0.67821209  0.57592487  0.37097096  1
  H  H15  1  0.32178791  0.20495392  0.62902904  1
  H  H16  1  0.30724113  0.42407513  0.62902904  1
  H  H17  1  0.70183378  0.55116510  0.10854390  1
  H  H18  1  0.40671012  0.55737880  0.10854390  1
  H  H19  1  0.59328988  0.44883490  0.89145610  1
  H  H20  1  0.29816622  0.44262120  0.89145610  1
  Pd  Pd21  1  0.50000000  -0.00000000  -0.00000000  1
  C  C22  1  0.81143038  0.42833731  0.63884479  1
  C  C23  1  0.82741441  0.21050748  0.63884479  1
  C  C24  1  0.17258559  0.57166269  0.36115521  1
  C  C25  1  0.18856962  0.78949252  0.36115521  1
  N  N26  1  0.79483119  0.08670868  0.19164556  1
  N  N27  1  0.39681437  0.10493688  0.19164556  1
  N  N28  1  0.60318563  0.91329132  0.80835444  1
  N  N29  1  0.20516881  0.89506312  0.80835444  1
  O  O30  1  0.72303303  0.43238280  0.49041780  1
  O  O31  1  0.76738477  0.05803499  0.49041780  1
  O  O32  1  0.23261523  0.56761720  0.50958220  1
  O  O33  1  0.27696697  0.94196501  0.50958220  1
  O  O34  1  0.88993377  0.58426362  0.79111088  1
  O  O35  1  0.90117711  0.20684726  0.79111088  1
  O  O36  1  0.09882289  0.41573638  0.20888912  1
  O  O37  1  0.11006623  0.79315274  0.20888912  1
  O  O38  1  0.64518714  0.64518714  0.29037427  1
  O  O39  1  0.35481286  0.35481286  0.70962573  1
  O  O40  1  0.72330292  0.50000000  0.00000000  1
  O  O41  1  0.27669708  0.50000000  1.00000000  1
