# generated using pymatgen
data_CsZn3(PO4)3
_symmetry_space_group_name_H-M   'P 1'
_cell_length_a   5.26929949
_cell_length_b   8.20269296
_cell_length_c   15.15506942
_cell_angle_alpha   95.32269124
_cell_angle_beta   89.97618432
_cell_angle_gamma   108.19427301
_symmetry_Int_Tables_number   1
_chemical_formula_structural   CsZn3(PO4)3
_chemical_formula_sum   'Cs2 Zn6 P6 O24'
_cell_volume   619.32378136
_cell_formula_units_Z   2
loop_
 _symmetry_equiv_pos_site_id
 _symmetry_equiv_pos_as_xyz
  1  'x, y, z'
loop_
 _atom_site_type_symbol
 _atom_site_label
 _atom_site_symmetry_multiplicity
 _atom_site_fract_x
 _atom_site_fract_y
 _atom_site_fract_z
 _atom_site_occupancy
  Cs  Cs0  1  0.79014583  0.09360728  0.74537284  1
  Cs  Cs1  1  0.20985417  0.90639272  0.25462716  1
  Zn  Zn2  1  0.51212888  0.58026786  0.86179072  1
  Zn  Zn3  1  0.48787112  0.41973214  0.13820928  1
  Zn  Zn4  1  0.13377691  0.83317368  0.57350663  1
  Zn  Zn5  1  0.86622309  0.16682632  0.42649337  1
  Zn  Zn6  1  0.12544038  0.82167917  0.95146984  1
  Zn  Zn7  1  0.87455962  0.17832083  0.04853016  1
  P  P8  1  0.36769721  0.22018833  0.93892008  1
  P  P9  1  0.63230279  0.77981167  0.06107992  1
  P  P10  1  0.05919899  0.65746631  0.75353340  1
  P  P11  1  0.94080101  0.34253369  0.24646660  1
  P  P12  1  0.39027448  0.24057751  0.54218644  1
  P  P13  1  0.60972552  0.75942249  0.45781356  1
  O  O14  1  0.37126995  0.33579425  0.86382740  1
  O  O15  1  0.62873005  0.66420575  0.13617260  1
  O  O16  1  0.73179231  0.70420576  0.97156489  1
  O  O17  1  0.26820769  0.29579424  0.02843511  1
  O  O18  1  0.22704016  0.68908508  0.84409586  1
  O  O19  1  0.77295984  0.31091492  0.15590414  1
  O  O20  1  0.78159887  0.67497195  0.77532261  1
  O  O21  1  0.21840113  0.32502805  0.22467739  1
  O  O22  1  0.75011688  0.74885160  0.54576907  1
  O  O23  1  0.24988312  0.25114840  0.45423093  1
  O  O24  1  0.32928782  0.77533750  0.47438208  1
  O  O25  1  0.67071218  0.22466250  0.52561792  1
  O  O26  1  0.21975609  0.08876861  0.59149629  1
  O  O27  1  0.78024391  0.91123139  0.40850371  1
  O  O28  1  0.20994142  0.79800265  0.69476060  1
  O  O29  1  0.79005858  0.20199735  0.30523940  1
  O  O30  1  0.35221246  0.79501817  0.04547550  1
  O  O31  1  0.64778754  0.20498183  0.95452450  1
  O  O32  1  0.15504151  0.04428498  0.91057242  1
  O  O33  1  0.84495849  0.95571502  0.08942758  1
  O  O34  1  0.01683517  0.47425497  0.71015742  1
  O  O35  1  0.98316483  0.52574503  0.28984258  1
  O  O36  1  0.42885557  0.41099619  0.60251494  1
  O  O37  1  0.57114443  0.58900381  0.39748506  1
