# generated using pymatgen
data_NiP2(H7O6)2
_symmetry_space_group_name_H-M   'P 1'
_cell_length_a   5.96283636
_cell_length_b   9.30187113
_cell_length_c   9.85350114
_cell_angle_alpha   94.92831186
_cell_angle_beta   90.00000000
_cell_angle_gamma   90.00000000
_symmetry_Int_Tables_number   1
_chemical_formula_structural   NiP2(H7O6)2
_chemical_formula_sum   'Ni2 P4 H28 O24'
_cell_volume   544.50917774
_cell_formula_units_Z   2
loop_
 _symmetry_equiv_pos_site_id
 _symmetry_equiv_pos_as_xyz
  1  'x, y, z'
loop_
 _atom_site_type_symbol
 _atom_site_label
 _atom_site_symmetry_multiplicity
 _atom_site_fract_x
 _atom_site_fract_y
 _atom_site_fract_z
 _atom_site_occupancy
  Ni  Ni0  1  0.00000000  0.00000000  0.00000000  1
  Ni  Ni1  1  0.50000000  0.50000000  0.50000000  1
  P  P2  1  0.35521170  0.57012125  0.02919648  1
  P  P3  1  0.14478830  0.07012125  0.52919648  1
  P  P4  1  0.64478830  0.42987875  0.97080352  1
  P  P5  1  0.85521170  0.92987875  0.47080352  1
  H  H6  1  0.05523872  0.45026323  0.10550885  1
  H  H7  1  0.44476128  0.95026323  0.60550885  1
  H  H8  1  0.94476128  0.54973677  0.89449115  1
  H  H9  1  0.55523872  0.04973677  0.39449115  1
  H  H10  1  0.80707451  0.11077988  0.22776783  1
  H  H11  1  0.69292549  0.61077988  0.72776783  1
  H  H12  1  0.19292549  0.88922012  0.77223217  1
  H  H13  1  0.30707451  0.38922012  0.27223217  1
  H  H14  1  0.83740870  0.24108393  0.13076266  1
  H  H15  1  0.66259130  0.74108393  0.63076266  1
  H  H16  1  0.16259130  0.75891607  0.86923734  1
  H  H17  1  0.33740870  0.25891607  0.36923734  1
  H  H18  1  0.35101422  0.88694210  0.11082433  1
  H  H19  1  0.14898578  0.38694210  0.61082433  1
  H  H20  1  0.64898578  0.11305790  0.88917567  1
  H  H21  1  0.85101422  0.61305790  0.38917567  1
  H  H22  1  0.27341447  0.02153482  0.20984711  1
  H  H23  1  0.22658553  0.52153482  0.70984711  1
  H  H24  1  0.72658553  0.97846518  0.79015289  1
  H  H25  1  0.77341447  0.47846518  0.29015289  1
  H  H26  1  0.72350921  0.78955077  0.08547507  1
  H  H27  1  0.77649079  0.28955077  0.58547507  1
  H  H28  1  0.27649079  0.21044923  0.91452493  1
  H  H29  1  0.22350921  0.71044923  0.41452493  1
  H  H30  1  0.91044099  0.81748102  0.19610334  1
  H  H31  1  0.58955901  0.31748102  0.69610334  1
  H  H32  1  0.08955901  0.18251898  0.80389666  1
  H  H33  1  0.41044099  0.68251898  0.30389666  1
  O  O34  1  0.44551075  0.70471813  0.10977746  1
  O  O35  1  0.05448925  0.20471813  0.60977746  1
  O  O36  1  0.55448925  0.29528187  0.89022254  1
  O  O37  1  0.94551075  0.79528187  0.39022254  1
  O  O38  1  0.21019540  0.58896922  0.90314866  1
  O  O39  1  0.28980460  0.08896922  0.40314866  1
  O  O40  1  0.78980460  0.41103078  0.09685134  1
  O  O41  1  0.71019540  0.91103078  0.59685134  1
  O  O42  1  0.21596832  0.47697120  0.12995108  1
  O  O43  1  0.28403168  0.97697120  0.62995108  1
  O  O44  1  0.78403168  0.52302880  0.87004892  1
  O  O45  1  0.71596832  0.02302880  0.37004892  1
  O  O46  1  0.89590116  0.14590813  0.15330897  1
  O  O47  1  0.60409884  0.64590813  0.65330897  1
  O  O48  1  0.10409884  0.85409187  0.84669103  1
  O  O49  1  0.39590116  0.35409187  0.34669103  1
  O  O50  1  0.29411951  0.98726903  0.11324441  1
  O  O51  1  0.20588049  0.48726903  0.61324441  1
  O  O52  1  0.70588049  0.01273097  0.88675559  1
  O  O53  1  0.79411951  0.51273097  0.38675559  1
  O  O54  1  0.88074663  0.82057639  0.09784651  1
  O  O55  1  0.61925337  0.32057639  0.59784651  1
  O  O56  1  0.11925337  0.17942361  0.90215349  1
  O  O57  1  0.38074663  0.67942361  0.40215349  1
