# generated using pymatgen
data_P3H2CN2Cl11
_symmetry_space_group_name_H-M   'P 1'
_cell_length_a   11.05465854
_cell_length_b   13.25861673
_cell_length_c   13.74877297
_cell_angle_alpha   90.00000000
_cell_angle_beta   96.06555218
_cell_angle_gamma   90.00000000
_symmetry_Int_Tables_number   1
_chemical_formula_structural   P3H2CN2Cl11
_chemical_formula_sum   'P12 H8 C4 N8 Cl44'
_cell_volume   2003.86900270
_cell_formula_units_Z   4
loop_
 _symmetry_equiv_pos_site_id
 _symmetry_equiv_pos_as_xyz
  1  'x, y, z'
loop_
 _atom_site_type_symbol
 _atom_site_label
 _atom_site_symmetry_multiplicity
 _atom_site_fract_x
 _atom_site_fract_y
 _atom_site_fract_z
 _atom_site_occupancy
  P  P0  1  0.93630825  0.18884290  0.92877192  1
  P  P1  1  0.06369175  0.68884290  0.57122808  1
  P  P2  1  0.06369175  0.81115710  0.07122808  1
  P  P3  1  0.93630825  0.31115710  0.42877192  1
  P  P4  1  0.70037764  0.10433952  0.97516956  1
  P  P5  1  0.29962236  0.60433952  0.52483044  1
  P  P6  1  0.29962236  0.89566048  0.02483044  1
  P  P7  1  0.70037764  0.39566048  0.47516956  1
  P  P8  1  0.50552457  0.26279333  0.91596322  1
  P  P9  1  0.49447543  0.76279333  0.58403678  1
  P  P10  1  0.49447543  0.73720667  0.08403678  1
  P  P11  1  0.50552457  0.23720667  0.41596322  1
  H  H12  1  0.94249008  0.04226884  0.63094114  1
  H  H13  1  0.05750992  0.54226884  0.86905886  1
  H  H14  1  0.05750992  0.95773116  0.36905886  1
  H  H15  1  0.94249008  0.45773116  0.13094114  1
  H  H16  1  0.81844478  0.99346096  0.54424921  1
  H  H17  1  0.18155522  0.49346096  0.95575079  1
  H  H18  1  0.18155522  0.00653904  0.45575079  1
  H  H19  1  0.81844478  0.50653904  0.04424921  1
  C  C20  1  0.84632294  0.01981751  0.61881821  1
  C  C21  1  0.15367706  0.51981751  0.88118179  1
  C  C22  1  0.15367706  0.98018249  0.38118179  1
  C  C23  1  0.84632294  0.48018249  0.11881821  1
  N  N24  1  0.82736006  0.11559324  0.93317258  1
  N  N25  1  0.17263994  0.61559324  0.56682742  1
  N  N26  1  0.17263994  0.88440676  0.06682742  1
  N  N27  1  0.82736006  0.38440676  0.43317258  1
  N  N28  1  0.61074644  0.19598395  0.96347218  1
  N  N29  1  0.38925356  0.69598395  0.53652782  1
  N  N30  1  0.38925356  0.80401605  0.03652782  1
  N  N31  1  0.61074644  0.30401605  0.46347218  1
  Cl  Cl32  1  0.20382548  0.06633332  0.65304525  1
  Cl  Cl33  1  0.79617452  0.56633332  0.84695475  1
  Cl  Cl34  1  0.79617452  0.93366668  0.34695475  1
  Cl  Cl35  1  0.20382548  0.43366668  0.15304525  1
  Cl  Cl36  1  0.04269945  0.19799648  0.05526604  1
  Cl  Cl37  1  0.95730055  0.69799648  0.44473396  1
  Cl  Cl38  1  0.95730055  0.80200352  0.94473396  1
  Cl  Cl39  1  0.04269945  0.30200352  0.55526604  1
  Cl  Cl40  1  0.04216215  0.13965958  0.83035338  1
  Cl  Cl41  1  0.95783785  0.63965958  0.66964662  1
  Cl  Cl42  1  0.95783785  0.86034042  0.16964662  1
  Cl  Cl43  1  0.04216215  0.36034042  0.33035338  1
  Cl  Cl44  1  0.88909741  0.33058054  0.89242465  1
  Cl  Cl45  1  0.11090259  0.83058054  0.60757535  1
  Cl  Cl46  1  0.11090259  0.66941946  0.10757535  1
  Cl  Cl47  1  0.88909741  0.16941946  0.39242465  1
  Cl  Cl48  1  0.72700077  0.06679428  0.11702047  1
  Cl  Cl49  1  0.27299923  0.56679428  0.38297953  1
  Cl  Cl50  1  0.27299923  0.93320572  0.88297953  1
  Cl  Cl51  1  0.72700077  0.43320572  0.61702047  1
  Cl  Cl52  1  0.62420255  0.98088835  0.91012361  1
  Cl  Cl53  1  0.37579745  0.48088835  0.58987639  1
  Cl  Cl54  1  0.37579745  0.01911165  0.08987639  1
  Cl  Cl55  1  0.62420255  0.51911165  0.41012361  1
  Cl  Cl56  1  0.39737946  0.30996048  0.01429310  1
  Cl  Cl57  1  0.60262054  0.80996048  0.48570690  1
  Cl  Cl58  1  0.60262054  0.69003952  0.98570690  1
  Cl  Cl59  1  0.39737946  0.19003952  0.51429310  1
  Cl  Cl60  1  0.39879294  0.19392237  0.80941838  1
  Cl  Cl61  1  0.60120706  0.69392237  0.69058162  1
  Cl  Cl62  1  0.60120706  0.80607763  0.19058162  1
  Cl  Cl63  1  0.39879294  0.30607763  0.30941838  1
  Cl  Cl64  1  0.56860067  0.38864901  0.85989013  1
  Cl  Cl65  1  0.43139933  0.88864901  0.64010987  1
  Cl  Cl66  1  0.43139933  0.61135099  0.14010987  1
  Cl  Cl67  1  0.56860067  0.11135099  0.35989013  1
  Cl  Cl68  1  0.75622773  0.12718696  0.64140400  1
  Cl  Cl69  1  0.24377227  0.62718696  0.85859600  1
  Cl  Cl70  1  0.24377227  0.87281304  0.35859600  1
  Cl  Cl71  1  0.75622773  0.37281304  0.14140400  1
  Cl  Cl72  1  0.82324671  0.91974688  0.70075534  1
  Cl  Cl73  1  0.17675329  0.41974688  0.79924466  1
  Cl  Cl74  1  0.17675329  0.08025312  0.29924466  1
  Cl  Cl75  1  0.82324671  0.58025312  0.20075534  1
