# generated using pymatgen
data_CaTi2FeO6
_symmetry_space_group_name_H-M   'P 1'
_cell_length_a   7.57350723
_cell_length_b   7.57350723
_cell_length_c   7.62645804
_cell_angle_alpha   90.00000000
_cell_angle_beta   90.00000000
_cell_angle_gamma   90.00000000
_symmetry_Int_Tables_number   1
_chemical_formula_structural   CaTi2FeO6
_chemical_formula_sum   'Ca4 Ti8 Fe4 O24'
_cell_volume   437.43846997
_cell_formula_units_Z   4
loop_
 _symmetry_equiv_pos_site_id
 _symmetry_equiv_pos_as_xyz
  1  'x, y, z'
loop_
 _atom_site_type_symbol
 _atom_site_label
 _atom_site_symmetry_multiplicity
 _atom_site_fract_x
 _atom_site_fract_y
 _atom_site_fract_z
 _atom_site_occupancy
  Ca  Ca0  1  0.75000000  0.75000000  0.27806237  1
  Ca  Ca1  1  0.75000000  0.75000000  0.77806237  1
  Ca  Ca2  1  0.25000000  0.25000000  0.72193763  1
  Ca  Ca3  1  0.25000000  0.25000000  0.22193763  1
  Ti  Ti4  1  0.50000000  0.50000000  0.50000000  1
  Ti  Ti5  1  -0.00000000  0.50000000  0.50000000  1
  Ti  Ti6  1  0.50000000  -0.00000000  0.50000000  1
  Ti  Ti7  1  -0.00000000  -0.00000000  0.50000000  1
  Ti  Ti8  1  0.50000000  0.50000000  -0.00000000  1
  Ti  Ti9  1  -0.00000000  0.50000000  -0.00000000  1
  Ti  Ti10  1  0.50000000  -0.00000000  -0.00000000  1
  Ti  Ti11  1  -0.00000000  -0.00000000  -0.00000000  1
  Fe  Fe12  1  0.75000000  0.25000000  0.25000000  1
  Fe  Fe13  1  0.25000000  0.75000000  0.75000000  1
  Fe  Fe14  1  0.75000000  0.25000000  0.75000000  1
  Fe  Fe15  1  0.25000000  0.75000000  0.25000000  1
  O  O16  1  0.75000000  0.94474946  0.03681995  1
  O  O17  1  0.75000000  0.55525054  0.03681995  1
  O  O18  1  0.94474946  0.75000000  0.53681995  1
  O  O19  1  0.55525054  0.75000000  0.53681995  1
  O  O20  1  0.25000000  0.05525054  0.96318005  1
  O  O21  1  0.25000000  0.44474946  0.96318005  1
  O  O22  1  0.05525054  0.25000000  0.46318005  1
  O  O23  1  0.44474946  0.25000000  0.46318005  1
  O  O24  1  0.04317690  0.75000000  0.92967686  1
  O  O25  1  0.45682310  0.75000000  0.92967686  1
  O  O26  1  0.75000000  0.04317690  0.42967686  1
  O  O27  1  0.75000000  0.45682310  0.42967686  1
  O  O28  1  0.95682310  0.25000000  0.07032314  1
  O  O29  1  0.54317690  0.25000000  0.07032314  1
  O  O30  1  0.25000000  0.95682310  0.57032314  1
  O  O31  1  0.25000000  0.54317690  0.57032314  1
  O  O32  1  0.44337129  0.94337129  0.25000000  1
  O  O33  1  0.05662871  0.94337129  0.25000000  1
  O  O34  1  0.44337129  0.55662871  0.25000000  1
  O  O35  1  0.05662871  0.55662871  0.25000000  1
  O  O36  1  0.94337129  0.44337129  0.75000000  1
  O  O37  1  0.55662871  0.44337129  0.75000000  1
  O  O38  1  0.94337129  0.05662871  0.75000000  1
  O  O39  1  0.55662871  0.05662871  0.75000000  1
