# generated using pymatgen
data_P2H18WC6(ClO2)2
_symmetry_space_group_name_H-M   'P 1'
_cell_length_a   11.05545388
_cell_length_b   12.15368993
_cell_length_c   12.90906206
_cell_angle_alpha   90.00000000
_cell_angle_beta   92.57685309
_cell_angle_gamma   90.00000000
_symmetry_Int_Tables_number   1
_chemical_formula_structural   P2H18WC6(ClO2)2
_chemical_formula_sum   'P8 H72 W4 C24 Cl8 O16'
_cell_volume   1732.76650318
_cell_formula_units_Z   4
loop_
 _symmetry_equiv_pos_site_id
 _symmetry_equiv_pos_as_xyz
  1  'x, y, z'
loop_
 _atom_site_type_symbol
 _atom_site_label
 _atom_site_symmetry_multiplicity
 _atom_site_fract_x
 _atom_site_fract_y
 _atom_site_fract_z
 _atom_site_occupancy
  P  P0  1  0.21200873  0.23679542  0.12130494  1
  P  P1  1  0.71200873  0.26320458  0.62130494  1
  P  P2  1  0.78799127  0.76320458  0.87869506  1
  P  P3  1  0.28799127  0.73679542  0.37869506  1
  P  P4  1  0.62537997  0.28403270  0.06974673  1
  P  P5  1  0.12537997  0.21596730  0.56974673  1
  P  P6  1  0.37462003  0.71596730  0.93025327  1
  P  P7  1  0.87462003  0.78403270  0.43025327  1
  H  H8  1  0.03633217  0.13734434  0.17172938  1
  H  H9  1  0.53633217  0.36265566  0.67172938  1
  H  H10  1  0.96366783  0.86265566  0.82827062  1
  H  H11  1  0.46366783  0.63734434  0.32827062  1
  H  H12  1  0.00334281  0.23472731  0.06953888  1
  H  H13  1  0.50334281  0.26527269  0.56953888  1
  H  H14  1  0.99665719  0.76527269  0.93046112  1
  H  H15  1  0.49665719  0.73472731  0.43046112  1
  H  H16  1  0.02653186  0.28304646  0.19970290  1
  H  H17  1  0.52653186  0.21695354  0.69970290  1
  H  H18  1  0.97346814  0.71695354  0.80029710  1
  H  H19  1  0.47346814  0.78304646  0.30029710  1
  H  H20  1  0.20680370  0.43177574  0.14182953  1
  H  H21  1  0.70680370  0.06822426  0.64182953  1
  H  H22  1  0.79319630  0.56822426  0.85817047  1
  H  H23  1  0.29319630  0.93177574  0.35817047  1
  H  H24  1  0.17270530  0.39149460  0.00954641  1
  H  H25  1  0.67270530  0.10850540  0.50954641  1
  H  H26  1  0.82729470  0.60850540  0.99045359  1
  H  H27  1  0.32729470  0.89149460  0.49045359  1
  H  H28  1  0.32652826  0.38690454  0.06272679  1
  H  H29  1  0.82652826  0.11309546  0.56272679  1
  H  H30  1  0.67347174  0.61309546  0.93727321  1
  H  H31  1  0.17347174  0.88690454  0.43727321  1
  H  H32  1  0.34254908  0.14578406  0.00932531  1
  H  H33  1  0.84254908  0.35421594  0.50932531  1
  H  H34  1  0.65745092  0.85421594  0.99067469  1
  H  H35  1  0.15745092  0.64578406  0.49067469  1
  H  H36  1  0.19588024  0.17061981  0.94617059  1
  H  H37  1  0.69588024  0.32938019  0.44617059  1
  H  H38  1  0.80411976  0.82938019  0.05382941  1
  H  H39  1  0.30411976  0.67061981  0.55382941  1
  H  H40  1  0.21676921  0.06128373  0.04001123  1
  H  H41  1  0.71676921  0.43871627  0.54001123  1
  H  H42  1  0.78323079  0.93871627  0.95998877  1
  H  H43  1  0.28323079  0.56128373  0.45998877  1
  H  H44  1  0.67245858  0.46109618  0.14266345  1
  H  H45  1  0.17245858  0.03890382  0.64266345  1
  H  H46  1  0.32754142  0.53890382  0.85733655  1
  H  H47  1  0.82754142  0.96109618  0.35733655  1
  H  H48  1  0.80175073  0.39952544  0.08680872  1
  H  H49  1  0.30175073  0.10047456  0.58680872  1
  H  H50  1  0.19824927  0.60047456  0.91319128  1
  H  H51  1  0.69824927  0.89952544  0.41319128  1
  H  H52  1  0.75058578  0.35176697  0.20990035  1
  H  H53  1  0.25058578  0.14823303  0.70990035  1
  H  H54  1  0.24941422  0.64823303  0.79009965  1
  H  H55  1  0.74941422  0.85176697  0.29009965  1
  H  H56  1  0.52162765  0.27982062  0.90367885  1
  H  H57  1  0.02162765  0.22017938  0.40367885  1
  H  H58  1  0.47837235  0.72017938  0.09632115  1
  H  H59  1  0.97837235  0.77982062  0.59632115  1
  H  H60  1  0.66731097  0.34415697  0.89774929  1
  H  H61  1  0.16731097  0.15584303  0.39774929  1
  H  H62  1  0.33268903  0.65584303  0.10225071  1
  H  H63  1  0.83268903  0.84415697  0.60225071  1
  H  H64  1  0.54335382  0.41836466  0.94893606  1
  H  H65  1  0.04335382  0.08163534  0.44893606  1
  H  H66  1  0.45664618  0.58163534  0.05106394  1
  H  H67  1  0.95664618  0.91836466  0.55106394  1
  H  H68  1  0.74021281  0.12790490  0.12661435  1
  H  H69  1  0.24021281  0.37209510  0.62661435  1
  H  H70  1  0.25978719  0.87209510  0.87338565  1
  H  H71  1  0.75978719  0.62790490  0.37338565  1
  H  H72  1  0.78909670  0.17895066  0.00343224  1
  H  H73  1  0.28909670  0.32104934  0.50343224  1
  H  H74  1  0.21090330  0.82104934  0.99656776  1
  H  H75  1  0.71090330  0.67895066  0.49656776  1
  H  H76  1  0.65199602  0.10096175  0.00975624  1
  H  H77  1  0.15199602  0.39903825  0.50975624  1
  H  H78  1  0.34800398  0.89903825  0.99024376  1
  H  H79  1  0.84800398  0.60096175  0.49024376  1
  W  W80  1  0.47305500  0.19309421  0.28574989  1
  W  W81  1  0.97305500  0.30690579  0.78574989  1
  W  W82  1  0.52694500  0.80690579  0.71425011  1
  W  W83  1  0.02694500  0.69309421  0.21425011  1
  C  C84  1  0.05383126  0.22089992  0.14370725  1
  C  C85  1  0.55383126  0.27910008  0.64370725  1
  C  C86  1  0.94616874  0.77910008  0.85629275  1
  C  C87  1  0.44616874  0.72089992  0.35629275  1
  C  C88  1  0.23096074  0.37592917  0.07908203  1
  C  C89  1  0.73096074  0.12407083  0.57908203  1
  C  C90  1  0.76903926  0.62407083  0.92091797  1
  C  C91  1  0.26903926  0.87592917  0.42091797  1
  C  C92  1  0.24448129  0.14458920  0.01797550  1
  C  C93  1  0.74448129  0.35541080  0.51797550  1
  C  C94  1  0.75551871  0.85541080  0.98202450  1
  C  C95  1  0.25551871  0.64458920  0.48202450  1
  C  C96  1  0.72270889  0.38401105  0.13320106  1
  C  C97  1  0.22270889  0.11598895  0.63320106  1
  C  C98  1  0.27729111  0.61598895  0.86679894  1
  C  C99  1  0.77729111  0.88401105  0.36679894  1
  C  C100  1  0.58560533  0.33702302  0.94263846  1
  C  C101  1  0.08560533  0.16297698  0.44263846  1
  C  C102  1  0.41439467  0.66297698  0.05736154  1
  C  C103  1  0.91439467  0.83702302  0.55736154  1
  C  C104  1  0.71120497  0.16105450  0.05047240  1
  C  C105  1  0.21120497  0.33894550  0.55047240  1
  C  C106  1  0.28879503  0.83894550  0.94952760  1
  C  C107  1  0.78879503  0.66105450  0.44952760  1
  Cl  Cl108  1  0.46535856  0.01587332  0.20028803  1
  Cl  Cl109  1  0.96535856  0.48412668  0.70028803  1
  Cl  Cl110  1  0.53464144  0.98412668  0.79971197  1
  Cl  Cl111  1  0.03464144  0.51587332  0.29971197  1
  Cl  Cl112  1  0.45322300  0.38553917  0.33033624  1
  Cl  Cl113  1  0.95322300  0.11446083  0.83033624  1
  Cl  Cl114  1  0.54677700  0.61446083  0.66966376  1
  Cl  Cl115  1  0.04677700  0.88553917  0.16966376  1
  O  O116  1  0.63125615  0.18900330  0.31110165  1
  O  O117  1  0.13125615  0.31099670  0.81110165  1
  O  O118  1  0.36874385  0.81099670  0.68889835  1
  O  O119  1  0.86874385  0.68900330  0.18889835  1
  O  O120  1  0.41624762  0.14613652  0.40342966  1
  O  O121  1  0.91624762  0.35386348  0.90342966  1
  O  O122  1  0.58375238  0.85386348  0.59657034  1
  O  O123  1  0.08375238  0.64613652  0.09657034  1
  O  O124  1  0.29083181  0.21127906  0.21930141  1
  O  O125  1  0.79083181  0.28872094  0.71930141  1
  O  O126  1  0.70916819  0.78872094  0.78069859  1
  O  O127  1  0.20916819  0.71127906  0.28069859  1
  O  O128  1  0.50999205  0.26140603  0.12814436  1
  O  O129  1  0.00999205  0.23859397  0.62814436  1
  O  O130  1  0.49000795  0.73859397  0.87185564  1
  O  O131  1  0.99000795  0.76140603  0.37185564  1
