# generated using pymatgen
data_CuH6C2SeI
_symmetry_space_group_name_H-M   'P 1'
_cell_length_a   7.33904314
_cell_length_b   7.88446702
_cell_length_c   11.73880622
_cell_angle_alpha   92.90504886
_cell_angle_beta   90.00000000
_cell_angle_gamma   90.00000000
_symmetry_Int_Tables_number   1
_chemical_formula_structural   CuH6C2SeI
_chemical_formula_sum   'Cu4 H24 C8 Se4 I4'
_cell_volume   678.38657071
_cell_formula_units_Z   4
loop_
 _symmetry_equiv_pos_site_id
 _symmetry_equiv_pos_as_xyz
  1  'x, y, z'
loop_
 _atom_site_type_symbol
 _atom_site_label
 _atom_site_symmetry_multiplicity
 _atom_site_fract_x
 _atom_site_fract_y
 _atom_site_fract_z
 _atom_site_occupancy
  Cu  Cu0  1  0.54075657  0.50297369  0.12541264  1
  Cu  Cu1  1  0.04075657  0.49702631  0.37458736  1
  Cu  Cu2  1  0.45924343  0.49702631  0.87458736  1
  Cu  Cu3  1  0.95924343  0.50297369  0.62541264  1
  H  H4  1  0.96675318  0.82094322  0.13832359  1
  H  H5  1  0.46675318  0.17905678  0.36167641  1
  H  H6  1  0.03324682  0.17905678  0.86167641  1
  H  H7  1  0.53324682  0.82094322  0.63832359  1
  H  H8  1  0.74071752  0.90644029  0.16256045  1
  H  H9  1  0.24071752  0.09355971  0.33743955  1
  H  H10  1  0.25928248  0.09355971  0.83743955  1
  H  H11  1  0.75928248  0.90644029  0.66256045  1
  H  H12  1  0.90747360  0.91723646  0.27620016  1
  H  H13  1  0.40747360  0.08276354  0.22379984  1
  H  H14  1  0.09252640  0.08276354  0.72379984  1
  H  H15  1  0.59252640  0.91723646  0.77620016  1
  H  H16  1  0.58795312  0.60768135  0.42521334  1
  H  H17  1  0.08795312  0.39231865  0.07478666  1
  H  H18  1  0.41204688  0.39231865  0.57478666  1
  H  H19  1  0.91204688  0.60768135  0.92521334  1
  H  H20  1  0.51255401  0.77587260  0.33791092  1
  H  H21  1  0.01255401  0.22412740  0.16208908  1
  H  H22  1  0.48744599  0.22412740  0.66208908  1
  H  H23  1  0.98744599  0.77587260  0.83791092  1
  H  H24  1  0.71153398  0.80520330  0.42865932  1
  H  H25  1  0.21153398  0.19479670  0.07134068  1
  H  H26  1  0.28846602  0.19479670  0.57134068  1
  H  H27  1  0.78846602  0.80520330  0.92865932  1
  C  C28  1  0.85721512  0.84397244  0.20060592  1
  C  C29  1  0.35721512  0.15602756  0.29939408  1
  C  C30  1  0.14278488  0.15602756  0.79939408  1
  C  C31  1  0.64278488  0.84397244  0.70060592  1
  C  C32  1  0.62949721  0.71455868  0.37597393  1
  C  C33  1  0.12949721  0.28544132  0.12402607  1
  C  C34  1  0.37050279  0.28544132  0.62402607  1
  C  C35  1  0.87050279  0.71455868  0.87597393  1
  Se  Se36  1  0.78395643  0.62001593  0.25232753  1
  Se  Se37  1  0.28395643  0.37998407  0.24767247  1
  Se  Se38  1  0.21604357  0.37998407  0.74767247  1
  Se  Se39  1  0.71604357  0.62001593  0.75232753  1
  I  I40  1  0.63675780  0.25910371  0.97708974  1
  I  I41  1  0.13675780  0.74089629  0.52291026  1
  I  I42  1  0.36324220  0.74089629  0.02291026  1
  I  I43  1  0.86324220  0.25910371  0.47708974  1
