# generated using pymatgen
data_Ca2YMoO5
_symmetry_space_group_name_H-M   'P 1'
_cell_length_a   5.81738711
_cell_length_b   5.96296959
_cell_length_c   8.73512182
_cell_angle_alpha   109.95053711
_cell_angle_beta   109.48722756
_cell_angle_gamma   89.99665071
_symmetry_Int_Tables_number   1
_chemical_formula_structural   Ca2YMoO5
_chemical_formula_sum   'Ca4 Y2 Mo2 O10'
_cell_volume   266.28911416
_cell_formula_units_Z   2
loop_
 _symmetry_equiv_pos_site_id
 _symmetry_equiv_pos_as_xyz
  1  'x, y, z'
loop_
 _atom_site_type_symbol
 _atom_site_label
 _atom_site_symmetry_multiplicity
 _atom_site_fract_x
 _atom_site_fract_y
 _atom_site_fract_z
 _atom_site_occupancy
  Ca  Ca0  1  0.12984974  0.62822772  0.21334226  1
  Ca  Ca1  1  0.41716175  0.91544131  0.78711643  1
  Ca  Ca2  1  0.91723655  0.37266915  0.78712941  1
  Ca  Ca3  1  0.62983275  0.08607754  0.21334574  1
  Y  Y4  1  0.30457468  0.29860602  0.50023021  1
  Y  Y5  1  0.80447187  0.70255351  0.50007078  1
  Mo  Mo6  1  0.48426374  0.50059682  0.99997144  1
  Mo  Mo7  1  0.98418102  0.00033930  -0.00003101  1
  O  O8  1  0.68176249  0.35479993  0.50003894  1
  O  O9  1  0.18174978  0.64629782  0.50005809  1
  O  O10  1  0.56898637  0.74778343  0.27040201  1
  O  O11  1  0.29765002  0.25306517  0.72947768  1
  O  O12  1  0.06897598  0.02356386  0.27030813  1
  O  O13  1  0.79767057  0.97748704  0.72957151  1
  O  O14  1  0.20673028  0.72622341  0.92509072  1
  O  O15  1  0.28150197  0.27672264  0.07481753  1
  O  O16  1  0.78149478  0.29911765  0.07484203  1
  O  O17  1  0.70675766  0.69990870  0.92510508  1
