# generated using pymatgen
data_MoH9S2(ClO)4
_symmetry_space_group_name_H-M   'P 1'
_cell_length_a   7.33274932
_cell_length_b   7.56481456
_cell_length_c   22.69407998
_cell_angle_alpha   90.00000000
_cell_angle_beta   90.00000000
_cell_angle_gamma   95.27528147
_symmetry_Int_Tables_number   1
_chemical_formula_structural   MoH9S2(ClO)4
_chemical_formula_sum   'Mo4 H36 S8 Cl16 O16'
_cell_volume   1253.52882759
_cell_formula_units_Z   4
loop_
 _symmetry_equiv_pos_site_id
 _symmetry_equiv_pos_as_xyz
  1  'x, y, z'
loop_
 _atom_site_type_symbol
 _atom_site_label
 _atom_site_symmetry_multiplicity
 _atom_site_fract_x
 _atom_site_fract_y
 _atom_site_fract_z
 _atom_site_occupancy
  Mo  Mo0  1  0.91507740  0.40379661  0.93718489  1
  Mo  Mo1  1  0.58492260  0.59620339  0.43718489  1
  Mo  Mo2  1  0.08492260  0.59620339  0.06281511  1
  Mo  Mo3  1  0.41507740  0.40379661  0.56281511  1
  H  H4  1  0.69553359  0.85423821  0.82168388  1
  H  H5  1  0.80446641  0.14576179  0.32168388  1
  H  H6  1  0.30446641  0.14576179  0.17831612  1
  H  H7  1  0.19553359  0.85423821  0.67831612  1
  H  H8  1  0.87316805  0.75667424  0.81114246  1
  H  H9  1  0.62683195  0.24332576  0.31114246  1
  H  H10  1  0.12683195  0.24332576  0.18885754  1
  H  H11  1  0.37316805  0.75667424  0.68885754  1
  H  H12  1  0.04711260  0.01725612  0.59817419  1
  H  H13  1  0.45288740  0.98274388  0.09817419  1
  H  H14  1  0.95288740  0.98274388  0.40182581  1
  H  H15  1  0.54711260  0.01725612  0.90182581  1
  H  H16  1  0.90512943  0.85534694  0.61496633  1
  H  H17  1  0.59487057  0.14465306  0.11496633  1
  H  H18  1  0.09487057  0.14465306  0.38503367  1
  H  H19  1  0.40512943  0.85534694  0.88503367  1
  H  H20  1  0.94267437  0.03596376  0.68920329  1
  H  H21  1  0.55732563  0.96403624  0.18920329  1
  H  H22  1  0.05732563  0.96403624  0.31079671  1
  H  H23  1  0.44267437  0.03596376  0.81079671  1
  H  H24  1  0.86502138  0.97714205  0.75816569  1
  H  H25  1  0.63497862  0.02285795  0.25816569  1
  H  H26  1  0.13497862  0.02285795  0.24183431  1
  H  H27  1  0.36502138  0.97714205  0.74183431  1
  H  H28  1  0.74182111  0.42696126  0.71259382  1
  H  H29  1  0.75817889  0.57303874  0.21259382  1
  H  H30  1  0.25817889  0.57303874  0.28740618  1
  H  H31  1  0.24182111  0.42696126  0.78740618  1
  H  H32  1  0.77481269  0.40828508  0.78089676  1
  H  H33  1  0.72518731  0.59171492  0.28089676  1
  H  H34  1  0.22518731  0.59171492  0.21910324  1
  H  H35  1  0.27481269  0.40828508  0.71910324  1
  H  H36  1  0.87647229  0.20209307  0.73509766  1
  H  H37  1  0.62352771  0.79790693  0.23509766  1
  H  H38  1  0.12352771  0.79790693  0.26490234  1
  H  H39  1  0.37647229  0.20209307  0.76490234  1
  S  S40  1  0.23655904  0.44845264  0.97769073  1
  S  S41  1  0.26344096  0.55154736  0.47769073  1
  S  S42  1  0.76344096  0.55154736  0.02230927  1
  S  S43  1  0.73655904  0.44845264  0.52230927  1
  S  S44  1  0.07343122  0.27761551  0.02506853  1
  S  S45  1  0.42656878  0.72238449  0.52506853  1
  S  S46  1  0.92656878  0.72238449  0.97493147  1
  S  S47  1  0.57343122  0.27761551  0.47493147  1
  Cl  Cl48  1  0.67861837  0.16073338  0.97563459  1
  Cl  Cl49  1  0.82138163  0.83926662  0.47563459  1
  Cl  Cl50  1  0.32138163  0.83926662  0.02436541  1
  Cl  Cl51  1  0.17861837  0.16073338  0.52436541  1
  Cl  Cl52  1  0.66249904  0.46476996  0.87540916  1
  Cl  Cl53  1  0.83750096  0.53523004  0.37540916  1
  Cl  Cl54  1  0.33750096  0.53523004  0.12459084  1
  Cl  Cl55  1  0.16249904  0.46476996  0.62459084  1
  Cl  Cl56  1  0.09413443  0.59397682  0.85718021  1
  Cl  Cl57  1  0.40586557  0.40602318  0.35718021  1
  Cl  Cl58  1  0.90586557  0.40602318  0.14281979  1
  Cl  Cl59  1  0.59413443  0.59397682  0.64281979  1
  Cl  Cl60  1  0.01355538  0.16454333  0.88090497  1
  Cl  Cl61  1  0.48644462  0.83545667  0.38090497  1
  Cl  Cl62  1  0.98644462  0.83545667  0.11909503  1
  Cl  Cl63  1  0.51355538  0.16454333  0.61909503  1
  O  O64  1  0.78326002  0.82534500  0.79116779  1
  O  O65  1  0.71673998  0.17465500  0.29116779  1
  O  O66  1  0.21673998  0.17465500  0.20883221  1
  O  O67  1  0.28326002  0.82534500  0.70883221  1
  O  O68  1  0.00140573  0.93954412  0.63126227  1
  O  O69  1  0.49859427  0.06045588  0.13126227  1
  O  O70  1  0.99859427  0.06045588  0.36873773  1
  O  O71  1  0.50140573  0.93954412  0.86873773  1
  O  O72  1  0.93019811  0.07838375  0.73141504  1
  O  O73  1  0.56980189  0.92161625  0.23141504  1
  O  O74  1  0.06980189  0.92161625  0.26858496  1
  O  O75  1  0.43019811  0.07838375  0.76858496  1
  O  O76  1  0.82535150  0.38303881  0.74203165  1
  O  O77  1  0.67464850  0.61696119  0.24203165  1
  O  O78  1  0.17464850  0.61696119  0.25796835  1
  O  O79  1  0.32535150  0.38303881  0.75796835  1
