# generated using pymatgen
data_KSeO4
_symmetry_space_group_name_H-M   'P 1'
_cell_length_a   8.62732794
_cell_length_b   10.37600446
_cell_length_c   20.05526836
_cell_angle_alpha   90.00000000
_cell_angle_beta   90.00000000
_cell_angle_gamma   90.00000000
_symmetry_Int_Tables_number   1
_chemical_formula_structural   KSeO4
_chemical_formula_sum   'K16 Se16 O64'
_cell_volume   1795.29133213
_cell_formula_units_Z   16
loop_
 _symmetry_equiv_pos_site_id
 _symmetry_equiv_pos_as_xyz
  1  'x, y, z'
loop_
 _atom_site_type_symbol
 _atom_site_label
 _atom_site_symmetry_multiplicity
 _atom_site_fract_x
 _atom_site_fract_y
 _atom_site_fract_z
 _atom_site_occupancy
  K  K0  1  0.11483530  0.32343466  0.12596364  1
  K  K1  1  0.88516470  0.67656534  0.87403636  1
  K  K2  1  0.38516470  0.67656534  0.62596364  1
  K  K3  1  0.88516470  0.82343466  0.37403636  1
  K  K4  1  0.61483530  0.32343466  0.37403636  1
  K  K5  1  0.11483530  0.17656534  0.62596364  1
  K  K6  1  0.61483530  0.17656534  0.87403636  1
  K  K7  1  0.38516470  0.82343466  0.12596364  1
  K  K8  1  0.13201826  0.18320296  0.38095104  1
  K  K9  1  0.86798174  0.81679704  0.61904896  1
  K  K10  1  0.36798174  0.81679704  0.88095104  1
  K  K11  1  0.86798174  0.68320296  0.11904896  1
  K  K12  1  0.63201826  0.18320296  0.11904896  1
  K  K13  1  0.13201826  0.31679704  0.88095104  1
  K  K14  1  0.63201826  0.31679704  0.61904896  1
  K  K15  1  0.36798174  0.68320296  0.38095104  1
  Se  Se16  1  0.02134615  0.48028117  0.29408213  1
  Se  Se17  1  0.97865385  0.51971883  0.70591787  1
  Se  Se18  1  0.47865385  0.51971883  0.79408213  1
  Se  Se19  1  0.97865385  0.98028117  0.20591787  1
  Se  Se20  1  0.52134615  0.48028117  0.20591787  1
  Se  Se21  1  0.02134615  0.01971883  0.79408213  1
  Se  Se22  1  0.52134615  0.01971883  0.70591787  1
  Se  Se23  1  0.47865385  0.98028117  0.29408213  1
  Se  Se24  1  0.24663845  0.07165656  0.00380642  1
  Se  Se25  1  0.75336155  0.92834344  0.99619358  1
  Se  Se26  1  0.25336155  0.92834344  0.50380642  1
  Se  Se27  1  0.75336155  0.57165656  0.49619358  1
  Se  Se28  1  0.74663845  0.07165656  0.49619358  1
  Se  Se29  1  0.24663845  0.42834344  0.50380642  1
  Se  Se30  1  0.74663845  0.42834344  0.99619358  1
  Se  Se31  1  0.25336155  0.57165656  0.00380642  1
  O  O32  1  0.07684668  0.00036425  0.27876938  1
  O  O33  1  0.92315332  0.99963575  0.72123062  1
  O  O34  1  0.42315332  0.99963575  0.77876938  1
  O  O35  1  0.92315332  0.50036425  0.22123062  1
  O  O36  1  0.57684668  0.00036425  0.22123062  1
  O  O37  1  0.07684668  0.49963575  0.77876938  1
  O  O38  1  0.57684668  0.49963575  0.72123062  1
  O  O39  1  0.42315332  0.50036425  0.27876938  1
  O  O40  1  0.17859346  0.38465284  0.27638610  1
  O  O41  1  0.82140654  0.61534716  0.72361390  1
  O  O42  1  0.32140654  0.61534716  0.77638610  1
  O  O43  1  0.82140654  0.88465284  0.22361390  1
  O  O44  1  0.67859346  0.38465284  0.22361390  1
  O  O45  1  0.17859346  0.11534716  0.77638610  1
  O  O46  1  0.67859346  0.11534716  0.72361390  1
  O  O47  1  0.32140654  0.88465284  0.27638610  1
  O  O48  1  0.33690285  0.39383684  0.43216931  1
  O  O49  1  0.66309715  0.60616316  0.56783069  1
  O  O50  1  0.16309715  0.60616316  0.93216931  1
  O  O51  1  0.66309715  0.89383684  0.06783069  1
  O  O52  1  0.83690285  0.39383684  0.06783069  1
  O  O53  1  0.33690285  0.10616316  0.93216931  1
  O  O54  1  0.83690285  0.10616316  0.56783069  1
  O  O55  1  0.16309715  0.89383684  0.43216931  1
  O  O56  1  0.42247635  0.12326011  0.32094157  1
  O  O57  1  0.57752365  0.87673989  0.67905843  1
  O  O58  1  0.07752365  0.87673989  0.82094157  1
  O  O59  1  0.57752365  0.62326011  0.17905843  1
  O  O60  1  0.92247635  0.12326011  0.17905843  1
  O  O61  1  0.42247635  0.37673989  0.82094157  1
  O  O62  1  0.92247635  0.37673989  0.67905843  1
  O  O63  1  0.07752365  0.62326011  0.32094157  1
  O  O64  1  0.35017949  0.09656309  0.07285773  1
  O  O65  1  0.64982051  0.90343691  0.92714227  1
  O  O66  1  0.14982051  0.90343691  0.57285773  1
  O  O67  1  0.64982051  0.59656309  0.42714227  1
  O  O68  1  0.85017949  0.09656309  0.42714227  1
  O  O69  1  0.35017949  0.40343691  0.57285773  1
  O  O70  1  0.85017949  0.40343691  0.92714227  1
  O  O71  1  0.14982051  0.59656309  0.07285773  1
  O  O72  1  0.41869871  0.39577233  0.15152639  1
  O  O73  1  0.58130129  0.60422767  0.84847361  1
  O  O74  1  0.08130129  0.60422767  0.65152639  1
  O  O75  1  0.58130129  0.89577233  0.34847361  1
  O  O76  1  0.91869871  0.39577233  0.34847361  1
  O  O77  1  0.41869871  0.10422767  0.65152639  1
  O  O78  1  0.91869871  0.10422767  0.84847361  1
  O  O79  1  0.08130129  0.89577233  0.15152639  1
  O  O80  1  0.29192510  0.41229537  0.00019759  1
  O  O81  1  0.70807490  0.58770463  0.99980241  1
  O  O82  1  0.20807490  0.58770463  0.50019759  1
  O  O83  1  0.70807490  0.91229537  0.49980241  1
  O  O84  1  0.79192510  0.41229537  0.49980241  1
  O  O85  1  0.29192510  0.08770463  0.50019759  1
  O  O86  1  0.79192510  0.08770463  0.99980241  1
  O  O87  1  0.20807490  0.91229537  0.00019759  1
  O  O88  1  0.08721867  0.16347815  0.00786173  1
  O  O89  1  0.91278133  0.83652185  0.99213827  1
  O  O90  1  0.41278133  0.83652185  0.50786173  1
  O  O91  1  0.91278133  0.66347815  0.49213827  1
  O  O92  1  0.58721867  0.16347815  0.49213827  1
  O  O93  1  0.08721867  0.33652185  0.50786173  1
  O  O94  1  0.58721867  0.33652185  0.99213827  1
  O  O95  1  0.41278133  0.66347815  0.00786173  1
