# generated using pymatgen
data_RbUB5O11F
_symmetry_space_group_name_H-M   'P 1'
_cell_length_a   6.50810183
_cell_length_b   6.50810183
_cell_length_c   14.38421749
_cell_angle_alpha   85.45567161
_cell_angle_beta   85.45567161
_cell_angle_gamma   60.28856618
_symmetry_Int_Tables_number   1
_chemical_formula_structural   RbUB5O11F
_chemical_formula_sum   'Rb2 U2 B10 O22 F2'
_cell_volume   526.92711428
_cell_formula_units_Z   2
loop_
 _symmetry_equiv_pos_site_id
 _symmetry_equiv_pos_as_xyz
  1  'x, y, z'
loop_
 _atom_site_type_symbol
 _atom_site_label
 _atom_site_symmetry_multiplicity
 _atom_site_fract_x
 _atom_site_fract_y
 _atom_site_fract_z
 _atom_site_occupancy
  Rb  Rb0  1  0.07207796  0.34100097  0.55074759  1
  Rb  Rb1  1  0.34100097  0.07207796  0.05074759  1
  U  U2  1  0.11304235  0.84794949  0.33259664  1
  U  U3  1  0.84794949  0.11304235  0.83259664  1
  B  B4  1  0.43145835  0.02878324  0.79923720  1
  B  B5  1  0.02878324  0.43145835  0.29923720  1
  B  B6  1  0.45679386  0.17785874  0.32858371  1
  B  B7  1  0.17785874  0.45679386  0.82858371  1
  B  B8  1  0.69483989  0.36460420  0.37190411  1
  B  B9  1  0.36460420  0.69483989  0.87190411  1
  B  B10  1  0.62944905  0.74985895  0.28267057  1
  B  B11  1  0.74985895  0.62944905  0.78267057  1
  B  B12  1  0.55788661  0.86450974  0.64433860  1
  B  B13  1  0.86450974  0.55788661  0.14433860  1
  O  O14  1  0.39939280  0.04914499  0.69792117  1
  O  O15  1  0.04914499  0.39939280  0.19792117  1
  O  O16  1  0.66878822  0.16122210  0.34478970  1
  O  O17  1  0.16122210  0.66878822  0.84478970  1
  O  O18  1  0.54086130  0.58770311  0.32125382  1
  O  O19  1  0.58770311  0.54086130  0.82125382  1
  O  O20  1  0.95151189  0.27316122  0.34890136  1
  O  O21  1  0.27316122  0.95151189  0.84890136  1
  O  O22  1  0.52374022  0.89332543  0.54980932  1
  O  O23  1  0.89332543  0.52374022  0.04980932  1
  O  O24  1  0.85828901  0.67938724  0.32229092  1
  O  O25  1  0.67938724  0.85828901  0.82229092  1
  O  O26  1  0.25190465  0.39455570  0.33432935  1
  O  O27  1  0.39455570  0.25190465  0.83432935  1
  O  O28  1  0.74202132  0.66003494  0.67972224  1
  O  O29  1  0.66003494  0.74202132  0.17972224  1
  O  O30  1  0.11006971  0.88363027  0.20720240  1
  O  O31  1  0.88363027  0.11006971  0.70720240  1
  O  O32  1  0.11095752  0.81236034  0.45771394  1
  O  O33  1  0.81236034  0.11095752  0.95771394  1
  O  O34  1  0.43782867  0.98585592  0.30761886  1
  O  O35  1  0.98585592  0.43782867  0.80761886  1
  F  F36  1  0.64912823  0.39097176  0.46955851  1
  F  F37  1  0.39097176  0.64912823  0.96955851  1
