# generated using pymatgen
data_Mg2B4H22C2S
_symmetry_space_group_name_H-M   'P 1'
_cell_length_a   7.63635622
_cell_length_b   7.94589815
_cell_length_c   12.66616163
_cell_angle_alpha   84.14755369
_cell_angle_beta   77.74866868
_cell_angle_gamma   61.28050605
_symmetry_Int_Tables_number   1
_chemical_formula_structural   Mg2B4H22C2S
_chemical_formula_sum   'Mg4 B8 H44 C4 S2'
_cell_volume   658.65854279
_cell_formula_units_Z   2
loop_
 _symmetry_equiv_pos_site_id
 _symmetry_equiv_pos_as_xyz
  1  'x, y, z'
loop_
 _atom_site_type_symbol
 _atom_site_label
 _atom_site_symmetry_multiplicity
 _atom_site_fract_x
 _atom_site_fract_y
 _atom_site_fract_z
 _atom_site_occupancy
  Mg  Mg0  1  0.39584276  0.17866294  0.94186618  1
  Mg  Mg1  1  0.57450570  0.82133706  0.44186618  1
  Mg  Mg2  1  0.30146238  0.46628773  0.29789536  1
  Mg  Mg3  1  0.76775011  0.53371227  0.79789536  1
  B  B4  1  0.37058921  0.32276597  0.12035837  1
  B  B5  1  0.69335517  0.67723403  0.62035837  1
  B  B6  1  0.93345019  0.67695822  0.32992465  1
  B  B7  1  0.61040841  0.32304178  0.82992465  1
  B  B8  1  0.46840671  0.16844820  0.39253749  1
  B  B9  1  0.63685491  0.83155180  0.89253749  1
  B  B10  1  0.43618279  0.65919274  0.35212778  1
  B  B11  1  0.09537553  0.34080726  0.85212778  1
  H  H12  1  0.86032578  0.29693057  0.08984420  1
  H  H13  1  0.15725635  0.70306943  0.58984420  1
  H  H14  1  0.87199383  0.12422433  0.19457254  1
  H  H15  1  0.99621816  0.87577567  0.69457254  1
  H  H16  1  0.97557023  0.28176497  0.20227270  1
  H  H17  1  0.25733520  0.71823503  0.70227270  1
  H  H18  1  0.97895783  0.00984029  0.97211293  1
  H  H19  1  0.98879812  0.99015971  0.47211293  1
  H  H20  1  0.23653669  0.82459092  0.93888810  1
  H  H21  1  0.06112760  0.17540908  0.43888810  1
  H  H22  1  0.07398243  0.80471266  0.05872257  1
  H  H23  1  0.87869509  0.19528734  0.55872257  1
  H  H24  1  0.50645417  0.16241098  0.09112647  1
  H  H25  1  0.66886515  0.83758902  0.59112647  1
  H  H26  1  0.26482677  0.41418058  0.05322243  1
  H  H27  1  0.67900734  0.58581942  0.55322243  1
  H  H28  1  0.45223162  0.41500360  0.13897934  1
  H  H29  1  0.86723522  0.58499640  0.63897934  1
  H  H30  1  0.25962451  0.30073706  0.20014547  1
  H  H31  1  0.56036157  0.69926294  0.70014547  1
  H  H32  1  0.04818888  0.71228257  0.25833220  1
  H  H33  1  0.76047145  0.28771743  0.75833220  1
  H  H34  1  0.79988270  0.68508686  0.28811800  1
  H  H35  1  0.48496955  0.31491314  0.78811800  1
  H  H36  1  0.87350921  0.79431279  0.40220316  1
  H  H37  1  0.66782200  0.20568721  0.90220316  1
  H  H38  1  0.01582399  0.51556911  0.36957627  1
  H  H39  1  0.53139309  0.48443089  0.86957627  1
  H  H40  1  0.55965435  0.09781776  0.46717078  1
  H  H41  1  0.65747211  0.90218224  0.96717078  1
  H  H42  1  0.30034778  0.29703143  0.43222803  1
  H  H43  1  0.59737921  0.70296857  0.93222803  1
  H  H44  1  0.44157834  0.05860066  0.34467179  1
  H  H45  1  0.50017899  0.94139934  0.84467179  1
  H  H46  1  0.56916358  0.22679511  0.32593955  1
  H  H47  1  0.79595869  0.77320489  0.82593955  1
  H  H48  1  0.48992656  0.59040334  0.26094303  1
  H  H49  1  0.08032990  0.40959666  0.76094303  1
  H  H50  1  0.37903381  0.83066904  0.33897448  1
  H  H51  1  0.20970285  0.16933096  0.83897448  1
  H  H52  1  0.58273447  0.57329637  0.39712956  1
  H  H53  1  0.15603084  0.42670363  0.89712956  1
  H  H54  1  0.29487406  0.64045065  0.40914784  1
  H  H55  1  0.93532471  0.35954935  0.90914784  1
  C  C56  1  0.95147071  0.19985852  0.14802632  1
  C  C57  1  0.15132922  0.80014148  0.64802632  1
  C  C58  1  0.11203956  0.90419935  0.00513355  1
  C  C59  1  0.01623890  0.09580065  0.50513355  1
  S  S60  1  0.19687154  0.02343993  0.08020885  1
  S  S61  1  0.22031147  0.97656007  0.58020885  1
