# generated using pymatgen
data_Ho2Al3Co14
_symmetry_space_group_name_H-M   'P 1'
_cell_length_a   8.34168407
_cell_length_b   8.34168407
_cell_length_c   8.14831072
_cell_angle_alpha   90.00000000
_cell_angle_beta   90.00000000
_cell_angle_gamma   119.97029639
_symmetry_Int_Tables_number   1
_chemical_formula_structural   Ho2Al3Co14
_chemical_formula_sum   'Ho4 Al6 Co28'
_cell_volume   491.17426182
_cell_formula_units_Z   2
loop_
 _symmetry_equiv_pos_site_id
 _symmetry_equiv_pos_as_xyz
  1  'x, y, z'
loop_
 _atom_site_type_symbol
 _atom_site_label
 _atom_site_symmetry_multiplicity
 _atom_site_fract_x
 _atom_site_fract_y
 _atom_site_fract_z
 _atom_site_occupancy
  Ho  Ho0  1  -0.00007900  0.00007900  0.75000000  1
  Ho  Ho1  1  0.00007900  -0.00007900  0.25000000  1
  Ho  Ho2  1  0.66671793  0.33328207  0.25000000  1
  Ho  Ho3  1  0.33328207  0.66671793  0.75000000  1
  Al  Al4  1  0.50000000  0.00000000  0.50000000  1
  Al  Al5  1  0.50000000  0.50000000  0.50000000  1
  Al  Al6  1  0.00000000  0.50000000  0.50000000  1
  Al  Al7  1  0.50000000  0.00000000  -0.00000000  1
  Al  Al8  1  0.50000000  0.50000000  -0.00000000  1
  Al  Al9  1  0.00000000  0.50000000  -0.00000000  1
  Co  Co10  1  0.66675720  0.33324280  0.61009529  1
  Co  Co11  1  0.33324280  0.66675720  0.38990471  1
  Co  Co12  1  0.33324280  0.66675720  0.11009529  1
  Co  Co13  1  0.66675720  0.33324280  0.88990471  1
  Co  Co14  1  0.67347521  0.04460629  0.75000000  1
  Co  Co15  1  0.37114101  0.32655667  0.75000000  1
  Co  Co16  1  0.95564714  0.62886606  0.75000000  1
  Co  Co17  1  0.37113394  0.04435286  0.75000000  1
  Co  Co18  1  0.95539371  0.32652479  0.75000000  1
  Co  Co19  1  0.67344333  0.62885899  0.75000000  1
  Co  Co20  1  0.32652479  0.95539371  0.25000000  1
  Co  Co21  1  0.62885899  0.67344333  0.25000000  1
  Co  Co22  1  0.04435286  0.37113394  0.25000000  1
  Co  Co23  1  0.62886606  0.95564714  0.25000000  1
  Co  Co24  1  0.04460629  0.67347521  0.25000000  1
  Co  Co25  1  0.32655667  0.37114101  0.25000000  1
  Co  Co26  1  0.83755366  0.67498692  0.48517049  1
  Co  Co27  1  0.83748037  0.16251963  0.48524851  1
  Co  Co28  1  0.32501308  0.16244634  0.48517049  1
  Co  Co29  1  0.16244634  0.32501308  0.51482951  1
  Co  Co30  1  0.16251963  0.83748037  0.51475149  1
  Co  Co31  1  0.67498692  0.83755366  0.51482951  1
  Co  Co32  1  0.16244634  0.32501308  0.98517049  1
  Co  Co33  1  0.16251963  0.83748037  0.98524851  1
  Co  Co34  1  0.67498692  0.83755366  0.98517049  1
  Co  Co35  1  0.83755366  0.67498692  0.01482951  1
  Co  Co36  1  0.83748037  0.16251963  0.01475149  1
  Co  Co37  1  0.32501308  0.16244634  0.01482951  1
