# generated using pymatgen
data_Er2Co12Ni5
_symmetry_space_group_name_H-M   'P 1'
_cell_length_a   8.04852750
_cell_length_b   8.28656012
_cell_length_c   8.28656012
_cell_angle_alpha   120.00670756
_cell_angle_beta   90.00000000
_cell_angle_gamma   90.00000000
_symmetry_Int_Tables_number   1
_chemical_formula_structural   Er2Co12Ni5
_chemical_formula_sum   'Er4 Co24 Ni10'
_cell_volume   478.59292889
_cell_formula_units_Z   2
loop_
 _symmetry_equiv_pos_site_id
 _symmetry_equiv_pos_as_xyz
  1  'x, y, z'
loop_
 _atom_site_type_symbol
 _atom_site_label
 _atom_site_symmetry_multiplicity
 _atom_site_fract_x
 _atom_site_fract_y
 _atom_site_fract_z
 _atom_site_occupancy
  Er  Er0  1  0.75000000  0.00001068  0.99998932  1
  Er  Er1  1  0.25000000  0.99998932  0.00001068  1
  Er  Er2  1  0.25000000  0.66652590  0.33347410  1
  Er  Er3  1  0.75000000  0.33347410  0.66652590  1
  Co  Co4  1  0.75000000  0.67338930  0.04862781  1
  Co  Co5  1  0.75000000  0.37524551  0.32666844  1
  Co  Co6  1  0.75000000  0.95129927  0.62474032  1
  Co  Co7  1  0.75000000  0.37525968  0.04870073  1
  Co  Co8  1  0.75000000  0.95137219  0.32661070  1
  Co  Co9  1  0.75000000  0.67333156  0.62475449  1
  Co  Co10  1  0.25000000  0.32661070  0.95137219  1
  Co  Co11  1  0.25000000  0.62475449  0.67333156  1
  Co  Co12  1  0.25000000  0.04870073  0.37525968  1
  Co  Co13  1  0.25000000  0.62474032  0.95129927  1
  Co  Co14  1  0.25000000  0.04862781  0.67338930  1
  Co  Co15  1  0.25000000  0.32666844  0.37524551  1
  Co  Co16  1  0.47576823  0.83763082  0.67538726  1
  Co  Co17  1  0.47574639  0.83773609  0.16226391  1
  Co  Co18  1  0.47576823  0.32461274  0.16236918  1
  Co  Co19  1  0.52423177  0.16236918  0.32461274  1
  Co  Co20  1  0.52425361  0.16226391  0.83773609  1
  Co  Co21  1  0.52423177  0.67538726  0.83763082  1
  Co  Co22  1  0.97576823  0.16236918  0.32461274  1
  Co  Co23  1  0.97574639  0.16226391  0.83773609  1
  Co  Co24  1  0.97576823  0.67538726  0.83763082  1
  Co  Co25  1  0.02423177  0.83763082  0.67538726  1
  Co  Co26  1  0.02425361  0.83773609  0.16226391  1
  Co  Co27  1  0.02423177  0.32461274  0.16236918  1
  Ni  Ni28  1  0.59885365  0.66663079  0.33336921  1
  Ni  Ni29  1  0.40114635  0.33336921  0.66663079  1
  Ni  Ni30  1  0.09885365  0.33336921  0.66663079  1
  Ni  Ni31  1  0.90114635  0.66663079  0.33336921  1
  Ni  Ni32  1  0.50000000  0.50000000  0.00000000  1
  Ni  Ni33  1  0.50000000  0.50000000  0.50000000  1
  Ni  Ni34  1  0.50000000  -0.00000000  0.50000000  1
  Ni  Ni35  1  -0.00000000  0.50000000  -0.00000000  1
  Ni  Ni36  1  -0.00000000  0.50000000  0.50000000  1
  Ni  Ni37  1  -0.00000000  0.00000000  0.50000000  1
