# generated using pymatgen
data_Ba2GaBiTe5
_symmetry_space_group_name_H-M   'P 1'
_cell_length_a   9.80223752
_cell_length_b   10.04968840
_cell_length_c   13.71192647
_cell_angle_alpha   90.00000000
_cell_angle_beta   90.00000000
_cell_angle_gamma   90.00000000
_symmetry_Int_Tables_number   1
_chemical_formula_structural   Ba2GaBiTe5
_chemical_formula_sum   'Ba8 Ga4 Bi4 Te20'
_cell_volume   1350.75409777
_cell_formula_units_Z   4
loop_
 _symmetry_equiv_pos_site_id
 _symmetry_equiv_pos_as_xyz
  1  'x, y, z'
loop_
 _atom_site_type_symbol
 _atom_site_label
 _atom_site_symmetry_multiplicity
 _atom_site_fract_x
 _atom_site_fract_y
 _atom_site_fract_z
 _atom_site_occupancy
  Ba  Ba0  1  0.00726826  0.11809739  0.82557032  1
  Ba  Ba1  1  0.49273174  0.38190261  0.32557032  1
  Ba  Ba2  1  0.50726826  0.88190261  0.17442968  1
  Ba  Ba3  1  0.99273174  0.61809739  0.67442968  1
  Ba  Ba4  1  0.99273174  0.88190261  0.17442968  1
  Ba  Ba5  1  0.50726826  0.61809739  0.67442968  1
  Ba  Ba6  1  0.49273174  0.11809739  0.82557032  1
  Ba  Ba7  1  0.00726826  0.38190261  0.32557032  1
  Ga  Ga8  1  0.25000000  0.33440295  0.60117946  1
  Ga  Ga9  1  0.25000000  0.16559705  0.10117946  1
  Ga  Ga10  1  0.75000000  0.66559705  0.39882054  1
  Ga  Ga11  1  0.75000000  0.83440295  0.89882054  1
  Bi  Bi12  1  0.25000000  0.97601692  0.52744243  1
  Bi  Bi13  1  0.25000000  0.52398308  0.02744243  1
  Bi  Bi14  1  0.75000000  0.02398308  0.47255757  1
  Bi  Bi15  1  0.75000000  0.47601692  0.97255757  1
  Te  Te16  1  0.03291932  0.17913476  0.56324888  1
  Te  Te17  1  0.46708068  0.32086524  0.06324888  1
  Te  Te18  1  0.53291932  0.82086524  0.43675112  1
  Te  Te19  1  0.96708068  0.67913476  0.93675112  1
  Te  Te20  1  0.96708068  0.82086524  0.43675112  1
  Te  Te21  1  0.53291932  0.67913476  0.93675112  1
  Te  Te22  1  0.46708068  0.17913476  0.56324888  1
  Te  Te23  1  0.03291932  0.32086524  0.06324888  1
  Te  Te24  1  0.25000000  0.87340998  0.72874684  1
  Te  Te25  1  0.25000000  0.62659002  0.22874684  1
  Te  Te26  1  0.75000000  0.12659002  0.27125316  1
  Te  Te27  1  0.75000000  0.37340998  0.77125316  1
  Te  Te28  1  0.25000000  0.39257308  0.78924234  1
  Te  Te29  1  0.25000000  0.10742692  0.28924234  1
  Te  Te30  1  0.75000000  0.60742692  0.21075766  1
  Te  Te31  1  0.75000000  0.89257308  0.71075766  1
  Te  Te32  1  0.25000000  0.95516255  0.99157463  1
  Te  Te33  1  0.25000000  0.54483745  0.49157463  1
  Te  Te34  1  0.75000000  0.04483745  0.00842537  1
  Te  Te35  1  0.75000000  0.45516255  0.50842537  1
