# generated using pymatgen
data_Y2Al3Co14
_symmetry_space_group_name_H-M   'P 1'
_cell_length_a   8.17334456
_cell_length_b   8.36936806
_cell_length_c   8.36936806
_cell_angle_alpha   120.05499915
_cell_angle_beta   90.00000000
_cell_angle_gamma   90.00000000
_symmetry_Int_Tables_number   1
_chemical_formula_structural   Y2Al3Co14
_chemical_formula_sum   'Y4 Al6 Co28'
_cell_volume   495.53555105
_cell_formula_units_Z   2
loop_
 _symmetry_equiv_pos_site_id
 _symmetry_equiv_pos_as_xyz
  1  'x, y, z'
loop_
 _atom_site_type_symbol
 _atom_site_label
 _atom_site_symmetry_multiplicity
 _atom_site_fract_x
 _atom_site_fract_y
 _atom_site_fract_z
 _atom_site_occupancy
  Y  Y0  1  0.75000000  0.99996565  0.00003435  1
  Y  Y1  1  0.25000000  0.00003435  0.99996565  1
  Y  Y2  1  0.25000000  0.66679203  0.33320797  1
  Y  Y3  1  0.75000000  0.33320797  0.66679203  1
  Al  Al4  1  0.50000000  0.50000000  0.00000000  1
  Al  Al5  1  0.50000000  0.50000000  0.50000000  1
  Al  Al6  1  0.50000000  0.00000000  0.50000000  1
  Al  Al7  1  0.00000000  0.50000000  0.00000000  1
  Al  Al8  1  0.00000000  0.50000000  0.50000000  1
  Al  Al9  1  0.00000000  0.00000000  0.50000000  1
  Co  Co10  1  0.61034223  0.66674596  0.33325404  1
  Co  Co11  1  0.38965777  0.33325404  0.66674596  1
  Co  Co12  1  0.11034223  0.33325404  0.66674596  1
  Co  Co13  1  0.88965777  0.66674596  0.33325404  1
  Co  Co14  1  0.75000000  0.67289081  0.04301091  1
  Co  Co15  1  0.75000000  0.37015562  0.32713199  1
  Co  Co16  1  0.75000000  0.95707592  0.62995941  1
  Co  Co17  1  0.75000000  0.37004059  0.04292408  1
  Co  Co18  1  0.75000000  0.95698909  0.32710919  1
  Co  Co19  1  0.75000000  0.67286801  0.62984438  1
  Co  Co20  1  0.25000000  0.32710919  0.95698909  1
  Co  Co21  1  0.25000000  0.62984438  0.67286801  1
  Co  Co22  1  0.25000000  0.04292408  0.37004059  1
  Co  Co23  1  0.25000000  0.62995941  0.95707592  1
  Co  Co24  1  0.25000000  0.04301091  0.67289081  1
  Co  Co25  1  0.25000000  0.32713199  0.37015562  1
  Co  Co26  1  0.48710238  0.83752738  0.67490203  1
  Co  Co27  1  0.48708491  0.83736260  0.16263740  1
  Co  Co28  1  0.48710238  0.32509797  0.16247262  1
  Co  Co29  1  0.51289762  0.16247262  0.32509797  1
  Co  Co30  1  0.51291509  0.16263740  0.83736260  1
  Co  Co31  1  0.51289762  0.67490203  0.83752738  1
  Co  Co32  1  0.98710238  0.16247262  0.32509797  1
  Co  Co33  1  0.98708491  0.16263740  0.83736260  1
  Co  Co34  1  0.98710238  0.67490203  0.83752738  1
  Co  Co35  1  0.01289762  0.83752738  0.67490203  1
  Co  Co36  1  0.01291509  0.83736260  0.16263740  1
  Co  Co37  1  0.01289762  0.32509797  0.16247262  1
