# generated using pymatgen
data_Th5Sn4
_symmetry_space_group_name_H-M   'P 1'
_cell_length_a   8.31384547
_cell_length_b   8.44376192
_cell_length_c   15.84908841
_cell_angle_alpha   90.00000000
_cell_angle_beta   90.00000000
_cell_angle_gamma   90.00000000
_symmetry_Int_Tables_number   1
_chemical_formula_structural   Th5Sn4
_chemical_formula_sum   'Th20 Sn16'
_cell_volume   1112.60809511
_cell_formula_units_Z   4
loop_
 _symmetry_equiv_pos_site_id
 _symmetry_equiv_pos_as_xyz
  1  'x, y, z'
loop_
 _atom_site_type_symbol
 _atom_site_label
 _atom_site_symmetry_multiplicity
 _atom_site_fract_x
 _atom_site_fract_y
 _atom_site_fract_z
 _atom_site_occupancy
  Th  Th0  1  0.37216084  0.83755073  0.87794057  1
  Th  Th1  1  0.87216084  0.66244927  0.62205943  1
  Th  Th2  1  0.62783916  0.16244927  0.37794057  1
  Th  Th3  1  0.12783916  0.33755073  0.12205943  1
  Th  Th4  1  0.62783916  0.16244927  0.12205943  1
  Th  Th5  1  0.12783916  0.33755073  0.37794057  1
  Th  Th6  1  0.37216084  0.83755073  0.62205943  1
  Th  Th7  1  0.87216084  0.66244927  0.87794057  1
  Th  Th8  1  0.51925013  0.32044007  0.90080391  1
  Th  Th9  1  0.01925013  0.17955993  0.59919609  1
  Th  Th10  1  0.48074987  0.67955993  0.40080391  1
  Th  Th11  1  0.98074987  0.82044007  0.09919609  1
  Th  Th12  1  0.48074987  0.67955993  0.09919609  1
  Th  Th13  1  0.98074987  0.82044007  0.40080391  1
  Th  Th14  1  0.51925013  0.32044007  0.59919609  1
  Th  Th15  1  0.01925013  0.17955993  0.90080391  1
  Th  Th16  1  0.19210508  0.49821461  0.75000000  1
  Th  Th17  1  0.69210508  0.00178539  0.75000000  1
  Th  Th18  1  0.80789492  0.50178539  0.25000000  1
  Th  Th19  1  0.30789492  0.99821461  0.25000000  1
  Sn  Sn20  1  0.28838859  0.03290812  0.04270973  1
  Sn  Sn21  1  0.78838859  0.46709188  0.45729027  1
  Sn  Sn22  1  0.71161141  0.96709188  0.54270973  1
  Sn  Sn23  1  0.21161141  0.53290812  0.95729027  1
  Sn  Sn24  1  0.71161141  0.96709188  0.95729027  1
  Sn  Sn25  1  0.21161141  0.53290812  0.54270973  1
  Sn  Sn26  1  0.28838859  0.03290812  0.45729027  1
  Sn  Sn27  1  0.78838859  0.46709188  0.04270973  1
  Sn  Sn28  1  0.56581939  0.61151435  0.75000000  1
  Sn  Sn29  1  0.06581939  0.88848565  0.75000000  1
  Sn  Sn30  1  0.43418061  0.38848565  0.25000000  1
  Sn  Sn31  1  0.93418061  0.11151435  0.25000000  1
  Sn  Sn32  1  0.32223322  0.14030408  0.75000000  1
  Sn  Sn33  1  0.82223322  0.35969592  0.75000000  1
  Sn  Sn34  1  0.67776678  0.85969592  0.25000000  1
  Sn  Sn35  1  0.17776678  0.64030408  0.25000000  1
