# generated using pymatgen
data_FeH7C3NO6
_symmetry_space_group_name_H-M   'P 1'
_cell_length_a   8.33869722
_cell_length_b   12.96218108
_cell_length_c   12.96267511
_cell_angle_alpha   119.96233331
_cell_angle_beta   90.00000000
_cell_angle_gamma   90.00000000
_symmetry_Int_Tables_number   1
_chemical_formula_structural   FeH7C3NO6
_chemical_formula_sum   'Fe6 H42 C18 N6 O36'
_cell_volume   1213.85348678
_cell_formula_units_Z   6
loop_
 _symmetry_equiv_pos_site_id
 _symmetry_equiv_pos_as_xyz
  1  'x, y, z'
loop_
 _atom_site_type_symbol
 _atom_site_label
 _atom_site_symmetry_multiplicity
 _atom_site_fract_x
 _atom_site_fract_y
 _atom_site_fract_z
 _atom_site_occupancy
  Fe  Fe0  1  0.91273324  0.99507964  0.33105912  1
  Fe  Fe1  1  0.91267537  0.66906651  0.66439517  1
  Fe  Fe2  1  0.91296286  0.33592322  0.00488053  1
  Fe  Fe3  1  0.41273324  0.00492036  0.66894088  1
  Fe  Fe4  1  0.41267537  0.33093349  0.33560483  1
  Fe  Fe5  1  0.41296286  0.66407678  0.99511947  1
  H  H6  1  0.17778727  0.87043841  0.14880299  1
  H  H7  1  0.17785817  0.85126361  0.72172629  1
  H  H8  1  0.17775463  0.27825293  0.12951689  1
  H  H9  1  0.67778727  0.12956159  0.85119701  1
  H  H10  1  0.67785817  0.14873639  0.27827371  1
  H  H11  1  0.67775463  0.72174707  0.87048311  1
  H  H12  1  0.19654311  0.94750869  0.45508235  1
  H  H13  1  0.19653362  0.54486838  0.49244623  1
  H  H14  1  0.19646088  0.50755876  0.05250709  1
  H  H15  1  0.69654311  0.05249131  0.54491765  1
  H  H16  1  0.69653362  0.45513162  0.50755377  1
  H  H17  1  0.69646088  0.49244124  0.94749291  1
  H  H18  1  0.12153701  0.21483875  0.38342687  1
  H  H19  1  0.12131292  0.61642978  0.83123511  1
  H  H20  1  0.12135879  0.16871623  0.78506289  1
  H  H21  1  0.62153701  0.78516125  0.61657313  1
  H  H22  1  0.62131292  0.38357022  0.16876489  1
  H  H23  1  0.62135879  0.83128377  0.21493711  1
  H  H24  1  0.00086177  0.72704251  0.30741616  1
  H  H25  1  0.00077362  0.69249013  0.41958591  1
  H  H26  1  0.00089550  0.58038856  0.27297275  1
  H  H27  1  0.50086177  0.27295749  0.69258384  1
  H  H28  1  0.50077362  0.30750987  0.58041409  1
  H  H29  1  0.50089550  0.41961144  0.72702725  1
  H  H30  1  0.83782076  0.66660804  0.33332823  1
  H  H31  1  0.33782076  0.33339196  0.66667177  1
  H  H32  1  0.00177793  0.24734321  0.60552425  1
  H  H33  1  0.00188101  0.39454281  0.64172475  1
  H  H34  1  0.00180491  0.35819726  0.75268188  1
  H  H35  1  0.50177793  0.75265679  0.39447575  1
  H  H36  1  0.50188101  0.60545719  0.35827525  1
  H  H37  1  0.50180491  0.64180274  0.24731812  1
  H  H38  1  0.83873108  0.33338627  0.66668695  1
  H  H39  1  0.33873108  0.66661373  0.33331305  1
  H  H40  1  0.32226106  0.05973760  0.08657848  1
  H  H41  1  0.32233750  0.91348875  0.97323614  1
  H  H42  1  0.32232209  0.02680600  0.94022631  1
  H  H43  1  0.82226106  0.94026240  0.91342152  1
  H  H44  1  0.82233750  0.08651125  0.02676386  1
  H  H45  1  0.82232209  0.97319400  0.05977369  1
  H  H46  1  0.48511154  0.99999461  0.00000846  1
  H  H47  1  0.98511154  0.00000539  0.99999154  1
  C  C48  1  0.16905694  0.81184898  0.18794267  1
  C  C49  1  0.16898508  0.81204809  0.62407563  1
  C  C50  1  0.16902515  0.37584903  0.18808367  1
  C  C51  1  0.66905694  0.18815102  0.81205733  1
  C  C52  1  0.66898508  0.18795191  0.37592437  1
  C  C53  1  0.66902515  0.62415097  0.81191633  1
  C  C54  1  0.17560623  0.04374851  0.51537444  1
  C  C55  1  0.17571009  0.48444844  0.52834821  1
  C  C56  1  0.17558031  0.47162167  0.95623082  1
  C  C57  1  0.67560623  0.95625149  0.48462556  1
  C  C58  1  0.67571009  0.51555156  0.47165179  1
  C  C59  1  0.67558031  0.52837833  0.04376918  1
  C  C60  1  0.14659393  0.15042226  0.28864609  1
  C  C61  1  0.14663107  0.71120411  0.86169689  1
  C  C62  1  0.14657984  0.13828330  0.84945332  1
  C  C63  1  0.64659393  0.84957774  0.71135391  1
  C  C64  1  0.64663107  0.28879589  0.13830311  1
  C  C65  1  0.64657984  0.86171670  0.15054668  1
  N  N66  1  0.96045722  0.66664147  0.33332114  1
  N  N67  1  0.46045722  0.33335853  0.66667886  1
  N  N68  1  0.96150500  0.33337337  0.66665379  1
  N  N69  1  0.46150500  0.66662663  0.33334621  1
  N  N70  1  0.36241708  0.00002984  0.00002546  1
  N  N71  1  0.86241708  0.99997016  0.99997454  1
  O  O72  1  0.06094251  0.83785066  0.26738429  1
  O  O73  1  0.06092601  0.73261725  0.57078998  1
  O  O74  1  0.06121778  0.42954990  0.16230967  1
  O  O75  1  0.56094251  0.16214934  0.73261571  1
  O  O76  1  0.56092601  0.26738275  0.42921002  1
  O  O77  1  0.56121778  0.57045010  0.83769033  1
  O  O78  1  0.26406388  0.72517608  0.15272890  1
  O  O79  1  0.26402400  0.84728437  0.57250562  1
  O  O80  1  0.26429670  0.42710741  0.27486171  1
  O  O81  1  0.76406388  0.27482392  0.84727110  1
  O  O82  1  0.76402400  0.15271563  0.42749438  1
  O  O83  1  0.76429670  0.57289259  0.72513829  1
  O  O84  1  0.06053482  0.09165148  0.48929140  1
  O  O85  1  0.06051779  0.51038387  0.60222037  1
  O  O86  1  0.06060340  0.39755245  0.90836358  1
  O  O87  1  0.56053482  0.90834852  0.51070860  1
  O  O88  1  0.56051779  0.48961613  0.39777963  1
  O  O89  1  0.56060340  0.60244755  0.09163642  1
  O  O90  1  0.26498529  0.09917504  0.60550257  1
  O  O91  1  0.26528529  0.39446495  0.49371311  1
  O  O92  1  0.26488332  0.50635751  0.90080766  1
  O  O93  1  0.76498529  0.90082496  0.39449743  1
  O  O94  1  0.76528529  0.60553505  0.50628689  1
  O  O95  1  0.76488332  0.49364249  0.09919234  1
  O  O96  1  0.05995391  0.05870576  0.23488954  1
  O  O97  1  0.06007379  0.76532162  0.82402584  1
  O  O98  1  0.06023490  0.17612310  0.94124785  1
  O  O99  1  0.55995391  0.94129424  0.76511046  1
  O  O100  1  0.56007379  0.23467838  0.17597416  1
  O  O101  1  0.56023490  0.82387690  0.05875215  1
  O  O102  1  0.26385781  0.17437904  0.24058534  1
  O  O103  1  0.26408892  0.75884721  0.93353437  1
  O  O104  1  0.26396530  0.06628167  0.82531133  1
  O  O105  1  0.76385781  0.82562096  0.75941466  1
  O  O106  1  0.76408892  0.24115279  0.06646563  1
  O  O107  1  0.76396530  0.93371833  0.17468867  1
