# generated using pymatgen
data_WO2
_symmetry_space_group_name_H-M   'P 1'
_cell_length_a   5.70310254
_cell_length_b   6.55903361
_cell_length_c   24.20311634
_cell_angle_alpha   57.08410170
_cell_angle_beta   71.47436366
_cell_angle_gamma   55.16816528
_symmetry_Int_Tables_number   1
_chemical_formula_structural   WO2
_chemical_formula_sum   'W16 O32'
_cell_volume   623.81613151
_cell_formula_units_Z   16
loop_
 _symmetry_equiv_pos_site_id
 _symmetry_equiv_pos_as_xyz
  1  'x, y, z'
loop_
 _atom_site_type_symbol
 _atom_site_label
 _atom_site_symmetry_multiplicity
 _atom_site_fract_x
 _atom_site_fract_y
 _atom_site_fract_z
 _atom_site_occupancy
  W  W0  1  0.47923245  0.50063477  0.12342718  1
  W  W1  1  0.58853531  0.44776368  0.25314780  1
  W  W2  1  0.47948897  0.02453339  0.12351002  1
  W  W3  1  0.00024174  0.24246324  0.50539299  1
  W  W4  1  0.50887314  0.47023977  0.38562574  1
  W  W5  1  0.96640546  0.75497425  0.25564877  1
  W  W6  1  0.98015320  0.27378678  0.74322770  1
  W  W7  1  0.50121955  0.97986910  0.38472579  1
  W  W8  1  0.49017628  0.50578315  0.62418950  1
  W  W9  1  -0.00304039  0.74594359  0.50388604  1
  W  W10  1  0.48909872  0.00741071  0.62399734  1
  W  W11  1  0.46765216  0.05119392  0.86236557  1
  W  W12  1  0.46730651  0.53185553  0.86238894  1
  W  W13  1  0.97900769  0.77282643  0.74385767  1
  W  W14  1  0.57157650  0.48155470  0.99090126  1
  W  W15  1  0.94590375  0.78629136  0.99525575  1
  O  O16  1  0.25868977  0.35625492  0.03541654  1
  O  O17  1  0.27638429  0.28838294  0.16082088  1
  O  O18  1  0.25945839  0.74136373  0.03537683  1
  O  O19  1  0.73850393  0.21159107  0.08472986  1
  O  O20  1  0.27784072  0.76057257  0.17476881  1
  O  O21  1  0.27792491  0.31781610  0.29827027  1
  O  O22  1  0.73880179  0.20352257  0.20903543  1
  O  O23  1  0.30366126  0.23945048  0.43203262  1
  O  O24  1  0.28030217  0.70588930  0.29811865  1
  O  O25  1  0.67214763  0.75883008  0.07748921  1
  O  O26  1  0.74684832  0.17436400  0.34842676  1
  O  O27  1  0.74095616  0.71862989  0.20920816  1
  O  O28  1  0.19834569  0.30021317  0.55065509  1
  O  O29  1  0.29796245  0.75156152  0.42756053  1
  O  O30  1  0.80083440  0.19453167  0.45811096  1
  O  O31  1  0.28648615  0.26731170  0.66979881  1
  O  O32  1  0.19609803  0.79857559  0.54979252  1
  O  O33  1  0.70502821  0.72229698  0.33542184  1
  O  O34  1  0.69597208  0.24667207  0.57779669  1
  O  O35  1  0.80250961  0.68559752  0.45898262  1
  O  O36  1  0.28244659  0.76776716  0.67028887  1
  O  O37  1  0.18060726  0.33424818  0.78788333  1
  O  O38  1  0.78068660  0.21405611  0.69744700  1
  O  O39  1  0.26988754  0.31277925  0.90075866  1
  O  O40  1  0.18038222  0.83435644  0.78793996  1
  O  O41  1  0.69443109  0.74748847  0.57750514  1
  O  O42  1  0.68864321  0.27499829  0.81578889  1
  O  O43  1  0.78097991  0.71546642  0.69732516  1
  O  O44  1  0.26394104  0.79034357  0.91343247  1
  O  O45  1  0.73058337  0.22603855  0.94870350  1
  O  O46  1  0.67796926  0.77054361  0.82053846  1
  O  O47  1  0.73048691  0.74830072  0.94864741  1
