# generated using pymatgen
data_NdCO4
_symmetry_space_group_name_H-M   'P 1'
_cell_length_a   9.93309969
_cell_length_b   12.58612250
_cell_length_c   12.58592762
_cell_angle_alpha   120.00011754
_cell_angle_beta   90.00000000
_cell_angle_gamma   90.00000000
_symmetry_Int_Tables_number   1
_chemical_formula_structural   NdCO4
_chemical_formula_sum   'Nd18 C18 O72'
_cell_volume   1362.67439571
_cell_formula_units_Z   18
loop_
 _symmetry_equiv_pos_site_id
 _symmetry_equiv_pos_as_xyz
  1  'x, y, z'
loop_
 _atom_site_type_symbol
 _atom_site_label
 _atom_site_symmetry_multiplicity
 _atom_site_fract_x
 _atom_site_fract_y
 _atom_site_fract_z
 _atom_site_occupancy
  Nd  Nd0  1  0.24805555  0.10961689  0.87982875  1
  Nd  Nd1  1  0.24805167  0.12018348  0.22978457  1
  Nd  Nd2  1  0.24804724  0.77021684  0.89039420  1
  Nd  Nd3  1  0.75194445  0.10961689  0.87982875  1
  Nd  Nd4  1  0.75194833  0.12018348  0.22978457  1
  Nd  Nd5  1  0.75195276  0.77021684  0.89039420  1
  Nd  Nd6  1  0.25745742  0.77989323  0.56228350  1
  Nd  Nd7  1  0.25745623  0.43771756  0.21760691  1
  Nd  Nd8  1  0.25745644  0.78239246  0.22011594  1
  Nd  Nd9  1  0.74254258  0.77989323  0.56228350  1
  Nd  Nd10  1  0.74254377  0.43771756  0.21760691  1
  Nd  Nd11  1  0.74254356  0.78239246  0.22011594  1
  Nd  Nd12  1  0.24679457  0.44684628  0.89926210  1
  Nd  Nd13  1  0.24679112  0.10073415  0.54757536  1
  Nd  Nd14  1  0.24679647  0.45242324  0.55317144  1
  Nd  Nd15  1  0.75320543  0.44684628  0.89926210  1
  Nd  Nd16  1  0.75320888  0.10073415  0.54757536  1
  Nd  Nd17  1  0.75320353  0.45242324  0.55317144  1
  C  C18  1  -0.00000000  0.86062504  0.35443974  1
  C  C19  1  -0.00000000  0.64552089  0.50616013  1
  C  C20  1  -0.00000000  0.49381723  0.13938214  1
  C  C21  1  -0.00000000  0.83686168  0.80811568  1
  C  C22  1  -0.00000000  0.19187369  0.02873919  1
  C  C23  1  -0.00000000  0.97125681  0.16312899  1
  C  C24  1  -0.00000000  0.29851284  0.82832282  1
  C  C25  1  -0.00000000  0.17168221  0.47019033  1
  C  C26  1  -0.00000000  0.52982181  0.70149569  1
  C  C27  1  0.50000000  0.86891991  0.42263859  1
  C  C28  1  0.50000000  0.57735665  0.44627757  1
  C  C29  1  0.50000000  0.55370995  0.13108615  1
  C  C30  1  0.50000000  0.15821753  0.68781748  1
  C  C31  1  0.50000000  0.31216838  0.47040703  1
  C  C32  1  0.50000000  0.52959733  0.84176529  1
  C  C33  1  0.50000000  0.96723160  0.80047313  1
  C  C34  1  0.50000000  0.19953679  0.16675485  1
  C  C35  1  0.50000000  0.83323637  0.03277784  1
  O  O36  1  -0.00000000  0.76007297  0.24960064  1
  O  O37  1  -0.00000000  0.75036046  0.51042456  1
  O  O38  1  -0.00000000  0.48952599  0.23992827  1
  O  O39  1  0.11416640  0.91004520  0.40386968  1
  O  O40  1  0.11415078  0.59613008  0.50616367  1
  O  O41  1  0.11416745  0.49382802  0.08996079  1
  O  O42  1  0.88583360  0.91004520  0.40386968  1
  O  O43  1  0.88584922  0.59613008  0.50616367  1
  O  O44  1  0.88583255  0.49382802  0.08996079  1
  O  O45  1  -0.00000000  0.82703694  0.90651584  1
  O  O46  1  -0.00000000  0.09348388  0.92050222  1
  O  O47  1  -0.00000000  0.07948645  0.17296175  1
  O  O48  1  0.11488675  0.83929220  0.76119030  1
  O  O49  1  0.11488401  0.23879015  0.07809685  1
  O  O50  1  0.11488335  0.92190476  0.16069491  1
  O  O51  1  0.88511325  0.83929220  0.76119030  1
  O  O52  1  0.88511599  0.23879015  0.07809685  1
  O  O53  1  0.88511665  0.92190476  0.16069491  1
  O  O54  1  -0.00000000  0.40702146  0.83922786  1
  O  O55  1  -0.00000000  0.16078869  0.56780360  1
  O  O56  1  -0.00000000  0.43222235  0.59298565  1
  O  O57  1  0.11453011  0.24880965  0.82532576  1
  O  O58  1  0.11453612  0.17467240  0.42347187  1
  O  O59  1  0.11452906  0.57653280  0.75120925  1
  O  O60  1  0.88546989  0.24880965  0.82532576  1
  O  O61  1  0.88546388  0.17467240  0.42347187  1
  O  O62  1  0.88547094  0.57653280  0.75120925  1
  O  O63  1  0.50000000  0.80894418  0.30405590  1
  O  O64  1  0.50000000  0.69595259  0.50487991  1
  O  O65  1  0.50000000  0.49509279  0.19105137  1
  O  O66  1  0.61385149  0.89848456  0.48082556  1
  O  O67  1  0.61385086  0.51918341  0.41766791  1
  O  O68  1  0.61385837  0.58233828  0.10152613  1
  O  O69  1  0.38614851  0.89848456  0.48082556  1
  O  O70  1  0.38614914  0.51918341  0.41766791  1
  O  O71  1  0.38614163  0.58233828  0.10152613  1
  O  O72  1  0.50000000  0.15067205  0.58074416  1
  O  O73  1  0.50000000  0.41924440  0.56993780  1
  O  O74  1  0.50000000  0.43006778  0.84931651  1
  O  O75  1  0.61435134  0.16038528  0.73759909  1
  O  O76  1  0.61435403  0.26238893  0.42279393  1
  O  O77  1  0.61434689  0.57720248  0.83959633  1
  O  O78  1  0.38564866  0.16038528  0.73759909  1
  O  O79  1  0.38564597  0.26238893  0.42279393  1
  O  O80  1  0.38565311  0.57720248  0.83959633  1
  O  O81  1  0.50000000  0.07312711  0.90026454  1
  O  O82  1  0.50000000  0.09974065  0.17287071  1
  O  O83  1  0.50000000  0.82712007  0.92686751  1
  O  O84  1  0.61393177  0.91768970  0.75187754  1
  O  O85  1  0.61393532  0.24812758  0.16580997  1
  O  O86  1  0.61393373  0.83417911  0.08231383  1
  O  O87  1  0.38606823  0.91768970  0.75187754  1
  O  O88  1  0.38606468  0.24812758  0.16580997  1
  O  O89  1  0.38606627  0.83417911  0.08231383  1
  O  O90  1  0.25413956  0.99999941  -0.00000041  1
  O  O91  1  0.74586044  0.99999941  -0.00000041  1
  O  O92  1  0.24734044  0.66666908  0.33333614  1
  O  O93  1  0.75265956  0.66666908  0.33333614  1
  O  O94  1  0.25060827  0.33333596  0.66666649  1
  O  O95  1  0.74939173  0.33333596  0.66666649  1
  O  O96  1  0.30834000  0.32653996  0.99525765  1
  O  O97  1  0.30834425  0.00475004  0.33127438  1
  O  O98  1  0.30834118  0.66873682  0.67347743  1
  O  O99  1  0.69166000  0.32653996  0.99525765  1
  O  O100  1  0.69165575  0.00475004  0.33127438  1
  O  O101  1  0.69165882  0.66873682  0.67347743  1
  O  O102  1  0.19347754  0.66421245  0.00480118  1
  O  O103  1  0.19347149  0.99520619  0.65941726  1
  O  O104  1  0.19348054  0.34058761  0.33579802  1
  O  O105  1  0.80652246  0.66421245  0.00480118  1
  O  O106  1  0.80652851  0.99520619  0.65941726  1
  O  O107  1  0.80651946  0.34058761  0.33579802  1
