# generated using pymatgen
data_Y2Ge6Pt
_symmetry_space_group_name_H-M   'P 1'
_cell_length_a   4.11539842
_cell_length_b   4.12592157
_cell_length_c   11.14198982
_cell_angle_alpha   90.00000000
_cell_angle_beta   100.64245812
_cell_angle_gamma   90.00000000
_symmetry_Int_Tables_number   1
_chemical_formula_structural   Y2Ge6Pt
_chemical_formula_sum   'Y2 Ge6 Pt1'
_cell_volume   185.93460020
_cell_formula_units_Z   1
loop_
 _symmetry_equiv_pos_site_id
 _symmetry_equiv_pos_as_xyz
  1  'x, y, z'
loop_
 _atom_site_type_symbol
 _atom_site_label
 _atom_site_symmetry_multiplicity
 _atom_site_fract_x
 _atom_site_fract_y
 _atom_site_fract_z
 _atom_site_occupancy
  Y  Y0  1  0.77877352  0.50000000  0.55754704  1
  Y  Y1  1  0.11566714  0.50000000  0.23133428  1
  Ge  Ge2  1  0.49353460  0.50000000  0.98706919  1
  Ge  Ge3  1  0.37952669  0.50000000  0.75905339  1
  Ge  Ge4  1  0.99314390  -0.00000000  0.98628780  1
  Ge  Ge5  1  0.87885342  -0.00000000  0.75770685  1
  Ge  Ge6  1  0.66953752  -0.00000000  0.33907504  1
  Ge  Ge7  1  0.23904528  -0.00000000  0.47809056  1
  Pt  Pt8  1  0.55891793  -0.00000000  0.11783585  1
