# generated using pymatgen
data_Na3Mg2V3O12
_symmetry_space_group_name_H-M   'P 1'
_cell_length_a   10.96916496
_cell_length_b   10.96916496
_cell_length_c   10.96916496
_cell_angle_alpha   109.47122063
_cell_angle_beta   109.47122063
_cell_angle_gamma   109.47122063
_symmetry_Int_Tables_number   1
_chemical_formula_structural   Na3Mg2V3O12
_chemical_formula_sum   'Na12 Mg8 V12 O48'
_cell_volume   1016.01194011
_cell_formula_units_Z   4
loop_
 _symmetry_equiv_pos_site_id
 _symmetry_equiv_pos_as_xyz
  1  'x, y, z'
loop_
 _atom_site_type_symbol
 _atom_site_label
 _atom_site_symmetry_multiplicity
 _atom_site_fract_x
 _atom_site_fract_y
 _atom_site_fract_z
 _atom_site_occupancy
  Na  Na0  1  0.87500000  0.62500000  0.75000000  1
  Na  Na1  1  0.12500000  0.37500000  0.25000000  1
  Na  Na2  1  0.62500000  0.87500000  0.25000000  1
  Na  Na3  1  0.62500000  0.75000000  0.87500000  1
  Na  Na4  1  0.87500000  0.25000000  0.62500000  1
  Na  Na5  1  0.37500000  0.12500000  0.75000000  1
  Na  Na6  1  0.37500000  0.25000000  0.12500000  1
  Na  Na7  1  0.12500000  0.75000000  0.37500000  1
  Na  Na8  1  0.75000000  0.87500000  0.62500000  1
  Na  Na9  1  0.25000000  0.12500000  0.37500000  1
  Na  Na10  1  0.25000000  0.62500000  0.87500000  1
  Na  Na11  1  0.75000000  0.37500000  0.12500000  1
  Mg  Mg12  1  0.00000000  0.00000000  -0.00000000  1
  Mg  Mg13  1  0.50000000  0.00000000  0.50000000  1
  Mg  Mg14  1  0.50000000  0.50000000  -0.00000000  1
  Mg  Mg15  1  0.00000000  0.00000000  0.50000000  1
  Mg  Mg16  1  0.00000000  0.50000000  0.50000000  1
  Mg  Mg17  1  0.50000000  0.50000000  0.50000000  1
  Mg  Mg18  1  0.50000000  0.00000000  -0.00000000  1
  Mg  Mg19  1  0.00000000  0.50000000  -0.00000000  1
  V  V20  1  0.62500000  0.37500000  0.75000000  1
  V  V21  1  0.37500000  0.62500000  0.25000000  1
  V  V22  1  0.87500000  0.12500000  0.25000000  1
  V  V23  1  0.37500000  0.75000000  0.62500000  1
  V  V24  1  0.62500000  0.25000000  0.37500000  1
  V  V25  1  0.12500000  0.87500000  0.75000000  1
  V  V26  1  0.12500000  0.25000000  0.87500000  1
  V  V27  1  0.87500000  0.75000000  0.12500000  1
  V  V28  1  0.75000000  0.62500000  0.37500000  1
  V  V29  1  0.25000000  0.37500000  0.62500000  1
  V  V30  1  0.25000000  0.87500000  0.12500000  1
  V  V31  1  0.75000000  0.12500000  0.87500000  1
  O  O32  1  0.70236580  0.61240121  0.50877667  1
  O  O33  1  0.29763420  0.38759879  0.49122333  1
  O  O34  1  0.79763420  0.80641087  0.41003541  1
  O  O35  1  0.39637546  0.88759879  0.08996459  1
  O  O36  1  0.61240121  0.50877667  0.70236580  1
  O  O37  1  0.70236580  0.08996459  0.69358913  1
  O  O38  1  0.20236580  0.19358913  0.58996459  1
  O  O39  1  0.60362454  0.11240121  0.91003541  1
  O  O40  1  0.38759879  0.49122333  0.29763420  1
  O  O41  1  0.29763420  0.91003541  0.30641087  1
  O  O42  1  0.10362454  0.69358913  0.99122333  1
  O  O43  1  0.80641087  0.41003541  0.79763420  1
  O  O44  1  0.79763420  0.99122333  0.88759879  1
  O  O45  1  0.89637546  0.30641087  0.00877667  1
  O  O46  1  0.19358913  0.58996459  0.20236580  1
  O  O47  1  0.20236580  0.00877667  0.11240121  1
  O  O48  1  0.88759879  0.08996459  0.39637546  1
  O  O49  1  0.39637546  0.50877667  0.80641087  1
  O  O50  1  0.11240121  0.91003541  0.60362454  1
  O  O51  1  0.60362454  0.49122333  0.19358913  1
  O  O52  1  0.69358913  0.99122333  0.10362454  1
  O  O53  1  0.10362454  0.41003541  0.61240121  1
  O  O54  1  0.30641087  0.00877667  0.89637546  1
  O  O55  1  0.89637546  0.58996459  0.38759879  1
  O  O56  1  0.50877667  0.70236580  0.61240121  1
  O  O57  1  0.61240121  0.10362454  0.41003541  1
  O  O58  1  0.49122333  0.29763420  0.38759879  1
  O  O59  1  0.38759879  0.89637546  0.58996459  1
  O  O60  1  0.08996459  0.39637546  0.88759879  1
  O  O61  1  0.88759879  0.79763420  0.99122333  1
  O  O62  1  0.91003541  0.60362454  0.11240121  1
  O  O63  1  0.11240121  0.20236580  0.00877667  1
  O  O64  1  0.99122333  0.10362454  0.69358913  1
  O  O65  1  0.69358913  0.70236580  0.08996459  1
  O  O66  1  0.00877667  0.89637546  0.30641087  1
  O  O67  1  0.30641087  0.29763420  0.91003541  1
  O  O68  1  0.41003541  0.79763420  0.80641087  1
  O  O69  1  0.80641087  0.39637546  0.50877667  1
  O  O70  1  0.58996459  0.20236580  0.19358913  1
  O  O71  1  0.19358913  0.60362454  0.49122333  1
  O  O72  1  0.08996459  0.69358913  0.70236580  1
  O  O73  1  0.91003541  0.30641087  0.29763420  1
  O  O74  1  0.99122333  0.88759879  0.79763420  1
  O  O75  1  0.00877667  0.11240121  0.20236580  1
  O  O76  1  0.41003541  0.61240121  0.10362454  1
  O  O77  1  0.58996459  0.38759879  0.89637546  1
  O  O78  1  0.50877667  0.80641087  0.39637546  1
  O  O79  1  0.49122333  0.19358913  0.60362454  1
