# generated using pymatgen
data_Li2H6PtO6
_symmetry_space_group_name_H-M   'P 1'
_cell_length_a   4.52438270
_cell_length_b   5.55466781
_cell_length_c   5.55466781
_cell_angle_alpha   119.99999008
_cell_angle_beta   90.00000000
_cell_angle_gamma   90.00000000
_symmetry_Int_Tables_number   1
_chemical_formula_structural   Li2H6PtO6
_chemical_formula_sum   'Li2 H6 Pt1 O6'
_cell_volume   120.89440189
_cell_formula_units_Z   1
loop_
 _symmetry_equiv_pos_site_id
 _symmetry_equiv_pos_as_xyz
  1  'x, y, z'
loop_
 _atom_site_type_symbol
 _atom_site_label
 _atom_site_symmetry_multiplicity
 _atom_site_fract_x
 _atom_site_fract_y
 _atom_site_fract_z
 _atom_site_occupancy
  Li  Li0  1  -0.00000000  0.66666700  0.33333300  1
  Li  Li1  1  -0.00000000  0.33333300  0.66666700  1
  H  H2  1  0.56167865  0.69755796  0.69755796  1
  H  H3  1  0.43832135  0.30244204  0.30244204  1
  H  H4  1  0.56167865  0.00000000  0.30244204  1
  H  H5  1  0.43832135  1.00000000  0.69755796  1
  H  H6  1  0.56167865  0.30244204  0.00000000  1
  H  H7  1  0.43832135  0.69755796  1.00000000  1
  Pt  Pt8  1  -0.00000000  -0.00000000  -0.00000000  1
  O  O9  1  0.77647280  0.68014325  0.68014325  1
  O  O10  1  0.22352720  0.31985675  0.31985675  1
  O  O11  1  0.77647280  0.00000000  0.31985675  1
  O  O12  1  0.22352720  1.00000000  0.68014325  1
  O  O13  1  0.77647280  0.31985675  0.00000000  1
  O  O14  1  0.22352720  0.68014325  1.00000000  1
