# generated using pymatgen
data_Na3Zn2(MoO4)3
_symmetry_space_group_name_H-M   'P 1'
_cell_length_a   7.31467856
_cell_length_b   9.33079394
_cell_length_c   9.33079394
_cell_angle_alpha   97.93368987
_cell_angle_beta   105.49574385
_cell_angle_gamma   105.49574385
_symmetry_Int_Tables_number   1
_chemical_formula_structural   Na3Zn2(MoO4)3
_chemical_formula_sum   'Na6 Zn4 Mo6 O24'
_cell_volume   576.15408704
_cell_formula_units_Z   2
loop_
 _symmetry_equiv_pos_site_id
 _symmetry_equiv_pos_as_xyz
  1  'x, y, z'
loop_
 _atom_site_type_symbol
 _atom_site_label
 _atom_site_symmetry_multiplicity
 _atom_site_fract_x
 _atom_site_fract_y
 _atom_site_fract_z
 _atom_site_occupancy
  Na  Na0  1  0.75000000  0.23488665  0.76511335  1
  Na  Na1  1  0.25000000  0.76511335  0.23488665  1
  Na  Na2  1  0.00000000  0.00000000  -0.00000000  1
  Na  Na3  1  0.50000000  0.00000000  -0.00000000  1
  Na  Na4  1  0.75000000  0.52252393  0.47747607  1
  Na  Na5  1  0.25000000  0.47747607  0.52252393  1
  Zn  Zn6  1  0.62675581  0.55731733  0.86692924  1
  Zn  Zn7  1  0.37324419  0.44268267  0.13307076  1
  Zn  Zn8  1  0.87324419  0.13307076  0.44268267  1
  Zn  Zn9  1  0.12675581  0.86692924  0.55731733  1
  Mo  Mo10  1  0.75000000  0.77780631  0.22219369  1
  Mo  Mo11  1  0.25000000  0.22219369  0.77780631  1
  Mo  Mo12  1  0.87952169  0.37524236  0.16914732  1
  Mo  Mo13  1  0.12047831  0.62475764  0.83085268  1
  Mo  Mo14  1  0.62047831  0.83085268  0.62475764  1
  Mo  Mo15  1  0.37952169  0.16914732  0.37524236  1
  O  O16  1  0.68105454  0.45775650  0.11643900  1
  O  O17  1  0.31894546  0.54224350  0.88356100  1
  O  O18  1  0.81894546  0.88356100  0.54224350  1
  O  O19  1  0.18105454  0.11643900  0.45775650  1
  O  O20  1  0.88484293  0.50806783  0.83801715  1
  O  O21  1  0.11515707  0.49193217  0.16198285  1
  O  O22  1  0.61515707  0.16198285  0.49193217  1
  O  O23  1  0.38484293  0.83801715  0.50806783  1
  O  O24  1  0.80604858  0.19716245  0.03934078  1
  O  O25  1  0.19395142  0.80283755  0.96065922  1
  O  O26  1  0.69395142  0.96065922  0.80283755  1
  O  O27  1  0.30604858  0.03934078  0.19716245  1
  O  O28  1  0.76304758  0.75087208  0.02247336  1
  O  O29  1  0.23695242  0.24912792  0.97752664  1
  O  O30  1  0.73695242  0.97752664  0.24912792  1
  O  O31  1  0.26304758  0.02247336  0.75087208  1
  O  O32  1  0.52020607  0.65650300  0.25389270  1
  O  O33  1  0.47979393  0.34349700  0.74610730  1
  O  O34  1  0.97979393  0.74610730  0.34349700  1
  O  O35  1  0.02020607  0.25389270  0.65650300  1
  O  O36  1  0.58660126  0.63791428  0.65545157  1
  O  O37  1  0.41339874  0.36208572  0.34454843  1
  O  O38  1  0.91339874  0.34454843  0.36208572  1
  O  O39  1  0.08660126  0.65545157  0.63791428  1
