# generated using pymatgen
data_Zr6Co(SnH5)2
_symmetry_space_group_name_H-M   'P 1'
_cell_length_a   7.36152225
_cell_length_b   8.16168895
_cell_length_c   8.16168895
_cell_angle_alpha   120.00000315
_cell_angle_beta   90.00000000
_cell_angle_gamma   90.00000000
_symmetry_Int_Tables_number   1
_chemical_formula_structural   Zr6Co(SnH5)2
_chemical_formula_sum   'Zr12 Co2 Sn4 H20'
_cell_volume   424.67659403
_cell_formula_units_Z   2
loop_
 _symmetry_equiv_pos_site_id
 _symmetry_equiv_pos_as_xyz
  1  'x, y, z'
loop_
 _atom_site_type_symbol
 _atom_site_label
 _atom_site_symmetry_multiplicity
 _atom_site_fract_x
 _atom_site_fract_y
 _atom_site_fract_z
 _atom_site_occupancy
  Zr  Zr0  1  0.00000000  0.25532824  0.25532824  1
  Zr  Zr1  1  0.00000000  0.00000000  0.74467176  1
  Zr  Zr2  1  0.50000000  0.25532824  0.25532824  1
  Zr  Zr3  1  -0.00000000  0.74467176  0.00000000  1
  Zr  Zr4  1  0.50000000  0.00000000  0.74467176  1
  Zr  Zr5  1  0.50000000  0.74467176  0.00000000  1
  Zr  Zr6  1  0.75000000  0.58177261  0.62833212  1
  Zr  Zr7  1  0.75000000  0.04655951  0.41822739  1
  Zr  Zr8  1  0.25000000  0.95344049  0.37166788  1
  Zr  Zr9  1  0.75000000  0.37166788  0.95344049  1
  Zr  Zr10  1  0.25000000  0.62833212  0.58177261  1
  Zr  Zr11  1  0.25000000  0.41822739  0.04655951  1
  Co  Co12  1  0.75000000  -0.00000000  0.00000000  1
  Co  Co13  1  0.25000000  -0.00000000  0.00000000  1
  Sn  Sn14  1  0.95871531  0.66666700  0.33333300  1
  Sn  Sn15  1  0.54128469  0.66666700  0.33333300  1
  Sn  Sn16  1  0.04128469  0.33333300  0.66666700  1
  Sn  Sn17  1  0.45871531  0.33333300  0.66666700  1
  H  H18  1  -0.00000000  0.72246003  0.72246003  1
  H  H19  1  0.00000000  1.00000000  0.27753997  1
  H  H20  1  0.50000000  0.72246003  0.72246003  1
  H  H21  1  0.00000000  0.27753997  1.00000000  1
  H  H22  1  0.50000000  1.00000000  0.27753997  1
  H  H23  1  0.50000000  0.27753997  1.00000000  1
  H  H24  1  0.75000000  0.59831761  0.89164652  1
  H  H25  1  0.75000000  0.29332891  0.40168239  1
  H  H26  1  0.25000000  0.70667109  0.10835348  1
  H  H27  1  0.75000000  0.10835348  0.70667109  1
  H  H28  1  0.25000000  0.89164652  0.59831761  1
  H  H29  1  0.25000000  0.40168239  0.29332891  1
  H  H30  1  0.75000000  0.88307960  0.11770615  1
  H  H31  1  0.75000000  0.23462655  0.11692040  1
  H  H32  1  0.25000000  0.76537345  0.88229385  1
  H  H33  1  0.75000000  0.88229385  0.76537345  1
  H  H34  1  0.25000000  0.11770615  0.88307960  1
  H  H35  1  0.25000000  0.11692040  0.23462655  1
  H  H36  1  -0.00000000  -0.00000000  0.00000000  1
  H  H37  1  0.50000000  -0.00000000  0.00000000  1
