# generated using pymatgen
data_Nd3Nb(ClO2)3
_symmetry_space_group_name_H-M   'P 1'
_cell_length_a   5.32870073
_cell_length_b   9.49205833
_cell_length_c   9.49205833
_cell_angle_alpha   120.00000683
_cell_angle_beta   90.00000000
_cell_angle_gamma   90.00000000
_symmetry_Int_Tables_number   1
_chemical_formula_structural   Nd3Nb(ClO2)3
_chemical_formula_sum   'Nd6 Nb2 Cl6 O12'
_cell_volume   415.78874439
_cell_formula_units_Z   2
loop_
 _symmetry_equiv_pos_site_id
 _symmetry_equiv_pos_as_xyz
  1  'x, y, z'
loop_
 _atom_site_type_symbol
 _atom_site_label
 _atom_site_symmetry_multiplicity
 _atom_site_fract_x
 _atom_site_fract_y
 _atom_site_fract_z
 _atom_site_occupancy
  Nd  Nd0  1  0.75000000  0.59667464  0.68690392  1
  Nd  Nd1  1  0.25000000  0.40332536  0.31309608  1
  Nd  Nd2  1  0.75000000  0.09022928  0.40332536  1
  Nd  Nd3  1  0.25000000  0.90977072  0.59667464  1
  Nd  Nd4  1  0.75000000  0.31309608  0.90977072  1
  Nd  Nd5  1  0.25000000  0.68690392  0.09022928  1
  Nb  Nb6  1  0.75000000  0.66666700  0.33333300  1
  Nb  Nb7  1  0.25000000  0.33333300  0.66666700  1
  Cl  Cl8  1  0.75000000  0.81048078  0.05079259  1
  Cl  Cl9  1  0.25000000  0.18951922  0.94920741  1
  Cl  Cl10  1  0.75000000  0.24031181  0.18951922  1
  Cl  Cl11  1  0.25000000  0.75968819  0.81048078  1
  Cl  Cl12  1  0.75000000  0.94920741  0.75968819  1
  Cl  Cl13  1  0.25000000  0.05079259  0.24031181  1
  O  O14  1  0.98975352  0.84365359  0.36389973  1
  O  O15  1  0.01024648  0.15634641  0.63610027  1
  O  O16  1  0.98975352  0.52024614  0.15634641  1
  O  O17  1  0.48975352  0.15634641  0.63610027  1
  O  O18  1  0.01024648  0.47975386  0.84365359  1
  O  O19  1  0.51024648  0.84365359  0.36389973  1
  O  O20  1  0.98975352  0.63610027  0.47975386  1
  O  O21  1  0.48975352  0.47975386  0.84365359  1
  O  O22  1  0.01024648  0.36389973  0.52024614  1
  O  O23  1  0.51024648  0.52024614  0.15634641  1
  O  O24  1  0.48975352  0.36389973  0.52024614  1
  O  O25  1  0.51024648  0.63610027  0.47975386  1
