# generated using pymatgen
data_CrSn4Au
_symmetry_space_group_name_H-M   'P 1'
_cell_length_a   5.60168308
_cell_length_b   6.88294675
_cell_length_c   6.88294675
_cell_angle_alpha   90.00000000
_cell_angle_beta   90.00000000
_cell_angle_gamma   90.00000000
_symmetry_Int_Tables_number   1
_chemical_formula_structural   CrSn4Au
_chemical_formula_sum   'Cr2 Sn8 Au2'
_cell_volume   265.37948924
_cell_formula_units_Z   2
loop_
 _symmetry_equiv_pos_site_id
 _symmetry_equiv_pos_as_xyz
  1  'x, y, z'
loop_
 _atom_site_type_symbol
 _atom_site_label
 _atom_site_symmetry_multiplicity
 _atom_site_fract_x
 _atom_site_fract_y
 _atom_site_fract_z
 _atom_site_occupancy
  Cr  Cr0  1  0.25000000  0.50000000  0.50000000  1
  Cr  Cr1  1  0.75000000  0.50000000  0.50000000  1
  Sn  Sn2  1  -0.00000000  0.17785747  0.36987693  1
  Sn  Sn3  1  0.00000000  0.82214253  0.63012307  1
  Sn  Sn4  1  -0.00000000  0.63012307  0.17785747  1
  Sn  Sn5  1  0.50000000  0.82214253  0.36987693  1
  Sn  Sn6  1  0.00000000  0.36987693  0.82214253  1
  Sn  Sn7  1  0.50000000  0.17785747  0.63012307  1
  Sn  Sn8  1  0.50000000  0.36987693  0.17785747  1
  Sn  Sn9  1  0.50000000  0.63012307  0.82214253  1
  Au  Au10  1  -0.00000000  -0.00000000  -0.00000000  1
  Au  Au11  1  0.50000000  -0.00000000  -0.00000000  1
