# generated using pymatgen
data_YbSiAu
_symmetry_space_group_name_H-M   'P 1'
_cell_length_a   3.59821167
_cell_length_b   4.43237852
_cell_length_c   4.43464761
_cell_angle_alpha   59.93110919
_cell_angle_beta   90.00000000
_cell_angle_gamma   90.00000000
_symmetry_Int_Tables_number   1
_chemical_formula_structural   YbSiAu
_chemical_formula_sum   'Yb1 Si1 Au1'
_cell_volume   61.20845186
_cell_formula_units_Z   1
loop_
 _symmetry_equiv_pos_site_id
 _symmetry_equiv_pos_as_xyz
  1  'x, y, z'
loop_
 _atom_site_type_symbol
 _atom_site_label
 _atom_site_symmetry_multiplicity
 _atom_site_fract_x
 _atom_site_fract_y
 _atom_site_fract_z
 _atom_site_occupancy
  Yb  Yb0  1  0.00000000  0.99992470  0.00004220  1
  Si  Si1  1  0.50000000  0.66582618  0.66650473  1
  Au  Au2  1  0.50000000  0.33414911  0.33355307  1
