# generated using pymatgen
data_Bi2Se
_symmetry_space_group_name_H-M   'P 1'
_cell_length_a   4.23337401
_cell_length_b   4.23337401
_cell_length_c   24.44813362
_cell_angle_alpha   90.00000000
_cell_angle_beta   90.00000000
_cell_angle_gamma   119.99999701
_symmetry_Int_Tables_number   1
_chemical_formula_structural   Bi2Se
_chemical_formula_sum   'Bi8 Se4'
_cell_volume   379.44569808
_cell_formula_units_Z   4
loop_
 _symmetry_equiv_pos_site_id
 _symmetry_equiv_pos_as_xyz
  1  'x, y, z'
loop_
 _atom_site_type_symbol
 _atom_site_label
 _atom_site_symmetry_multiplicity
 _atom_site_fract_x
 _atom_site_fract_y
 _atom_site_fract_z
 _atom_site_occupancy
  Bi  Bi0  1  0.66666700  0.33333300  0.46029683  1
  Bi  Bi1  1  0.33333300  0.66666700  0.53970317  1
  Bi  Bi2  1  0.66666700  0.33333300  0.70397903  1
  Bi  Bi3  1  0.33333300  0.66666700  0.29602097  1
  Bi  Bi4  1  0.66666700  0.33333300  0.94663593  1
  Bi  Bi5  1  0.33333300  0.66666700  0.05336407  1
  Bi  Bi6  1  0.00000000  -0.00000000  0.86628023  1
  Bi  Bi7  1  0.00000000  -0.00000000  0.13371977  1
  Se  Se8  1  0.66666700  0.33333300  0.22408137  1
  Se  Se9  1  0.33333300  0.66666700  0.77591863  1
  Se  Se10  1  0.00000000  -0.00000000  0.63591031  1
  Se  Se11  1  -0.00000000  0.00000000  0.36408969  1
