# generated using pymatgen
data_CsYb(MoO4)2
_symmetry_space_group_name_H-M   'P 1'
_cell_length_a   5.06014079
_cell_length_b   8.15857281
_cell_length_c   10.06280256
_cell_angle_alpha   90.00000000
_cell_angle_beta   90.00000000
_cell_angle_gamma   90.00000000
_symmetry_Int_Tables_number   1
_chemical_formula_structural   CsYb(MoO4)2
_chemical_formula_sum   'Cs2 Yb2 Mo4 O16'
_cell_volume   415.42798183
_cell_formula_units_Z   2
loop_
 _symmetry_equiv_pos_site_id
 _symmetry_equiv_pos_as_xyz
  1  'x, y, z'
loop_
 _atom_site_type_symbol
 _atom_site_label
 _atom_site_symmetry_multiplicity
 _atom_site_fract_x
 _atom_site_fract_y
 _atom_site_fract_z
 _atom_site_occupancy
  Cs  Cs0  1  -0.00000000  0.75000000  0.50000000  1
  Cs  Cs1  1  -0.00000000  0.25000000  0.50000000  1
  Yb  Yb2  1  -0.00000000  0.75000000  0.00000000  1
  Yb  Yb3  1  -0.00000000  0.25000000  0.00000000  1
  Mo  Mo4  1  0.49981708  0.00000000  0.80698917  1
  Mo  Mo5  1  0.50018292  0.00000000  0.19301083  1
  Mo  Mo6  1  0.50018292  0.50000000  0.80698917  1
  Mo  Mo7  1  0.49981708  0.50000000  0.19301083  1
  O  O8  1  0.75809236  0.00000000  0.93228296  1
  O  O9  1  0.24190764  0.00000000  0.06771704  1
  O  O10  1  0.24190764  0.50000000  0.93228296  1
  O  O11  1  0.75809236  0.50000000  0.06771704  1
  O  O12  1  0.72361708  0.67503212  0.81819487  1
  O  O13  1  0.27638292  0.32496788  0.18180513  1
  O  O14  1  0.27638292  0.67503212  0.18180513  1
  O  O15  1  0.27638292  0.82496788  0.81819487  1
  O  O16  1  0.72361708  0.32496788  0.81819487  1
  O  O17  1  0.72361708  0.17503212  0.18180513  1
  O  O18  1  0.72361708  0.82496788  0.18180513  1
  O  O19  1  0.27638292  0.17503212  0.81819487  1
  O  O20  1  0.63974141  0.00000000  0.64666975  1
  O  O21  1  0.36025859  0.00000000  0.35333025  1
  O  O22  1  0.36025859  0.50000000  0.64666975  1
  O  O23  1  0.63974141  0.50000000  0.35333025  1
