# generated using pymatgen
data_Bi12Pb4O21
_symmetry_space_group_name_H-M   'P 1'
_cell_length_a   7.28791118
_cell_length_b   7.86999198
_cell_length_c   14.29685250
_cell_angle_alpha   79.76438837
_cell_angle_beta   82.49986813
_cell_angle_gamma   60.45699247
_symmetry_Int_Tables_number   1
_chemical_formula_structural   Bi12Pb4O21
_chemical_formula_sum   'Bi12 Pb4 O21'
_cell_volume   701.15907568
_cell_formula_units_Z   1
loop_
 _symmetry_equiv_pos_site_id
 _symmetry_equiv_pos_as_xyz
  1  'x, y, z'
loop_
 _atom_site_type_symbol
 _atom_site_label
 _atom_site_symmetry_multiplicity
 _atom_site_fract_x
 _atom_site_fract_y
 _atom_site_fract_z
 _atom_site_occupancy
  Bi  Bi0  1  0.22841760  0.99310522  0.29996309  1
  Bi  Bi1  1  0.77158240  0.00689478  0.70003691  1
  Bi  Bi2  1  0.29458263  0.19753615  0.57185889  1
  Bi  Bi3  1  0.70541737  0.80246385  0.42814111  1
  Bi  Bi4  1  0.22433082  0.25987447  0.04402057  1
  Bi  Bi5  1  0.77566918  0.74012553  0.95597943  1
  Bi  Bi6  1  0.20500635  0.72938307  0.52431377  1
  Bi  Bi7  1  0.79499365  0.27061693  0.47568623  1
  Bi  Bi8  1  0.74635218  0.99449992  0.17223983  1
  Bi  Bi9  1  0.25364782  0.00550008  0.82776017  1
  Bi  Bi10  1  0.22022116  0.43375239  0.31030987  1
  Bi  Bi11  1  0.77977884  0.56624761  0.68969013  1
  Pb  Pb12  1  0.26517391  0.70759482  0.05709290  1
  Pb  Pb13  1  0.73482609  0.29240518  0.94290710  1
  Pb  Pb14  1  0.74226531  0.51411289  0.20404439  1
  Pb  Pb15  1  0.25773469  0.48588711  0.79595561  1
  O  O16  1  0.36364321  0.17952550  0.87698356  1
  O  O17  1  0.63635679  0.82047450  0.12301644  1
  O  O18  1  0.53391191  0.24448713  0.07417636  1
  O  O19  1  0.46608809  0.75551287  0.92582364  1
  O  O20  1  0.12281077  0.34150959  0.69378899  1
  O  O21  1  0.87718923  0.65849041  0.30621101  1
  O  O22  1  0.22889415  0.47492452  0.46967592  1
  O  O23  1  0.77110585  0.52507548  0.53032408  1
  O  O24  1  0.10105315  0.38055748  0.18427395  1
  O  O25  1  0.89894685  0.61944252  0.81572605  1
  O  O26  1  0.00025553  0.92340971  0.41133944  1
  O  O27  1  0.99974447  0.07659029  0.58866056  1
  O  O28  1  0.50085518  0.06907140  0.29254962  1
  O  O29  1  0.49914482  0.93092860  0.70745038  1
  O  O30  1  0.83640143  0.45250783  0.03216697  1
  O  O31  1  0.16359857  0.54749217  0.96783303  1
  O  O32  1  0.11200277  0.23002349  0.39102560  1
  O  O33  1  0.88799723  0.76997651  0.60897440  1
  O  O34  1  0.55912364  0.24695987  0.60179719  1
  O  O35  1  0.44087636  0.75304013  0.39820281  1
  O  O36  1  0.00000000  0.00000000  0.00000000  1
