# generated using pymatgen
data_Ca2B8O15
_symmetry_space_group_name_H-M   'P 1'
_cell_length_a   6.49791764
_cell_length_b   9.44469411
_cell_length_c   10.16406118
_cell_angle_alpha   117.00568107
_cell_angle_beta   90.51809678
_cell_angle_gamma   99.89107190
_symmetry_Int_Tables_number   1
_chemical_formula_structural   Ca2B8O15
_chemical_formula_sum   'Ca4 B16 O30'
_cell_volume   544.80171297
_cell_formula_units_Z   2
loop_
 _symmetry_equiv_pos_site_id
 _symmetry_equiv_pos_as_xyz
  1  'x, y, z'
loop_
 _atom_site_type_symbol
 _atom_site_label
 _atom_site_symmetry_multiplicity
 _atom_site_fract_x
 _atom_site_fract_y
 _atom_site_fract_z
 _atom_site_occupancy
  Ca  Ca0  1  0.51917559  0.18245546  0.71998453  1
  Ca  Ca1  1  0.48082441  0.81754454  0.28001547  1
  Ca  Ca2  1  0.84011615  0.18521889  0.17206450  1
  Ca  Ca3  1  0.15988385  0.81478111  0.82793550  1
  B  B4  1  0.24820211  0.06491005  0.21851532  1
  B  B5  1  0.75179789  0.93508995  0.78148468  1
  B  B6  1  0.58097726  0.40450024  0.12654051  1
  B  B7  1  0.41902274  0.59549976  0.87345949  1
  B  B8  1  0.23549815  0.46864108  0.15696784  1
  B  B9  1  0.76450185  0.53135892  0.84303216  1
  B  B10  1  0.20113926  0.26082147  0.47829174  1
  B  B11  1  0.79886074  0.73917853  0.52170826  1
  B  B12  1  0.07492348  0.38876342  0.73589724  1
  B  B13  1  0.92507652  0.61123658  0.26410276  1
  B  B14  1  0.05470849  0.15539925  0.80790236  1
  B  B15  1  0.94529151  0.84460075  0.19209764  1
  B  B16  1  0.26958304  0.17418166  0.02476583  1
  B  B17  1  0.73041696  0.82581834  0.97523417  1
  B  B18  1  0.55440501  0.18239127  0.42753258  1
  B  B19  1  0.44559499  0.81760873  0.57246742  1
  O  O20  1  0.45164900  0.51633023  0.15233474  1
  O  O21  1  0.54835100  0.48366977  0.84766526  1
  O  O22  1  0.49896662  0.24125843  0.04816816  1
  O  O23  1  0.50103338  0.75874157  0.95183184  1
  O  O24  1  0.14931344  0.30773283  0.10419121  1
  O  O25  1  0.85068656  0.69226717  0.89580879  1
  O  O26  1  0.13969196  0.59710562  0.21972949  1
  O  O27  1  0.86030804  0.40289438  0.78027051  1
  O  O28  1  0.65478969  0.08943434  0.47731395  1
  O  O29  1  0.34521031  0.91056566  0.52268605  1
  O  O30  1  0.21753519  0.05000198  0.07132602  1
  O  O31  1  0.78246481  0.94999802  0.92867398  1
  O  O32  1  0.15795929  0.90410530  0.21394303  1
  O  O33  1  0.84204071  0.09589470  0.78605697  1
  O  O34  1  0.14328903  0.19224113  0.32702857  1
  O  O35  1  0.85671097  0.80775887  0.67297143  1
  O  O36  1  0.39560645  0.24897751  0.52730261  1
  O  O37  1  0.60439355  0.75102249  0.47269739  1
  O  O38  1  0.06989915  0.33845584  0.57769413  1
  O  O39  1  0.93010085  0.66154416  0.42230587  1
  O  O40  1  0.19682134  0.09289745  0.86265742  1
  O  O41  1  0.80317866  0.90710255  0.13734258  1
  O  O42  1  0.71460709  0.30052188  0.41122097  1
  O  O43  1  0.28539291  0.69947812  0.58877903  1
  O  O44  1  0.47308488  0.09069892  0.26823796  1
  O  O45  1  0.52691512  0.90930108  0.73176204  1
  O  O46  1  0.78695998  0.44749509  0.17834421  1
  O  O47  1  0.21304002  0.55250491  0.82165579  1
  O  O48  1  0.15146136  0.27335184  0.77448459  1
  O  O49  1  0.84853864  0.72664816  0.22551541  1
