# generated using pymatgen
data_KAl4Fe3(HO6)2
_symmetry_space_group_name_H-M   'P 1'
_cell_length_a   5.43039521
_cell_length_b   5.43039521
_cell_length_c   10.51548968
_cell_angle_alpha   95.11264054
_cell_angle_beta   95.11264054
_cell_angle_gamma   120.05625345
_symmetry_Int_Tables_number   1
_chemical_formula_structural   KAl4Fe3(HO6)2
_chemical_formula_sum   'K1 Al4 Fe3 H2 O12'
_cell_volume   264.09169951
_cell_formula_units_Z   1
loop_
 _symmetry_equiv_pos_site_id
 _symmetry_equiv_pos_as_xyz
  1  'x, y, z'
loop_
 _atom_site_type_symbol
 _atom_site_label
 _atom_site_symmetry_multiplicity
 _atom_site_fract_x
 _atom_site_fract_y
 _atom_site_fract_z
 _atom_site_occupancy
  K  K0  1  -0.00000000  -0.00000000  0.00000000  1
  Al  Al1  1  0.59236607  0.25924717  0.78115102  1
  Al  Al2  1  0.40763393  0.74075283  0.21884898  1
  Al  Al3  1  0.74075283  0.40763393  0.21884898  1
  Al  Al4  1  0.25924717  0.59236607  0.78115102  1
  Fe  Fe5  1  0.50000000  0.50000000  0.50000000  1
  Fe  Fe6  1  0.82630532  0.17369468  0.50000000  1
  Fe  Fe7  1  0.17369468  0.82630532  0.50000000  1
  H  H8  1  0.91570333  0.91570333  0.69328648  1
  H  H9  1  0.08429667  0.08429667  0.30671352  1
  O  O10  1  0.52837949  0.19893821  0.59581972  1
  O  O11  1  0.47162051  0.80106179  0.40418028  1
  O  O12  1  0.80106179  0.47162051  0.40418028  1
  O  O13  1  0.19893821  0.52837949  0.59581972  1
  O  O14  1  0.87392023  0.87392023  0.59792418  1
  O  O15  1  0.12607977  0.12607977  0.40207582  1
  O  O16  1  0.55915268  0.55915268  0.81473216  1
  O  O17  1  0.44084732  0.44084732  0.18526784  1
  O  O18  1  0.31557063  0.93758131  0.81617975  1
  O  O19  1  0.68442937  0.06241869  0.18382025  1
  O  O20  1  0.06241869  0.68442937  0.18382025  1
  O  O21  1  0.93758131  0.31557063  0.81617975  1
