# generated using pymatgen
data_Tl9SbTe6
_symmetry_space_group_name_H-M   'P 1'
_cell_length_a   8.98513500
_cell_length_b   8.98503199
_cell_length_c   55.73852761
_cell_angle_alpha   118.90891352
_cell_angle_beta   118.91180728
_cell_angle_gamma   89.99554504
_symmetry_Int_Tables_number   1
_chemical_formula_structural   Tl9SbTe6
_chemical_formula_sum   'Tl54 Sb6 Te36'
_cell_volume   3283.99873462
_cell_formula_units_Z   6
loop_
 _symmetry_equiv_pos_site_id
 _symmetry_equiv_pos_as_xyz
  1  'x, y, z'
loop_
 _atom_site_type_symbol
 _atom_site_label
 _atom_site_symmetry_multiplicity
 _atom_site_fract_x
 _atom_site_fract_y
 _atom_site_fract_z
 _atom_site_occupancy
  Tl  Tl0  1  0.00625073  0.51514757  0.88609243  1
  Tl  Tl1  1  0.19676647  0.99041672  0.94760920  1
  Tl  Tl2  1  0.48903691  0.69526435  0.94764633  1
  Tl  Tl3  1  0.31010847  0.80135767  0.88607087  1
  Tl  Tl4  1  0.01087066  0.51068070  0.71905386  1
  Tl  Tl5  1  0.20124832  0.99351297  0.78129762  1
  Tl  Tl6  1  0.69531050  0.19680634  0.94763484  1
  Tl  Tl7  1  0.51505730  0.31013364  0.88606793  1
  Tl  Tl8  1  0.50238547  0.50241731  0.83413877  1
  Tl  Tl9  1  0.48664247  0.69433540  0.78132450  1
  Tl  Tl10  1  0.30347047  0.80359288  0.71904169  1
  Tl  Tl11  1  0.80143664  0.00626066  0.88610182  1
  Tl  Tl12  1  0.99048774  0.48884940  0.94761173  1
  Tl  Tl13  1  0.00802211  0.51249136  0.55240651  1
  Tl  Tl14  1  0.19597904  0.98986646  0.61410851  1
  Tl  Tl15  1  0.69432624  0.20131696  0.78131794  1
  Tl  Tl16  1  0.51065374  0.30351635  0.71904670  1
  Tl  Tl17  1  0.49725440  0.49723240  0.66575340  1
  Tl  Tl18  1  0.48869707  0.69482225  0.61411043  1
  Tl  Tl19  1  0.30640032  0.80185202  0.55239764  1
  Tl  Tl20  1  0.80359677  0.01080561  0.71905612  1
  Tl  Tl21  1  0.99345050  0.48663562  0.78131001  1
  Tl  Tl22  1  0.01019270  0.51129806  0.38589541  1
  Tl  Tl23  1  0.19808893  0.99199007  0.44758988  1
  Tl  Tl24  1  0.69490017  0.19600002  0.61412233  1
  Tl  Tl25  1  0.51246431  0.30641901  0.55240287  1
  Tl  Tl26  1  0.50000000  0.50000000  0.50000000  1
  Tl  Tl27  1  0.48753569  0.69358099  0.44759713  1
  Tl  Tl28  1  0.30509983  0.80399998  0.38587767  1
  Tl  Tl29  1  0.80191107  0.00800993  0.55241012  1
  Tl  Tl30  1  0.98980730  0.48870194  0.61410459  1
  Tl  Tl31  1  0.00654950  0.51336438  0.21868999  1
  Tl  Tl32  1  0.19640323  0.98919439  0.28094388  1
  Tl  Tl33  1  0.69359968  0.19814798  0.44760236  1
  Tl  Tl34  1  0.51130293  0.30517775  0.38588957  1
  Tl  Tl35  1  0.50274560  0.50276760  0.33424660  1
  Tl  Tl36  1  0.48934626  0.69648365  0.28095330  1
  Tl  Tl37  1  0.30567376  0.79868304  0.21868206  1
  Tl  Tl38  1  0.80402096  0.01013354  0.38589149  1
  Tl  Tl39  1  0.99197789  0.48750864  0.44759349  1
  Tl  Tl40  1  0.00951226  0.51115060  0.05238827  1
  Tl  Tl41  1  0.19856336  0.99373934  0.11389818  1
  Tl  Tl42  1  0.69652953  0.19640712  0.28095831  1
  Tl  Tl43  1  0.51335753  0.30566460  0.21867550  1
  Tl  Tl44  1  0.00000000  0.00000000  0.00000000  1
  Tl  Tl45  1  0.49761453  0.49758269  0.16586123  1
  Tl  Tl46  1  0.48494270  0.68986636  0.11393207  1
  Tl  Tl47  1  0.30468950  0.80319366  0.05236516  1
  Tl  Tl48  1  0.79875168  0.00648703  0.21870238  1
  Tl  Tl49  1  0.98912934  0.48931930  0.28094614  1
  Tl  Tl50  1  0.68989153  0.19864233  0.11392913  1
  Tl  Tl51  1  0.51096309  0.30473565  0.05235367  1
  Tl  Tl52  1  0.80323353  0.00958328  0.05239080  1
  Tl  Tl53  1  0.99374927  0.48485243  0.11390757  1
  Sb  Sb54  1  0.50000000  0.50000000  0.00000000  1
  Sb  Sb55  1  0.00261809  0.00259817  0.66754798  1
  Sb  Sb56  1  0.00000000  0.00000000  0.50000000  1
  Sb  Sb57  1  0.98990578  0.98995191  0.82996440  1
  Sb  Sb58  1  0.99738191  0.99740183  0.33245202  1
  Sb  Sb59  1  0.01009422  0.01004809  0.17003560  1
  Te  Te60  1  0.26007748  0.25993283  0.92005890  1
  Te  Te61  1  0.14713361  0.31879372  0.83296868  1
  Te  Te62  1  0.31878747  0.85081798  0.83298258  1
  Te  Te63  1  0.22893495  0.22866563  0.74292208  1
  Te  Te64  1  0.74428815  0.74456491  0.91476550  1
  Te  Te65  1  0.14918098  0.32159863  0.66675077  1
  Te  Te66  1  0.67899877  0.14715434  0.83296272  1
  Te  Te67  1  0.32168770  0.85119815  0.66674274  1
  Te  Te68  1  0.85078933  0.67918466  0.83298130  1
  Te  Te69  1  0.23549975  0.23539093  0.57846006  1
  Te  Te70  1  0.77221443  0.77245763  0.75746545  1
  Te  Te71  1  0.14856587  0.32013113  0.49999943  1
  Te  Te72  1  0.67884828  0.14921049  0.66674387  1
  Te  Te73  1  0.32014061  0.85150066  0.50000754  1
  Te  Te74  1  0.85125644  0.67887648  0.66674242  1
  Te  Te75  1  0.23703559  0.23688008  0.41230184  1
  Te  Te76  1  0.76296441  0.76311992  0.58769816  1
  Te  Te77  1  0.14874356  0.32112352  0.33325758  1
  Te  Te78  1  0.67985939  0.14849934  0.49999246  1
  Te  Te79  1  0.32115172  0.85078951  0.33325613  1
  Te  Te80  1  0.85143413  0.67986887  0.50000057  1
  Te  Te81  1  0.22778557  0.22754237  0.24253455  1
  Te  Te82  1  0.76450025  0.76460907  0.42153994  1
  Te  Te83  1  0.14921067  0.32081534  0.16701870  1
  Te  Te84  1  0.67831230  0.14880185  0.33325726  1
  Te  Te85  1  0.32100123  0.85284566  0.16703728  1
  Te  Te86  1  0.85081902  0.67840137  0.33324923  1
  Te  Te87  1  0.25571185  0.25543509  0.08523450  1
  Te  Te88  1  0.77106505  0.77133437  0.25707792  1
  Te  Te89  1  0.17980072  0.35007856  0.99995371  1
  Te  Te90  1  0.68121253  0.14918202  0.16701742  1
  Te  Te91  1  0.35017580  0.82009007  0.00000447  1
  Te  Te92  1  0.85286639  0.68120628  0.16703132  1
  Te  Te93  1  0.73992252  0.74006717  0.07994110  1
  Te  Te94  1  0.64982420  0.17990993  0.99999553  1
  Te  Te95  1  0.82019928  0.64992144  0.00004629  1
