# generated using pymatgen
data_VReMo
_symmetry_space_group_name_H-M   'P 1'
_cell_length_a   2.70502285
_cell_length_b   2.70502285
_cell_length_c   6.67513417
_cell_angle_alpha   97.58148697
_cell_angle_beta   97.58148697
_cell_angle_gamma   110.41683782
_symmetry_Int_Tables_number   1
_chemical_formula_structural   VReMo
_chemical_formula_sum   'V1 Re1 Mo1'
_cell_volume   44.53411809
_cell_formula_units_Z   1
loop_
 _symmetry_equiv_pos_site_id
 _symmetry_equiv_pos_as_xyz
  1  'x, y, z'
loop_
 _atom_site_type_symbol
 _atom_site_label
 _atom_site_symmetry_multiplicity
 _atom_site_fract_x
 _atom_site_fract_y
 _atom_site_fract_z
 _atom_site_occupancy
  V  V0  1  0.33169889  0.33169889  0.66339877  1
  Re  Re1  1  0.67095760  0.67095760  0.34191420  1
  Mo  Mo2  1  0.99734351  0.99734351  0.99468703  1
