# generated using pymatgen
data_YSc3N4
_symmetry_space_group_name_H-M   'P 1'
_cell_length_a   4.64961592
_cell_length_b   4.64961592
_cell_length_c   5.66806293
_cell_angle_alpha   65.78517229
_cell_angle_beta   65.78517229
_cell_angle_gamma   90.00000000
_symmetry_Int_Tables_number   1
_chemical_formula_structural   YSc3N4
_chemical_formula_sum   'Y1 Sc3 N4'
_cell_volume   99.81643950
_cell_formula_units_Z   1
loop_
 _symmetry_equiv_pos_site_id
 _symmetry_equiv_pos_as_xyz
  1  'x, y, z'
loop_
 _atom_site_type_symbol
 _atom_site_label
 _atom_site_symmetry_multiplicity
 _atom_site_fract_x
 _atom_site_fract_y
 _atom_site_fract_z
 _atom_site_occupancy
  Y  Y0  1  -0.00000000  -0.00000000  -0.00000000  1
  Sc  Sc1  1  0.25000000  0.75000000  0.50000000  1
  Sc  Sc2  1  0.50000000  0.50000000  -0.00000000  1
  Sc  Sc3  1  0.75000000  0.25000000  0.50000000  1
  N  N4  1  0.50000000  -0.00000000  -0.00000000  1
  N  N5  1  0.74192210  0.74192210  0.51615581  1
  N  N6  1  -0.00000000  0.50000000  -0.00000000  1
  N  N7  1  0.25807790  0.25807790  0.48384419  1
