# generated using pymatgen
data_Ti7B8(IrRh2)2
_symmetry_space_group_name_H-M   'P 1'
_cell_length_a   3.19931230
_cell_length_b   9.26943806
_cell_length_c   9.26492555
_cell_angle_alpha   119.93221820
_cell_angle_beta   90.00000000
_cell_angle_gamma   90.00000000
_symmetry_Int_Tables_number   1
_chemical_formula_structural   Ti7B8(IrRh2)2
_chemical_formula_sum   'Ti7 B8 Ir2 Rh4'
_cell_volume   238.11065655
_cell_formula_units_Z   1
loop_
 _symmetry_equiv_pos_site_id
 _symmetry_equiv_pos_as_xyz
  1  'x, y, z'
loop_
 _atom_site_type_symbol
 _atom_site_label
 _atom_site_symmetry_multiplicity
 _atom_site_fract_x
 _atom_site_fract_y
 _atom_site_fract_z
 _atom_site_occupancy
  Ti  Ti0  1  -0.00000000  0.99973580  0.99981368  1
  Ti  Ti1  1  0.00000000  0.91522588  0.27551686  1
  Ti  Ti2  1  0.00000000  0.72478368  0.63967025  1
  Ti  Ti3  1  0.00000000  0.36108072  0.08541032  1
  Ti  Ti4  1  0.00000000  0.08630752  0.72512499  1
  Ti  Ti5  1  0.00000000  0.27530754  0.36118368  1
  Ti  Ti6  1  0.00000000  0.63846262  0.91348793  1
  B  B7  1  0.50000000  0.06391591  0.21698060  1
  B  B8  1  0.50000000  0.78288671  0.84671317  1
  B  B9  1  0.50000000  0.15320953  0.93622640  1
  B  B10  1  0.50000000  0.93618039  0.78247585  1
  B  B11  1  0.50000000  0.21661765  0.15299459  1
  B  B12  1  0.50000000  0.84646005  0.06387803  1
  B  B13  1  0.00000000  0.66678811  0.33319178  1
  B  B14  1  0.00000000  0.33330662  0.66673495  1
  Ir  Ir15  1  0.50000000  0.64661795  0.15471584  1
  Ir  Ir16  1  0.50000000  0.84512386  0.49263282  1
  Rh  Rh17  1  0.50000000  0.50755161  0.35318638  1
  Rh  Rh18  1  0.50000000  0.35371152  0.84461890  1
  Rh  Rh19  1  0.50000000  0.15594324  0.50936079  1
  Rh  Rh20  1  0.50000000  0.49078306  0.64608219  1
