# generated using pymatgen
data_ThZr3
_symmetry_space_group_name_H-M   'P 1'
_cell_length_a   3.31248586
_cell_length_b   3.31248586
_cell_length_c   10.78471800
_cell_angle_alpha   90.00000000
_cell_angle_beta   90.00000000
_cell_angle_gamma   119.99455772
_symmetry_Int_Tables_number   1
_chemical_formula_structural   ThZr3
_chemical_formula_sum   'Th1 Zr3'
_cell_volume   102.48759575
_cell_formula_units_Z   1
loop_
 _symmetry_equiv_pos_site_id
 _symmetry_equiv_pos_as_xyz
  1  'x, y, z'
loop_
 _atom_site_type_symbol
 _atom_site_label
 _atom_site_symmetry_multiplicity
 _atom_site_fract_x
 _atom_site_fract_y
 _atom_site_fract_z
 _atom_site_occupancy
  Th  Th0  1  0.66665098  0.33334902  0.37500000  1
  Zr  Zr1  1  0.66678742  0.33321258  0.87500000  1
  Zr  Zr2  1  0.33328080  0.66671920  0.10993781  1
  Zr  Zr3  1  0.33328080  0.66671920  0.64006219  1
