# generated using pymatgen
data_Y10Si6B
_symmetry_space_group_name_H-M   'P 1'
_cell_length_a   6.41476723
_cell_length_b   8.52592679
_cell_length_c   8.52577456
_cell_angle_alpha   120.00058637
_cell_angle_beta   89.99946117
_cell_angle_gamma   90.00107766
_symmetry_Int_Tables_number   1
_chemical_formula_structural   Y10Si6B
_chemical_formula_sum   'Y10 Si6 B1'
_cell_volume   403.81682631
_cell_formula_units_Z   1
loop_
 _symmetry_equiv_pos_site_id
 _symmetry_equiv_pos_as_xyz
  1  'x, y, z'
loop_
 _atom_site_type_symbol
 _atom_site_label
 _atom_site_symmetry_multiplicity
 _atom_site_fract_x
 _atom_site_fract_y
 _atom_site_fract_z
 _atom_site_occupancy
  Y  Y0  1  0.50000145  0.33333366  0.66667128  1
  Y  Y1  1  0.50000145  0.66666239  0.33332872  1
  Y  Y2  1  0.00000026  0.66666766  0.33332699  1
  Y  Y3  1  0.00000026  0.33334066  0.66667301  1
  Y  Y4  1  0.73363601  0.24428619  1.00000000  1
  Y  Y5  1  0.73364055  0.75570425  0.75569585  1
  Y  Y6  1  0.73364055  0.00000840  0.24430415  1
  Y  Y7  1  0.26637199  0.75571063  0.00000000  1
  Y  Y8  1  0.26635761  0.24429493  0.24430335  1
  Y  Y9  1  0.26635761  0.99999158  0.75569665  1
  Si  Si10  1  0.74985546  0.60414562  0.00000000  1
  Si  Si11  1  0.74985248  0.39586679  0.39586965  1
  Si  Si12  1  0.74985248  0.99999714  0.60413035  1
  Si  Si13  1  0.25012650  0.39585204  1.00000000  1
  Si  Si14  1  0.25015286  0.60413427  0.60412935  1
  Si  Si15  1  0.25015286  0.00000492  0.39587065  1
  B  B16  1  0.49999960  0.99999886  0.00000000  1
