# generated using pymatgen
data_Na3Co2(GeO4)3
_symmetry_space_group_name_H-M   'P 1'
_cell_length_a   10.50219405
_cell_length_b   10.50219374
_cell_length_c   10.50219435
_cell_angle_alpha   109.47122008
_cell_angle_beta   109.47121948
_cell_angle_gamma   109.47121987
_symmetry_Int_Tables_number   1
_chemical_formula_structural   Na3Co2(GeO4)3
_chemical_formula_sum   'Na12 Co8 Ge12 O48'
_cell_volume   891.69891419
_cell_formula_units_Z   4
loop_
 _symmetry_equiv_pos_site_id
 _symmetry_equiv_pos_as_xyz
  1  'x, y, z'
loop_
 _atom_site_type_symbol
 _atom_site_label
 _atom_site_symmetry_multiplicity
 _atom_site_fract_x
 _atom_site_fract_y
 _atom_site_fract_z
 _atom_site_occupancy
  Na  Na0  1  0.62500000  0.25000000  0.87500000  1
  Na  Na1  1  0.87500000  0.75000000  0.62500000  1
  Na  Na2  1  0.75000000  0.62500000  0.87500000  1
  Na  Na3  1  0.25000000  0.87500000  0.62500000  1
  Na  Na4  1  0.87500000  0.62500000  0.25000000  1
  Na  Na5  1  0.62500000  0.87500000  0.75000000  1
  Na  Na6  1  0.37500000  0.75000000  0.12500000  1
  Na  Na7  1  0.12500000  0.25000000  0.37500000  1
  Na  Na8  1  0.25000000  0.37500000  0.12500000  1
  Na  Na9  1  0.75000000  0.12500000  0.37500000  1
  Na  Na10  1  0.12500000  0.37500000  0.75000000  1
  Na  Na11  1  0.37500000  0.12500000  0.25000000  1
  Co  Co12  1  0.50000000  0.50000000  0.50000000  1
  Co  Co13  1  0.50000000  0.50000000  0.00000000  1
  Co  Co14  1  0.50000000  0.00000000  0.50000000  1
  Co  Co15  1  0.00000000  0.50000000  0.50000000  1
  Co  Co16  1  0.50000000  0.00000000  0.00000000  1
  Co  Co17  1  0.00000000  0.00000000  0.50000000  1
  Co  Co18  1  0.00000000  0.50000000  0.00000000  1
  Co  Co19  1  0.00000000  0.00000000  0.00000000  1
  Ge  Ge20  1  0.87500000  0.12500000  0.75000000  1
  Ge  Ge21  1  0.12500000  0.87500000  0.25000000  1
  Ge  Ge22  1  0.25000000  0.62500000  0.37500000  1
  Ge  Ge23  1  0.12500000  0.75000000  0.87500000  1
  Ge  Ge24  1  0.75000000  0.87500000  0.12500000  1
  Ge  Ge25  1  0.37500000  0.25000000  0.62500000  1
  Ge  Ge26  1  0.62500000  0.75000000  0.37500000  1
  Ge  Ge27  1  0.87500000  0.25000000  0.12500000  1
  Ge  Ge28  1  0.25000000  0.12500000  0.87500000  1
  Ge  Ge29  1  0.75000000  0.37500000  0.62500000  1
  Ge  Ge30  1  0.37500000  0.62500000  0.75000000  1
  Ge  Ge31  1  0.62500000  0.37500000  0.25000000  1
  O  O32  1  0.80710378  0.41847591  0.82170397  1
  O  O33  1  0.08152409  0.88862787  0.40322806  1
  O  O34  1  0.67829603  0.09677194  0.98539881  1
  O  O35  1  0.69289622  0.51460119  0.61137213  1
  O  O36  1  0.69289622  0.67829603  0.08152409  1
  O  O37  1  0.51460119  0.61137213  0.69289622  1
  O  O38  1  0.09677194  0.61137213  0.41847591  1
  O  O39  1  0.61137213  0.69289622  0.51460119  1
  O  O40  1  0.40322806  0.82170397  0.51460119  1
  O  O41  1  0.88862787  0.98539881  0.80710378  1
  O  O42  1  0.98539881  0.80710378  0.88862787  1
  O  O43  1  0.08152409  0.69289622  0.67829603  1
  O  O44  1  0.61137213  0.41847591  0.09677194  1
  O  O45  1  0.51460119  0.40322806  0.82170397  1
  O  O46  1  0.67829603  0.08152409  0.69289622  1
  O  O47  1  0.41847591  0.09677194  0.61137213  1
  O  O48  1  0.82170397  0.51460119  0.40322806  1
  O  O49  1  0.40322806  0.08152409  0.88862787  1
  O  O50  1  0.09677194  0.98539881  0.67829603  1
  O  O51  1  0.59677194  0.17829603  0.48539881  1
  O  O52  1  0.98539881  0.67829603  0.09677194  1
  O  O53  1  0.82170397  0.80710378  0.41847591  1
  O  O54  1  0.88862787  0.40322806  0.08152409  1
  O  O55  1  0.80710378  0.88862787  0.98539881  1
  O  O56  1  0.19289622  0.58152409  0.17829603  1
  O  O57  1  0.91847591  0.11137213  0.59677194  1
  O  O58  1  0.32170397  0.90322806  0.01460119  1
  O  O59  1  0.30710378  0.48539881  0.38862787  1
  O  O60  1  0.30710378  0.32170397  0.91847591  1
  O  O61  1  0.48539881  0.38862787  0.30710378  1
  O  O62  1  0.90322806  0.38862787  0.58152409  1
  O  O63  1  0.38862787  0.30710378  0.48539881  1
  O  O64  1  0.19289622  0.11137213  0.01460119  1
  O  O65  1  0.11137213  0.59677194  0.91847591  1
  O  O66  1  0.17829603  0.19289622  0.58152409  1
  O  O67  1  0.58152409  0.17829603  0.19289622  1
  O  O68  1  0.01460119  0.32170397  0.90322806  1
  O  O69  1  0.90322806  0.01460119  0.32170397  1
  O  O70  1  0.59677194  0.91847591  0.11137213  1
  O  O71  1  0.17829603  0.48539881  0.59677194  1
  O  O72  1  0.58152409  0.90322806  0.38862787  1
  O  O73  1  0.32170397  0.91847591  0.30710378  1
  O  O74  1  0.48539881  0.59677194  0.17829603  1
  O  O75  1  0.38862787  0.58152409  0.90322806  1
  O  O76  1  0.91847591  0.30710378  0.32170397  1
  O  O77  1  0.01460119  0.19289622  0.11137213  1
  O  O78  1  0.11137213  0.01460119  0.19289622  1
  O  O79  1  0.41847591  0.82170397  0.80710378  1
