# generated using pymatgen
data_V5Cr5Ge6
_symmetry_space_group_name_H-M   'P 1'
_cell_length_a   4.81739240
_cell_length_b   7.13303190
_cell_length_c   7.11798220
_cell_angle_alpha   96.31674538
_cell_angle_beta   109.77917550
_cell_angle_gamma   70.26429061
_symmetry_Int_Tables_number   1
_chemical_formula_structural   V5Cr5Ge6
_chemical_formula_sum   'V5 Cr5 Ge6'
_cell_volume   216.64028251
_cell_formula_units_Z   1
loop_
 _symmetry_equiv_pos_site_id
 _symmetry_equiv_pos_as_xyz
  1  'x, y, z'
loop_
 _atom_site_type_symbol
 _atom_site_label
 _atom_site_symmetry_multiplicity
 _atom_site_fract_x
 _atom_site_fract_y
 _atom_site_fract_z
 _atom_site_occupancy
  V  V0  1  0.26765975  0.30759428  0.84291378  1
  V  V1  1  0.76512893  0.15855735  0.68881521  1
  V  V2  1  0.23480231  0.84068391  0.31028854  1
  V  V3  1  0.25087846  0.49989282  0.50059929  1
  V  V4  1  0.74982800  0.49989282  0.50059929  1
  Cr  Cr5  1  0.42277724  0.84436688  0.68992137  1
  Cr  Cr6  1  0.57380804  0.15781040  0.30542647  1
  Cr  Cr7  1  0.92602868  0.30479833  0.15685569  1
  Cr  Cr8  1  0.07446378  0.69472160  0.84364917  1
  Cr  Cr9  1  0.73336211  0.69328342  0.16000765  1
  Ge  Ge10  1  0.25196265  0.99758456  0.00045338  1
  Ge  Ge11  1  0.75090617  0.99758456  0.00045338  1
  Ge  Ge12  1  0.33124466  0.49989612  0.16238543  1
  Ge  Ge13  1  0.66842040  0.50336780  0.84020861  1
  Ge  Ge14  1  0.83189432  0.83514218  0.49893082  1
  Ge  Ge15  1  0.16683450  0.16482296  0.49849195  1
