# generated using pymatgen
data_Ti3MoAs4
_symmetry_space_group_name_H-M   'P 1'
_cell_length_a   3.51453073
_cell_length_b   3.51453073
_cell_length_c   12.93069409
_cell_angle_alpha   89.99948086
_cell_angle_beta   90.00051914
_cell_angle_gamma   119.99946340
_symmetry_Int_Tables_number   1
_chemical_formula_structural   Ti3MoAs4
_chemical_formula_sum   'Ti3 Mo1 As4'
_cell_volume   138.32144225
_cell_formula_units_Z   1
loop_
 _symmetry_equiv_pos_site_id
 _symmetry_equiv_pos_as_xyz
  1  'x, y, z'
loop_
 _atom_site_type_symbol
 _atom_site_label
 _atom_site_symmetry_multiplicity
 _atom_site_fract_x
 _atom_site_fract_y
 _atom_site_fract_z
 _atom_site_occupancy
  Ti  Ti0  1  -0.00000000  0.00000000  0.75000000  1
  Ti  Ti1  1  0.00000629  0.99999371  0.99713661  1
  Ti  Ti2  1  0.99999371  0.00000629  0.50286339  1
  Mo  Mo3  1  -0.00000000  0.00000000  0.25000000  1
  As  As4  1  0.66665261  0.33334739  0.37607694  1
  As  As5  1  0.66666278  0.33333722  0.87357301  1
  As  As6  1  0.33334739  0.66665261  0.12392306  1
  As  As7  1  0.33333722  0.66666278  0.62642699  1
