# generated using pymatgen
data_Sr3Zr2Nb2O12
_symmetry_space_group_name_H-M   'P 1'
_cell_length_a   5.84253609
_cell_length_b   9.98985998
_cell_length_c   5.84284725
_cell_angle_alpha   89.99464108
_cell_angle_beta   60.00176171
_cell_angle_gamma   72.99690739
_symmetry_Int_Tables_number   1
_chemical_formula_structural   Sr3Zr2Nb2O12
_chemical_formula_sum   'Sr3 Zr2 Nb2 O12'
_cell_volume   278.00124472
_cell_formula_units_Z   1
loop_
 _symmetry_equiv_pos_site_id
 _symmetry_equiv_pos_as_xyz
  1  'x, y, z'
loop_
 _atom_site_type_symbol
 _atom_site_label
 _atom_site_symmetry_multiplicity
 _atom_site_fract_x
 _atom_site_fract_y
 _atom_site_fract_z
 _atom_site_occupancy
  Sr  Sr0  1  0.75271977  0.87088587  0.62367460  1
  Sr  Sr1  1  0.25000000  0.12500000  0.37500000  1
  Sr  Sr2  1  0.74728023  0.37911413  0.12632540  1
  Zr  Zr3  1  0.00540662  0.99187037  0.99731639  1
  Zr  Zr4  1  0.49459338  0.25812963  0.75268361  1
  Nb  Nb5  1  0.99623297  0.50567319  0.50186087  1
  Nb  Nb6  1  0.50376703  0.74432681  0.24813913  1
  O  O7  1  0.77026993  0.37448470  0.61485891  1
  O  O8  1  0.25000000  0.12500000  0.87500000  1
  O  O9  1  0.72973007  0.87551530  0.13514109  1
  O  O10  1  0.25000000  0.62500000  0.37500000  1
  O  O11  1  0.25961354  0.87551530  0.13514109  1
  O  O12  1  0.75000000  0.62500000  0.37500000  1
  O  O13  1  0.24038646  0.37448470  0.61485891  1
  O  O14  1  0.75000000  0.12500000  0.87500000  1
  O  O15  1  0.25962673  0.87551415  0.60523239  1
  O  O16  1  0.75000000  0.62500000  0.87500000  1
  O  O17  1  0.24037327  0.37448585  0.14476761  1
  O  O18  1  0.75000000  0.12500000  0.37500000  1
