# generated using pymatgen
data_U24CrFe3
_symmetry_space_group_name_H-M   'P 1'
_cell_length_a   5.22910622
_cell_length_b   7.66287293
_cell_length_c   14.36956103
_cell_angle_alpha   90.00000000
_cell_angle_beta   90.00000000
_cell_angle_gamma   109.94984924
_symmetry_Int_Tables_number   1
_chemical_formula_structural   U24CrFe3
_chemical_formula_sum   'U24 Cr1 Fe3'
_cell_volume   541.23587474
_cell_formula_units_Z   1
loop_
 _symmetry_equiv_pos_site_id
 _symmetry_equiv_pos_as_xyz
  1  'x, y, z'
loop_
 _atom_site_type_symbol
 _atom_site_label
 _atom_site_symmetry_multiplicity
 _atom_site_fract_x
 _atom_site_fract_y
 _atom_site_fract_z
 _atom_site_occupancy
  U  U0  1  0.25000000  0.50000000  0.34313196  1
  U  U1  1  0.75000000  0.50000000  0.84207967  1
  U  U2  1  0.25000000  0.50000000  0.15792033  1
  U  U3  1  0.75000000  0.50000000  0.65686804  1
  U  U4  1  0.65675796  0.31226564  0.25268737  1
  U  U5  1  0.15550768  0.31226564  0.74731263  1
  U  U6  1  0.84324204  0.68773436  0.25268737  1
  U  U7  1  0.34449232  0.68773436  0.74731263  1
  U  U8  1  0.05713990  0.11433296  0.34155528  1
  U  U9  1  0.56236394  0.11927363  0.84036744  1
  U  U10  1  0.44309031  0.88072637  0.15963256  1
  U  U11  1  0.94280694  0.88566704  0.65844472  1
  U  U12  1  0.65898064  0.31743342  0.43929689  1
  U  U13  1  0.15517326  0.31807709  0.94098855  1
  U  U14  1  0.83709617  0.68192291  0.05901145  1
  U  U15  1  0.34154723  0.68256658  0.56070311  1
  U  U16  1  0.84101936  0.68256658  0.43929689  1
  U  U17  1  0.34482674  0.68192291  0.94098855  1
  U  U18  1  0.66290383  0.31807709  0.05901145  1
  U  U19  1  0.15845277  0.31743342  0.56070311  1
  U  U20  1  0.44286010  0.88566704  0.34155528  1
  U  U21  1  0.93763606  0.88072637  0.84036744  1
  U  U22  1  0.05690969  0.11927363  0.15963256  1
  U  U23  1  0.55719306  0.11433296  0.65844472  1
  Cr  Cr24  1  0.25000000  0.00000000  0.00000000  1
  Fe  Fe25  1  0.75000000  0.00000000  0.50000000  1
  Fe  Fe26  1  0.75000000  0.00000000  0.00000000  1
  Fe  Fe27  1  0.25000000  -0.00000000  0.50000000  1
