# generated using pymatgen
data_SrCeScO4
_symmetry_space_group_name_H-M   'P 1'
_cell_length_a   5.71762564
_cell_length_b   5.88053285
_cell_length_c   6.83347786
_cell_angle_alpha   90.00000000
_cell_angle_beta   65.26928761
_cell_angle_gamma   90.00000000
_symmetry_Int_Tables_number   1
_chemical_formula_structural   SrCeScO4
_chemical_formula_sum   'Sr2 Ce2 Sc2 O8'
_cell_volume   208.68723242
_cell_formula_units_Z   2
loop_
 _symmetry_equiv_pos_site_id
 _symmetry_equiv_pos_as_xyz
  1  'x, y, z'
loop_
 _atom_site_type_symbol
 _atom_site_label
 _atom_site_symmetry_multiplicity
 _atom_site_fract_x
 _atom_site_fract_y
 _atom_site_fract_z
 _atom_site_occupancy
  Sr  Sr0  1  0.14564836  0.51479901  0.70870327  1
  Sr  Sr1  1  0.35435164  0.01479901  0.29129673  1
  Ce  Ce2  1  0.85743933  0.48361608  0.28512134  1
  Ce  Ce3  1  0.64256067  0.98361608  0.71487866  1
  Sc  Sc4  1  0.49493056  0.49502665  0.01013888  1
  Sc  Sc5  1  0.00506944  0.99502665  0.98986112  1
  O  O6  1  0.22199103  0.74188345  0.04537485  1
  O  O7  1  0.27800897  0.24188345  0.95462515  1
  O  O8  1  0.76736589  0.24188345  0.95462515  1
  O  O9  1  0.73263411  0.74188345  0.04537485  1
  O  O10  1  0.16640806  0.93468966  0.66718388  1
  O  O11  1  0.81603377  0.08810171  0.36793245  1
  O  O12  1  0.33359194  0.43468966  0.33281612  1
  O  O13  1  0.68396623  0.58810171  0.63206755  1
