# generated using pymatgen
data_Sr2La2Mn4O11
_symmetry_space_group_name_H-M   'P 1'
_cell_length_a   5.62937912
_cell_length_b   5.62937912
_cell_length_c   8.70851603
_cell_angle_alpha   71.14276622
_cell_angle_beta   71.14276622
_cell_angle_gamma   90.00000000
_symmetry_Int_Tables_number   1
_chemical_formula_structural   Sr2La2Mn4O11
_chemical_formula_sum   'Sr2 La2 Mn4 O11'
_cell_volume   245.45526944
_cell_formula_units_Z   1
loop_
 _symmetry_equiv_pos_site_id
 _symmetry_equiv_pos_as_xyz
  1  'x, y, z'
loop_
 _atom_site_type_symbol
 _atom_site_label
 _atom_site_symmetry_multiplicity
 _atom_site_fract_x
 _atom_site_fract_y
 _atom_site_fract_z
 _atom_site_occupancy
  Sr  Sr0  1  0.12500000  0.62500000  0.75000000  1
  Sr  Sr1  1  0.62500000  0.12500000  0.75000000  1
  La  La2  1  0.37500000  0.87500000  0.25000000  1
  La  La3  1  0.87500000  0.37500000  0.25000000  1
  Mn  Mn4  1  0.99600622  0.99600622  0.00798757  1
  Mn  Mn5  1  0.50427438  0.50427438  0.99145123  1
  Mn  Mn6  1  0.25399378  0.25399378  0.49201243  1
  Mn  Mn7  1  0.74572562  0.74572562  0.50854877  1
  O  O8  1  0.24189322  0.75913977  0.99896701  1
  O  O9  1  0.75913977  0.24189322  0.99896701  1
  O  O10  1  0.49086023  0.00810678  0.50103299  1
  O  O11  1  0.00810678  0.49086023  0.50103299  1
  O  O12  1  0.24189322  0.24189322  0.99896701  1
  O  O13  1  0.75913977  0.75913977  0.99896701  1
  O  O14  1  0.49086023  0.49086023  0.50103299  1
  O  O15  1  0.00810678  0.00810678  0.50103299  1
  O  O16  1  0.86725030  0.86725030  0.26549939  1
  O  O17  1  0.38274970  0.38274970  0.23450061  1
  O  O18  1  0.62500000  0.62500000  0.75000000  1
