# generated using pymatgen
data_Th2(FeNi)5
_symmetry_space_group_name_H-M   'P 1'
_cell_length_a   3.99242466
_cell_length_b   5.04285969
_cell_length_c   8.64129516
_cell_angle_alpha   89.99999803
_cell_angle_beta   90.00000000
_cell_angle_gamma   90.00000000
_symmetry_Int_Tables_number   1
_chemical_formula_structural   Th2(FeNi)5
_chemical_formula_sum   'Th2 Fe5 Ni5'
_cell_volume   173.97724696
_cell_formula_units_Z   1
loop_
 _symmetry_equiv_pos_site_id
 _symmetry_equiv_pos_as_xyz
  1  'x, y, z'
loop_
 _atom_site_type_symbol
 _atom_site_label
 _atom_site_symmetry_multiplicity
 _atom_site_fract_x
 _atom_site_fract_y
 _atom_site_fract_z
 _atom_site_occupancy
  Th  Th0  1  -0.00000000  0.99997595  0.00000000  1
  Th  Th1  1  -0.00000000  0.49999167  0.50000000  1
  Fe  Fe2  1  0.00000000  0.99997974  0.33804168  1
  Fe  Fe3  1  0.00000000  0.49995865  0.83257446  1
  Fe  Fe4  1  -0.00000000  0.49995865  0.16742554  1
  Fe  Fe5  1  -0.00000000  0.99997974  0.66195832  1
  Fe  Fe6  1  0.50000000  -0.00000886  0.50000000  1
  Ni  Ni7  1  0.50000000  0.49999611  -0.00000000  1
  Ni  Ni8  1  0.50000000  0.25199256  0.24980128  1
  Ni  Ni9  1  0.50000000  0.74799162  0.75020847  1
  Ni  Ni10  1  0.50000000  0.74799162  0.24979153  1
  Ni  Ni11  1  0.50000000  0.25199256  0.75019872  1
