# generated using pymatgen
data_NdSmFe17N3
_symmetry_space_group_name_H-M   'P 1'
_cell_length_a   6.53763606
_cell_length_b   6.53763606
_cell_length_c   6.53763614
_cell_angle_alpha   83.61469514
_cell_angle_beta   83.61469514
_cell_angle_gamma   83.61469369
_symmetry_Int_Tables_number   1
_chemical_formula_structural   NdSmFe17N3
_chemical_formula_sum   'Nd1 Sm1 Fe17 N3'
_cell_volume   274.58137083
_cell_formula_units_Z   1
loop_
 _symmetry_equiv_pos_site_id
 _symmetry_equiv_pos_as_xyz
  1  'x, y, z'
loop_
 _atom_site_type_symbol
 _atom_site_label
 _atom_site_symmetry_multiplicity
 _atom_site_fract_x
 _atom_site_fract_y
 _atom_site_fract_z
 _atom_site_occupancy
  Nd  Nd0  1  0.65657630  0.65657630  0.65657630  1
  Sm  Sm1  1  0.34249466  0.34249466  0.34249466  1
  Fe  Fe2  1  0.34162146  0.34162146  0.85848202  1
  Fe  Fe3  1  0.34162146  0.85848202  0.34162146  1
  Fe  Fe4  1  0.85848202  0.34162146  0.34162146  1
  Fe  Fe5  1  0.65778784  0.65778784  0.14284879  1
  Fe  Fe6  1  0.65778784  0.14284879  0.65778784  1
  Fe  Fe7  1  0.14284879  0.65778784  0.65778784  1
  Fe  Fe8  1  0.28223633  0.71740503  0.00046148  1
  Fe  Fe9  1  0.71740503  0.00046148  0.28223633  1
  Fe  Fe10  1  0.00046148  0.28223633  0.71740503  1
  Fe  Fe11  1  0.28223633  0.00046148  0.71740503  1
  Fe  Fe12  1  0.00046148  0.71740503  0.28223633  1
  Fe  Fe13  1  0.71740503  0.28223633  0.00046148  1
  Fe  Fe14  1  0.99974667  0.99974667  0.50000938  1
  Fe  Fe15  1  0.99974667  0.50000938  0.99974667  1
  Fe  Fe16  1  0.50000938  0.99974667  0.99974667  1
  Fe  Fe17  1  0.90604430  0.90604430  0.90604430  1
  Fe  Fe18  1  0.09445461  0.09445461  0.09445461  1
  N  N19  1  0.49865134  0.49865134  0.00326960  1
  N  N20  1  0.49865134  0.00326960  0.49865134  1
  N  N21  1  0.00326960  0.49865134  0.49865134  1
