# generated using pymatgen
data_RuRh4
_symmetry_space_group_name_H-M   'P 1'
_cell_length_a   2.72254853
_cell_length_b   2.72254853
_cell_length_c   11.15878170
_cell_angle_alpha   90.00000000
_cell_angle_beta   97.00704006
_cell_angle_gamma   120.00000000
_symmetry_Int_Tables_number   1
_chemical_formula_structural   RuRh4
_chemical_formula_sum   'Ru1 Rh4'
_cell_volume   70.91638798
_cell_formula_units_Z   1
loop_
 _symmetry_equiv_pos_site_id
 _symmetry_equiv_pos_as_xyz
  1  'x, y, z'
loop_
 _atom_site_type_symbol
 _atom_site_label
 _atom_site_symmetry_multiplicity
 _atom_site_fract_x
 _atom_site_fract_y
 _atom_site_fract_z
 _atom_site_occupancy
  Ru  Ru0  1  -0.00000000  -0.00000000  0.00000000  1
  Rh  Rh1  1  0.79786631  0.39893315  0.19679946  1
  Rh  Rh2  1  0.60038168  0.80019084  0.40057252  1
  Rh  Rh3  1  0.39961832  0.19980916  0.59942748  1
  Rh  Rh4  1  0.20213369  0.60106685  0.80320054  1
