# generated using pymatgen
data_Nb6SnSe8
_symmetry_space_group_name_H-M   'P 1'
_cell_length_a   3.49885122
_cell_length_b   10.11160534
_cell_length_c   10.11215556
_cell_angle_alpha   59.99986724
_cell_angle_beta   89.99945935
_cell_angle_gamma   89.99942773
_symmetry_Int_Tables_number   1
_chemical_formula_structural   Nb6SnSe8
_chemical_formula_sum   'Nb6 Sn1 Se8'
_cell_volume   309.82708347
_cell_formula_units_Z   1
loop_
 _symmetry_equiv_pos_site_id
 _symmetry_equiv_pos_as_xyz
  1  'x, y, z'
loop_
 _atom_site_type_symbol
 _atom_site_label
 _atom_site_symmetry_multiplicity
 _atom_site_fract_x
 _atom_site_fract_y
 _atom_site_fract_z
 _atom_site_occupancy
  Nb  Nb0  1  0.74939390  0.38100674  0.51259629  1
  Nb  Nb1  1  0.74939021  0.10641055  0.38100933  1
  Nb  Nb2  1  0.74940944  0.51258000  0.10640732  1
  Nb  Nb3  1  0.25060610  0.61899326  0.48740371  1
  Nb  Nb4  1  0.25060979  0.89358945  0.61899067  1
  Nb  Nb5  1  0.25059056  0.48742000  0.89359268  1
  Sn  Sn6  1  0.50000000  0.00000000  -0.00000000  1
  Se  Se7  1  0.75111934  0.05892750  0.66354181  1
  Se  Se8  1  0.75112226  0.27753485  0.05893572  1
  Se  Se9  1  0.75113410  0.66354963  0.27752413  1
  Se  Se10  1  0.24888066  0.94107250  0.33645819  1
  Se  Se11  1  0.24887774  0.72246515  0.94106428  1
  Se  Se12  1  0.24886590  0.33645037  0.72247587  1
  Se  Se13  1  0.74956837  0.66664419  0.66669687  1
  Se  Se14  1  0.25043163  0.33335581  0.33330313  1
