# generated using pymatgen
data_NbMoS3
_symmetry_space_group_name_H-M   'P 1'
_cell_length_a   3.28208972
_cell_length_b   6.26914228
_cell_length_c   8.80014438
_cell_angle_alpha   104.18478656
_cell_angle_beta   90.00000000
_cell_angle_gamma   90.00000000
_symmetry_Int_Tables_number   1
_chemical_formula_structural   NbMoS3
_chemical_formula_sum   'Nb2 Mo2 S6'
_cell_volume   175.55001381
_cell_formula_units_Z   2
loop_
 _symmetry_equiv_pos_site_id
 _symmetry_equiv_pos_as_xyz
  1  'x, y, z'
loop_
 _atom_site_type_symbol
 _atom_site_label
 _atom_site_symmetry_multiplicity
 _atom_site_fract_x
 _atom_site_fract_y
 _atom_site_fract_z
 _atom_site_occupancy
  Nb  Nb0  1  0.75000000  0.69102658  0.99364292  1
  Nb  Nb1  1  0.25000000  0.30897342  0.00635708  1
  Mo  Mo2  1  0.75000000  0.88702286  0.37638721  1
  Mo  Mo3  1  0.25000000  0.11297714  0.62361279  1
  S  S4  1  0.75000000  0.02927612  0.83585179  1
  S  S5  1  0.25000000  0.97072388  0.16414821  1
  S  S6  1  0.75000000  0.49306557  0.20228588  1
  S  S7  1  0.25000000  0.50693443  0.79771412  1
  S  S8  1  0.75000000  0.26835303  0.48585954  1
  S  S9  1  0.25000000  0.73164697  0.51414046  1
