# generated using pymatgen
data_Nb6SnTe8
_symmetry_space_group_name_H-M   'P 1'
_cell_length_a   3.67138973
_cell_length_b   10.73469843
_cell_length_c   10.73448465
_cell_angle_alpha   59.99546378
_cell_angle_beta   89.99670419
_cell_angle_gamma   89.99608994
_symmetry_Int_Tables_number   1
_chemical_formula_structural   Nb6SnTe8
_chemical_formula_sum   'Nb6 Sn1 Te8'
_cell_volume   366.36359644
_cell_formula_units_Z   1
loop_
 _symmetry_equiv_pos_site_id
 _symmetry_equiv_pos_as_xyz
  1  'x, y, z'
loop_
 _atom_site_type_symbol
 _atom_site_label
 _atom_site_symmetry_multiplicity
 _atom_site_fract_x
 _atom_site_fract_y
 _atom_site_fract_z
 _atom_site_occupancy
  Nb  Nb0  1  0.74969853  0.38637782  0.51064887  1
  Nb  Nb1  1  0.74969490  0.10294800  0.38636856  1
  Nb  Nb2  1  0.74969501  0.51070467  0.10293260  1
  Nb  Nb3  1  0.25030147  0.61362218  0.48935113  1
  Nb  Nb4  1  0.25030510  0.89705200  0.61363144  1
  Nb  Nb5  1  0.25030499  0.48929533  0.89706740  1
  Sn  Sn6  1  0.50000000  -0.00000000  -0.00000000  1
  Te  Te7  1  0.75097925  0.06108253  0.66864185  1
  Te  Te8  1  0.75095969  0.27027235  0.06111123  1
  Te  Te9  1  0.75096771  0.66864980  0.27029805  1
  Te  Te10  1  0.24902075  0.93891747  0.33135815  1
  Te  Te11  1  0.24904031  0.72972765  0.93888877  1
  Te  Te12  1  0.24903229  0.33135020  0.72970195  1
  Te  Te13  1  0.74955939  0.66666869  0.66667904  1
  Te  Te14  1  0.25044061  0.33333131  0.33332096  1
