# generated using pymatgen
data_SmFe2Ni2B
_symmetry_space_group_name_H-M   'P 1'
_cell_length_a   5.04429409
_cell_length_b   5.07013338
_cell_length_c   7.04993277
_cell_angle_alpha   90.00186766
_cell_angle_beta   89.99878044
_cell_angle_gamma   120.14648373
_symmetry_Int_Tables_number   1
_chemical_formula_structural   SmFe2Ni2B
_chemical_formula_sum   'Sm2 Fe4 Ni4 B2'
_cell_volume   155.91663326
_cell_formula_units_Z   2
loop_
 _symmetry_equiv_pos_site_id
 _symmetry_equiv_pos_as_xyz
  1  'x, y, z'
loop_
 _atom_site_type_symbol
 _atom_site_label
 _atom_site_symmetry_multiplicity
 _atom_site_fract_x
 _atom_site_fract_y
 _atom_site_fract_z
 _atom_site_occupancy
  Sm  Sm0  1  0.99995932  0.99999727  0.00241031  1
  Sm  Sm1  1  0.00001196  0.99996320  0.49419487  1
  Fe  Fe2  1  0.99996777  0.49996952  0.28656571  1
  Fe  Fe3  1  0.49999493  0.00000346  0.71526840  1
  Fe  Fe4  1  0.49997705  0.50000859  0.71524938  1
  Fe  Fe5  1  -0.00000440  0.50002096  0.71230390  1
  Ni  Ni6  1  0.32720225  0.66363081  0.99888934  1
  Ni  Ni7  1  0.67271978  0.33643930  0.99888535  1
  Ni  Ni8  1  0.50003230  -0.00000195  0.29049130  1
  Ni  Ni9  1  0.50003602  0.50003424  0.29044677  1
  B  B10  1  0.33089729  0.66542229  0.49763824  1
  B  B11  1  0.66900574  0.33451230  0.49765641  1
