# generated using pymatgen
data_LiNi2P2O9
_symmetry_space_group_name_H-M   'P 1'
_cell_length_a   6.25759087
_cell_length_b   7.43748458
_cell_length_c   13.85284823
_cell_angle_alpha   90.00000000
_cell_angle_beta   90.00000000
_cell_angle_gamma   90.00000000
_symmetry_Int_Tables_number   1
_chemical_formula_structural   LiNi2P2O9
_chemical_formula_sum   'Li4 Ni8 P8 O36'
_cell_volume   644.72174683
_cell_formula_units_Z   4
loop_
 _symmetry_equiv_pos_site_id
 _symmetry_equiv_pos_as_xyz
  1  'x, y, z'
loop_
 _atom_site_type_symbol
 _atom_site_label
 _atom_site_symmetry_multiplicity
 _atom_site_fract_x
 _atom_site_fract_y
 _atom_site_fract_z
 _atom_site_occupancy
  Li  Li0  1  0.75000000  0.93935246  0.77799760  1
  Li  Li1  1  0.75000000  0.56064754  0.27799760  1
  Li  Li2  1  0.25000100  0.43935146  0.72200240  1
  Li  Li3  1  0.25000100  0.06064754  0.22200240  1
  Ni  Ni4  1  0.75000000  0.34793765  0.87989740  1
  Ni  Ni5  1  0.25000100  0.65206235  0.12010260  1
  Ni  Ni6  1  0.25000100  0.84793765  0.62010260  1
  Ni  Ni7  1  0.75000000  0.15206235  0.37989740  1
  Ni  Ni8  1  0.50000000  -0.00000000  -0.00000000  1
  Ni  Ni9  1  0.50000000  0.50000000  0.50000000  1
  Ni  Ni10  1  -0.00000000  0.50000000  0.50000000  1
  Ni  Ni11  1  -0.00000000  -0.00000000  -0.00000000  1
  P  P12  1  0.25000100  0.36254457  0.93504236  1
  P  P13  1  0.75000000  0.63745543  0.06495864  1
  P  P14  1  0.75000000  0.86254457  0.56495764  1
  P  P15  1  0.25000100  0.13745643  0.43504236  1
  P  P16  1  0.75000000  0.39912601  0.69624754  1
  P  P17  1  0.75000000  0.10087399  0.19624754  1
  P  P18  1  0.25000100  0.89912601  0.80375246  1
  P  P19  1  0.25000100  0.60087299  0.30375246  1
  O  O20  1  0.04277504  0.58061134  0.36204514  1
  O  O21  1  0.54277404  0.41938766  0.63795486  1
  O  O22  1  0.95722496  0.08061134  0.13795486  1
  O  O23  1  0.45722496  0.91938866  0.86204514  1
  O  O24  1  0.95722496  0.41938766  0.63795486  1
  O  O25  1  0.45722496  0.58061134  0.36204514  1
  O  O26  1  0.04277504  0.91938866  0.86204514  1
  O  O27  1  0.54277404  0.08061134  0.13795486  1
  O  O28  1  0.25000100  0.31427943  0.49385022  1
  O  O29  1  0.75000000  0.68572157  0.50614978  1
  O  O30  1  0.75000000  0.81427843  0.00614878  1
  O  O31  1  0.25000100  0.18572157  0.99385022  1
  O  O32  1  0.75000000  0.13573467  0.95633091  1
  O  O33  1  0.25000100  0.86426533  0.04366809  1
  O  O34  1  0.25000100  0.63573467  0.54366809  1
  O  O35  1  0.75000000  0.36426633  0.45633191  1
  O  O36  1  0.75000000  0.21872310  0.75512152  1
  O  O37  1  0.25000100  0.78127690  0.24487948  1
  O  O38  1  0.25000100  0.71872310  0.74487848  1
  O  O39  1  0.75000000  0.28127790  0.25512052  1
  O  O40  1  0.43798369  0.13589663  0.36225584  1
  O  O41  1  0.93798369  0.86410337  0.63774416  1
  O  O42  1  0.56201631  0.63589563  0.13774416  1
  O  O43  1  0.06201631  0.36410337  0.86225584  1
  O  O44  1  0.56201631  0.86410337  0.63774416  1
  O  O45  1  0.06201631  0.13589663  0.36225584  1
  O  O46  1  0.43798369  0.36410337  0.86225584  1
  O  O47  1  0.93798369  0.63589563  0.13774416  1
  O  O48  1  0.75000000  0.46914564  0.00238290  1
  O  O49  1  0.25000100  0.03787739  0.71728541  1
  O  O50  1  0.25000100  0.46212161  0.21728541  1
  O  O51  1  0.75000000  0.53787739  0.78271459  1
  O  O52  1  0.75000000  0.03085436  0.50238290  1
  O  O53  1  0.25000100  0.96914564  0.49761710  1
  O  O54  1  0.25000100  0.53085336  0.99761610  1
  O  O55  1  0.75000000  0.96212261  0.28271459  1
