# generated using pymatgen
data_LiTb(WO4)2
_symmetry_space_group_name_H-M   'P 1'
_cell_length_a   5.22870784
_cell_length_b   5.22870784
_cell_length_c   6.72838620
_cell_angle_alpha   67.13533379
_cell_angle_beta   67.13533379
_cell_angle_gamma   90.00000000
_symmetry_Int_Tables_number   1
_chemical_formula_structural   LiTb(WO4)2
_chemical_formula_sum   'Li1 Tb1 W2 O8'
_cell_volume   153.68891840
_cell_formula_units_Z   1
loop_
 _symmetry_equiv_pos_site_id
 _symmetry_equiv_pos_as_xyz
  1  'x, y, z'
loop_
 _atom_site_type_symbol
 _atom_site_label
 _atom_site_symmetry_multiplicity
 _atom_site_fract_x
 _atom_site_fract_y
 _atom_site_fract_z
 _atom_site_occupancy
  Li  Li0  1  0.87500000  0.12500000  0.25000000  1
  Tb  Tb1  1  0.12500000  0.87500000  0.75000000  1
  W  W2  1  0.37500000  0.62500000  0.25000000  1
  W  W3  1  0.62500000  0.37500000  0.75000000  1
  O  O4  1  0.44416000  0.78026624  0.42958946  1
  O  O5  1  0.12625054  0.29014430  0.42958946  1
  O  O6  1  0.78712297  0.12377950  0.92078704  1
  O  O7  1  0.29208999  0.45543346  0.92078704  1
  O  O8  1  0.54456654  0.21287703  0.57921296  1
  O  O9  1  0.87622050  0.70791001  0.57921296  1
  O  O10  1  0.21973376  0.87374946  0.07041054  1
  O  O11  1  0.70985570  0.55584000  0.07041054  1
