# generated using pymatgen
data_Nb6ZnTe8
_symmetry_space_group_name_H-M   'P 1'
_cell_length_a   3.66408813
_cell_length_b   10.79439291
_cell_length_c   10.80048513
_cell_angle_alpha   60.00880186
_cell_angle_beta   89.99875912
_cell_angle_gamma   89.99668591
_symmetry_Int_Tables_number   1
_chemical_formula_structural   Nb6ZnTe8
_chemical_formula_sum   'Nb6 Zn1 Te8'
_cell_volume   369.97854470
_cell_formula_units_Z   1
loop_
 _symmetry_equiv_pos_site_id
 _symmetry_equiv_pos_as_xyz
  1  'x, y, z'
loop_
 _atom_site_type_symbol
 _atom_site_label
 _atom_site_symmetry_multiplicity
 _atom_site_fract_x
 _atom_site_fract_y
 _atom_site_fract_z
 _atom_site_occupancy
  Nb  Nb0  1  0.74999908  0.38600227  0.51106186  1
  Nb  Nb1  1  0.75003037  0.10287702  0.38604392  1
  Nb  Nb2  1  0.75009505  0.51103353  0.10295978  1
  Nb  Nb3  1  0.25000092  0.61399773  0.48893814  1
  Nb  Nb4  1  0.24996963  0.89712298  0.61395608  1
  Nb  Nb5  1  0.24990495  0.48896647  0.89704022  1
  Zn  Zn6  1  0.50000000  0.00000000  -0.00000000  1
  Te  Te7  1  0.75006520  0.06381243  0.66459691  1
  Te  Te8  1  0.75007028  0.27147259  0.06392016  1
  Te  Te9  1  0.75008775  0.66454278  0.27153321  1
  Te  Te10  1  0.24993480  0.93618757  0.33540309  1
  Te  Te11  1  0.24992972  0.72852741  0.93607984  1
  Te  Te12  1  0.24991225  0.33545722  0.72846679  1
  Te  Te13  1  0.74981068  0.66663682  0.66671329  1
  Te  Te14  1  0.25018932  0.33336318  0.33328671  1
