# generated using pymatgen
data_NaNdNb4O12
_symmetry_space_group_name_H-M   'P 1'
_cell_length_a   5.62062823
_cell_length_b   5.62062823
_cell_length_c   8.95209222
_cell_angle_alpha   71.70371382
_cell_angle_beta   71.70371382
_cell_angle_gamma   89.99950278
_symmetry_Int_Tables_number   1
_chemical_formula_structural   NaNdNb4O12
_chemical_formula_sum   'Na1 Nd1 Nb4 O12'
_cell_volume   253.41017129
_cell_formula_units_Z   1
loop_
 _symmetry_equiv_pos_site_id
 _symmetry_equiv_pos_as_xyz
  1  'x, y, z'
loop_
 _atom_site_type_symbol
 _atom_site_label
 _atom_site_symmetry_multiplicity
 _atom_site_fract_x
 _atom_site_fract_y
 _atom_site_fract_z
 _atom_site_occupancy
  Na  Na0  1  -0.00000000  -0.00000000  -0.00000000  1
  Nd  Nd1  1  0.50000000  0.50000000  -0.00000000  1
  Nb  Nb2  1  0.37102766  0.87102766  0.25794468  1
  Nb  Nb3  1  0.87102766  0.37102766  0.25794468  1
  Nb  Nb4  1  0.12897234  0.62897234  0.74205532  1
  Nb  Nb5  1  0.62897234  0.12897234  0.74205532  1
  O  O6  1  0.62777694  0.14424278  0.22798027  1
  O  O7  1  0.14424278  0.62777694  0.22798027  1
  O  O8  1  0.37222306  0.85575722  0.77201973  1
  O  O9  1  0.85575722  0.37222306  0.77201973  1
  O  O10  1  0.14448094  0.14448094  0.22767801  1
  O  O11  1  0.62784105  0.62784105  0.22767801  1
  O  O12  1  0.85551906  0.85551906  0.77232199  1
  O  O13  1  0.37215895  0.37215895  0.77232199  1
  O  O14  1  0.25000000  0.75000000  0.50000000  1
  O  O15  1  0.75000000  0.25000000  0.50000000  1
  O  O16  1  0.50000000  -0.00000000  0.00000000  1
  O  O17  1  -0.00000000  0.50000000  -0.00000000  1
