# generated using pymatgen
data_Na8MnPO10
_symmetry_space_group_name_H-M   'P 1'
_cell_length_a   7.36265247
_cell_length_b   8.25326112
_cell_length_c   9.07612228
_cell_angle_alpha   90.04717998
_cell_angle_beta   90.05388910
_cell_angle_gamma   90.00911227
_symmetry_Int_Tables_number   1
_chemical_formula_structural   Na8MnPO10
_chemical_formula_sum   'Na16 Mn2 P2 O20'
_cell_volume   551.51824064
_cell_formula_units_Z   2
loop_
 _symmetry_equiv_pos_site_id
 _symmetry_equiv_pos_as_xyz
  1  'x, y, z'
loop_
 _atom_site_type_symbol
 _atom_site_label
 _atom_site_symmetry_multiplicity
 _atom_site_fract_x
 _atom_site_fract_y
 _atom_site_fract_z
 _atom_site_occupancy
  Na  Na0  1  0.00270905  0.85548302  0.86247587  1
  Na  Na1  1  0.49604278  0.65085166  0.37274608  1
  Na  Na2  1  0.50465911  0.14798512  0.12726553  1
  Na  Na3  1  0.99501286  0.35462906  0.63758473  1
  Na  Na4  1  0.99544062  0.14816303  0.12704014  1
  Na  Na5  1  0.50434920  0.35493633  0.63804042  1
  Na  Na6  1  0.49684475  0.85528987  0.86245778  1
  Na  Na7  1  0.00379379  0.65082551  0.37254164  1
  Na  Na8  1  0.24982744  0.72928961  0.63617547  1
  Na  Na9  1  0.25016126  0.78720100  0.14260833  1
  Na  Na10  1  0.75025654  0.28447764  0.35963447  1
  Na  Na11  1  0.74967896  0.22732151  0.86181944  1
  Na  Na12  1  0.00079869  0.99504147  0.50370565  1
  Na  Na13  1  0.50218002  0.49613679  0.99548149  1
  Na  Na14  1  0.49946742  0.99517643  0.50456539  1
  Na  Na15  1  0.99811303  0.49627227  0.99469063  1
  Mn  Mn16  1  0.24985986  0.35103256  0.36348657  1
  Mn  Mn17  1  0.75039545  0.85069981  0.13717753  1
  P  P18  1  0.25031758  0.14520681  0.86296942  1
  P  P19  1  0.75004135  0.64487407  0.63696550  1
  O  O20  1  0.24997667  0.03710689  0.72210250  1
  O  O21  1  0.25036340  0.47210904  0.21398886  1
  O  O22  1  0.75078200  0.97270304  0.28815329  1
  O  O23  1  0.75024506  0.53599664  0.77787425  1
  O  O24  1  0.24980910  0.66559584  0.89261199  1
  O  O25  1  0.25007647  0.82948248  0.39549794  1
  O  O26  1  0.75010188  0.32987132  0.10519281  1
  O  O27  1  0.74913933  0.16589545  0.60648314  1
  O  O28  1  0.07552462  0.25241892  0.87045752  1
  O  O29  1  0.44006062  0.23687877  0.37236226  1
  O  O30  1  0.55904697  0.73542818  0.12710145  1
  O  O31  1  0.92392860  0.75203403  0.63004632  1
  O  O32  1  0.94119111  0.73549970  0.12657513  1
  O  O33  1  0.57563481  0.75156804  0.63015059  1
  O  O34  1  0.42380760  0.25252977  0.87080110  1
  O  O35  1  0.06071487  0.23652125  0.37213668  1
  O  O36  1  0.24981784  0.47887659  0.51244464  1
  O  O37  1  0.24995845  0.02923097  0.00217776  1
  O  O38  1  0.74999827  0.52912500  0.49764221  1
  O  O39  1  0.74987257  0.98023450  0.98676750  1
