# generated using pymatgen
data_Mn3Fe9C4
_symmetry_space_group_name_H-M   'P 1'
_cell_length_a   4.45722329
_cell_length_b   5.01680248
_cell_length_c   6.74363050
_cell_angle_alpha   90.00762149
_cell_angle_beta   88.99907159
_cell_angle_gamma   90.04569194
_symmetry_Int_Tables_number   1
_chemical_formula_structural   Mn3Fe9C4
_chemical_formula_sum   'Mn3 Fe9 C4'
_cell_volume   150.77132307
_cell_formula_units_Z   1
loop_
 _symmetry_equiv_pos_site_id
 _symmetry_equiv_pos_as_xyz
  1  'x, y, z'
loop_
 _atom_site_type_symbol
 _atom_site_label
 _atom_site_symmetry_multiplicity
 _atom_site_fract_x
 _atom_site_fract_y
 _atom_site_fract_z
 _atom_site_occupancy
  Mn  Mn0  1  0.33012118  0.67787749  0.06501238  1
  Mn  Mn1  1  0.16336411  0.18166063  0.43699067  1
  Mn  Mn2  1  0.66282700  0.32177396  0.56933627  1
  Fe  Fe3  1  0.83142012  0.82443827  0.92788317  1
  Fe  Fe4  1  0.67555086  0.31935796  0.93444740  1
  Fe  Fe5  1  0.83062849  0.82085754  0.56225891  1
  Fe  Fe6  1  0.32993599  0.67811286  0.43176989  1
  Fe  Fe7  1  0.17267975  0.17602865  0.07138299  1
  Fe  Fe8  1  0.83612084  0.53694452  0.25202710  1
  Fe  Fe9  1  0.66425352  0.03904021  0.25008255  1
  Fe  Fe10  1  0.16543316  0.45963203  0.75152580  1
  Fe  Fe11  1  0.33873145  0.96380370  0.74892054  1
  C  C12  1  0.06627795  0.87933471  0.25063210  1
  C  C13  1  0.43196842  0.38099735  0.24946611  1
  C  C14  1  0.93499296  0.12087076  0.74311939  1
  C  C15  1  0.56569418  0.61926936  0.75514472  1
