# generated using pymatgen
data_Na4P4H10N4O11
_symmetry_space_group_name_H-M   'P 1'
_cell_length_a   8.52586544
_cell_length_b   8.61273524
_cell_length_c   10.30633506
_cell_angle_alpha   83.33479372
_cell_angle_beta   75.83881632
_cell_angle_gamma   87.66084462
_symmetry_Int_Tables_number   1
_chemical_formula_structural   Na4P4H10N4O11
_chemical_formula_sum   'Na8 P8 H20 N8 O22'
_cell_volume   728.78625074
_cell_formula_units_Z   2
loop_
 _symmetry_equiv_pos_site_id
 _symmetry_equiv_pos_as_xyz
  1  'x, y, z'
loop_
 _atom_site_type_symbol
 _atom_site_label
 _atom_site_symmetry_multiplicity
 _atom_site_fract_x
 _atom_site_fract_y
 _atom_site_fract_z
 _atom_site_occupancy
  Na  Na0  1  0.16500118  0.62754946  0.05673175  1
  Na  Na1  1  0.83499882  0.37245054  0.94326825  1
  Na  Na2  1  0.95240842  0.67978573  0.41137152  1
  Na  Na3  1  0.04759158  0.32021427  0.58862848  1
  Na  Na4  1  0.47057199  0.38233951  0.89396488  1
  Na  Na5  1  0.52942801  0.61766049  0.10603512  1
  Na  Na6  1  0.90371130  0.07444832  0.39723249  1
  Na  Na7  1  0.09628870  0.92555168  0.60276751  1
  P  P8  1  0.27626711  0.26752966  0.23745052  1
  P  P9  1  0.72373289  0.73247034  0.76254948  1
  P  P10  1  0.63577366  0.90621189  0.26074512  1
  P  P11  1  0.36422634  0.09378811  0.73925488  1
  P  P12  1  0.28237545  0.91163255  0.24874607  1
  P  P13  1  0.71762455  0.08836745  0.75125393  1
  P  P14  1  0.61849606  0.26013549  0.27017213  1
  P  P15  1  0.38150394  0.73986451  0.72982787  1
  H  H16  1  0.00178596  0.42929828  0.26502677  1
  H  H17  1  0.99821404  0.57070172  0.73497323  1
  H  H18  1  0.85253523  0.49838820  0.21269080  1
  H  H19  1  0.14746477  0.50161180  0.78730920  1
  H  H20  1  0.67199868  0.10991939  0.09307874  1
  H  H21  1  0.32800132  0.89008061  0.90692126  1
  H  H22  1  0.37867473  0.21262394  0.42693671  1
  H  H23  1  0.62132527  0.78737606  0.57306329  1
  H  H24  1  0.87540865  0.81508446  0.04346016  1
  H  H25  1  0.12459135  0.18491554  0.95653984  1
  H  H26  1  0.00346094  0.89114741  0.91726364  1
  H  H27  1  0.99653906  0.10885259  0.08273636  1
  H  H28  1  0.32434434  0.10577836  0.06719632  1
  H  H29  1  0.67565566  0.89422164  0.93280368  1
  H  H30  1  0.75331670  0.38891239  0.47342168  1
  H  H31  1  0.24668330  0.61108761  0.52657832  1
  H  H32  1  0.40140575  0.85042708  0.42900113  1
  H  H33  1  0.59859425  0.14957292  0.57099887  1
  H  H34  1  0.71043836  0.51312789  0.57787789  1
  H  H35  1  0.28956164  0.48687211  0.42212211  1
  N  N36  1  0.43555593  0.88625602  0.32740803  1
  N  N37  1  0.56444407  0.11374398  0.67259197  1
  N  N38  1  0.29845582  0.09587780  0.17000682  1
  N  N39  1  0.70154418  0.90412220  0.82999318  1
  N  N40  1  0.41485436  0.27019243  0.33115934  1
  N  N41  1  0.58514564  0.72980757  0.66884066  1
  N  N42  1  0.66869089  0.09560756  0.19371100  1
  N  N43  1  0.33130911  0.90439244  0.80628900  1
  O  O44  1  0.98946032  0.80699676  0.98992227  1
  O  O45  1  0.01053968  0.19300324  0.01007773  1
  O  O46  1  0.95642211  0.52758503  0.22747197  1
  O  O47  1  0.04357789  0.47241497  0.77252803  1
  O  O48  1  0.11242691  0.27299044  0.33693927  1
  O  O49  1  0.88757309  0.72700956  0.66306073  1
  O  O50  1  0.72057325  0.87105246  0.37412993  1
  O  O51  1  0.27942675  0.12894754  0.62587007  1
  O  O52  1  0.68909783  0.24607282  0.39236460  1
  O  O53  1  0.31090217  0.75392718  0.60763540  1
  O  O54  1  0.12776007  0.89918351  0.36060061  1
  O  O55  1  0.87223993  0.10081649  0.63939939  1
  O  O56  1  0.80108658  0.45708600  0.52474566  1
  O  O57  1  0.19891342  0.54291400  0.47525434  1
  O  O58  1  0.67164286  0.39563966  0.16239284  1
  O  O59  1  0.32835714  0.60436034  0.83760716  1
  O  O60  1  0.68466304  0.81599543  0.13832797  1
  O  O61  1  0.31533696  0.18400457  0.86167203  1
  O  O62  1  0.31952823  0.39636889  0.12184109  1
  O  O63  1  0.68047177  0.60363111  0.87815891  1
  O  O64  1  0.30650418  0.80529220  0.13789246  1
  O  O65  1  0.69349582  0.19470780  0.86210754  1
