# generated using pymatgen
data_Mn3Fe3Si2
_symmetry_space_group_name_H-M   'P 1'
_cell_length_a   3.97152036
_cell_length_b   3.97152036
_cell_length_c   6.88181133
_cell_angle_alpha   73.22870934
_cell_angle_beta   90.00000000
_cell_angle_gamma   120.00000006
_symmetry_Int_Tables_number   1
_chemical_formula_structural   Mn3Fe3Si2
_chemical_formula_sum   'Mn3 Fe3 Si2'
_cell_volume   88.63267456
_cell_formula_units_Z   1
loop_
 _symmetry_equiv_pos_site_id
 _symmetry_equiv_pos_as_xyz
  1  'x, y, z'
loop_
 _atom_site_type_symbol
 _atom_site_label
 _atom_site_symmetry_multiplicity
 _atom_site_fract_x
 _atom_site_fract_y
 _atom_site_fract_z
 _atom_site_occupancy
  Mn  Mn0  1  0.12485781  0.24971562  0.62542656  1
  Mn  Mn1  1  0.87496707  0.74993414  0.37509879  1
  Mn  Mn2  1  0.37490437  0.74980874  0.87528690  1
  Fe  Fe3  1  0.25006553  0.50013107  0.24980340  1
  Fe  Fe4  1  0.75004556  0.50009112  0.74986332  1
  Fe  Fe5  1  0.62518348  0.25036696  0.12444955  1
  Si  Si6  1  0.99978261  0.99956521  0.00065218  1
  Si  Si7  1  0.50019357  0.00038714  0.49941929  1
