# generated using pymatgen
data_Mn10CuGe5
_symmetry_space_group_name_H-M   'P 1'
_cell_length_a   4.81877506
_cell_length_b   7.06260381
_cell_length_c   7.06260381
_cell_angle_alpha   96.68331184
_cell_angle_beta   109.94678729
_cell_angle_gamma   70.05321271
_symmetry_Int_Tables_number   1
_chemical_formula_structural   Mn10CuGe5
_chemical_formula_sum   'Mn10 Cu1 Ge5'
_cell_volume   212.38858087
_cell_formula_units_Z   1
loop_
 _symmetry_equiv_pos_site_id
 _symmetry_equiv_pos_as_xyz
  1  'x, y, z'
loop_
 _atom_site_type_symbol
 _atom_site_label
 _atom_site_symmetry_multiplicity
 _atom_site_fract_x
 _atom_site_fract_y
 _atom_site_fract_z
 _atom_site_occupancy
  Mn  Mn0  1  0.25000000  0.50000000  0.50000000  1
  Mn  Mn1  1  0.75000000  0.50000000  0.50000000  1
  Mn  Mn2  1  0.42396266  0.85297648  0.69653781  1
  Mn  Mn3  1  0.58040133  0.14702352  0.30346219  1
  Mn  Mn4  1  0.91959867  0.30346219  0.14702352  1
  Mn  Mn5  1  0.07603734  0.69653781  0.85297648  1
  Mn  Mn6  1  0.72742485  0.69653781  0.14702352  1
  Mn  Mn7  1  0.27693914  0.30346219  0.85297648  1
  Mn  Mn8  1  0.77257515  0.14702352  0.69653781  1
  Mn  Mn9  1  0.22306086  0.85297648  0.30346219  1
  Cu  Cu10  1  0.25000000  -0.00000000  0.00000000  1
  Ge  Ge11  1  0.66195498  0.50000000  0.82390996  1
  Ge  Ge12  1  0.33804502  0.50000000  0.17609004  1
  Ge  Ge13  1  0.16195498  0.17609004  0.50000000  1
  Ge  Ge14  1  0.83804502  0.82390996  0.50000000  1
  Ge  Ge15  1  0.75000000  -0.00000000  0.00000000  1
