# generated using pymatgen
data_Lu4CrS7
_symmetry_space_group_name_H-M   'P 1'
_cell_length_a   3.71920993
_cell_length_b   6.40350272
_cell_length_c   11.20539827
_cell_angle_alpha   104.46271981
_cell_angle_beta   90.00000005
_cell_angle_gamma   73.11783964
_symmetry_Int_Tables_number   1
_chemical_formula_structural   Lu4CrS7
_chemical_formula_sum   'Lu4 Cr1 S7'
_cell_volume   246.51536355
_cell_formula_units_Z   1
loop_
 _symmetry_equiv_pos_site_id
 _symmetry_equiv_pos_as_xyz
  1  'x, y, z'
loop_
 _atom_site_type_symbol
 _atom_site_label
 _atom_site_symmetry_multiplicity
 _atom_site_fract_x
 _atom_site_fract_y
 _atom_site_fract_z
 _atom_site_occupancy
  Lu  Lu0  1  0.69430634  0.61138731  0.20292239  1
  Lu  Lu1  1  0.30606298  0.38787404  0.80402944  1
  Lu  Lu2  1  0.99930378  0.00139244  0.00529639  1
  Lu  Lu3  1  0.11361491  0.77277019  0.56645324  1
  Cr  Cr4  1  0.88537702  0.22924596  0.42342564  1
  S  S5  1  0.74680077  0.50639846  0.63686926  1
  S  S6  1  0.26751833  0.46496333  0.35352254  1
  S  S7  1  0.33808081  0.32383837  0.05141852  1
  S  S8  1  0.65952586  0.68094829  0.94794340  1
  S  S9  1  0.03200489  0.93599021  0.22700670  1
  S  S10  1  0.96347244  0.07305511  0.78471728  1
  S  S11  1  0.49393186  0.01213629  0.49639520  1
