# generated using pymatgen
data_La4Fe(NiO5)2
_symmetry_space_group_name_H-M   'P 1'
_cell_length_a   3.90485437
_cell_length_b   3.90485437
_cell_length_c   14.43594945
_cell_angle_alpha   82.22459725
_cell_angle_beta   82.22459725
_cell_angle_gamma   89.98193112
_symmetry_Int_Tables_number   1
_chemical_formula_structural   La4Fe(NiO5)2
_chemical_formula_sum   'La4 Fe1 Ni2 O10'
_cell_volume   216.05254333
_cell_formula_units_Z   1
loop_
 _symmetry_equiv_pos_site_id
 _symmetry_equiv_pos_as_xyz
  1  'x, y, z'
loop_
 _atom_site_type_symbol
 _atom_site_label
 _atom_site_symmetry_multiplicity
 _atom_site_fract_x
 _atom_site_fract_y
 _atom_site_fract_z
 _atom_site_occupancy
  La  La0  1  0.69747277  0.69747277  0.60505447  1
  La  La1  1  0.29903796  0.29903796  0.40192408  1
  La  La2  1  0.56862677  0.56862677  0.86274647  1
  La  La3  1  0.43880493  0.43880493  0.12239013  1
  Fe  Fe4  1  0.86158278  0.86158278  0.27683444  1
  Ni  Ni5  1  0.14031215  0.14031215  0.71937570  1
  Ni  Ni6  1  0.00069590  0.00069590  0.99860820  1
  O  O7  1  0.78288456  0.78288456  0.43423088  1
  O  O8  1  0.21772703  0.21772703  0.56454595  1
  O  O9  1  0.35759565  0.85759565  0.28480870  1
  O  O10  1  0.14035736  0.64035736  0.71928529  1
  O  O11  1  0.64035736  0.14035736  0.71928529  1
  O  O12  1  0.85759565  0.35759565  0.28480870  1
  O  O13  1  0.92978222  0.92978222  0.14043556  1
  O  O14  1  0.06930144  0.06930144  0.86139713  1
  O  O15  1  0.49893275  0.99893275  0.00213451  1
  O  O16  1  0.99893275  0.49893275  0.00213451  1
