# generated using pymatgen
data_Li2MnBr4
_symmetry_space_group_name_H-M   'P 1'
_cell_length_a   7.72541276
_cell_length_b   7.95385377
_cell_length_c   7.98127460
_cell_angle_alpha   90.00000000
_cell_angle_beta   58.89823187
_cell_angle_gamma   120.98308759
_symmetry_Int_Tables_number   1
_chemical_formula_structural   Li2MnBr4
_chemical_formula_sum   'Li4 Mn2 Br8'
_cell_volume   335.55970821
_cell_formula_units_Z   2
loop_
 _symmetry_equiv_pos_site_id
 _symmetry_equiv_pos_as_xyz
  1  'x, y, z'
loop_
 _atom_site_type_symbol
 _atom_site_label
 _atom_site_symmetry_multiplicity
 _atom_site_fract_x
 _atom_site_fract_y
 _atom_site_fract_z
 _atom_site_occupancy
  Li  Li0  1  0.50000000  0.50000000  -0.00000000  1
  Li  Li1  1  0.50000000  -0.00000000  -0.00000000  1
  Li  Li2  1  -0.00000000  0.50000000  -0.00000000  1
  Li  Li3  1  -0.00000000  0.50000000  0.50000000  1
  Mn  Mn4  1  0.50000000  -0.00000000  0.50000000  1
  Mn  Mn5  1  0.50000000  0.50000000  0.50000000  1
  Br  Br6  1  0.98968036  0.73412975  0.25515982  1
  Br  Br7  1  0.98968036  0.25555061  0.25515982  1
  Br  Br8  1  0.49524091  0.24762045  0.74662412  1
  Br  Br9  1  0.49524091  0.24762045  0.25813497  1
  Br  Br10  1  0.01031964  0.26587025  0.74484018  1
  Br  Br11  1  0.01031964  0.74444939  0.74484018  1
  Br  Br12  1  0.50475909  0.75237955  0.25337588  1
  Br  Br13  1  0.50475909  0.75237955  0.74186503  1
