# generated using pymatgen
data_Lu(Fe5Si)2
_symmetry_space_group_name_H-M   'P 1'
_cell_length_a   4.77044545
_cell_length_b   6.31792397
_cell_length_c   6.24942055
_cell_angle_alpha   98.28477667
_cell_angle_beta   112.43722809
_cell_angle_gamma   67.81906570
_symmetry_Int_Tables_number   1
_chemical_formula_structural   Lu(Fe5Si)2
_chemical_formula_sum   'Lu1 Fe10 Si2'
_cell_volume   161.21091370
_cell_formula_units_Z   1
loop_
 _symmetry_equiv_pos_site_id
 _symmetry_equiv_pos_as_xyz
  1  'x, y, z'
loop_
 _atom_site_type_symbol
 _atom_site_label
 _atom_site_symmetry_multiplicity
 _atom_site_fract_x
 _atom_site_fract_y
 _atom_site_fract_z
 _atom_site_occupancy
  Lu  Lu0  1  -0.00000000  -0.00000000  -0.00000000  1
  Fe  Fe1  1  0.64163783  0.35524702  0.63852268  1
  Fe  Fe2  1  0.35836217  0.64475298  0.36147732  1
  Fe  Fe3  1  0.00311515  0.35524702  0.36147732  1
  Fe  Fe4  1  0.99688485  0.64475298  0.63852268  1
  Fe  Fe5  1  0.50000000  0.50000000  -0.00000000  1
  Fe  Fe6  1  -0.00000000  0.50000000  0.00000000  1
  Fe  Fe7  1  0.71933184  0.78172434  0.22038803  1
  Fe  Fe8  1  0.28066816  0.21827566  0.77961197  1
  Fe  Fe9  1  0.49894382  0.78172434  0.77961197  1
  Fe  Fe10  1  0.50105618  0.21827566  0.22038803  1
  Si  Si11  1  0.50000000  0.00000000  0.50000000  1
  Si  Si12  1  -0.00000000  -0.00000000  0.50000000  1
