# generated using pymatgen
data_LaFe2PbO6
_symmetry_space_group_name_H-M   'P 1'
_cell_length_a   5.62438417
_cell_length_b   7.92414548
_cell_length_c   5.58130426
_cell_angle_alpha   90.00000000
_cell_angle_beta   90.00000000
_cell_angle_gamma   90.00000000
_symmetry_Int_Tables_number   1
_chemical_formula_structural   LaFe2PbO6
_chemical_formula_sum   'La2 Fe4 Pb2 O12'
_cell_volume   248.75001510
_cell_formula_units_Z   2
loop_
 _symmetry_equiv_pos_site_id
 _symmetry_equiv_pos_as_xyz
  1  'x, y, z'
loop_
 _atom_site_type_symbol
 _atom_site_label
 _atom_site_symmetry_multiplicity
 _atom_site_fract_x
 _atom_site_fract_y
 _atom_site_fract_z
 _atom_site_occupancy
  La  La0  1  0.03144031  0.25000000  0.99177283  1
  La  La1  1  0.46855969  0.75000000  0.49177283  1
  Fe  Fe2  1  0.50389637  0.99877003  0.99918133  1
  Fe  Fe3  1  0.99610363  0.49877003  0.49918133  1
  Fe  Fe4  1  0.50389637  0.50122997  0.99918133  1
  Fe  Fe5  1  0.99610363  0.00122997  0.49918133  1
  Pb  Pb6  1  0.52803285  0.25000000  0.50765940  1
  Pb  Pb7  1  0.97196715  0.75000000  0.00765940  1
  O  O8  1  0.21397857  0.95548718  0.21393274  1
  O  O9  1  0.71365163  0.54322112  0.28613230  1
  O  O10  1  0.78634837  0.45677888  0.78613230  1
  O  O11  1  0.28602143  0.04451282  0.71393274  1
  O  O12  1  0.78634837  0.04322112  0.78613230  1
  O  O13  1  0.28602143  0.45548718  0.71393274  1
  O  O14  1  0.21397857  0.54451282  0.21393274  1
  O  O15  1  0.71365163  0.95677888  0.28613230  1
  O  O16  1  0.98579431  0.25000000  0.41753622  1
  O  O17  1  0.47936834  0.25000000  0.08453882  1
  O  O18  1  0.02063166  0.75000000  0.58453882  1
  O  O19  1  0.51420569  0.75000000  0.91753622  1
