# generated using pymatgen
data_Li3Ti4O8
_symmetry_space_group_name_H-M   'P 1'
_cell_length_a   5.08982362
_cell_length_b   5.72267998
_cell_length_c   9.65366938
_cell_angle_alpha   90.00000000
_cell_angle_beta   90.00000000
_cell_angle_gamma   89.48482011
_symmetry_Int_Tables_number   1
_chemical_formula_structural   Li3Ti4O8
_chemical_formula_sum   'Li6 Ti8 O16'
_cell_volume   281.17522907
_cell_formula_units_Z   2
loop_
 _symmetry_equiv_pos_site_id
 _symmetry_equiv_pos_as_xyz
  1  'x, y, z'
loop_
 _atom_site_type_symbol
 _atom_site_label
 _atom_site_symmetry_multiplicity
 _atom_site_fract_x
 _atom_site_fract_y
 _atom_site_fract_z
 _atom_site_occupancy
  Li  Li0  1  0.56345109  0.13057008  0.88923997  1
  Li  Li1  1  0.43654891  0.36942992  0.38923997  1
  Li  Li2  1  0.07528344  0.37614238  0.89087877  1
  Li  Li3  1  0.92471656  0.12385762  0.39087877  1
  Li  Li4  1  0.42473309  0.86912834  0.11480186  1
  Li  Li5  1  0.57526691  0.63087166  0.61480186  1
  Ti  Ti6  1  0.38619486  0.87158526  0.38054640  1
  Ti  Ti7  1  0.61380514  0.62841474  0.88054640  1
  Ti  Ti8  1  0.09454425  0.38557169  0.62067947  1
  Ti  Ti9  1  0.90545575  0.11442831  0.12067947  1
  Ti  Ti10  1  0.60967315  0.11788884  0.62891437  1
  Ti  Ti11  1  0.39032685  0.38211116  0.12891437  1
  Ti  Ti12  1  0.91532894  0.62101193  0.37091384  1
  Ti  Ti13  1  0.08467106  0.87898807  0.87091384  1
  O  O14  1  0.07025062  0.89303567  0.25628151  1
  O  O15  1  0.92974938  0.60696433  0.75628151  1
  O  O16  1  0.43755460  0.37471722  0.74244887  1
  O  O17  1  0.56244540  0.12528278  0.24244887  1
  O  O18  1  0.92945006  0.12368781  0.75166108  1
  O  O19  1  0.07054994  0.37631219  0.25166108  1
  O  O20  1  0.55145307  0.62356865  0.25912882  1
  O  O21  1  0.44854693  0.87643135  0.75912882  1
  O  O22  1  0.73188631  0.87254198  0.49076943  1
  O  O23  1  0.26811369  0.62745802  0.99076943  1
  O  O24  1  0.75778124  0.37043666  0.50308112  1
  O  O25  1  0.24221876  0.12956334  0.00308112  1
  O  O26  1  0.26761222  0.13374431  0.50599266  1
  O  O27  1  0.73238778  0.36625569  0.00599266  1
  O  O28  1  0.24770036  0.62422001  0.49766185  1
  O  O29  1  0.75229964  0.87577999  0.99766185  1
