# generated using pymatgen
data_La3UAl8
_symmetry_space_group_name_H-M   'P 1'
_cell_length_a   5.68540654
_cell_length_b   5.68540654
_cell_length_c   9.89323296
_cell_angle_alpha   73.30133799
_cell_angle_beta   90.00000000
_cell_angle_gamma   120.00000000
_symmetry_Int_Tables_number   1
_chemical_formula_structural   La3UAl8
_chemical_formula_sum   'La3 U1 Al8'
_cell_volume   261.25604926
_cell_formula_units_Z   1
loop_
 _symmetry_equiv_pos_site_id
 _symmetry_equiv_pos_as_xyz
  1  'x, y, z'
loop_
 _atom_site_type_symbol
 _atom_site_label
 _atom_site_symmetry_multiplicity
 _atom_site_fract_x
 _atom_site_fract_y
 _atom_site_fract_z
 _atom_site_occupancy
  La  La0  1  0.37512185  0.75024370  0.87463444  1
  La  La1  1  0.99808507  0.99617014  0.00574478  1
  La  La2  1  0.50158505  0.00317010  0.49524485  1
  U  U3  1  0.87483759  0.74967519  0.37548722  1
  Al  Al4  1  0.43605310  0.37249997  0.19144693  1
  Al  Al5  1  0.93694559  0.37919051  0.68386390  1
  Al  Al6  1  0.43605310  0.87210621  0.19144693  1
  Al  Al7  1  0.93694559  0.87389117  0.68386390  1
  Al  Al8  1  0.18787805  0.37575611  0.43636584  1
  Al  Al9  1  0.68780321  0.37560643  0.93659036  1
  Al  Al10  1  0.93644686  0.37249997  0.19144693  1
  Al  Al11  1  0.44224492  0.37919051  0.68386390  1
