# generated using pymatgen
data_LaCe(CoNi)5
_symmetry_space_group_name_H-M   'P 1'
_cell_length_a   4.01072053
_cell_length_b   4.93919167
_cell_length_c   8.46597149
_cell_angle_alpha   89.99999456
_cell_angle_beta   90.00000000
_cell_angle_gamma   90.00000000
_symmetry_Int_Tables_number   1
_chemical_formula_structural   LaCe(CoNi)5
_chemical_formula_sum   'La1 Ce1 Co5 Ni5'
_cell_volume   167.70850300
_cell_formula_units_Z   1
loop_
 _symmetry_equiv_pos_site_id
 _symmetry_equiv_pos_as_xyz
  1  'x, y, z'
loop_
 _atom_site_type_symbol
 _atom_site_label
 _atom_site_symmetry_multiplicity
 _atom_site_fract_x
 _atom_site_fract_y
 _atom_site_fract_z
 _atom_site_occupancy
  La  La0  1  -0.00000000  0.49997645  0.50000000  1
  Ce  Ce1  1  0.00000000  0.00001073  -0.00000000  1
  Co  Co2  1  0.00000000  0.99999893  0.33050692  1
  Co  Co3  1  -0.00000000  0.49995923  0.84552168  1
  Co  Co4  1  0.00000000  0.49995923  0.15447832  1
  Co  Co5  1  -0.00000000  0.99999893  0.66949308  1
  Co  Co6  1  0.50000000  0.99998638  0.50000000  1
  Ni  Ni7  1  0.50000000  0.49998069  0.00000000  1
  Ni  Ni8  1  0.50000000  0.24780855  0.24659892  1
  Ni  Ni9  1  0.50000000  0.75215617  0.75340596  1
  Ni  Ni10  1  0.50000000  0.75215617  0.24659404  1
  Ni  Ni11  1  0.50000000  0.24780855  0.75340108  1
