# generated using pymatgen
data_La2GaCoO6
_symmetry_space_group_name_H-M   'P 1'
_cell_length_a   5.50009456
_cell_length_b   5.50009456
_cell_length_c   5.50009481
_cell_angle_alpha   60.63094559
_cell_angle_beta   60.63094559
_cell_angle_gamma   60.63095050
_symmetry_Int_Tables_number   1
_chemical_formula_structural   La2GaCoO6
_chemical_formula_sum   'La2 Ga1 Co1 O6'
_cell_volume   119.32714801
_cell_formula_units_Z   1
loop_
 _symmetry_equiv_pos_site_id
 _symmetry_equiv_pos_as_xyz
  1  'x, y, z'
loop_
 _atom_site_type_symbol
 _atom_site_label
 _atom_site_symmetry_multiplicity
 _atom_site_fract_x
 _atom_site_fract_y
 _atom_site_fract_z
 _atom_site_occupancy
  La  La0  1  0.24985949  0.24985949  0.24985949  1
  La  La1  1  0.75014051  0.75014051  0.75014051  1
  Ga  Ga2  1  0.50000000  0.50000000  0.50000000  1
  Co  Co3  1  0.00000000  -0.00000000  -0.00000000  1
  O  O4  1  0.80766292  0.69234063  0.24928309  1
  O  O5  1  0.69234063  0.24928309  0.80766292  1
  O  O6  1  0.24928309  0.80766292  0.69234063  1
  O  O7  1  0.30765937  0.75071691  0.19233708  1
  O  O8  1  0.75071691  0.19233708  0.30765937  1
  O  O9  1  0.19233708  0.30765937  0.75071691  1
