# generated using pymatgen
data_In5S8
_symmetry_space_group_name_H-M   'P 1'
_cell_length_a   7.68162456
_cell_length_b   7.68162456
_cell_length_c   7.68162456
_cell_angle_alpha   90.00000000
_cell_angle_beta   60.00000000
_cell_angle_gamma   120.00000000
_symmetry_Int_Tables_number   1
_chemical_formula_structural   In5S8
_chemical_formula_sum   'In5 S8'
_cell_volume   320.51195589
_cell_formula_units_Z   1
loop_
 _symmetry_equiv_pos_site_id
 _symmetry_equiv_pos_as_xyz
  1  'x, y, z'
loop_
 _atom_site_type_symbol
 _atom_site_label
 _atom_site_symmetry_multiplicity
 _atom_site_fract_x
 _atom_site_fract_y
 _atom_site_fract_z
 _atom_site_occupancy
  In  In0  1  0.51489113  0.52233670  0.99255443  1
  In  In1  1  0.51489113  0.99255443  0.99255443  1
  In  In2  1  0.98510887  0.99255443  0.52233670  1
  In  In3  1  0.98510887  0.99255443  0.99255443  1
  In  In4  1  0.75000000  0.37500000  0.37500000  1
  S  S5  1  0.01871837  0.77807755  0.24064082  1
  S  S6  1  0.01871837  0.24064082  0.24064082  1
  S  S7  1  0.48128163  0.24064082  0.77807755  1
  S  S8  1  0.48128163  0.24064082  0.24064082  1
  S  S9  1  0.99366358  0.24049538  0.75316821  1
  S  S10  1  0.99366358  0.75316821  0.75316821  1
  S  S11  1  0.50633642  0.75316821  0.24049538  1
  S  S12  1  0.50633642  0.75316821  0.75316821  1
