# generated using pymatgen
data_In2FeSbO7
_symmetry_space_group_name_H-M   'P 1'
_cell_length_a   7.22129723
_cell_length_b   7.20694531
_cell_length_c   7.26771566
_cell_angle_alpha   90.00000000
_cell_angle_beta   59.78713498
_cell_angle_gamma   119.93427771
_symmetry_Int_Tables_number   1
_chemical_formula_structural   In2FeSbO7
_chemical_formula_sum   'In4 Fe2 Sb2 O14'
_cell_volume   266.85665647
_cell_formula_units_Z   2
loop_
 _symmetry_equiv_pos_site_id
 _symmetry_equiv_pos_as_xyz
  1  'x, y, z'
loop_
 _atom_site_type_symbol
 _atom_site_label
 _atom_site_symmetry_multiplicity
 _atom_site_fract_x
 _atom_site_fract_y
 _atom_site_fract_z
 _atom_site_occupancy
  In  In0  1  0.50000000  0.50000000  0.00000000  1
  In  In1  1  0.50000000  -0.00000000  0.00000000  1
  In  In2  1  0.00000000  -0.00000000  0.50000000  1
  In  In3  1  0.00000000  -0.00000000  0.00000000  1
  Fe  Fe4  1  0.50000000  -0.00000000  0.50000000  1
  Fe  Fe5  1  0.50000000  0.50000000  0.50000000  1
  Sb  Sb6  1  -0.00000000  0.50000000  0.00000000  1
  Sb  Sb7  1  -0.00000000  0.50000000  0.50000000  1
  O  O8  1  0.26538028  0.13269014  0.11730986  1
  O  O9  1  0.73461972  0.86730986  0.88269014  1
  O  O10  1  0.84679412  0.42339706  0.82660294  1
  O  O11  1  0.70334776  0.85167388  0.39832612  1
  O  O12  1  0.25691581  0.42360478  0.40453944  1
  O  O13  1  0.25691581  0.83331103  0.83854474  1
  O  O14  1  0.25691581  0.83331103  0.40453944  1
  O  O15  1  0.25691581  0.42360478  0.83854474  1
  O  O16  1  0.15320588  0.57660294  0.17339706  1
  O  O17  1  0.29665224  0.14832612  0.60167388  1
  O  O18  1  0.74308419  0.57639522  0.59546056  1
  O  O19  1  0.74308419  0.16668897  0.16145526  1
  O  O20  1  0.74308419  0.16668897  0.59546056  1
  O  O21  1  0.74308419  0.57639522  0.16145526  1
