# generated using pymatgen
data_KCe(MoO4)2
_symmetry_space_group_name_H-M   'P 1'
_cell_length_a   5.46182612
_cell_length_b   5.46182612
_cell_length_c   7.23513730
_cell_angle_alpha   67.82408716
_cell_angle_beta   67.82408716
_cell_angle_gamma   90.00000000
_symmetry_Int_Tables_number   1
_chemical_formula_structural   KCe(MoO4)2
_chemical_formula_sum   'K1 Ce1 Mo2 O8'
_cell_volume   182.51307116
_cell_formula_units_Z   1
loop_
 _symmetry_equiv_pos_site_id
 _symmetry_equiv_pos_as_xyz
  1  'x, y, z'
loop_
 _atom_site_type_symbol
 _atom_site_label
 _atom_site_symmetry_multiplicity
 _atom_site_fract_x
 _atom_site_fract_y
 _atom_site_fract_z
 _atom_site_occupancy
  K  K0  1  0.37500000  0.62500000  0.25000000  1
  Ce  Ce1  1  0.62500000  0.37500000  0.75000000  1
  Mo  Mo2  1  0.87500000  0.12500000  0.25000000  1
  Mo  Mo3  1  0.12500000  0.87500000  0.75000000  1
  O  O4  1  0.66821139  0.79821274  0.42253003  1
  O  O5  1  0.90925858  0.27925723  0.42253003  1
  O  O6  1  0.80846944  0.95247774  0.89852296  1
  O  O7  1  0.29300760  0.64899930  0.89852296  1
  O  O8  1  0.35100070  0.19153056  0.60147704  1
  O  O9  1  0.04752226  0.70699240  0.60147704  1
  O  O10  1  0.20178726  0.09074142  0.07746997  1
  O  O11  1  0.72074277  0.33178861  0.07746997  1
