# generated using pymatgen
data_Fe2Cu10Sb4S13
_symmetry_space_group_name_H-M   'P 1'
_cell_length_a   9.00252627
_cell_length_b   9.00252627
_cell_length_c   9.00252627
_cell_angle_alpha   70.72346209
_cell_angle_beta   70.43135039
_cell_angle_gamma   109.56864961
_symmetry_Int_Tables_number   1
_chemical_formula_structural   Fe2Cu10Sb4S13
_chemical_formula_sum   'Fe2 Cu10 Sb4 S13'
_cell_volume   561.65230144
_cell_formula_units_Z   1
loop_
 _symmetry_equiv_pos_site_id
 _symmetry_equiv_pos_as_xyz
  1  'x, y, z'
loop_
 _atom_site_type_symbol
 _atom_site_label
 _atom_site_symmetry_multiplicity
 _atom_site_fract_x
 _atom_site_fract_y
 _atom_site_fract_z
 _atom_site_occupancy
  Fe  Fe0  1  -0.00000000  0.77629715  0.22370285  1
  Fe  Fe1  1  0.00000000  0.22370285  0.77629715  1
  Cu  Cu2  1  0.25016108  0.75016108  0.50000000  1
  Cu  Cu3  1  0.74983892  0.50000000  0.75016108  1
  Cu  Cu4  1  0.50000000  0.25000000  0.25000000  1
  Cu  Cu5  1  0.25016108  0.50000000  0.24983892  1
  Cu  Cu6  1  0.74983892  0.24983892  0.50000000  1
  Cu  Cu7  1  0.50000000  0.75000000  0.75000000  1
  Cu  Cu8  1  0.77756421  0.77756421  -0.00000000  1
  Cu  Cu9  1  0.77756421  0.00000000  0.22243579  1
  Cu  Cu10  1  0.22243579  0.22243579  0.00000000  1
  Cu  Cu11  1  0.22243579  -0.00000000  0.77756421  1
  Sb  Sb12  1  0.45216861  0.45716262  0.54283738  1
  Sb  Sb13  1  0.54783139  0.00499401  0.99500599  1
  Sb  Sb14  1  0.00000000  0.54283738  0.00499401  1
  Sb  Sb15  1  0.00000000  0.99500599  0.45716262  1
  S  S16  1  0.00000000  0.00000000  0.00000000  1
  S  S17  1  0.77071993  0.51929943  0.48070057  1
  S  S18  1  0.51797048  0.51871377  0.23163012  1
  S  S19  1  0.51797048  0.76836988  0.48128623  1
  S  S20  1  0.22928007  0.74857950  0.25142050  1
  S  S21  1  0.48202952  0.25039940  0.99925671  1
  S  S22  1  0.48202952  0.00074329  0.74960060  1
  S  S23  1  0.00000000  0.48070057  0.74857950  1
  S  S24  1  0.24965611  0.48128623  0.00074329  1
  S  S25  1  0.75034389  0.23163012  0.25039940  1
  S  S26  1  -0.00000000  0.25142050  0.51929943  1
  S  S27  1  0.75034389  0.74960060  0.76836988  1
  S  S28  1  0.24965611  0.99925671  0.51871377  1
