# generated using pymatgen
data_K6Ta11O30
_symmetry_space_group_name_H-M   'P 1'
_cell_length_a   3.96009927
_cell_length_b   12.88161902
_cell_length_c   12.88161902
_cell_angle_alpha   90.39404025
_cell_angle_beta   90.00000000
_cell_angle_gamma   90.00000000
_symmetry_Int_Tables_number   1
_chemical_formula_structural   K6Ta11O30
_chemical_formula_sum   'K6 Ta11 O30'
_cell_volume   657.10792224
_cell_formula_units_Z   1
loop_
 _symmetry_equiv_pos_site_id
 _symmetry_equiv_pos_as_xyz
  1  'x, y, z'
loop_
 _atom_site_type_symbol
 _atom_site_label
 _atom_site_symmetry_multiplicity
 _atom_site_fract_x
 _atom_site_fract_y
 _atom_site_fract_z
 _atom_site_occupancy
  K  K0  1  -0.00000000  0.66222942  0.83777058  1
  K  K1  1  0.00000000  0.32988752  0.17011248  1
  K  K2  1  0.00000000  0.82541345  0.31238827  1
  K  K3  1  -0.00000000  0.18761173  0.67458655  1
  K  K4  1  -0.00000000  0.48996369  0.49795233  1
  K  K5  1  0.00000000  0.00204767  0.01003631  1
  Ta  Ta6  1  0.50000000  0.69443587  0.57207011  1
  Ta  Ta7  1  0.50000000  0.29465399  0.42073441  1
  Ta  Ta8  1  0.50000000  0.78722219  0.08447506  1
  Ta  Ta9  1  0.50000000  0.21900251  0.93034955  1
  Ta  Ta10  1  0.50000000  0.56965045  0.28099749  1
  Ta  Ta11  1  0.50000000  0.41552494  0.71277781  1
  Ta  Ta12  1  0.50000000  0.07926559  0.20534601  1
  Ta  Ta13  1  0.50000000  0.92792989  0.80556413  1
  Ta  Ta14  1  0.50000000  0.01368565  0.48631435  1
  Ta  Ta15  1  0.50000000  0.50596296  0.99403704  1
  Ta  Ta16  1  -0.00000000  0.88341741  0.61658259  1
  O  O17  1  0.50000000  0.79127815  0.70872185  1
  O  O18  1  0.50000000  0.20965800  0.29034200  1
  O  O19  1  0.50000000  0.71279297  0.21491511  1
  O  O20  1  0.50000000  0.28508489  0.78720703  1
  O  O21  1  -0.00000000  0.99413266  0.50586734  1
  O  O22  1  0.00000000  0.50057358  0.99942642  1
  O  O23  1  0.50000000  0.84901344  0.51524792  1
  O  O24  1  0.50000000  0.15556810  0.50534874  1
  O  O25  1  0.50000000  0.65711790  0.99993511  1
  O  O26  1  0.50000000  0.34553967  0.00107068  1
  O  O27  1  0.50000000  0.49892932  0.15446033  1
  O  O28  1  0.50000000  0.50006489  0.84288210  1
  O  O29  1  0.50000000  0.99465126  0.34443190  1
  O  O30  1  0.50000000  0.98475208  0.65098656  1
  O  O31  1  0.50000000  0.56936555  0.64193849  1
  O  O32  1  0.50000000  0.43112197  0.35736718  1
  O  O33  1  0.50000000  0.93150549  0.14313741  1
  O  O34  1  0.50000000  0.06330707  0.85623983  1
  O  O35  1  0.50000000  0.64376017  0.43669293  1
  O  O36  1  0.50000000  0.35686259  0.56849451  1
  O  O37  1  0.50000000  0.14263282  0.06887803  1
  O  O38  1  0.50000000  0.85806151  0.93063445  1
  O  O39  1  -0.00000000  0.73031053  0.58098313  1
  O  O40  1  0.00000000  0.29201859  0.42471786  1
  O  O41  1  -0.00000000  0.79533700  0.07581770  1
  O  O42  1  0.00000000  0.20163406  0.92096048  1
  O  O43  1  -0.00000000  0.57903952  0.29836594  1
  O  O44  1  -0.00000000  0.42418230  0.70466300  1
  O  O45  1  -0.00000000  0.07528214  0.20798141  1
  O  O46  1  0.00000000  0.91901687  0.76968947  1
