# generated using pymatgen
data_K4U5B2O21
_symmetry_space_group_name_H-M   'P 1'
_cell_length_a   7.09137407
_cell_length_b   11.95304306
_cell_length_c   13.46210713
_cell_angle_alpha   90.00000000
_cell_angle_beta   90.10229144
_cell_angle_gamma   90.00000000
_symmetry_Int_Tables_number   1
_chemical_formula_structural   K4U5B2O21
_chemical_formula_sum   'K8 U10 B4 O42'
_cell_volume   1141.09349358
_cell_formula_units_Z   2
loop_
 _symmetry_equiv_pos_site_id
 _symmetry_equiv_pos_as_xyz
  1  'x, y, z'
loop_
 _atom_site_type_symbol
 _atom_site_label
 _atom_site_symmetry_multiplicity
 _atom_site_fract_x
 _atom_site_fract_y
 _atom_site_fract_z
 _atom_site_occupancy
  K  K0  1  0.49747321  0.33994788  0.91769283  1
  K  K1  1  0.50245358  0.84180919  0.58410185  1
  K  K2  1  0.50245358  0.65819081  0.08410185  1
  K  K3  1  0.49747321  0.16005212  0.41769283  1
  K  K4  1  0.49715784  0.50974231  0.36991499  1
  K  K5  1  0.50329007  0.01316249  0.12771253  1
  K  K6  1  0.50329007  0.48683751  0.62771253  1
  K  K7  1  0.49715784  0.99025769  0.86991499  1
  U  U8  1  0.00491661  0.62212591  0.25377358  1
  U  U9  1  0.99521289  0.12217576  0.24625177  1
  U  U10  1  0.99521289  0.37782424  0.74625177  1
  U  U11  1  0.00491661  0.87787409  0.75377358  1
  U  U12  1  0.99518833  0.65265717  0.53697329  1
  U  U13  1  0.00465716  0.15287019  0.96309879  1
  U  U14  1  0.00465716  0.34712981  0.46309879  1
  U  U15  1  0.99518833  0.84734283  0.03697329  1
  U  U16  1  0.00019761  0.50015343  0.99999671  1
  U  U17  1  0.00019761  0.99984657  0.49999671  1
  B  B18  1  0.97322010  0.84656813  0.30987261  1
  B  B19  1  0.02703006  0.34637031  0.19005537  1
  B  B20  1  0.02703006  0.15362969  0.69005537  1
  B  B21  1  0.97322010  0.65343187  0.80987261  1
  O  O22  1  0.25691919  0.65263956  0.54032686  1
  O  O23  1  0.74357942  0.15249317  0.96033461  1
  O  O24  1  0.74357942  0.34750683  0.46033461  1
  O  O25  1  0.25691919  0.84736044  0.04032686  1
  O  O26  1  0.95184634  0.54320326  0.83487361  1
  O  O27  1  0.04773098  0.04329073  0.66486502  1
  O  O28  1  0.04773098  0.45670927  0.16486502  1
  O  O29  1  0.95184634  0.95679674  0.33487361  1
  O  O30  1  0.98249637  0.81627849  0.21184136  1
  O  O31  1  0.01764446  0.31620493  0.28811312  1
  O  O32  1  0.01764446  0.18379507  0.78811312  1
  O  O33  1  0.98249637  0.68372151  0.71184136  1
  O  O34  1  0.00809900  0.53114507  0.40327598  1
  O  O35  1  0.99172781  0.03061898  0.09721551  1
  O  O36  1  0.99172781  0.46938102  0.59721551  1
  O  O37  1  0.00809900  0.96885493  0.90327598  1
  O  O38  1  0.26026293  0.51262027  0.98426329  1
  O  O39  1  0.73992935  0.01191068  0.51554320  1
  O  O40  1  0.73992935  0.48808932  0.01554320  1
  O  O41  1  0.26026293  0.98737973  0.48426329  1
  O  O42  1  0.00443695  0.34248474  0.91766095  1
  O  O43  1  0.99575202  0.84240687  0.58224623  1
  O  O44  1  0.99575202  0.65759313  0.08224623  1
  O  O45  1  0.00443695  0.15751526  0.41766095  1
  O  O46  1  0.73274993  0.65061400  0.53439752  1
  O  O47  1  0.26680140  0.15032128  0.96618660  1
  O  O48  1  0.26680140  0.34967872  0.46618660  1
  O  O49  1  0.73274993  0.84938600  0.03439752  1
  O  O50  1  0.26525011  0.63469026  0.25401692  1
  O  O51  1  0.73436665  0.13411566  0.24595134  1
  O  O52  1  0.73436665  0.36588434  0.74595134  1
  O  O53  1  0.26525011  0.86530974  0.75401692  1
  O  O54  1  0.98514707  0.76285724  0.38063119  1
  O  O55  1  0.01484674  0.26248835  0.11948129  1
  O  O56  1  0.01484674  0.23751165  0.61948129  1
  O  O57  1  0.98514707  0.73714276  0.88063119  1
  O  O58  1  0.74506726  0.61110120  0.25052194  1
  O  O59  1  0.25520822  0.10982572  0.24953457  1
  O  O60  1  0.25520822  0.39017428  0.74953457  1
  O  O61  1  0.74506726  0.88889880  0.75052194  1
  O  O62  1  0.51334034  0.35782630  0.19327457  1
  O  O63  1  0.51334034  0.14217370  0.69327457  1
