# generated using pymatgen
data_La2FeSn4
_symmetry_space_group_name_H-M   'P 1'
_cell_length_a   4.66848963
_cell_length_b   4.69192656
_cell_length_c   8.95053499
_cell_angle_alpha   74.80510859
_cell_angle_beta   90.00000000
_cell_angle_gamma   90.00000000
_symmetry_Int_Tables_number   1
_chemical_formula_structural   La2FeSn4
_chemical_formula_sum   'La2 Fe1 Sn4'
_cell_volume   189.20031452
_cell_formula_units_Z   1
loop_
 _symmetry_equiv_pos_site_id
 _symmetry_equiv_pos_as_xyz
  1  'x, y, z'
loop_
 _atom_site_type_symbol
 _atom_site_label
 _atom_site_symmetry_multiplicity
 _atom_site_fract_x
 _atom_site_fract_y
 _atom_site_fract_z
 _atom_site_occupancy
  La  La0  1  0.25000000  0.60410468  0.79179064  1
  La  La1  1  0.75000000  0.39723110  0.20553781  1
  Fe  Fe2  1  0.25000000  0.80175797  0.39648406  1
  Sn  Sn3  1  0.25000000  0.24386422  0.51227156  1
  Sn  Sn4  1  0.75000000  0.74696093  0.50607815  1
  Sn  Sn5  1  0.25000000  0.94891301  0.10217399  1
  Sn  Sn6  1  0.75000000  0.06046810  0.87906381  1
