# generated using pymatgen
data_HfMg6Bi
_symmetry_space_group_name_H-M   'P 1'
_cell_length_a   6.38913363
_cell_length_b   6.38913310
_cell_length_c   5.20011438
_cell_angle_alpha   90.00000000
_cell_angle_beta   90.00000000
_cell_angle_gamma   118.55743364
_symmetry_Int_Tables_number   1
_chemical_formula_structural   HfMg6Bi
_chemical_formula_sum   'Hf1 Mg6 Bi1'
_cell_volume   186.44839777
_cell_formula_units_Z   1
loop_
 _symmetry_equiv_pos_site_id
 _symmetry_equiv_pos_as_xyz
  1  'x, y, z'
loop_
 _atom_site_type_symbol
 _atom_site_label
 _atom_site_symmetry_multiplicity
 _atom_site_fract_x
 _atom_site_fract_y
 _atom_site_fract_z
 _atom_site_occupancy
  Hf  Hf0  1  0.33393411  0.16606589  0.75000000  1
  Mg  Mg1  1  0.16702649  0.83289363  0.25000000  1
  Mg  Mg2  1  0.66710637  0.33297351  0.25000000  1
  Mg  Mg3  1  0.66549439  0.83450561  0.25000000  1
  Mg  Mg4  1  0.33878356  0.67872731  0.75000000  1
  Mg  Mg5  1  0.82127269  0.16121644  0.75000000  1
  Mg  Mg6  1  0.83576694  0.66423306  0.75000000  1
  Bi  Bi7  1  0.17061544  0.32938456  0.25000000  1
