# generated using pymatgen
data_Fe(CoSe2)2
_symmetry_space_group_name_H-M   'P 1'
_cell_length_a   3.53445083
_cell_length_b   6.12905270
_cell_length_c   6.21748193
_cell_angle_alpha   117.30950403
_cell_angle_beta   73.48687915
_cell_angle_gamma   90.00000000
_symmetry_Int_Tables_number   1
_chemical_formula_structural   Fe(CoSe2)2
_chemical_formula_sum   'Fe1 Co2 Se4'
_cell_volume   113.38769131
_cell_formula_units_Z   1
loop_
 _symmetry_equiv_pos_site_id
 _symmetry_equiv_pos_as_xyz
  1  'x, y, z'
loop_
 _atom_site_type_symbol
 _atom_site_label
 _atom_site_symmetry_multiplicity
 _atom_site_fract_x
 _atom_site_fract_y
 _atom_site_fract_z
 _atom_site_occupancy
  Fe  Fe0  1  0.73986259  0.28773848  0.52027482  1
  Co  Co1  1  0.99759426  0.00241273  0.00481148  1
  Co  Co2  1  0.26333536  0.70966385  0.47332928  1
  Se  Se3  1  0.11747987  0.55166381  0.76504027  1
  Se  Se4  1  0.88223591  0.45129295  0.23552818  1
  Se  Se5  1  0.36483721  0.97478399  0.27032558  1
  Se  Se6  1  0.63465481  0.02244420  0.73069038  1
