# generated using pymatgen
data_Mg6CdSi
_symmetry_space_group_name_H-M   'P 1'
_cell_length_a   6.21703034
_cell_length_b   6.46903985
_cell_length_c   4.91051463
_cell_angle_alpha   90.00000000
_cell_angle_beta   90.00000000
_cell_angle_gamma   121.35021366
_symmetry_Int_Tables_number   1
_chemical_formula_structural   Mg6CdSi
_chemical_formula_sum   'Mg6 Cd1 Si1'
_cell_volume   168.65892197
_cell_formula_units_Z   1
loop_
 _symmetry_equiv_pos_site_id
 _symmetry_equiv_pos_as_xyz
  1  'x, y, z'
loop_
 _atom_site_type_symbol
 _atom_site_label
 _atom_site_symmetry_multiplicity
 _atom_site_fract_x
 _atom_site_fract_y
 _atom_site_fract_z
 _atom_site_occupancy
  Mg  Mg0  1  0.66857612  0.33416555  0.25000000  1
  Mg  Mg1  1  0.66857612  0.83440958  0.25000000  1
  Mg  Mg2  1  0.32860520  0.16788125  0.75000000  1
  Mg  Mg3  1  0.32860520  0.66072495  0.75000000  1
  Mg  Mg4  1  0.83828840  0.16914470  0.75000000  1
  Mg  Mg5  1  0.83363344  0.66681722  0.75000000  1
  Cd  Cd6  1  0.16780905  0.83390403  0.25000000  1
  Si  Si7  1  0.16590646  0.33295273  0.25000000  1
