# generated using pymatgen
data_ErSiPd
_symmetry_space_group_name_H-M   'P 1'
_cell_length_a   4.24412464
_cell_length_b   5.57512130
_cell_length_c   5.58053296
_cell_angle_alpha   93.51757798
_cell_angle_beta   112.34988689
_cell_angle_gamma   67.62724490
_symmetry_Int_Tables_number   1
_chemical_formula_structural   ErSiPd
_chemical_formula_sum   'Er2 Si2 Pd2'
_cell_volume   112.39388406
_cell_formula_units_Z   2
loop_
 _symmetry_equiv_pos_site_id
 _symmetry_equiv_pos_as_xyz
  1  'x, y, z'
loop_
 _atom_site_type_symbol
 _atom_site_label
 _atom_site_symmetry_multiplicity
 _atom_site_fract_x
 _atom_site_fract_y
 _atom_site_fract_z
 _atom_site_occupancy
  Er  Er0  1  0.76009390  0.69158088  0.21176867  1
  Er  Er1  1  0.23990610  0.30841912  0.78823133  1
  Si  Si2  1  0.05103945  0.10153931  0.20361820  1
  Si  Si3  1  0.94896055  0.89846069  0.79638180  1
  Pd  Pd4  1  0.55982455  0.25682591  0.37647500  1
  Pd  Pd5  1  0.44017545  0.74317409  0.62352500  1
