# generated using pymatgen
data_GdTm(FeNi4)2
_symmetry_space_group_name_H-M   'P 1'
_cell_length_a   3.93194135
_cell_length_b   4.91892966
_cell_length_c   8.51682886
_cell_angle_alpha   90.01814181
_cell_angle_beta   90.00000000
_cell_angle_gamma   90.00000000
_symmetry_Int_Tables_number   1
_chemical_formula_structural   GdTm(FeNi4)2
_chemical_formula_sum   'Gd1 Tm1 Fe2 Ni8'
_cell_volume   164.72349271
_cell_formula_units_Z   1
loop_
 _symmetry_equiv_pos_site_id
 _symmetry_equiv_pos_as_xyz
  1  'x, y, z'
loop_
 _atom_site_type_symbol
 _atom_site_label
 _atom_site_symmetry_multiplicity
 _atom_site_fract_x
 _atom_site_fract_y
 _atom_site_fract_z
 _atom_site_occupancy
  Gd  Gd0  1  0.00000000  0.99991965  0.99992841  1
  Tm  Tm1  1  0.00000000  0.50005984  0.50017151  1
  Fe  Fe2  1  0.00000000  0.99995677  0.33518225  1
  Fe  Fe3  1  0.00000000  0.49981497  0.83161513  1
  Ni  Ni4  1  0.00000000  0.49990506  0.16836232  1
  Ni  Ni5  1  0.00000000  0.00007997  0.66464015  1
  Ni  Ni6  1  0.50000000  0.99998813  0.50027582  1
  Ni  Ni7  1  0.50000000  0.50002018  0.00025133  1
  Ni  Ni8  1  0.50000000  0.25296587  0.25247856  1
  Ni  Ni9  1  0.50000000  0.74869329  0.74734916  1
  Ni  Ni10  1  0.50000000  0.74712960  0.25238846  1
  Ni  Ni11  1  0.50000000  0.25126667  0.74735691  1
