# generated using pymatgen
data_FeRh
_symmetry_space_group_name_H-M   'P 1'
_cell_length_a   2.70244180
_cell_length_b   2.70244180
_cell_length_c   4.53939935
_cell_angle_alpha   72.68256979
_cell_angle_beta   90.00000000
_cell_angle_gamma   120.00000000
_symmetry_Int_Tables_number   1
_chemical_formula_structural   FeRh
_chemical_formula_sum   'Fe1 Rh1'
_cell_volume   26.96135169
_cell_formula_units_Z   1
loop_
 _symmetry_equiv_pos_site_id
 _symmetry_equiv_pos_as_xyz
  1  'x, y, z'
loop_
 _atom_site_type_symbol
 _atom_site_label
 _atom_site_symmetry_multiplicity
 _atom_site_fract_x
 _atom_site_fract_y
 _atom_site_fract_z
 _atom_site_occupancy
  Fe  Fe0  1  0.00000000  0.00000000  0.00000000  1
  Rh  Rh1  1  0.50000000  -0.00000000  0.50000000  1
