# generated using pymatgen
data_FeCu4
_symmetry_space_group_name_H-M   'P 1'
_cell_length_a   2.55046236
_cell_length_b   2.55046236
_cell_length_c   10.59300160
_cell_angle_alpha   96.91428271
_cell_angle_beta   83.08571729
_cell_angle_gamma   120.00000000
_symmetry_Int_Tables_number   1
_chemical_formula_structural   FeCu4
_chemical_formula_sum   'Fe1 Cu4'
_cell_volume   59.09496266
_cell_formula_units_Z   1
loop_
 _symmetry_equiv_pos_site_id
 _symmetry_equiv_pos_as_xyz
  1  'x, y, z'
loop_
 _atom_site_type_symbol
 _atom_site_label
 _atom_site_symmetry_multiplicity
 _atom_site_fract_x
 _atom_site_fract_y
 _atom_site_fract_z
 _atom_site_occupancy
  Fe  Fe0  1  -0.00000000  -0.00000000  0.00000000  1
  Cu  Cu1  1  0.59981497  0.40018503  0.20055509  1
  Cu  Cu2  1  0.19995388  0.80004612  0.40013837  1
  Cu  Cu3  1  0.80004612  0.19995388  0.59986163  1
  Cu  Cu4  1  0.40018503  0.59981497  0.79944491  1
