# generated using pymatgen
data_Fe6BMo6C
_symmetry_space_group_name_H-M   'P 1'
_cell_length_a   7.85224862
_cell_length_b   7.85224862
_cell_length_c   7.85224862
_cell_angle_alpha   89.96237690
_cell_angle_beta   60.16782859
_cell_angle_gamma   120.12460517
_symmetry_Int_Tables_number   1
_chemical_formula_structural   Fe6BMo6C
_chemical_formula_sum   'Fe12 B2 Mo12 C2'
_cell_volume   342.45643977
_cell_formula_units_Z   2
loop_
 _symmetry_equiv_pos_site_id
 _symmetry_equiv_pos_as_xyz
  1  'x, y, z'
loop_
 _atom_site_type_symbol
 _atom_site_label
 _atom_site_symmetry_multiplicity
 _atom_site_fract_x
 _atom_site_fract_y
 _atom_site_fract_z
 _atom_site_occupancy
  Fe  Fe0  1  0.75000000  0.37500000  0.87500000  1
  Fe  Fe1  1  0.25000000  0.37500000  0.37500000  1
  Fe  Fe2  1  0.25000000  0.87500000  0.37500000  1
  Fe  Fe3  1  0.75000000  0.37500000  0.37500000  1
  Fe  Fe4  1  0.15406196  0.57700249  0.26893555  1
  Fe  Fe5  1  0.84593804  0.57700249  0.57705947  1
  Fe  Fe6  1  0.84586893  0.26872825  0.57714068  1
  Fe  Fe7  1  0.15413107  0.57699039  0.57714068  1
  Fe  Fe8  1  0.34593804  0.17299751  0.48106445  1
  Fe  Fe9  1  0.65406196  0.17299751  0.17294053  1
  Fe  Fe10  1  0.65413107  0.48127175  0.17285932  1
  Fe  Fe11  1  0.34586893  0.17300961  0.17285932  1
  B  B12  1  0.25000000  0.37500000  0.87500000  1
  B  B13  1  0.75000000  0.87500000  0.87500000  1
  Mo  Mo14  1  0.90843892  0.95240668  0.54230219  1
  Mo  Mo15  1  0.50529113  0.54925889  0.54230219  1
  Mo  Mo16  1  0.50000000  0.95228304  0.54771696  1
  Mo  Mo17  1  0.09156108  0.54925889  0.95603224  1
  Mo  Mo18  1  0.49470887  0.95240668  0.95603224  1
  Mo  Mo19  1  0.50000000  0.54406323  0.95593677  1
  Mo  Mo20  1  0.59156108  0.79759332  0.20769781  1
  Mo  Mo21  1  0.99470887  0.20074111  0.20769781  1
  Mo  Mo22  1  -0.00000000  0.79771696  0.20228304  1
  Mo  Mo23  1  0.40843892  0.20074111  0.79396776  1
  Mo  Mo24  1  0.00529113  0.79759332  0.79396776  1
  Mo  Mo25  1  -0.00000000  0.20593677  0.79406323  1
  C  C26  1  0.75000000  0.87500000  0.37500000  1
  C  C27  1  0.25000000  0.87500000  0.87500000  1
