# generated using pymatgen
data_EuCuSn
_symmetry_space_group_name_H-M   'P 1'
_cell_length_a   4.55219602
_cell_length_b   6.09092127
_cell_length_c   5.96853182
_cell_angle_alpha   94.07960359
_cell_angle_beta   112.41731720
_cell_angle_gamma   68.05681212
_symmetry_Int_Tables_number   1
_chemical_formula_structural   EuCuSn
_chemical_formula_sum   'Eu2 Cu2 Sn2'
_cell_volume   141.40870400
_cell_formula_units_Z   2
loop_
 _symmetry_equiv_pos_site_id
 _symmetry_equiv_pos_as_xyz
  1  'x, y, z'
loop_
 _atom_site_type_symbol
 _atom_site_label
 _atom_site_symmetry_multiplicity
 _atom_site_fract_x
 _atom_site_fract_y
 _atom_site_fract_z
 _atom_site_occupancy
  Eu  Eu0  1  0.76013800  0.69363110  0.21390710  1
  Eu  Eu1  1  0.23986200  0.30636890  0.78609290  1
  Cu  Cu2  1  0.54971617  0.29594854  0.39538088  1
  Cu  Cu3  1  0.45028383  0.70405146  0.60461912  1
  Sn  Sn4  1  0.06566513  0.10666424  0.23799450  1
  Sn  Sn5  1  0.93433487  0.89333576  0.76200550  1
