# generated using pymatgen
data_Cr12As4C3N
_symmetry_space_group_name_H-M   'P 1'
_cell_length_a   3.02029065
_cell_length_b   5.30342064
_cell_length_c   14.85915808
_cell_angle_alpha   90.24593334
_cell_angle_beta   90.00000000
_cell_angle_gamma   73.45613068
_symmetry_Int_Tables_number   1
_chemical_formula_structural   Cr12As4C3N
_chemical_formula_sum   'Cr12 As4 C3 N1'
_cell_volume   228.15657555
_cell_formula_units_Z   1
loop_
 _symmetry_equiv_pos_site_id
 _symmetry_equiv_pos_as_xyz
  1  'x, y, z'
loop_
 _atom_site_type_symbol
 _atom_site_label
 _atom_site_symmetry_multiplicity
 _atom_site_fract_x
 _atom_site_fract_y
 _atom_site_fract_z
 _atom_site_occupancy
  Cr  Cr0  1  0.87716703  0.24566594  0.22526945  1
  Cr  Cr1  1  0.87701848  0.24596304  0.72455921  1
  Cr  Cr2  1  0.12298152  0.75403696  0.27544079  1
  Cr  Cr3  1  0.12283297  0.75433406  0.77473055  1
  Cr  Cr4  1  0.87720427  0.24559146  0.02545789  1
  Cr  Cr5  1  0.87889523  0.24220954  0.52411889  1
  Cr  Cr6  1  0.12110477  0.75779046  0.47588111  1
  Cr  Cr7  1  0.12279573  0.75440854  0.97454211  1
  Cr  Cr8  1  0.54010160  0.91979679  0.12525685  1
  Cr  Cr9  1  0.53981856  0.92036287  0.62348659  1
  Cr  Cr10  1  0.46018144  0.07963713  0.37651341  1
  Cr  Cr11  1  0.45989840  0.08020321  0.87474315  1
  As  As12  1  0.23967647  0.52064705  0.12510187  1
  As  As13  1  0.24054211  0.51891578  0.62477208  1
  As  As14  1  0.75945789  0.48108422  0.37522792  1
  As  As15  1  0.76032353  0.47935295  0.87489813  1
  C  C16  1  0.49990503  0.00018995  0.25050762  1
  C  C17  1  0.50009497  0.99981005  0.74949238  1
  C  C18  1  0.50000000  0.00000000  -0.00000000  1
  N  N19  1  0.50000000  0.00000000  0.50000000  1
