# generated using pymatgen
data_Er4US7
_symmetry_space_group_name_H-M   'P 1'
_cell_length_a   3.76034562
_cell_length_b   6.64088063
_cell_length_c   11.54989460
_cell_angle_alpha   104.37716505
_cell_angle_beta   90.00000000
_cell_angle_gamma   73.55343070
_symmetry_Int_Tables_number   1
_chemical_formula_structural   Er4US7
_chemical_formula_sum   'Er4 U1 S7'
_cell_volume   267.19147047
_cell_formula_units_Z   1
loop_
 _symmetry_equiv_pos_site_id
 _symmetry_equiv_pos_as_xyz
  1  'x, y, z'
loop_
 _atom_site_type_symbol
 _atom_site_label
 _atom_site_symmetry_multiplicity
 _atom_site_fract_x
 _atom_site_fract_y
 _atom_site_fract_z
 _atom_site_occupancy
  Er  Er0  1  0.70011002  0.59977997  0.18799186  1
  Er  Er1  1  0.30106424  0.39787152  0.81128208  1
  Er  Er2  1  0.11675607  0.76648786  0.57723603  1
  Er  Er3  1  0.99971007  0.00057986  0.99814905  1
  U  U4  1  0.88498627  0.23002746  0.42376774  1
  S  S5  1  0.04164794  0.91670413  0.21323329  1
  S  S6  1  0.95879501  0.08240998  0.78450758  1
  S  S7  1  0.34136830  0.31726340  0.05086140  1
  S  S8  1  0.65909942  0.68180117  0.94950847  1
  S  S9  1  0.73902189  0.52195621  0.65228560  1
  S  S10  1  0.25559683  0.48880634  0.34877095  1
  S  S11  1  0.50184395  0.99631210  0.50240597  1
