# generated using pymatgen
data_DyIn7Cu5
_symmetry_space_group_name_H-M   'P 1'
_cell_length_a   5.49069717
_cell_length_b   7.25303358
_cell_length_c   7.25303358
_cell_angle_alpha   98.59215898
_cell_angle_beta   112.24144335
_cell_angle_gamma   67.75855665
_symmetry_Int_Tables_number   1
_chemical_formula_structural   DyIn7Cu5
_chemical_formula_sum   'Dy1 In7 Cu5'
_cell_volume   247.45695651
_cell_formula_units_Z   1
loop_
 _symmetry_equiv_pos_site_id
 _symmetry_equiv_pos_as_xyz
  1  'x, y, z'
loop_
 _atom_site_type_symbol
 _atom_site_label
 _atom_site_symmetry_multiplicity
 _atom_site_fract_x
 _atom_site_fract_y
 _atom_site_fract_z
 _atom_site_occupancy
  Dy  Dy0  1  0.00026873  0.99973127  0.00026873  1
  In  In1  1  0.65756153  0.34243847  0.65756153  1
  In  In2  1  0.33425045  0.66574955  0.33425045  1
  In  In3  1  0.98685860  0.35441524  0.32813244  1
  In  In4  1  0.98685860  0.67186756  0.64558476  1
  In  In5  1  0.27829865  0.22170135  0.77829865  1
  In  In6  1  0.51272306  0.79103098  0.81647709  1
  In  In7  1  0.51272306  0.18352291  0.20896902  1
  Cu  Cu8  1  0.49941979  0.99369306  0.49579261  1
  Cu  Cu9  1  0.00267977  0.99369306  0.49579261  1
  Cu  Cu10  1  0.49941979  0.50420739  0.00630694  1
  Cu  Cu11  1  0.00267977  0.50420739  0.00630694  1
  Cu  Cu12  1  0.72625822  0.77374178  0.22625822  1
