# generated using pymatgen
data_Cu2H3NO5
_symmetry_space_group_name_H-M   'P 1'
_cell_length_a   5.76058302
_cell_length_b   6.10058069
_cell_length_c   6.72902590
_cell_angle_alpha   89.84266517
_cell_angle_beta   80.69664616
_cell_angle_gamma   89.97534228
_symmetry_Int_Tables_number   1
_chemical_formula_structural   Cu2H3NO5
_chemical_formula_sum   'Cu4 H6 N2 O10'
_cell_volume   233.36605026
_cell_formula_units_Z   2
loop_
 _symmetry_equiv_pos_site_id
 _symmetry_equiv_pos_as_xyz
  1  'x, y, z'
loop_
 _atom_site_type_symbol
 _atom_site_label
 _atom_site_symmetry_multiplicity
 _atom_site_fract_x
 _atom_site_fract_y
 _atom_site_fract_z
 _atom_site_occupancy
  Cu  Cu0  1  0.50213408  0.25998433  0.00174486  1
  Cu  Cu1  1  0.49792508  0.75998212  0.99828255  1
  Cu  Cu2  1  0.00022393  0.00945983  0.00547506  1
  Cu  Cu3  1  0.00009348  0.50936764  0.99414603  1
  H  H4  1  0.40101996  0.51629877  0.73271302  1
  H  H5  1  0.63963126  0.53081751  0.26780643  1
  H  H6  1  0.00556228  0.24802941  0.70915628  1
  H  H7  1  0.99432000  0.74663365  0.29028474  1
  H  H8  1  0.36082669  0.03226338  0.73194620  1
  H  H9  1  0.59976482  0.01484129  0.26712820  1
  N  N10  1  0.19694808  0.19715341  0.46678569  1
  N  N11  1  0.80279305  0.69672210  0.53261177  1
  O  O12  1  0.34113066  0.50566518  0.88014033  1
  O  O13  1  0.66274446  0.51404425  0.11645205  1
  O  O14  1  0.91903834  0.25611578  0.85027696  1
  O  O15  1  0.08108295  0.75519160  0.14923588  1
  O  O16  1  0.17448120  0.25192560  0.29120804  1
  O  O17  1  0.82465997  0.75262916  0.70768686  1
  O  O18  1  0.33764765  0.01485064  0.88340554  1
  O  O19  1  0.65918490  0.00493183  0.11961573  1
  O  O20  1  0.38283279  0.08987493  0.48731495  1
  O  O21  1  0.61695435  0.58921761  0.51258283  1
