# generated using pymatgen
data_ErMn3(FeSn2)3
_symmetry_space_group_name_H-M   'P 1'
_cell_length_a   5.45457312
_cell_length_b   5.45704319
_cell_length_c   9.02481909
_cell_angle_alpha   89.99932189
_cell_angle_beta   90.00114185
_cell_angle_gamma   119.99614810
_symmetry_Int_Tables_number   1
_chemical_formula_structural   ErMn3(FeSn2)3
_chemical_formula_sum   'Er1 Mn3 Fe3 Sn6'
_cell_volume   232.65058613
_cell_formula_units_Z   1
loop_
 _symmetry_equiv_pos_site_id
 _symmetry_equiv_pos_as_xyz
  1  'x, y, z'
loop_
 _atom_site_type_symbol
 _atom_site_label
 _atom_site_symmetry_multiplicity
 _atom_site_fract_x
 _atom_site_fract_y
 _atom_site_fract_z
 _atom_site_occupancy
  Er  Er0  1  0.99998035  0.99999692  0.00011351  1
  Mn  Mn1  1  0.49999337  -0.00000145  0.24674136  1
  Mn  Mn2  1  0.49999255  0.50000561  0.24673944  1
  Mn  Mn3  1  0.99998689  0.49999552  0.24674381  1
  Fe  Fe4  1  0.49999549  0.00000090  0.75241471  1
  Fe  Fe5  1  0.49999290  0.50000454  0.75243708  1
  Fe  Fe6  1  0.99998606  0.49999493  0.75244092  1
  Sn  Sn7  1  0.99999269  0.00000204  0.33495053  1
  Sn  Sn8  1  0.99999238  -0.00000134  0.66413664  1
  Sn  Sn9  1  0.33320378  0.66659732  0.99956428  1
  Sn  Sn10  1  0.66673714  0.33340849  0.99956419  1
  Sn  Sn11  1  0.33319879  0.66657638  0.50207495  1
  Sn  Sn12  1  0.66674760  0.33342015  0.50207857  1
