# generated using pymatgen
data_LiMg6Sb
_symmetry_space_group_name_H-M   'P 1'
_cell_length_a   6.37612691
_cell_length_b   6.23037096
_cell_length_c   5.21170539
_cell_angle_alpha   90.00000000
_cell_angle_beta   90.00000000
_cell_angle_gamma   119.24665232
_symmetry_Int_Tables_number   1
_chemical_formula_structural   LiMg6Sb
_chemical_formula_sum   'Li1 Mg6 Sb1'
_cell_volume   180.64601015
_cell_formula_units_Z   1
loop_
 _symmetry_equiv_pos_site_id
 _symmetry_equiv_pos_as_xyz
  1  'x, y, z'
loop_
 _atom_site_type_symbol
 _atom_site_label
 _atom_site_symmetry_multiplicity
 _atom_site_fract_x
 _atom_site_fract_y
 _atom_site_fract_z
 _atom_site_occupancy
  Li  Li0  1  0.16627052  0.33313476  0.25000000  1
  Mg  Mg1  1  0.66718022  0.33268031  0.25000000  1
  Mg  Mg2  1  0.66718022  0.83449891  0.25000000  1
  Mg  Mg3  1  0.33432235  0.17181011  0.75000000  1
  Mg  Mg4  1  0.33432235  0.66251323  0.75000000  1
  Mg  Mg5  1  0.83464993  0.16732546  0.75000000  1
  Mg  Mg6  1  0.82883738  0.66441919  0.75000000  1
  Sb  Sb7  1  0.16723704  0.83361802  0.25000000  1
