# generated using pymatgen
data_CrFeCoO4
_symmetry_space_group_name_H-M   'P 1'
_cell_length_a   6.02660753
_cell_length_b   6.02660753
_cell_length_c   6.02660753
_cell_angle_alpha   89.35882695
_cell_angle_beta   60.08076784
_cell_angle_gamma   119.34261615
_symmetry_Int_Tables_number   1
_chemical_formula_structural   CrFeCoO4
_chemical_formula_sum   'Cr2 Fe2 Co2 O8'
_cell_volume   155.62406096
_cell_formula_units_Z   2
loop_
 _symmetry_equiv_pos_site_id
 _symmetry_equiv_pos_as_xyz
  1  'x, y, z'
loop_
 _atom_site_type_symbol
 _atom_site_label
 _atom_site_symmetry_multiplicity
 _atom_site_fract_x
 _atom_site_fract_y
 _atom_site_fract_z
 _atom_site_occupancy
  Cr  Cr0  1  0.25000000  0.87500000  0.37500000  1
  Cr  Cr1  1  0.75000000  0.37500000  0.37500000  1
  Fe  Fe2  1  0.50000000  0.75210182  0.74789818  1
  Fe  Fe3  1  0.00000000  0.99789818  0.00210182  1
  Co  Co4  1  0.75000000  0.37500000  0.87500000  1
  Co  Co5  1  0.25000000  0.37500000  0.37500000  1
  O  O6  1  0.26936288  0.12924801  0.60138911  1
  O  O7  1  0.73063712  0.12924801  0.14011488  1
  O  O8  1  0.74440065  0.61088425  0.13351640  1
  O  O9  1  0.25559935  0.12208295  0.13351640  1
  O  O10  1  0.23063712  0.62075199  0.14861089  1
  O  O11  1  0.76936288  0.62075199  0.60988512  1
  O  O12  1  0.75559935  0.13911575  0.61648360  1
  O  O13  1  0.24440065  0.62791705  0.61648360  1
