# generated using pymatgen
data_Cr2CuSe3Br
_symmetry_space_group_name_H-M   'P 1'
_cell_length_a   7.45037144
_cell_length_b   7.45037144
_cell_length_c   7.45435181
_cell_angle_alpha   90.00000000
_cell_angle_beta   60.01766187
_cell_angle_gamma   120.00000000
_symmetry_Int_Tables_number   1
_chemical_formula_structural   Cr2CuSe3Br
_chemical_formula_sum   'Cr4 Cu2 Se6 Br2'
_cell_volume   292.66219519
_cell_formula_units_Z   2
loop_
 _symmetry_equiv_pos_site_id
 _symmetry_equiv_pos_as_xyz
  1  'x, y, z'
loop_
 _atom_site_type_symbol
 _atom_site_label
 _atom_site_symmetry_multiplicity
 _atom_site_fract_x
 _atom_site_fract_y
 _atom_site_fract_z
 _atom_site_occupancy
  Cr  Cr0  1  0.75000000  0.37500000  0.87500000  1
  Cr  Cr1  1  0.25000000  0.37500000  0.37500000  1
  Cr  Cr2  1  0.25000000  0.87500000  0.37500000  1
  Cr  Cr3  1  0.75000000  0.37500000  0.37500000  1
  Cu  Cu4  1  0.52670390  0.76335195  0.70994415  1
  Cu  Cu5  1  0.97329610  0.98664805  0.04005585  1
  Se  Se6  1  0.73047439  0.13458533  0.13494029  1
  Se  Se7  1  0.73047439  0.59588906  0.13494029  1
  Se  Se8  1  0.26917065  0.13458533  0.13494029  1
  Se  Se9  1  0.76952561  0.61541467  0.61505971  1
  Se  Se10  1  0.76952561  0.15411094  0.61505971  1
  Se  Se11  1  0.23082935  0.61541467  0.61505971  1
  Br  Br12  1  0.26062463  0.13031232  0.60906305  1
  Br  Br13  1  0.23937537  0.61968768  0.14093695  1
