# generated using pymatgen
data_Ce(Co5Mo)2
_symmetry_space_group_name_H-M   'P 1'
_cell_length_a   4.66477238
_cell_length_b   6.42954662
_cell_length_c   6.42954662
_cell_angle_alpha   97.44023298
_cell_angle_beta   111.26983104
_cell_angle_gamma   68.73016896
_symmetry_Int_Tables_number   1
_chemical_formula_structural   Ce(Co5Mo)2
_chemical_formula_sum   'Ce1 Co10 Mo2'
_cell_volume   167.46037934
_cell_formula_units_Z   1
loop_
 _symmetry_equiv_pos_site_id
 _symmetry_equiv_pos_as_xyz
  1  'x, y, z'
loop_
 _atom_site_type_symbol
 _atom_site_label
 _atom_site_symmetry_multiplicity
 _atom_site_fract_x
 _atom_site_fract_y
 _atom_site_fract_z
 _atom_site_occupancy
  Ce  Ce0  1  0.00000000  -0.00000000  0.00000000  1
  Co  Co1  1  0.70994368  0.79005632  0.20994368  1
  Co  Co2  1  0.29005632  0.20994368  0.79005632  1
  Co  Co3  1  0.50000000  0.78000246  0.78000246  1
  Co  Co4  1  0.50000000  0.21999754  0.21999754  1
  Co  Co5  1  0.50000000  -0.00000000  0.50000000  1
  Co  Co6  1  0.00000000  -0.00000000  0.50000000  1
  Co  Co7  1  0.50000000  0.50000000  0.00000000  1
  Co  Co8  1  0.00000000  0.50000000  0.00000000  1
  Co  Co9  1  0.63991554  0.36008446  0.63991554  1
  Co  Co10  1  0.36008446  0.63991554  0.36008446  1
  Mo  Mo11  1  0.00000000  0.35900366  0.35900366  1
  Mo  Mo12  1  -0.00000000  0.64099634  0.64099634  1
