# generated using pymatgen
data_CeTm4S7
_symmetry_space_group_name_H-M   'P 1'
_cell_length_a   3.79132652
_cell_length_b   6.72294402
_cell_length_c   11.63200327
_cell_angle_alpha   104.08340209
_cell_angle_beta   90.00000000
_cell_angle_gamma   73.62222671
_symmetry_Int_Tables_number   1
_chemical_formula_structural   CeTm4S7
_chemical_formula_sum   'Ce1 Tm4 S7'
_cell_volume   275.15527988
_cell_formula_units_Z   1
loop_
 _symmetry_equiv_pos_site_id
 _symmetry_equiv_pos_as_xyz
  1  'x, y, z'
loop_
 _atom_site_type_symbol
 _atom_site_label
 _atom_site_symmetry_multiplicity
 _atom_site_fract_x
 _atom_site_fract_y
 _atom_site_fract_z
 _atom_site_occupancy
  Ce  Ce0  1  0.88710520  0.22578959  0.42113757  1
  Tm  Tm1  1  0.69903124  0.60193753  0.18635351  1
  Tm  Tm2  1  0.30164074  0.39671853  0.81282663  1
  Tm  Tm3  1  0.11418158  0.77163684  0.58129002  1
  Tm  Tm4  1  0.00026135  0.99947729  0.99773984  1
  S  S5  1  0.73693873  0.52612255  0.65486856  1
  S  S6  1  0.25064601  0.49870797  0.34859541  1
  S  S7  1  0.04500459  0.90999082  0.20800876  1
  S  S8  1  0.95811925  0.08376150  0.78544276  1
  S  S9  1  0.50552241  0.98895517  0.50476785  1
  S  S10  1  0.34207364  0.31585271  0.04987550  1
  S  S11  1  0.65947525  0.68104950  0.94909361  1
