# generated using pymatgen
data_Cr2C
_symmetry_space_group_name_H-M   'P 1'
_cell_length_a   2.83303780
_cell_length_b   2.83303780
_cell_length_c   4.25879740
_cell_angle_alpha   89.99191215
_cell_angle_beta   90.00808785
_cell_angle_gamma   119.99760673
_symmetry_Int_Tables_number   1
_chemical_formula_structural   Cr2C
_chemical_formula_sum   'Cr2 C1'
_cell_volume   29.60280172
_cell_formula_units_Z   1
loop_
 _symmetry_equiv_pos_site_id
 _symmetry_equiv_pos_as_xyz
  1  'x, y, z'
loop_
 _atom_site_type_symbol
 _atom_site_label
 _atom_site_symmetry_multiplicity
 _atom_site_fract_x
 _atom_site_fract_y
 _atom_site_fract_z
 _atom_site_occupancy
  Cr  Cr0  1  0.33335554  0.66664446  0.75246756  1
  Cr  Cr1  1  0.66664446  0.33335554  0.24753244  1
  C  C2  1  0.00000000  -0.00000000  0.50000000  1
