# generated using pymatgen
data_Co2Re5B4
_symmetry_space_group_name_H-M   'P 1'
_cell_length_a   5.38106634
_cell_length_b   5.38106634
_cell_length_c   8.09737970
_cell_angle_alpha   90.00000000
_cell_angle_beta   90.00000000
_cell_angle_gamma   90.02593771
_symmetry_Int_Tables_number   1
_chemical_formula_structural   Co2Re5B4
_chemical_formula_sum   'Co4 Re10 B8'
_cell_volume   234.46668985
_cell_formula_units_Z   2
loop_
 _symmetry_equiv_pos_site_id
 _symmetry_equiv_pos_as_xyz
  1  'x, y, z'
loop_
 _atom_site_type_symbol
 _atom_site_label
 _atom_site_symmetry_multiplicity
 _atom_site_fract_x
 _atom_site_fract_y
 _atom_site_fract_z
 _atom_site_occupancy
  Co  Co0  1  0.50000000  0.50000000  0.50000000  1
  Co  Co1  1  -0.00000000  -0.00000000  0.50000000  1
  Co  Co2  1  0.33823965  0.83823965  -0.00000000  1
  Co  Co3  1  0.66176035  0.16176035  -0.00000000  1
  Re  Re4  1  0.17721816  0.67721816  0.71719966  1
  Re  Re5  1  0.82278184  0.32278184  0.71719966  1
  Re  Re6  1  0.32655669  0.17344331  0.71603136  1
  Re  Re7  1  0.67344331  0.82655669  0.71603136  1
  Re  Re8  1  0.82278184  0.32278184  0.28280034  1
  Re  Re9  1  0.17721816  0.67721816  0.28280034  1
  Re  Re10  1  0.67344331  0.82655669  0.28396864  1
  Re  Re11  1  0.32655669  0.17344331  0.28396864  1
  Re  Re12  1  0.16450285  0.33549715  -0.00000000  1
  Re  Re13  1  0.83549715  0.66450285  -0.00000000  1
  B  B14  1  0.37690732  0.87690732  0.50000000  1
  B  B15  1  0.62309268  0.12309268  0.50000000  1
  B  B16  1  0.12054506  0.37945494  0.50000000  1
  B  B17  1  0.87945494  0.62054506  0.50000000  1
  B  B18  1  0.50000000  0.50000000  0.86391689  1
  B  B19  1  -0.00000000  -0.00000000  0.86391689  1
  B  B20  1  0.50000000  0.50000000  0.13608311  1
  B  B21  1  -0.00000000  -0.00000000  0.13608311  1
