# generated using pymatgen
data_CeZr3Mn8
_symmetry_space_group_name_H-M   'P 1'
_cell_length_a   5.08641327
_cell_length_b   5.08722395
_cell_length_c   8.08121496
_cell_angle_alpha   90.00000000
_cell_angle_beta   90.00418748
_cell_angle_gamma   59.99472765
_symmetry_Int_Tables_number   1
_chemical_formula_structural   CeZr3Mn8
_chemical_formula_sum   'Ce1 Zr3 Mn8'
_cell_volume   181.08259688
_cell_formula_units_Z   1
loop_
 _symmetry_equiv_pos_site_id
 _symmetry_equiv_pos_as_xyz
  1  'x, y, z'
loop_
 _atom_site_type_symbol
 _atom_site_label
 _atom_site_symmetry_multiplicity
 _atom_site_fract_x
 _atom_site_fract_y
 _atom_site_fract_z
 _atom_site_occupancy
  Ce  Ce0  1  0.33339533  0.33330233  0.55661892  1
  Zr  Zr1  1  0.66665614  0.66667193  0.43743988  1
  Zr  Zr2  1  0.66669160  0.66665420  0.06300986  1
  Zr  Zr3  1  0.33337080  0.33331460  0.93778577  1
  Mn  Mn4  1  0.99989253  0.00005373  0.49901409  1
  Mn  Mn5  1  0.99991512  0.00004244  0.00405447  1
  Mn  Mn6  1  0.83370703  0.33251441  0.75787527  1
  Mn  Mn7  1  0.33242055  0.83378972  0.75796403  1
  Mn  Mn8  1  0.83370703  0.83377856  0.75787527  1
  Mn  Mn9  1  0.16624962  0.66765771  0.24278718  1
  Mn  Mn10  1  0.66774462  0.16612769  0.24278810  1
  Mn  Mn11  1  0.16624962  0.16609268  0.24278718  1
