# generated using pymatgen
data_Co5Sb15I
_symmetry_space_group_name_H-M   'P 1'
_cell_length_a   7.89161539
_cell_length_b   7.89161539
_cell_length_c   32.43578539
_cell_angle_alpha   85.28793943
_cell_angle_beta   85.41678869
_cell_angle_gamma   109.50734962
_symmetry_Int_Tables_number   1
_chemical_formula_structural   Co5Sb15I
_chemical_formula_sum   'Co20 Sb60 I4'
_cell_volume   1885.20701616
_cell_formula_units_Z   4
loop_
 _symmetry_equiv_pos_site_id
 _symmetry_equiv_pos_as_xyz
  1  'x, y, z'
loop_
 _atom_site_type_symbol
 _atom_site_label
 _atom_site_symmetry_multiplicity
 _atom_site_fract_x
 _atom_site_fract_y
 _atom_site_fract_z
 _atom_site_occupancy
  Co  Co0  1  0.69997341  0.70001745  0.09994841  1
  Co  Co1  1  0.10000000  0.10000000  0.30000000  1
  Co  Co2  1  0.50002659  0.49998255  0.50005159  1
  Co  Co3  1  0.89872567  0.89922467  0.70066983  1
  Co  Co4  1  0.30127433  0.30077533  0.89933017  1
  Co  Co5  1  0.89995965  0.39979517  0.20003452  1
  Co  Co6  1  0.30004035  0.80020483  0.39996548  1
  Co  Co7  1  0.69999422  0.19991123  0.60017339  1
  Co  Co8  1  0.10000000  0.60000000  0.80000000  1
  Co  Co9  1  0.50000578  0.00008877  0.99982661  1
  Co  Co10  1  0.40017031  0.90000583  0.20003452  1
  Co  Co11  1  0.79982969  0.29999417  0.39996548  1
  Co  Co12  1  0.19991538  0.69983239  0.60017339  1
  Co  Co13  1  0.60000000  0.10000000  0.80000000  1
  Co  Co14  1  0.00008462  0.50016761  0.99982661  1
  Co  Co15  1  0.20003414  0.20007818  0.09994841  1
  Co  Co16  1  0.60000000  0.60000000  0.30000000  1
  Co  Co17  1  0.99996586  0.99992182  0.50005159  1
  Co  Co18  1  0.40010550  0.40060450  0.70066983  1
  Co  Co19  1  0.79989450  0.79939550  0.89933017  1
  Sb  Sb20  1  0.76232188  0.42603630  0.13279704  1
  Sb  Sb21  1  0.16250395  0.82609197  0.33279787  1
  Sb  Sb22  1  0.56225386  0.22577565  0.53276639  1
  Sb  Sb23  1  0.96065319  0.62616267  0.73308003  1
  Sb  Sb24  1  0.36133320  0.02586657  0.93282729  1
  Sb  Sb25  1  0.63774614  0.97422435  0.06723361  1
  Sb  Sb26  1  0.03749605  0.37390803  0.26720213  1
  Sb  Sb27  1  0.43767812  0.77396370  0.46720296  1
  Sb  Sb28  1  0.83866680  0.17413343  0.66717271  1
  Sb  Sb29  1  0.23934681  0.57383733  0.86691997  1
  Sb  Sb30  1  0.44116666  0.10488107  0.13279704  1
  Sb  Sb31  1  0.84111016  0.50469818  0.33279787  1
  Sb  Sb32  1  0.24145796  0.90497975  0.53276639  1
  Sb  Sb33  1  0.64075730  0.30626677  0.73308003  1
  Sb  Sb34  1  0.04130614  0.70583951  0.93282729  1
  Sb  Sb35  1  0.95854204  0.29502025  0.06723361  1
  Sb  Sb36  1  0.35888984  0.69530182  0.26720213  1
  Sb  Sb37  1  0.75883334  0.09511893  0.46720296  1
  Sb  Sb38  1  0.15869386  0.49416049  0.66717271  1
  Sb  Sb39  1  0.55924270  0.89373323  0.86691997  1
  Sb  Sb40  1  0.72835837  0.56765276  0.03196516  1
  Sb  Sb41  1  0.12825465  0.96755135  0.23198541  1
  Sb  Sb42  1  0.52820770  0.36776049  0.43200406  1
  Sb  Sb43  1  0.92786305  0.76777861  0.63204647  1
  Sb  Sb44  1  0.33041102  0.16957790  0.83192178  1
  Sb  Sb45  1  0.67179230  0.83223951  0.16799594  1
  Sb  Sb46  1  0.07174535  0.23244865  0.36801459  1
  Sb  Sb47  1  0.47164163  0.63234724  0.56803484  1
  Sb  Sb48  1  0.86958898  0.03042210  0.76807822  1
  Sb  Sb49  1  0.27213695  0.43222139  0.96795353  1
  Sb  Sb50  1  -0.00023545  0.16021176  0.16799594  1
  Sb  Sb51  1  0.39953676  0.56024006  0.36801459  1
  Sb  Sb52  1  0.79961792  0.96032353  0.56803484  1
  Sb  Sb53  1  0.20149968  0.36233280  0.76807822  1
  Sb  Sb54  1  0.59982507  0.75990952  0.96795353  1
  Sb  Sb55  1  0.40038208  0.23967647  0.03196516  1
  Sb  Sb56  1  0.80046324  0.63975994  0.23198541  1
  Sb  Sb57  1  0.20023545  0.03978824  0.43200406  1
  Sb  Sb58  1  0.60017493  0.44009048  0.63204647  1
  Sb  Sb59  1  0.99850032  0.83766720  0.83192178  1
  Sb  Sb60  1  0.16924254  0.66578105  0.16497640  1
  Sb  Sb61  1  0.56934252  0.06565118  0.36500630  1
  Sb  Sb62  1  0.96949706  0.46545570  0.56504724  1
  Sb  Sb63  1  0.37025989  0.86458323  0.76515689  1
  Sb  Sb64  1  0.76963991  0.26540653  0.96495355  1
  Sb  Sb65  1  0.23050294  0.73454430  0.03495276  1
  Sb  Sb66  1  0.63065748  0.13434882  0.23499370  1
  Sb  Sb67  1  0.03075746  0.53421895  0.43502360  1
  Sb  Sb68  1  0.43036009  0.93459347  0.63504645  1
  Sb  Sb69  1  0.82974011  0.33541677  0.83484311  1
  Sb  Sb70  1  0.36236426  0.53681474  0.10082100  1
  Sb  Sb71  1  0.76252421  0.93676929  0.30070650  1
  Sb  Sb72  1  0.16233654  0.33700168  0.50066178  1
  Sb  Sb73  1  0.56248606  0.73638135  0.70113259  1
  Sb  Sb74  1  0.96208499  0.13697733  0.90093768  1
  Sb  Sb75  1  0.03766346  0.86299832  0.09933822  1
  Sb  Sb76  1  0.43747579  0.26323071  0.29929350  1
  Sb  Sb77  1  0.83763574  0.66318526  0.49917900  1
  Sb  Sb78  1  0.23791501  0.06302267  0.69906232  1
  Sb  Sb79  1  0.63751394  0.46361865  0.89886741  1
  I  I80  1  0.00028990  0.00005597  0.99965413  1
  I  I81  1  0.39995256  0.40004648  0.20000096  1
  I  I82  1  0.80004744  0.79995352  0.39999904  1
  I  I83  1  0.19971010  0.19994403  0.60034587  1
