# generated using pymatgen
data_LiLaMg6
_symmetry_space_group_name_H-M   'P 1'
_cell_length_a   6.72160382
_cell_length_b   6.70000265
_cell_length_c   5.20311466
_cell_angle_alpha   90.00000000
_cell_angle_beta   90.00000000
_cell_angle_gamma   119.89375467
_symmetry_Int_Tables_number   1
_chemical_formula_structural   LiLaMg6
_chemical_formula_sum   'Li1 La1 Mg6'
_cell_volume   203.14487668
_cell_formula_units_Z   1
loop_
 _symmetry_equiv_pos_site_id
 _symmetry_equiv_pos_as_xyz
  1  'x, y, z'
loop_
 _atom_site_type_symbol
 _atom_site_label
 _atom_site_symmetry_multiplicity
 _atom_site_fract_x
 _atom_site_fract_y
 _atom_site_fract_z
 _atom_site_occupancy
  Li  Li0  1  0.17331784  0.33665842  0.25000000  1
  La  La1  1  0.16804078  0.83401989  0.25000000  1
  Mg  Mg2  1  0.66110453  0.33831562  0.25000000  1
  Mg  Mg3  1  0.66110453  0.82278790  0.25000000  1
  Mg  Mg4  1  0.33899421  0.18099737  0.75000000  1
  Mg  Mg5  1  0.33899421  0.65799784  0.75000000  1
  Mg  Mg6  1  0.83575177  0.16787639  0.75000000  1
  Mg  Mg7  1  0.82269214  0.66134657  0.75000000  1
