# generated using pymatgen
data_B3Ir2
_symmetry_space_group_name_H-M   'P 1'
_cell_length_a   3.11714872
_cell_length_b   5.47650034
_cell_length_c   6.25039330
_cell_angle_alpha   90.41494741
_cell_angle_beta   90.00000000
_cell_angle_gamma   73.46547060
_symmetry_Int_Tables_number   1
_chemical_formula_structural   B3Ir2
_chemical_formula_sum   'B6 Ir4'
_cell_volume   102.28570571
_cell_formula_units_Z   2
loop_
 _symmetry_equiv_pos_site_id
 _symmetry_equiv_pos_as_xyz
  1  'x, y, z'
loop_
 _atom_site_type_symbol
 _atom_site_label
 _atom_site_symmetry_multiplicity
 _atom_site_fract_x
 _atom_site_fract_y
 _atom_site_fract_z
 _atom_site_occupancy
  B  B0  1  0.82561585  0.34876831  0.47208071  1
  B  B1  1  0.17438415  0.65123169  0.52791929  1
  B  B2  1  0.44113702  0.11772595  0.38621056  1
  B  B3  1  0.55886298  0.88227405  0.61378944  1
  B  B4  1  0.25885065  0.48229869  0.07621704  1
  B  B5  1  0.74114935  0.51770131  0.92378296  1
  Ir  Ir6  1  0.89684776  0.20630448  0.14784730  1
  Ir  Ir7  1  0.10315224  0.79369552  0.85215270  1
  Ir  Ir8  1  0.64010328  0.71979343  0.29979723  1
  Ir  Ir9  1  0.35989672  0.28020657  0.70020277  1
