# generated using pymatgen
data_Al5Se8
_symmetry_space_group_name_H-M   'P 1'
_cell_length_a   7.44709979
_cell_length_b   7.44709979
_cell_length_c   7.44709979
_cell_angle_alpha   90.00000000
_cell_angle_beta   60.00000000
_cell_angle_gamma   120.00000000
_symmetry_Int_Tables_number   1
_chemical_formula_structural   Al5Se8
_chemical_formula_sum   'Al5 Se8'
_cell_volume   292.04281223
_cell_formula_units_Z   1
loop_
 _symmetry_equiv_pos_site_id
 _symmetry_equiv_pos_as_xyz
  1  'x, y, z'
loop_
 _atom_site_type_symbol
 _atom_site_label
 _atom_site_symmetry_multiplicity
 _atom_site_fract_x
 _atom_site_fract_y
 _atom_site_fract_z
 _atom_site_occupancy
  Al  Al0  1  0.73005685  0.36502842  0.90491473  1
  Al  Al1  1  0.26994315  0.36502842  0.36502842  1
  Al  Al2  1  0.26994315  0.90491473  0.36502842  1
  Al  Al3  1  0.73005685  0.36502842  0.36502842  1
  Al  Al4  1  0.50000000  0.75000000  0.75000000  1
  Se  Se5  1  0.25371840  0.12685920  0.61942240  1
  Se  Se6  1  0.74628160  0.12685920  0.12685920  1
  Se  Se7  1  0.74628160  0.61942240  0.12685920  1
  Se  Se8  1  0.25371840  0.12685920  0.12685920  1
  Se  Se9  1  0.23169737  0.61584869  0.15245394  1
  Se  Se10  1  0.76830263  0.61584869  0.61584869  1
  Se  Se11  1  0.76830263  0.15245394  0.61584869  1
  Se  Se12  1  0.23169737  0.61584869  0.61584869  1
