# generated using pymatgen
data_CaFe2CuO5
_symmetry_space_group_name_H-M   'P 1'
_cell_length_a   6.07828091
_cell_length_b   6.07985972
_cell_length_c   27.37704392
_cell_angle_alpha   89.87318541
_cell_angle_beta   90.00000000
_cell_angle_gamma   60.00858413
_symmetry_Int_Tables_number   1
_chemical_formula_structural   CaFe2CuO5
_chemical_formula_sum   'Ca8 Fe16 Cu8 O40'
_cell_volume   876.24923595
_cell_formula_units_Z   8
loop_
 _symmetry_equiv_pos_site_id
 _symmetry_equiv_pos_as_xyz
  1  'x, y, z'
loop_
 _atom_site_type_symbol
 _atom_site_label
 _atom_site_symmetry_multiplicity
 _atom_site_fract_x
 _atom_site_fract_y
 _atom_site_fract_z
 _atom_site_occupancy
  Ca  Ca0  1  0.17016020  0.49701706  0.14571447  1
  Ca  Ca1  1  0.66595851  0.50203087  0.34962445  1
  Ca  Ca2  1  0.83201062  0.50203087  0.84962445  1
  Ca  Ca3  1  0.33282273  0.49701706  0.64571447  1
  Ca  Ca4  1  0.83955943  0.16190094  0.15160549  1
  Ca  Ca5  1  0.99915863  0.83938782  0.35169770  1
  Ca  Ca6  1  0.16145355  0.83938782  0.85169770  1
  Ca  Ca7  1  0.99853962  0.16190094  0.65160549  1
  Fe  Fe8  1  0.66874252  0.99721728  0.25037905  1
  Fe  Fe9  1  0.33404020  0.99721728  0.75037905  1
  Fe  Fe10  1  0.33573367  0.49447815  0.45823882  1
  Fe  Fe11  1  0.82722280  0.50655555  0.04221337  1
  Fe  Fe12  1  0.66622165  0.50655555  0.54221337  1
  Fe  Fe13  1  0.16978819  0.49447815  0.95823882  1
  Fe  Fe14  1  0.00698532  0.16628358  0.45804309  1
  Fe  Fe15  1  0.17225064  0.83581189  0.04194891  1
  Fe  Fe16  1  0.99193747  0.83581189  0.54194891  1
  Fe  Fe17  1  0.82673110  0.16628358  0.95804309  1
  Fe  Fe18  1  0.33813560  0.16564536  0.36358229  1
  Fe  Fe19  1  0.50250116  0.83680834  0.13765069  1
  Fe  Fe20  1  0.66069050  0.83680834  0.63765069  1
  Fe  Fe21  1  0.49621904  0.16564536  0.86358229  1
  Fe  Fe22  1  0.16816569  0.50199178  0.25337524  1
  Fe  Fe23  1  0.32984254  0.50199178  0.75337524  1
  Cu  Cu24  1  0.66277737  0.83549858  0.45561038  1
  Cu  Cu25  1  0.50414583  0.16239428  0.04455716  1
  Cu  Cu26  1  0.33345988  0.16239428  0.54455716  1
  Cu  Cu27  1  0.50172405  0.83549858  0.95561038  1
  Cu  Cu28  1  0.16522216  0.00105314  0.25047274  1
  Cu  Cu29  1  0.83372470  0.00105314  0.75047274  1
  Cu  Cu30  1  0.66988113  0.50050803  0.24551349  1
  Cu  Cu31  1  0.82961083  0.50050803  0.74551349  1
  O  O32  1  0.49920805  0.33691771  0.20980148  1
  O  O33  1  0.83734658  0.66139942  0.29042403  1
  O  O34  1  0.50125401  0.66139942  0.79042403  1
  O  O35  1  0.16387423  0.33691771  0.70980148  1
  O  O36  1  0.66808175  0.47278794  0.46282296  1
  O  O37  1  0.13579694  0.53202646  0.03731195  1
  O  O38  1  0.33217660  0.53202646  0.53731195  1
  O  O39  1  0.85913031  0.47278794  0.96282296  1
  O  O40  1  0.49709192  0.84370947  0.20832670  1
  O  O41  1  0.34466897  0.17178627  0.29343934  1
  O  O42  1  0.48354476  0.17178627  0.79343934  1
  O  O43  1  0.65919862  0.84370947  0.70832670  1
  O  O44  1  0.32272271  0.68090505  0.29028636  1
  O  O45  1  0.02170705  0.31766942  0.21012387  1
  O  O46  1  0.66062353  0.31766942  0.71012387  1
  O  O47  1  0.99637225  0.68090505  0.79028636  1
  O  O48  1  0.82475358  0.15867752  0.29082018  1
  O  O49  1  0.98385238  0.81909907  0.20796942  1
  O  O50  1  0.19704855  0.81909907  0.70796942  1
  O  O51  1  0.01656890  0.15867752  0.79082018  1
  O  O52  1  0.50762065  0.12560186  0.11395870  1
  O  O53  1  0.62985680  0.87084071  0.38605289  1
  O  O54  1  0.49930249  0.87084071  0.88605289  1
  O  O55  1  0.36677749  0.12560186  0.61395870  1
  O  O56  1  0.86330025  0.16769473  0.03601030  1
  O  O57  1  0.02963664  0.83293718  0.46257420  1
  O  O58  1  0.13742618  0.83293718  0.96257420  1
  O  O59  1  0.96900501  0.16769473  0.53601030  1
  O  O60  1  0.33356329  0.46638028  0.38686108  1
  O  O61  1  0.79562954  0.53278646  0.11351759  1
  O  O62  1  0.67158400  0.53278646  0.61351759  1
  O  O63  1  0.20005644  0.46638028  0.88686108  1
  O  O64  1  0.20564362  0.83487475  0.11296852  1
  O  O65  1  0.03625364  0.17138132  0.38688034  1
  O  O66  1  0.79236504  0.17138132  0.88688034  1
  O  O67  1  0.95948164  0.83487475  0.61296852  1
  O  O68  1  0.49996140  0.80574243  0.02708663  1
  O  O69  1  0.30937690  0.19219929  0.47253613  1
  O  O70  1  0.49842381  0.19219929  0.97253613  1
  O  O71  1  0.69429617  0.80574243  0.52708663  1
