# generated using pymatgen
data_Ca8Al11Fe(Si3O13)4
_symmetry_space_group_name_H-M   'P 1'
_cell_length_a   5.65262660
_cell_length_b   16.30706149
_cell_length_c   10.33264386
_cell_angle_alpha   81.30957531
_cell_angle_beta   90.00000000
_cell_angle_gamma   90.00000000
_symmetry_Int_Tables_number   1
_chemical_formula_structural   Ca8Al11Fe(Si3O13)4
_chemical_formula_sum   'Ca8 Al11 Fe1 Si12 O52'
_cell_volume   941.50483633
_cell_formula_units_Z   1
loop_
 _symmetry_equiv_pos_site_id
 _symmetry_equiv_pos_as_xyz
  1  'x, y, z'
loop_
 _atom_site_type_symbol
 _atom_site_label
 _atom_site_symmetry_multiplicity
 _atom_site_fract_x
 _atom_site_fract_y
 _atom_site_fract_z
 _atom_site_occupancy
  Ca  Ca0  1  0.25000000  0.19830865  0.37674955  1
  Ca  Ca1  1  0.25000000  0.69889239  0.87722297  1
  Ca  Ca2  1  0.75000000  0.30051687  0.12339804  1
  Ca  Ca3  1  0.75000000  0.80144920  0.62255384  1
  Ca  Ca4  1  0.25000000  0.11810457  0.72814899  1
  Ca  Ca5  1  0.25000000  0.61850017  0.22696207  1
  Ca  Ca6  1  0.75000000  0.38222661  0.77436653  1
  Ca  Ca7  1  0.75000000  0.88174521  0.27261826  1
  Al  Al8  1  0.50009422  0.99991160  0.00010272  1
  Al  Al9  1  0.49910878  0.50163057  0.50063289  1
  Al  Al10  1  0.99990578  0.99991160  0.00010272  1
  Al  Al11  1  0.00089122  0.50163057  0.50063289  1
  Al  Al12  1  0.49943824  0.99925846  0.50011476  1
  Al  Al13  1  0.49982639  0.50041547  0.99912717  1
  Al  Al14  1  0.00056176  0.99925846  0.50011476  1
  Al  Al15  1  0.00017361  0.50041547  0.99912717  1
  Al  Al16  1  0.75000000  0.85709055  0.91367164  1
  Al  Al17  1  0.25000000  0.14287017  0.08632022  1
  Al  Al18  1  0.25000000  0.64359563  0.58662185  1
  Fe  Fe19  1  0.75000000  0.35682713  0.41885488  1
  Si  Si20  1  0.25000000  0.33095336  0.62201863  1
  Si  Si21  1  0.25000000  0.83045166  0.12091411  1
  Si  Si22  1  0.75000000  0.16944628  0.87923291  1
  Si  Si23  1  0.75000000  0.66956840  0.37908443  1
  Si  Si24  1  0.75000000  0.15888816  0.56649289  1
  Si  Si25  1  0.75000000  0.66250773  0.06502889  1
  Si  Si26  1  0.25000000  0.33764115  0.93580168  1
  Si  Si27  1  0.25000000  0.83751458  0.43513755  1
  Si  Si28  1  0.25000000  0.40917377  0.27300976  1
  Si  Si29  1  0.25000000  0.90823988  0.77591140  1
  Si  Si30  1  0.75000000  0.09154974  0.22437853  1
  Si  Si31  1  0.75000000  0.59195477  0.72437705  1
  O  O32  1  0.47993875  0.34656658  0.29414429  1
  O  O33  1  0.48559717  0.84782348  0.80025556  1
  O  O34  1  0.98565152  0.15191587  0.19981096  1
  O  O35  1  0.98534130  0.65237135  0.70003053  1
  O  O36  1  0.51434848  0.15191587  0.19981096  1
  O  O37  1  0.51465870  0.65237135  0.70003053  1
  O  O38  1  0.02006125  0.34656658  0.29414429  1
  O  O39  1  0.01440283  0.84782348  0.80025556  1
  O  O40  1  0.51161631  0.10314309  0.55383316  1
  O  O41  1  0.51422767  0.60531526  0.05100146  1
  O  O42  1  0.01383491  0.39473125  0.94965939  1
  O  O43  1  0.01357400  0.89451757  0.44894445  1
  O  O44  1  0.48616509  0.39473125  0.94965939  1
  O  O45  1  0.48642600  0.89451757  0.44894445  1
  O  O46  1  0.98838369  0.10314309  0.55383316  1
  O  O47  1  0.98577233  0.60531526  0.05100146  1
  O  O48  1  0.25000000  0.24100786  0.57904322  1
  O  O49  1  0.25000000  0.74029244  0.07985589  1
  O  O50  1  0.75000000  0.25967705  0.91981158  1
  O  O51  1  0.75000000  0.76004916  0.42017961  1
  O  O52  1  0.75000000  0.47644634  0.39891663  1
  O  O53  1  0.75000000  0.97048207  0.90127191  1
  O  O54  1  0.25000000  0.02944974  0.09875536  1
  O  O55  1  0.25000000  0.53032382  0.59922121  1
  O  O56  1  0.25000000  0.47924432  0.37656443  1
  O  O57  1  0.25000000  0.97982743  0.87665176  1
  O  O58  1  0.75000000  0.02009355  0.12343397  1
  O  O59  1  0.75000000  0.52048582  0.62377308  1
  O  O60  1  0.25000000  0.46971291  0.12958064  1
  O  O61  1  0.25000000  0.96700236  0.63074117  1
  O  O62  1  0.75000000  0.03225110  0.36949726  1
  O  O63  1  0.75000000  0.53219977  0.86898005  1
  O  O64  1  0.75000000  0.18217389  0.71602987  1
  O  O65  1  0.75000000  0.68222306  0.21633622  1
  O  O66  1  0.25000000  0.31746631  0.78442412  1
  O  O67  1  0.25000000  0.81761526  0.28375675  1
  O  O68  1  0.75000000  0.23839385  0.45452026  1
  O  O69  1  0.75000000  0.74546371  0.95876295  1
  O  O70  1  0.25000000  0.25433196  0.04115540  1
  O  O71  1  0.25000000  0.75496331  0.54144350  1
  O  O72  1  0.75000000  0.45996744  0.10524780  1
  O  O73  1  0.75000000  0.95860907  0.60556765  1
  O  O74  1  0.25000000  0.04069123  0.39420540  1
  O  O75  1  0.25000000  0.54141959  0.89339019  1
  O  O76  1  0.49452408  0.38400976  0.57565292  1
  O  O77  1  0.49595892  0.88228618  0.07380654  1
  O  O78  1  0.99592678  0.11760996  0.92627860  1
  O  O79  1  0.99696870  0.61855301  0.42660734  1
  O  O80  1  0.50407322  0.11760996  0.92627860  1
  O  O81  1  0.50303130  0.61855301  0.42660734  1
  O  O82  1  0.00547592  0.38400976  0.57565292  1
  O  O83  1  0.00404108  0.88228618  0.07380654  1
