# generated using pymatgen
data_BaSrY4(CuO5)2
_symmetry_space_group_name_H-M   'P 1'
_cell_length_a   5.68948147
_cell_length_b   7.21642920
_cell_length_c   12.20444959
_cell_angle_alpha   90.00000000
_cell_angle_beta   90.00000000
_cell_angle_gamma   90.00000000
_symmetry_Int_Tables_number   1
_chemical_formula_structural   BaSrY4(CuO5)2
_chemical_formula_sum   'Ba2 Sr2 Y8 Cu4 O20'
_cell_volume   501.08712071
_cell_formula_units_Z   2
loop_
 _symmetry_equiv_pos_site_id
 _symmetry_equiv_pos_as_xyz
  1  'x, y, z'
loop_
 _atom_site_type_symbol
 _atom_site_label
 _atom_site_symmetry_multiplicity
 _atom_site_fract_x
 _atom_site_fract_y
 _atom_site_fract_z
 _atom_site_occupancy
  Ba  Ba0  1  0.25000000  0.57005404  0.40608498  1
  Ba  Ba1  1  0.25000000  0.92994596  0.90608498  1
  Sr  Sr2  1  0.75000000  0.42576000  0.59106900  1
  Sr  Sr3  1  0.75000000  0.07424000  0.09106900  1
  Y  Y4  1  0.25000000  0.38700616  0.78689775  1
  Y  Y5  1  0.25000000  0.11299384  0.28689775  1
  Y  Y6  1  0.75000000  0.61344997  0.21258610  1
  Y  Y7  1  0.75000000  0.88655003  0.71258610  1
  Y  Y8  1  0.25000000  0.10533268  0.57406979  1
  Y  Y9  1  0.25000000  0.39466732  0.07406979  1
  Y  Y10  1  0.75000000  0.89568715  0.42649158  1
  Y  Y11  1  0.75000000  0.60431285  0.92649158  1
  Cu  Cu12  1  0.25000000  0.78197805  0.16130882  1
  Cu  Cu13  1  0.25000000  0.71802195  0.66130882  1
  Cu  Cu14  1  0.75000000  0.21928719  0.83821697  1
  Cu  Cu15  1  0.75000000  0.28071281  0.33821697  1
  O  O16  1  0.25000000  0.42059620  0.59949344  1
  O  O17  1  0.25000000  0.07940380  0.09949344  1
  O  O18  1  0.75000000  0.57667086  0.40556841  1
  O  O19  1  0.75000000  0.92332914  0.90556841  1
  O  O20  1  0.50739625  0.15005414  0.72482692  1
  O  O21  1  0.99260375  0.34994586  0.22482692  1
  O  O22  1  0.00267320  0.85384857  0.27295227  1
  O  O23  1  0.49732680  0.64615143  0.77295227  1
  O  O24  1  0.49732680  0.85384857  0.27295227  1
  O  O25  1  0.00267320  0.64615143  0.77295227  1
  O  O26  1  0.99260375  0.15005414  0.72482692  1
  O  O27  1  0.50739625  0.34994586  0.22482692  1
  O  O28  1  0.99251361  0.33489898  0.93339207  1
  O  O29  1  0.50748639  0.16510102  0.43339207  1
  O  O30  1  0.49338188  0.66371833  0.06793532  1
  O  O31  1  0.00661812  0.83628167  0.56793532  1
  O  O32  1  0.00661812  0.66371833  0.06793532  1
  O  O33  1  0.49338188  0.83628167  0.56793532  1
  O  O34  1  0.50748639  0.33489898  0.93339207  1
  O  O35  1  0.99251361  0.16510102  0.43339207  1
