# generated using pymatgen
data_Ba2Tl2Cu2HgO8
_symmetry_space_group_name_H-M   'P 1'
_cell_length_a   3.91214563
_cell_length_b   3.91214563
_cell_length_c   15.07845217
_cell_angle_alpha   82.54621802
_cell_angle_beta   82.54621802
_cell_angle_gamma   90.00000000
_symmetry_Int_Tables_number   1
_chemical_formula_structural   Ba2Tl2Cu2HgO8
_chemical_formula_sum   'Ba2 Tl2 Cu2 Hg1 O8'
_cell_volume   226.85703150
_cell_formula_units_Z   1
loop_
 _symmetry_equiv_pos_site_id
 _symmetry_equiv_pos_as_xyz
  1  'x, y, z'
loop_
 _atom_site_type_symbol
 _atom_site_label
 _atom_site_symmetry_multiplicity
 _atom_site_fract_x
 _atom_site_fract_y
 _atom_site_fract_z
 _atom_site_occupancy
  Ba  Ba0  1  0.62723314  0.62723314  0.74553373  1
  Ba  Ba1  1  0.37586665  0.37586665  0.24826669  1
  Tl  Tl2  1  0.78626357  0.78626357  0.42747286  1
  Tl  Tl3  1  0.50053270  0.50053270  0.99893461  1
  Cu  Cu4  1  0.05747435  0.05747435  0.88505130  1
  Cu  Cu5  1  0.94427987  0.94427987  0.11144026  1
  Hg  Hg6  1  0.21182850  0.21182850  0.57634299  1
  O  O7  1  0.04990757  0.54990757  0.90018486  1
  O  O8  1  0.54990757  0.04990757  0.90018486  1
  O  O9  1  0.94890999  0.44890999  0.10218001  1
  O  O10  1  0.44890999  0.94890999  0.10218001  1
  O  O11  1  0.71784779  0.71784779  0.56430441  1
  O  O12  1  0.28471581  0.28471581  0.43056838  1
  O  O13  1  0.13998532  0.13998532  0.72002936  1
  O  O14  1  0.85633717  0.85633717  0.28732566  1
