# generated using pymatgen
data_Be46Rh7
_symmetry_space_group_name_H-M   'P 1'
_cell_length_a   4.17665835
_cell_length_b   4.17665835
_cell_length_c   32.99751429
_cell_angle_alpha   89.99975677
_cell_angle_beta   90.00024323
_cell_angle_gamma   119.99921450
_symmetry_Int_Tables_number   1
_chemical_formula_structural   Be46Rh7
_chemical_formula_sum   'Be46 Rh7'
_cell_volume   498.50922343
_cell_formula_units_Z   1
loop_
 _symmetry_equiv_pos_site_id
 _symmetry_equiv_pos_as_xyz
  1  'x, y, z'
loop_
 _atom_site_type_symbol
 _atom_site_label
 _atom_site_symmetry_multiplicity
 _atom_site_fract_x
 _atom_site_fract_y
 _atom_site_fract_z
 _atom_site_occupancy
  Be  Be0  1  0.99996337  0.00003663  0.12521411  1
  Be  Be1  1  0.99997947  0.00002053  0.45856635  1
  Be  Be2  1  0.99995845  0.00004155  0.79197591  1
  Be  Be3  1  0.99996961  0.00003039  0.20782248  1
  Be  Be4  1  -0.00001845  0.00001845  0.54113301  1
  Be  Be5  1  0.99996020  0.00003980  0.87518515  1
  Be  Be6  1  0.66665462  0.33334538  0.11380616  1
  Be  Be7  1  0.66665164  0.33334836  0.44743084  1
  Be  Be8  1  0.66666457  0.33333543  0.78114062  1
  Be  Be9  1  0.66665034  0.33334966  0.21904295  1
  Be  Be10  1  0.66665152  0.33334848  0.55251369  1
  Be  Be11  1  0.66665479  0.33334521  0.88620917  1
  Be  Be12  1  0.83498266  0.16501734  0.06056856  1
  Be  Be13  1  0.83356251  0.16643749  0.39368035  1
  Be  Be14  1  0.83603019  0.16396981  0.72935110  1
  Be  Be15  1  0.32995618  0.16494703  0.06056722  1
  Be  Be16  1  0.33281524  0.16643874  0.39367999  1
  Be  Be17  1  0.32785668  0.16396824  0.72935560  1
  Be  Be18  1  0.83505297  0.67004382  0.06056722  1
  Be  Be19  1  0.83356126  0.66718476  0.39367999  1
  Be  Be20  1  0.83603176  0.67214332  0.72935560  1
  Be  Be21  1  0.83377039  0.16622961  0.27300796  1
  Be  Be22  1  0.83505713  0.16494287  0.60404191  1
  Be  Be23  1  0.83491576  0.16508424  0.93947082  1
  Be  Be24  1  0.33238709  0.16623493  0.27300865  1
  Be  Be25  1  0.32981974  0.16494373  0.60404068  1
  Be  Be26  1  0.33007213  0.16500961  0.93946996  1
  Be  Be27  1  0.83376507  0.66761291  0.27300865  1
  Be  Be28  1  0.83505627  0.67018026  0.60404068  1
  Be  Be29  1  0.83499039  0.66992787  0.93946996  1
  Be  Be30  1  0.33379275  0.66620725  0.03303485  1
  Be  Be31  1  0.33330645  0.66669355  0.36543864  1
  Be  Be32  1  0.33329419  0.66670581  0.69915776  1
  Be  Be33  1  0.33330134  0.66669866  0.30119605  1
  Be  Be34  1  0.33329947  0.66670053  0.63430230  1
  Be  Be35  1  0.33377772  0.66622228  0.96666094  1
  Be  Be36  1  0.49693355  0.50306645  0.16656066  1
  Be  Be37  1  0.49709935  0.50290065  0.49997504  1
  Be  Be38  1  0.49711168  0.50288832  0.83338369  1
  Be  Be39  1  0.00605226  0.50305847  0.16656131  1
  Be  Be40  1  0.00574027  0.50289881  0.49997511  1
  Be  Be41  1  0.00573311  0.50287953  0.83338563  1
  Be  Be42  1  0.49694153  0.99394774  0.16656131  1
  Be  Be43  1  0.49710119  0.99425973  0.49997511  1
  Be  Be44  1  0.49712047  0.99426689  0.83338563  1
  Be  Be45  1  0.66667590  0.33332410  0.33330769  1
  Rh  Rh46  1  0.33328248  0.66671752  0.10321239  1
  Rh  Rh47  1  0.33331661  0.66668339  0.43626742  1
  Rh  Rh48  1  0.33331762  0.66668238  0.77044263  1
  Rh  Rh49  1  0.33332293  0.66667707  0.23031824  1
  Rh  Rh50  1  0.33331918  0.66668082  0.56294951  1
  Rh  Rh51  1  0.33325641  0.66674359  0.89669216  1
  Rh  Rh52  1  -0.00002000  0.00002000  0.66685057  1
