# generated using pymatgen
data_NaCS(OF)3
_symmetry_space_group_name_H-M   'P 1'
_cell_length_a   10.22097815
_cell_length_b   11.03350670
_cell_length_c   11.33079770
_cell_angle_alpha   101.24553845
_cell_angle_beta   105.05377102
_cell_angle_gamma   110.72370341
_symmetry_Int_Tables_number   1
_chemical_formula_structural   NaCS(OF)3
_chemical_formula_sum   'Na8 C8 S8 O24 F24'
_cell_volume   1094.33709222
_cell_formula_units_Z   8
loop_
 _symmetry_equiv_pos_site_id
 _symmetry_equiv_pos_as_xyz
  1  'x, y, z'
loop_
 _atom_site_type_symbol
 _atom_site_label
 _atom_site_symmetry_multiplicity
 _atom_site_fract_x
 _atom_site_fract_y
 _atom_site_fract_z
 _atom_site_occupancy
  Na  Na0  1  0.26803374  0.83818969  0.53806444  1
  Na  Na1  1  0.34549038  0.36736112  0.52871426  1
  Na  Na2  1  0.25523219  0.00548638  0.32119760  1
  Na  Na3  1  0.74564667  0.99933938  0.68678546  1
  Na  Na4  1  0.65263077  0.62755924  0.47352398  1
  Na  Na5  1  0.92717128  0.96185831  0.47415416  1
  Na  Na6  1  0.73155036  0.16753209  0.46528002  1
  Na  Na7  1  0.00069299  0.49960212  0.50103144  1
  C  C8  1  0.05500328  0.84999659  0.85270066  1
  C  C9  1  0.10560551  0.36683806  0.86085832  1
  C  C10  1  0.51695117  0.72855995  0.84167687  1
  C  C11  1  0.48618337  0.81695247  0.18268373  1
  C  C12  1  0.51384723  0.18310351  0.81686941  1
  C  C13  1  0.48282358  0.27131036  0.15791729  1
  C  C14  1  0.89403628  0.63162902  0.13802710  1
  C  C15  1  0.94497141  0.15117869  0.14664082  1
  S  S16  1  0.05599859  0.28710909  0.68352588  1
  S  S17  1  0.02344572  0.20197550  0.32715081  1
  S  S18  1  0.44443876  0.69635001  0.66323983  1
  S  S19  1  0.49296210  0.81715141  0.34975204  1
  S  S20  1  0.50882029  0.18286979  0.65010731  1
  S  S21  1  0.55497543  0.30346889  0.33619127  1
  S  S22  1  0.97644804  0.79896762  0.67181596  1
  S  S23  1  0.94608646  0.71192545  0.31573023  1
  O  O24  1  0.09780334  0.87985026  0.63548611  1
  O  O25  1  0.03508589  0.85822669  0.33904201  1
  O  O26  1  0.03611608  0.64688746  0.37492578  1
  O  O27  1  0.07297894  0.34950553  0.37350064  1
  O  O28  1  0.28111300  0.63830035  0.62152177  1
  O  O29  1  0.19617740  0.31880032  0.66166859  1
  O  O30  1  0.37573094  0.85881074  0.36466991  1
  O  O31  1  0.14747409  0.16147821  0.35366087  1
  O  O32  1  0.50890982  0.83301176  0.65075407  1
  O  O33  1  0.50436549  0.60417994  0.61294299  1
  O  O34  1  0.46541501  0.67865566  0.34958751  1
  O  O35  1  0.35796317  0.07986045  0.56555662  1
  O  O36  1  0.64640658  0.91990576  0.43300044  1
  O  O37  1  0.53708067  0.32168513  0.65071248  1
  O  O38  1  0.49373390  0.39448025  0.38633740  1
  O  O39  1  0.49164780  0.16660365  0.34853130  1
  O  O40  1  0.84987065  0.83772146  0.64377658  1
  O  O41  1  0.62862709  0.14301443  0.63773495  1
  O  O42  1  0.80782166  0.68635897  0.34124177  1
  O  O43  1  0.71838206  0.36296266  0.37844345  1
  O  O44  1  0.92761878  0.65158588  0.62679382  1
  O  O45  1  0.96366087  0.35043653  0.62390793  1
  O  O46  1  0.96693457  0.14037366  0.65953131  1
  O  O47  1  0.89831199  0.12165203  0.36083942  1
  F  F48  1  0.08519629  0.98267438  0.90527129  1
  F  F49  1  0.18290265  0.83440152  0.89242586  1
  F  F50  1  0.02036196  0.67163929  0.10897954  1
  F  F51  1  0.16849378  0.50408034  0.89285700  1
  F  F52  1  0.20154799  0.32773369  0.93179933  1
  F  F53  1  0.04476670  0.22800993  0.10279568  1
  F  F54  1  0.46242978  0.80702720  0.90133444  1
  F  F55  1  0.47863338  0.61059346  0.86967001  1
  F  F56  1  0.35057615  0.72543355  0.09647296  1
  F  F57  1  0.40767839  0.21628975  0.84415101  1
  F  F58  1  0.50889554  0.94217538  0.17028889  1
  F  F59  1  0.66863458  0.79680888  0.88756694  1
  F  F60  1  0.33128895  0.20327791  0.11201240  1
  F  F61  1  0.49095510  0.05761034  0.82939297  1
  F  F62  1  0.59283611  0.78389441  0.15558856  1
  F  F63  1  0.64968532  0.27429622  0.90356127  1
  F  F64  1  0.52156145  0.38954641  0.13024237  1
  F  F65  1  0.53756328  0.19295654  0.09850266  1
  F  F66  1  0.95509543  0.77228186  0.89596153  1
  F  F67  1  0.79841639  0.67205931  0.06864697  1
  F  F68  1  0.83080259  0.49462249  0.10580492  1
  F  F69  1  0.97899357  0.32697515  0.88969821  1
  F  F70  1  0.81689106  0.16628505  0.10604143  1
  F  F71  1  0.91491818  0.01812442  0.09494715  1
