# generated using pymatgen
data_Ce2Gd2O7
_symmetry_space_group_name_H-M   'P 1'
_cell_length_a   9.55905453
_cell_length_b   9.53827496
_cell_length_c   9.54059907
_cell_angle_alpha   70.60051601
_cell_angle_beta   70.51642572
_cell_angle_gamma   109.46671605
_symmetry_Int_Tables_number   1
_chemical_formula_structural   Ce2Gd2O7
_chemical_formula_sum   'Ce8 Gd8 O28'
_cell_volume   670.16275279
_cell_formula_units_Z   4
loop_
 _symmetry_equiv_pos_site_id
 _symmetry_equiv_pos_as_xyz
  1  'x, y, z'
loop_
 _atom_site_type_symbol
 _atom_site_label
 _atom_site_symmetry_multiplicity
 _atom_site_fract_x
 _atom_site_fract_y
 _atom_site_fract_z
 _atom_site_occupancy
  Ce  Ce0  1  0.52203371  0.74709181  0.72858431  1
  Ce  Ce1  1  0.27394068  0.02393087  0.74834702  1
  Ce  Ce2  1  0.25001427  0.77194589  0.47800358  1
  Ce  Ce3  1  0.97780629  0.24929426  0.77501235  1
  Ce  Ce4  1  0.22598850  0.47780440  0.25000057  1
  Ce  Ce5  1  0.75009027  0.72572012  0.02420485  1
  Ce  Ce6  1  0.49989496  0.02453857  0.99952468  1
  Ce  Ce7  1  0.00012673  0.00068571  0.47544749  1
  Gd  Gd8  1  0.99619543  0.74567091  0.25236423  1
  Gd  Gd9  1  0.74888324  0.50019638  0.74989043  1
  Gd  Gd10  1  0.24997238  0.25193448  0.99803880  1
  Gd  Gd11  1  0.50361690  0.25143350  0.25058852  1
  Gd  Gd12  1  0.75134925  0.00150490  0.24850235  1
  Gd  Gd13  1  0.75007001  0.25333330  0.49672527  1
  Gd  Gd14  1  0.97566379  0.47599611  0.02350588  1
  Gd  Gd15  1  0.52409649  0.50071073  0.49956411  1
  O  O16  1  0.99952504  0.49215727  0.24933079  1
  O  O17  1  0.74906511  0.49842902  0.00926725  1
  O  O18  1  0.99232807  0.24923455  0.00167639  1
  O  O19  1  0.50048761  0.25112969  0.50742241  1
  O  O20  1  0.75097293  0.74182801  0.25060166  1
  O  O21  1  0.50750267  0.50605395  0.74306637  1
  O  O22  1  0.26248296  0.00985894  0.99432929  1
  O  O23  1  0.49465602  0.00303269  0.24290827  1
  O  O24  1  0.74283139  0.24595678  0.76363105  1
  O  O25  1  0.23735770  0.24302434  0.25278914  1
  O  O26  1  0.00545375  0.76260557  0.49158035  1
  O  O27  1  0.75737882  0.99356167  0.49676610  1
  O  O28  1  0.03988400  0.51924135  0.72339678  1
  O  O29  1  0.27448282  0.53804291  0.98217475  1
  O  O30  1  0.02092475  0.77673347  0.95880701  1
  O  O31  1  0.46024886  0.73667583  0.52049025  1
  O  O32  1  0.22558737  0.24334851  0.73634277  1
  O  O33  1  0.47907807  0.52018690  0.24432030  1
  O  O34  1  0.75145640  0.98226632  0.98014857  1
  O  O35  1  0.47998985  0.96034099  0.76793101  1
  O  O36  1  0.26725197  0.73050259  0.25321601  1
  O  O37  1  0.74857134  0.76841467  0.76917189  1
  O  O38  1  0.02011755  0.25214078  0.51946690  1
  O  O39  1  0.23279054  0.97956004  0.53672640  1
  O  O40  1  0.74083451  0.23985817  0.25929855  1
  O  O41  1  0.75912510  0.50000768  0.50082243  1
  O  O42  1  0.49896010  0.25397148  0.00091955  1
  O  O43  1  0.00091180  0.00004387  0.24509330  1
