# generated using pymatgen
data_SrLiMg6
_symmetry_space_group_name_H-M   'P 1'
_cell_length_a   6.82873910
_cell_length_b   6.60189678
_cell_length_c   5.32257798
_cell_angle_alpha   90.00000000
_cell_angle_beta   90.00000000
_cell_angle_gamma   118.90708957
_symmetry_Int_Tables_number   1
_chemical_formula_structural   SrLiMg6
_chemical_formula_sum   'Sr1 Li1 Mg6'
_cell_volume   210.05845514
_cell_formula_units_Z   1
loop_
 _symmetry_equiv_pos_site_id
 _symmetry_equiv_pos_as_xyz
  1  'x, y, z'
loop_
 _atom_site_type_symbol
 _atom_site_label
 _atom_site_symmetry_multiplicity
 _atom_site_fract_x
 _atom_site_fract_y
 _atom_site_fract_z
 _atom_site_occupancy
  Sr  Sr0  1  0.15846161  0.82923030  0.25000000  1
  Li  Li1  1  0.17302303  0.33651102  0.25000000  1
  Mg  Mg2  1  0.65679851  0.33449103  0.25000000  1
  Mg  Mg3  1  0.65679851  0.82230648  0.25000000  1
  Mg  Mg4  1  0.34740032  0.18790036  0.75000000  1
  Mg  Mg5  1  0.34740032  0.65950096  0.75000000  1
  Mg  Mg6  1  0.84358522  0.17179311  0.75000000  1
  Mg  Mg7  1  0.81653246  0.65826673  0.75000000  1
