# generated using pymatgen
data_AgSbPbS3
_symmetry_space_group_name_H-M   'P 1'
_cell_length_a   4.03708747
_cell_length_b   5.73858458
_cell_length_c   7.02007113
_cell_angle_alpha   65.87510553
_cell_angle_beta   73.28933477
_cell_angle_gamma   90.00000000
_symmetry_Int_Tables_number   1
_chemical_formula_structural   AgSbPbS3
_chemical_formula_sum   'Ag1 Sb1 Pb1 S3'
_cell_volume   140.87093878
_cell_formula_units_Z   1
loop_
 _symmetry_equiv_pos_site_id
 _symmetry_equiv_pos_as_xyz
  1  'x, y, z'
loop_
 _atom_site_type_symbol
 _atom_site_label
 _atom_site_symmetry_multiplicity
 _atom_site_fract_x
 _atom_site_fract_y
 _atom_site_fract_z
 _atom_site_occupancy
  Ag  Ag0  1  0.99912098  0.99912098  0.00175805  1
  Sb  Sb1  1  0.66706144  0.66706144  0.66587813  1
  Pb  Pb2  1  0.33123300  0.33123300  0.33753300  1
  S  S3  1  0.01536203  0.51536203  0.96927594  1
  S  S4  1  0.32824308  0.82824308  0.34351283  1
  S  S5  1  0.65897947  0.15897947  0.68204206  1
