# generated using pymatgen
data_Sm5Si3O13
_symmetry_space_group_name_H-M   'P 1'
_cell_length_a   9.61256368
_cell_length_b   9.61256368
_cell_length_c   6.99588876
_cell_angle_alpha   90.00000000
_cell_angle_beta   90.00000000
_cell_angle_gamma   120.00000000
_symmetry_Int_Tables_number   1
_chemical_formula_structural   Sm5Si3O13
_chemical_formula_sum   'Sm10 Si6 O26'
_cell_volume   559.82461078
_cell_formula_units_Z   2
loop_
 _symmetry_equiv_pos_site_id
 _symmetry_equiv_pos_as_xyz
  1  'x, y, z'
loop_
 _atom_site_type_symbol
 _atom_site_label
 _atom_site_symmetry_multiplicity
 _atom_site_fract_x
 _atom_site_fract_y
 _atom_site_fract_z
 _atom_site_occupancy
  O  O0  1  0.00000000  0.00000000  0.75000000  1
  O  O1  1  0.00000000  0.00000000  0.25000000  1
  O  O2  1  0.51692634  0.83185551  0.75000000  1
  O  O3  1  0.68507083  0.51692634  0.25000000  1
  O  O4  1  0.83185551  0.31492917  0.25000000  1
  O  O5  1  0.16814449  0.68507083  0.75000000  1
  O  O6  1  0.31492917  0.48307366  0.75000000  1
  O  O7  1  0.48307366  0.16814449  0.25000000  1
  O  O8  1  0.87711385  0.40431547  0.75000000  1
  O  O9  1  0.47279838  0.87711385  0.25000000  1
  O  O10  1  0.40431547  0.52720162  0.25000000  1
  O  O11  1  0.59568453  0.47279838  0.75000000  1
  O  O12  1  0.52720162  0.12288615  0.75000000  1
  O  O13  1  0.12288615  0.59568453  0.25000000  1
  O  O14  1  0.09212601  0.34112808  0.43647665  1
  O  O15  1  0.75099792  0.09212601  0.93647665  1
  O  O16  1  0.09212601  0.34112808  0.06352335  1
  O  O17  1  0.75099792  0.09212601  0.56352335  1
  O  O18  1  0.34112808  0.24900208  0.56352335  1
  O  O19  1  0.65887192  0.75099792  0.06352335  1
  O  O20  1  0.24900208  0.90787399  0.06352335  1
  O  O21  1  0.90787399  0.65887192  0.56352335  1
  O  O22  1  0.90787399  0.65887192  0.93647665  1
  O  O23  1  0.24900208  0.90787399  0.43647665  1
  O  O24  1  0.65887192  0.75099792  0.43647665  1
  O  O25  1  0.34112808  0.24900208  0.93647665  1
  Si  Si26  1  0.97220472  0.60230043  0.75000000  1
  Si  Si27  1  0.36990428  0.97220472  0.25000000  1
  Si  Si28  1  0.60230043  0.63009572  0.25000000  1
  Si  Si29  1  0.39769957  0.36990428  0.75000000  1
  Si  Si30  1  0.63009572  0.02779528  0.75000000  1
  Si  Si31  1  0.02779528  0.39769957  0.25000000  1
  Sm  Sm32  1  0.33333333  0.66666667  0.50208327  1
  Sm  Sm33  1  0.66666667  0.33333333  0.00208327  1
  Sm  Sm34  1  0.66666667  0.33333333  0.49791673  1
  Sm  Sm35  1  0.33333333  0.66666667  0.99791673  1
  Sm  Sm36  1  0.76102144  0.76787110  0.75000000  1
  Sm  Sm37  1  0.99315034  0.76102144  0.25000000  1
  Sm  Sm38  1  0.76787110  0.00684966  0.25000000  1
  Sm  Sm39  1  0.23212890  0.99315034  0.75000000  1
  Sm  Sm40  1  0.00684966  0.23897856  0.75000000  1
  Sm  Sm41  1  0.23897856  0.23212890  0.25000000  1
