# generated using pymatgen
data_In6ReO12
_symmetry_space_group_name_H-M   'P 1'
_cell_length_a   6.34523226
_cell_length_b   6.34523227
_cell_length_c   6.34523227
_cell_angle_alpha   99.20831592
_cell_angle_beta   99.20831598
_cell_angle_gamma   99.20831594
_symmetry_Int_Tables_number   1
_chemical_formula_structural   In6ReO12
_chemical_formula_sum   'In6 Re1 O12'
_cell_volume   244.37037371
_cell_formula_units_Z   1
loop_
 _symmetry_equiv_pos_site_id
 _symmetry_equiv_pos_as_xyz
  1  'x, y, z'
loop_
 _atom_site_type_symbol
 _atom_site_label
 _atom_site_symmetry_multiplicity
 _atom_site_fract_x
 _atom_site_fract_y
 _atom_site_fract_z
 _atom_site_occupancy
  O  O0  1  0.59403166  0.41408147  0.17598168  1
  O  O1  1  0.41408147  0.17598168  0.59403166  1
  O  O2  1  0.17598168  0.59403166  0.41408147  1
  O  O3  1  0.40596834  0.58591853  0.82401832  1
  O  O4  1  0.58591853  0.82401832  0.40596834  1
  O  O5  1  0.82401832  0.40596834  0.58591853  1
  O  O6  1  0.04507502  0.89680796  0.70827647  1
  O  O7  1  0.29172353  0.95492498  0.10319204  1
  O  O8  1  0.10319204  0.29172353  0.95492498  1
  O  O9  1  0.95492498  0.10319204  0.29172353  1
  O  O10  1  0.70827647  0.04507502  0.89680796  1
  O  O11  1  0.89680796  0.70827647  0.04507502  1
  In  In12  1  0.86023056  0.67722572  0.39689503  1
  In  In13  1  0.67722572  0.39689503  0.86023056  1
  In  In14  1  0.39689503  0.86023056  0.67722572  1
  In  In15  1  0.13976944  0.32277428  0.60310497  1
  In  In16  1  0.32277428  0.60310497  0.13976944  1
  In  In17  1  0.60310497  0.13976944  0.32277428  1
  Re  Re18  1  0.00000000  0.00000000  0.00000000  1
