# generated using pymatgen
data_Ag6S2IBr
_symmetry_space_group_name_H-M   'P 1'
_cell_length_a   6.99165654
_cell_length_b   6.93815774
_cell_length_c   6.93815774
_cell_angle_alpha   88.65083101
_cell_angle_beta   61.02083471
_cell_angle_gamma   118.97916529
_symmetry_Int_Tables_number   1
_chemical_formula_structural   Ag6S2IBr
_chemical_formula_sum   'Ag6 S2 I1 Br1'
_cell_volume   242.44984611
_cell_formula_units_Z   1
loop_
 _symmetry_equiv_pos_site_id
 _symmetry_equiv_pos_as_xyz
  1  'x, y, z'
loop_
 _atom_site_type_symbol
 _atom_site_label
 _atom_site_symmetry_multiplicity
 _atom_site_fract_x
 _atom_site_fract_y
 _atom_site_fract_z
 _atom_site_occupancy
  Ag  Ag0  1  0.98573953  0.99286977  0.50713023  1
  Ag  Ag1  1  0.98573953  0.49286977  0.00713023  1
  Ag  Ag2  1  0.52150955  0.05380653  0.94619347  1
  Ag  Ag3  1  0.52150955  0.46770302  0.53229698  1
  Ag  Ag4  1  0.32796390  0.89801321  0.57004931  1
  Ag  Ag5  1  0.32796390  0.42995069  0.10198679  1
  S  S6  1  0.49082368  0.24541184  0.25458816  1
  S  S7  1  0.49082368  0.74541184  0.75458816  1
  I  I8  1  0.99033765  0.99516882  0.00483118  1
  Br  Br9  1  0.97358904  0.48679452  0.51320548  1
