# generated using pymatgen
data_BaTi2(P2O7)2
_symmetry_space_group_name_H-M   'P 1'
_cell_length_a   7.61639953
_cell_length_b   7.61639953
_cell_length_c   10.02521700
_cell_angle_alpha   81.02926637
_cell_angle_beta   81.02926633
_cell_angle_gamma   90.08940539
_symmetry_Int_Tables_number   1
_chemical_formula_structural   BaTi2(P2O7)2
_chemical_formula_sum   'Ba2 Ti4 P8 O28'
_cell_volume   567.21859080
_cell_formula_units_Z   2
loop_
 _symmetry_equiv_pos_site_id
 _symmetry_equiv_pos_as_xyz
  1  'x, y, z'
loop_
 _atom_site_type_symbol
 _atom_site_label
 _atom_site_symmetry_multiplicity
 _atom_site_fract_x
 _atom_site_fract_y
 _atom_site_fract_z
 _atom_site_occupancy
  O  O0  1  0.93805983  0.78055777  0.15618498  1
  O  O1  1  0.21944223  0.06194017  0.34381502  1
  O  O2  1  0.06194017  0.21944223  0.84381502  1
  O  O3  1  0.78055777  0.93805983  0.65618498  1
  O  O4  1  0.62144211  0.74222410  0.29750113  1
  O  O5  1  0.25777590  0.37855789  0.20249887  1
  O  O6  1  0.37855789  0.25777590  0.70249887  1
  O  O7  1  0.74222410  0.62144211  0.79750113  1
  O  O8  1  0.87246821  0.84799532  0.40023559  1
  O  O9  1  0.15200468  0.12753179  0.09976441  1
  O  O10  1  0.12753179  0.15200468  0.59976441  1
  O  O11  1  0.84799532  0.87246821  0.90023559  1
  O  O12  1  0.87078729  0.53086178  0.34443959  1
  O  O13  1  0.46913822  0.12921271  0.15556041  1
  O  O14  1  0.41400099  0.72591843  0.09015464  1
  O  O15  1  0.27408157  0.58599901  0.40984536  1
  O  O16  1  0.58599901  0.27408157  0.90984536  1
  O  O17  1  0.72591843  0.41400099  0.59015464  1
  O  O18  1  0.36529920  0.56796418  0.89103034  1
  O  O19  1  0.43203582  0.63470080  0.60896966  1
  O  O20  1  0.63470080  0.43203582  0.10896966  1
  O  O21  1  0.56796418  0.36529920  0.39103034  1
  O  O22  1  0.20443399  0.84615525  0.92674478  1
  O  O23  1  0.15384475  0.79556601  0.57325522  1
  O  O24  1  0.79556601  0.15384475  0.07325522  1
  O  O25  1  0.84615525  0.20443399  0.42674478  1
  O  O26  1  0.53086178  0.87078729  0.84443959  1
  O  O27  1  0.12921271  0.46913822  0.65556041  1
  P  P28  1  0.82254345  0.73705991  0.29669778  1
  P  P29  1  0.26294009  0.17745655  0.20330222  1
  P  P30  1  0.17745655  0.26294009  0.70330222  1
  P  P31  1  0.73705991  0.82254345  0.79669778  1
  P  P32  1  0.74679181  0.37500959  0.44370368  1
  P  P33  1  0.62499041  0.25320819  0.05629632  1
  P  P34  1  0.25320819  0.62499041  0.55629632  1
  P  P35  1  0.37500959  0.74679181  0.94370368  1
  Ti  Ti36  1  0.00000000  0.00000000  0.50000000  1
  Ti  Ti37  1  0.00000000  0.00000000  0.00000000  1
  Ti  Ti38  1  0.45152978  0.54847022  0.25000000  1
  Ti  Ti39  1  0.54847022  0.45152978  0.75000000  1
  Ba  Ba40  1  0.00000000  0.50000000  0.00000000  1
  Ba  Ba41  1  0.50000000  0.00000000  0.50000000  1
