# generated using pymatgen
data_SnHgO3
_symmetry_space_group_name_H-M   'P 1'
_cell_length_a   5.76721684
_cell_length_b   5.76721684
_cell_length_c   5.76721684
_cell_angle_alpha   58.93092292
_cell_angle_beta   58.93092291
_cell_angle_gamma   58.93092300
_symmetry_Int_Tables_number   1
_chemical_formula_structural   SnHgO3
_chemical_formula_sum   'Sn2 Hg2 O6'
_cell_volume   132.32973243
_cell_formula_units_Z   2
loop_
 _symmetry_equiv_pos_site_id
 _symmetry_equiv_pos_as_xyz
  1  'x, y, z'
loop_
 _atom_site_type_symbol
 _atom_site_label
 _atom_site_symmetry_multiplicity
 _atom_site_fract_x
 _atom_site_fract_y
 _atom_site_fract_z
 _atom_site_occupancy
  O  O0  1  0.14648909  0.75000000  0.35351091  1
  O  O1  1  0.75000000  0.35351091  0.14648909  1
  O  O2  1  0.35351091  0.14648909  0.75000000  1
  O  O3  1  0.85351091  0.25000000  0.64648909  1
  O  O4  1  0.64648909  0.85351091  0.25000000  1
  O  O5  1  0.25000000  0.64648909  0.85351091  1
  Sn  Sn6  1  0.50000000  0.50000000  0.50000000  1
  Sn  Sn7  1  0.00000000  0.00000000  0.00000000  1
  Hg  Hg8  1  0.75000000  0.75000000  0.75000000  1
  Hg  Hg9  1  0.25000000  0.25000000  0.25000000  1
