# generated using pymatgen
data_Mg6TiBi
_symmetry_space_group_name_H-M   'P 1'
_cell_length_a   6.33236271
_cell_length_b   6.33236218
_cell_length_c   5.11029314
_cell_angle_alpha   90.00000000
_cell_angle_beta   90.00000000
_cell_angle_gamma   118.23906865
_symmetry_Int_Tables_number   1
_chemical_formula_structural   Mg6TiBi
_chemical_formula_sum   'Mg6 Ti1 Bi1'
_cell_volume   180.52771987
_cell_formula_units_Z   1
loop_
 _symmetry_equiv_pos_site_id
 _symmetry_equiv_pos_as_xyz
  1  'x, y, z'
loop_
 _atom_site_type_symbol
 _atom_site_label
 _atom_site_symmetry_multiplicity
 _atom_site_fract_x
 _atom_site_fract_y
 _atom_site_fract_z
 _atom_site_occupancy
  Mg  Mg0  1  0.16133948  0.82070426  0.25000000  1
  Mg  Mg1  1  0.67929574  0.33866052  0.25000000  1
  Mg  Mg2  1  0.66472154  0.83527846  0.25000000  1
  Mg  Mg3  1  0.33011595  0.66152868  0.75000000  1
  Mg  Mg4  1  0.83847132  0.16988405  0.75000000  1
  Mg  Mg5  1  0.83347791  0.66652209  0.75000000  1
  Ti  Ti6  1  0.16560977  0.33439023  0.25000000  1
  Bi  Bi7  1  0.32696829  0.17303171  0.75000000  1
