# generated using pymatgen
data_Sr2CaMoO6
_symmetry_space_group_name_H-M   'P 1'
_cell_length_a   5.81094659
_cell_length_b   6.13299019
_cell_length_c   8.33586347
_cell_angle_alpha   90.00000000
_cell_angle_beta   90.00000000
_cell_angle_gamma   90.00000000
_symmetry_Int_Tables_number   1
_chemical_formula_structural   Sr2CaMoO6
_chemical_formula_sum   'Sr4 Ca2 Mo2 O12'
_cell_volume   297.07749048
_cell_formula_units_Z   2
loop_
 _symmetry_equiv_pos_site_id
 _symmetry_equiv_pos_as_xyz
  1  'x, y, z'
loop_
 _atom_site_type_symbol
 _atom_site_label
 _atom_site_symmetry_multiplicity
 _atom_site_fract_x
 _atom_site_fract_y
 _atom_site_fract_z
 _atom_site_occupancy
  O  O0  1  0.50000000  0.51323778  0.73243859  1
  O  O1  1  0.50000000  0.51323778  0.26756141  1
  O  O2  1  0.00000000  0.94865140  0.76756290  1
  O  O3  1  0.00000000  0.94865140  0.23243710  1
  O  O4  1  0.74694870  0.29345709  0.50000000  1
  O  O5  1  0.25305130  0.29345709  0.50000000  1
  O  O6  1  0.73150239  0.73732336  0.50000000  1
  O  O7  1  0.26849761  0.73732336  0.50000000  1
  O  O8  1  0.24687895  0.16863120  0.00000000  1
  O  O9  1  0.75312105  0.16863120  0.00000000  1
  O  O10  1  0.76842507  0.72475536  0.00000000  1
  O  O11  1  0.23157493  0.72475536  0.00000000  1
  Ca  Ca12  1  0.00000000  0.00933673  0.50000000  1
  Ca  Ca13  1  0.50000000  0.45266386  0.00000000  1
  Sr  Sr14  1  0.50000000  0.92784676  0.76849141  1
  Sr  Sr15  1  0.00000000  0.53408438  0.26848725  1
  Sr  Sr16  1  0.50000000  0.92784676  0.23150859  1
  Sr  Sr17  1  0.00000000  0.53408438  0.73151275  1
  Mo  Mo18  1  0.50000000  0.49567115  0.50000000  1
  Mo  Mo19  1  0.00000000  0.96635360  0.00000000  1
