# generated using pymatgen
data_CaMnSb2
_symmetry_space_group_name_H-M   'P 1'
_cell_length_a   4.37691539
_cell_length_b   4.38323898
_cell_length_c   21.07593853
_cell_angle_alpha   90.00000000
_cell_angle_beta   90.00000000
_cell_angle_gamma   90.00000000
_symmetry_Int_Tables_number   1
_chemical_formula_structural   CaMnSb2
_chemical_formula_sum   'Ca4 Mn4 Sb8'
_cell_volume   404.34327486
_cell_formula_units_Z   4
loop_
 _symmetry_equiv_pos_site_id
 _symmetry_equiv_pos_as_xyz
  1  'x, y, z'
loop_
 _atom_site_type_symbol
 _atom_site_label
 _atom_site_symmetry_multiplicity
 _atom_site_fract_x
 _atom_site_fract_y
 _atom_site_fract_z
 _atom_site_occupancy
  Ca  Ca0  1  0.25000000  0.73591282  0.12008057  1
  Ca  Ca1  1  0.75000000  0.26408718  0.87991943  1
  Ca  Ca2  1  0.75000000  0.23591282  0.37991943  1
  Ca  Ca3  1  0.25000000  0.76408718  0.62008057  1
  Mn  Mn4  1  0.25000000  0.23495669  0.25011378  1
  Mn  Mn5  1  0.75000000  0.76504331  0.74988622  1
  Mn  Mn6  1  0.75000000  0.73495669  0.24988622  1
  Mn  Mn7  1  0.25000000  0.26504331  0.75011378  1
  Sb  Sb8  1  0.25000000  0.23352571  0.00074099  1
  Sb  Sb9  1  0.75000000  0.76647429  0.99925901  1
  Sb  Sb10  1  0.75000000  0.73352571  0.49925901  1
  Sb  Sb11  1  0.25000000  0.26647429  0.50074099  1
  Sb  Sb12  1  0.25000000  0.73516229  0.32507131  1
  Sb  Sb13  1  0.75000000  0.26483771  0.67492869  1
  Sb  Sb14  1  0.75000000  0.23516229  0.17492869  1
  Sb  Sb15  1  0.25000000  0.76483771  0.82507131  1
