# generated using pymatgen
data_TbMnSi
_symmetry_space_group_name_H-M   'P 1'
_cell_length_a   4.11376751
_cell_length_b   7.03176880
_cell_length_c   7.60152452
_cell_angle_alpha   90.00000000
_cell_angle_beta   90.00000000
_cell_angle_gamma   90.00000000
_symmetry_Int_Tables_number   1
_chemical_formula_structural   TbMnSi
_chemical_formula_sum   'Tb4 Mn4 Si4'
_cell_volume   219.88977129
_cell_formula_units_Z   4
loop_
 _symmetry_equiv_pos_site_id
 _symmetry_equiv_pos_as_xyz
  1  'x, y, z'
loop_
 _atom_site_type_symbol
 _atom_site_label
 _atom_site_symmetry_multiplicity
 _atom_site_fract_x
 _atom_site_fract_y
 _atom_site_fract_z
 _atom_site_occupancy
  Tb  Tb0  1  0.25000000  0.00751917  0.68562887  1
  Tb  Tb1  1  0.25000000  0.50751917  0.81437113  1
  Tb  Tb2  1  0.75000000  0.99248083  0.31437113  1
  Tb  Tb3  1  0.75000000  0.49248083  0.18562887  1
  Mn  Mn4  1  0.75000000  0.86342161  0.94153758  1
  Mn  Mn5  1  0.75000000  0.36342161  0.55846242  1
  Mn  Mn6  1  0.25000000  0.63657839  0.44153758  1
  Mn  Mn7  1  0.25000000  0.13657839  0.05846242  1
  Si  Si8  1  0.25000000  0.28886128  0.39173536  1
  Si  Si9  1  0.25000000  0.78886128  0.10826464  1
  Si  Si10  1  0.75000000  0.21113872  0.89173536  1
  Si  Si11  1  0.75000000  0.71113872  0.60826464  1
