# generated using pymatgen
data_KFeBr3
_symmetry_space_group_name_H-M   'P 1'
_cell_length_a   4.06626069
_cell_length_b   9.52606368
_cell_length_c   15.07700318
_cell_angle_alpha   90.00000000
_cell_angle_beta   90.00000000
_cell_angle_gamma   90.00000000
_symmetry_Int_Tables_number   1
_chemical_formula_structural   KFeBr3
_chemical_formula_sum   'K4 Fe4 Br12'
_cell_volume   584.01462755
_cell_formula_units_Z   4
loop_
 _symmetry_equiv_pos_site_id
 _symmetry_equiv_pos_as_xyz
  1  'x, y, z'
loop_
 _atom_site_type_symbol
 _atom_site_label
 _atom_site_symmetry_multiplicity
 _atom_site_fract_x
 _atom_site_fract_y
 _atom_site_fract_z
 _atom_site_occupancy
  K  K0  1  0.75000000  0.04876554  0.32514861  1
  K  K1  1  0.75000000  0.54876554  0.17485139  1
  K  K2  1  0.25000000  0.95123446  0.67485139  1
  K  K3  1  0.25000000  0.45123446  0.82514861  1
  Fe  Fe4  1  0.75000000  0.83818541  0.95010945  1
  Fe  Fe5  1  0.25000000  0.66181459  0.45010945  1
  Fe  Fe6  1  0.25000000  0.16181459  0.04989055  1
  Fe  Fe7  1  0.75000000  0.33818541  0.54989055  1
  Br  Br8  1  0.75000000  0.73619355  0.79637886  1
  Br  Br9  1  0.75000000  0.81928941  0.50702740  1
  Br  Br10  1  0.25000000  0.76380645  0.29637886  1
  Br  Br11  1  0.25000000  0.01911837  0.90270195  1
  Br  Br12  1  0.25000000  0.26380645  0.20362114  1
  Br  Br13  1  0.75000000  0.48088163  0.40270195  1
  Br  Br14  1  0.25000000  0.51911837  0.59729805  1
  Br  Br15  1  0.75000000  0.23619355  0.70362114  1
  Br  Br16  1  0.25000000  0.68071059  0.00702740  1
  Br  Br17  1  0.75000000  0.31928941  0.99297260  1
  Br  Br18  1  0.25000000  0.18071059  0.49297260  1
  Br  Br19  1  0.75000000  0.98088163  0.09729805  1
