# generated using pymatgen
data_Li2Bi(PO4)2
_symmetry_space_group_name_H-M   'P 1'
_cell_length_a   8.59387143
_cell_length_b   8.59297517
_cell_length_c   7.87490371
_cell_angle_alpha   90.06598963
_cell_angle_beta   90.01831993
_cell_angle_gamma   60.01467736
_symmetry_Int_Tables_number   1
_chemical_formula_structural   Li2Bi(PO4)2
_chemical_formula_sum   'Li6 Bi3 P6 O24'
_cell_volume   503.70028733
_cell_formula_units_Z   3
loop_
 _symmetry_equiv_pos_site_id
 _symmetry_equiv_pos_as_xyz
  1  'x, y, z'
loop_
 _atom_site_type_symbol
 _atom_site_label
 _atom_site_symmetry_multiplicity
 _atom_site_fract_x
 _atom_site_fract_y
 _atom_site_fract_z
 _atom_site_occupancy
  Li  Li0  1  0.31078620  0.02217220  0.63461999  1
  Li  Li1  1  0.66661224  0.66582318  0.49752784  1
  Li  Li2  1  1.00037781  0.00049909  0.38335502  1
  Li  Li3  1  0.66674834  0.31038725  0.63420395  1
  Li  Li4  1  0.02225899  0.66669925  0.63497947  1
  Li  Li5  1  0.33293219  0.33351292  0.46342579  1
  O  O6  1  0.57255583  0.29420667  0.41341991  1
  O  O7  1  0.88361510  0.59132364  0.24401312  1
  O  O8  1  0.94244320  0.85494840  0.23606460  1
  O  O9  1  0.07257488  0.15014622  0.77128728  1
  O  O10  1  0.08623654  0.43613252  0.74705725  1
  O  O11  1  0.26628552  0.15616345  0.08804760  1
  O  O12  1  0.29320164  0.13307804  0.41412323  1
  O  O13  1  0.13305721  0.57343981  0.41436911  1
  O  O14  1  0.15565108  0.57831284  0.08824747  1
  O  O15  1  0.47743615  0.08560434  0.74745552  1
  O  O16  1  0.15065977  0.77668072  0.77176222  1
  O  O17  1  0.75380779  0.82260631  0.61036681  1
  O  O18  1  0.20277895  0.94255308  0.23449099  1
  O  O19  1  0.43657163  0.47727076  0.74688163  1
  O  O20  1  0.57884886  0.26665817  0.08709834  1
  O  O21  1  0.41440770  0.73669235  0.93228376  1
  O  O22  1  0.42199009  0.75399681  0.60994989  1
  O  O23  1  0.77705633  0.07226675  0.76989434  1
  O  O24  1  0.59130050  0.52571238  0.24388890  1
  O  O25  1  0.85475483  0.20321009  0.23586036  1
  O  O26  1  0.52515977  0.88403435  0.24358432  1
  O  O27  1  0.82359630  0.42180880  0.61037594  1
  O  O28  1  0.84962077  0.41369551  0.93268386  1
  O  O29  1  0.73744588  0.84961093  0.93259191  1
  P  P30  1  0.35824582  0.68581987  0.75715413  1
  P  P31  1  0.64820922  0.31973464  0.24746169  1
  P  P32  1  0.95604449  0.35775396  0.75724974  1
  P  P33  1  0.31914718  0.03275142  0.24732732  1
  P  P34  1  0.68598577  0.95561251  0.75694395  1
  P  P35  1  0.03254832  0.64841294  0.24799506  1
  Bi  Bi36  1  0.99927256  1.00010738  -0.00056079  1
  Bi  Bi37  1  0.66698361  0.66686757  0.06321342  1
  Bi  Bi38  1  0.33347398  0.33347334  0.93856985  1
