# generated using pymatgen
data_H8PtN2(ClO)2
_symmetry_space_group_name_H-M   'P 1'
_cell_length_a   6.23891509
_cell_length_b   6.97108474
_cell_length_c   8.17828516
_cell_angle_alpha   90.00000000
_cell_angle_beta   105.94915945
_cell_angle_gamma   90.00000000
_symmetry_Int_Tables_number   1
_chemical_formula_structural   H8PtN2(ClO)2
_chemical_formula_sum   'H16 Pt2 N4 Cl4 O4'
_cell_volume   341.99805792
_cell_formula_units_Z   2
loop_
 _symmetry_equiv_pos_site_id
 _symmetry_equiv_pos_as_xyz
  1  'x, y, z'
loop_
 _atom_site_type_symbol
 _atom_site_label
 _atom_site_symmetry_multiplicity
 _atom_site_fract_x
 _atom_site_fract_y
 _atom_site_fract_z
 _atom_site_occupancy
  H  H0  1  0.66308245  0.26377175  0.43767718  1
  H  H1  1  0.33691755  0.76377175  0.06232282  1
  H  H2  1  0.33691755  0.73622825  0.56232282  1
  H  H3  1  0.66308245  0.23622825  0.93767718  1
  H  H4  1  0.86803227  0.16045092  0.37007009  1
  H  H5  1  0.13196773  0.66045092  0.12992991  1
  H  H6  1  0.13196773  0.83954908  0.62992991  1
  H  H7  1  0.86803227  0.33954908  0.87007009  1
  H  H8  1  0.88203354  0.16119202  0.57973161  1
  H  H9  1  0.11796646  0.66119202  0.92026839  1
  H  H10  1  0.11796646  0.83880798  0.42026839  1
  H  H11  1  0.88203354  0.33880798  0.07973161  1
  H  H12  1  0.18121458  0.38892939  0.28087314  1
  H  H13  1  0.81878542  0.88892939  0.21912686  1
  H  H14  1  0.18121458  0.11107061  0.78087314  1
  H  H15  1  0.81878542  0.61107061  0.71912686  1
  N  N16  1  0.83169112  0.24042927  0.46717693  1
  N  N17  1  0.16830888  0.74042927  0.03282307  1
  N  N18  1  0.16830888  0.75957073  0.53282307  1
  N  N19  1  0.83169112  0.25957073  0.96717693  1
  O  O20  1  0.05235623  0.47496080  0.26479142  1
  O  O21  1  0.94764377  0.97496080  0.23520858  1
  O  O22  1  0.94764377  0.52503920  0.73520858  1
  O  O23  1  0.05235623  0.02503920  0.76479142  1
  Cl  Cl24  1  0.33588374  0.33899547  0.61855833  1
  Cl  Cl25  1  0.66411626  0.83899547  0.88144167  1
  Cl  Cl26  1  0.66411626  0.66100453  0.38144167  1
  Cl  Cl27  1  0.33588374  0.16100453  0.11855833  1
  Pt  Pt28  1  0.00000000  0.50000000  0.50000000  1
  Pt  Pt29  1  0.00000000  0.00000000  0.00000000  1
