# generated using pymatgen
data_Li2CuPO4
_symmetry_space_group_name_H-M   'P 1'
_cell_length_a   6.13314119
_cell_length_b   10.91697819
_cell_length_c   5.16589375
_cell_angle_alpha   90.00000000
_cell_angle_beta   90.68140516
_cell_angle_gamma   90.00000000
_symmetry_Int_Tables_number   1
_chemical_formula_structural   Li2CuPO4
_chemical_formula_sum   'Li8 Cu4 P4 O16'
_cell_volume   345.85985978
_cell_formula_units_Z   4
loop_
 _symmetry_equiv_pos_site_id
 _symmetry_equiv_pos_as_xyz
  1  'x, y, z'
loop_
 _atom_site_type_symbol
 _atom_site_label
 _atom_site_symmetry_multiplicity
 _atom_site_fract_x
 _atom_site_fract_y
 _atom_site_fract_z
 _atom_site_occupancy
  Li  Li0  1  1.00135901  0.16448732  0.30370283  1
  Li  Li1  1  0.74405465  0.92748759  0.29859592  1
  Li  Li2  1  0.75594535  0.42748759  0.20140408  1
  Li  Li3  1  0.49864099  0.66448732  0.19629717  1
  Li  Li4  1  -0.00135901  0.83551268  0.69629717  1
  Li  Li5  1  0.25594535  0.07251241  0.70140408  1
  Li  Li6  1  0.24405465  0.57251241  0.79859592  1
  Li  Li7  1  0.50135901  0.33551268  0.80370283  1
  O  O8  1  0.75103059  0.95575100  0.68746180  1
  O  O9  1  0.76534633  0.08193342  0.10468213  1
  O  O10  1  0.96193718  0.15248864  0.69661742  1
  O  O11  1  0.25103059  0.54424900  0.18746180  1
  O  O12  1  0.04465944  0.34089718  0.21796555  1
  O  O13  1  0.74896941  0.45575100  0.81253820  1
  O  O14  1  0.23465367  0.91806658  0.89531787  1
  O  O15  1  0.24896941  0.04424900  0.31253820  1
  O  O16  1  0.03806282  0.84751136  0.30338258  1
  O  O17  1  0.26534633  0.41806658  0.60468213  1
  O  O18  1  0.46193718  0.34751136  0.19661742  1
  O  O19  1  0.45534056  0.84089718  0.28203445  1
  O  O20  1  0.54465944  0.15910282  0.71796555  1
  O  O21  1  0.53806282  0.65248864  0.80338258  1
  O  O22  1  0.73465367  0.58193342  0.39531787  1
  O  O23  1  0.95534056  0.65910282  0.78203445  1
  P  P24  1  0.24674282  0.91250144  0.19742093  1
  P  P25  1  0.25325718  0.41250144  0.30257907  1
  P  P26  1  0.74674282  0.58749856  0.69742093  1
  P  P27  1  0.75325718  0.08749856  0.80257907  1
  Cu  Cu28  1  0.50099855  0.17103592  0.28720145  1
  Cu  Cu29  1  0.49900145  0.82896408  0.71279855  1
  Cu  Cu30  1  0.99900145  0.67103592  0.21279855  1
  Cu  Cu31  1  0.00099855  0.32896408  0.78720145  1
