# generated using pymatgen
data_TiH12(NF2)4
_symmetry_space_group_name_H-M   'P 1'
_cell_length_a   5.51983718
_cell_length_b   11.04133926
_cell_length_c   13.81351195
_cell_angle_alpha   90.00000000
_cell_angle_beta   90.00000000
_cell_angle_gamma   90.00000000
_symmetry_Int_Tables_number   1
_chemical_formula_structural   TiH12(NF2)4
_chemical_formula_sum   'Ti4 H48 N16 F32'
_cell_volume   841.88375515
_cell_formula_units_Z   4
loop_
 _symmetry_equiv_pos_site_id
 _symmetry_equiv_pos_as_xyz
  1  'x, y, z'
loop_
 _atom_site_type_symbol
 _atom_site_label
 _atom_site_symmetry_multiplicity
 _atom_site_fract_x
 _atom_site_fract_y
 _atom_site_fract_z
 _atom_site_occupancy
  H  H0  1  0.50693647  0.10781456  0.55917617  1
  H  H1  1  0.00693647  0.39218544  0.44082383  1
  H  H2  1  0.99306353  0.10781456  0.94082383  1
  H  H3  1  0.49306353  0.39218544  0.05917617  1
  H  H4  1  0.49306353  0.89218544  0.44082383  1
  H  H5  1  0.99306353  0.60781456  0.55917617  1
  H  H6  1  0.00693647  0.89218544  0.05917617  1
  H  H7  1  0.50693647  0.60781456  0.94082383  1
  H  H8  1  0.28145423  0.00084745  0.56009505  1
  H  H9  1  0.78145423  0.49915255  0.43990495  1
  H  H10  1  0.21854577  0.00084745  0.93990495  1
  H  H11  1  0.71854577  0.49915255  0.06009505  1
  H  H12  1  0.71854577  0.99915255  0.43990495  1
  H  H13  1  0.21854577  0.50084745  0.56009505  1
  H  H14  1  0.78145423  0.99915255  0.06009505  1
  H  H15  1  0.28145423  0.50084745  0.93990495  1
  H  H16  1  0.39542435  0.05655442  0.66662087  1
  H  H17  1  0.89542435  0.44344558  0.33337913  1
  H  H18  1  0.10457565  0.05655442  0.83337913  1
  H  H19  1  0.60457565  0.44344558  0.16662087  1
  H  H20  1  0.60457565  0.94344558  0.33337913  1
  H  H21  1  0.10457565  0.55655442  0.66662087  1
  H  H22  1  0.89542435  0.94344558  0.16662087  1
  H  H23  1  0.39542435  0.55655442  0.83337913  1
  H  H24  1  0.22897968  0.25345305  0.55916135  1
  H  H25  1  0.72897968  0.24654695  0.44083865  1
  H  H26  1  0.27102032  0.25345305  0.94083865  1
  H  H27  1  0.77102032  0.24654695  0.05916135  1
  H  H28  1  0.77102032  0.74654695  0.44083865  1
  H  H29  1  0.27102032  0.75345305  0.55916135  1
  H  H30  1  0.72897968  0.74654695  0.05916135  1
  H  H31  1  0.22897968  0.75345305  0.94083865  1
  H  H32  1  0.00643975  0.14443087  0.55748904  1
  H  H33  1  0.50643975  0.35556913  0.44251096  1
  H  H34  1  0.49356025  0.14443087  0.94251096  1
  H  H35  1  0.99356025  0.35556913  0.05748904  1
  H  H36  1  0.99356025  0.85556913  0.44251096  1
  H  H37  1  0.49356025  0.64443087  0.55748904  1
  H  H38  1  0.50643975  0.85556913  0.05748904  1
  H  H39  1  0.00643975  0.64443087  0.94251096  1
  H  H40  1  0.11658478  0.19788433  0.66551920  1
  H  H41  1  0.61658478  0.30211567  0.33448080  1
  H  H42  1  0.38341522  0.19788433  0.83448080  1
  H  H43  1  0.88341522  0.30211567  0.16551920  1
  H  H44  1  0.88341522  0.80211567  0.33448080  1
  H  H45  1  0.38341522  0.69788433  0.66551920  1
  H  H46  1  0.61658478  0.80211567  0.16551920  1
  H  H47  1  0.11658478  0.69788433  0.83448080  1
  N  N48  1  0.34755209  0.07977601  0.59539112  1
  N  N49  1  0.84755209  0.42022399  0.40460888  1
  N  N50  1  0.15244791  0.07977601  0.90460888  1
  N  N51  1  0.65244791  0.42022399  0.09539112  1
  N  N52  1  0.65244791  0.92022399  0.40460888  1
  N  N53  1  0.15244791  0.57977601  0.59539112  1
  N  N54  1  0.84755209  0.92022399  0.09539112  1
  N  N55  1  0.34755209  0.57977601  0.90460888  1
  N  N56  1  0.16566266  0.17422206  0.59468681  1
  N  N57  1  0.66566266  0.32577794  0.40531319  1
  N  N58  1  0.33433734  0.17422206  0.90531319  1
  N  N59  1  0.83433734  0.32577794  0.09468681  1
  N  N60  1  0.83433734  0.82577794  0.40531319  1
  N  N61  1  0.33433734  0.67422206  0.59468681  1
  N  N62  1  0.66566266  0.82577794  0.09468681  1
  N  N63  1  0.16566266  0.67422206  0.90531319  1
  F  F64  1  0.76833619  0.12205379  0.50021488  1
  F  F65  1  0.26833619  0.37794621  0.49978512  1
  F  F66  1  0.73166381  0.12205379  0.99978512  1
  F  F67  1  0.23166381  0.37794621  0.00021488  1
  F  F68  1  0.23166381  0.87794621  0.49978512  1
  F  F69  1  0.73166381  0.62205379  0.50021488  1
  F  F70  1  0.26833619  0.87794621  0.00021488  1
  F  F71  1  0.76833619  0.62205379  0.99978512  1
  F  F72  1  0.51040087  0.25369233  0.73088618  1
  F  F73  1  0.01040087  0.24630767  0.26911382  1
  F  F74  1  0.98959913  0.25369233  0.76911382  1
  F  F75  1  0.48959913  0.24630767  0.23088618  1
  F  F76  1  0.48959913  0.74630767  0.26911382  1
  F  F77  1  0.98959913  0.75369233  0.73088618  1
  F  F78  1  0.01040087  0.74630767  0.23088618  1
  F  F79  1  0.51040087  0.75369233  0.76911382  1
  F  F80  1  0.51141518  0.49744117  0.73061355  1
  F  F81  1  0.01141518  0.00255883  0.26938645  1
  F  F82  1  0.98858482  0.49744117  0.76938645  1
  F  F83  1  0.48858482  0.00255883  0.23061355  1
  F  F84  1  0.48858482  0.50255883  0.26938645  1
  F  F85  1  0.98858482  0.99744117  0.73061355  1
  F  F86  1  0.01141518  0.50255883  0.23061355  1
  F  F87  1  0.51141518  0.99744117  0.76938645  1
  F  F88  1  0.82265677  0.37439431  0.61698568  1
  F  F89  1  0.32265677  0.12560569  0.38301432  1
  F  F90  1  0.67734323  0.37439431  0.88301432  1
  F  F91  1  0.17734323  0.12560569  0.11698568  1
  F  F92  1  0.17734323  0.62560569  0.38301432  1
  F  F93  1  0.67734323  0.87439431  0.61698568  1
  F  F94  1  0.32265677  0.62560569  0.11698568  1
  F  F95  1  0.82265677  0.87439431  0.88301432  1
  Ti  Ti96  1  0.75000000  0.37525395  0.75000000  1
  Ti  Ti97  1  0.25000000  0.12474605  0.25000000  1
  Ti  Ti98  1  0.25000000  0.62474605  0.25000000  1
  Ti  Ti99  1  0.75000000  0.87525395  0.75000000  1
