# generated using pymatgen
data_UVO5
_symmetry_space_group_name_H-M   'P 1'
_cell_length_a   4.12193800
_cell_length_b   7.26753660
_cell_length_c   12.63726806
_cell_angle_alpha   90.00000000
_cell_angle_beta   90.00000000
_cell_angle_gamma   90.00000000
_symmetry_Int_Tables_number   1
_chemical_formula_structural   UVO5
_chemical_formula_sum   'U4 V4 O20'
_cell_volume   378.56623900
_cell_formula_units_Z   4
loop_
 _symmetry_equiv_pos_site_id
 _symmetry_equiv_pos_as_xyz
  1  'x, y, z'
loop_
 _atom_site_type_symbol
 _atom_site_label
 _atom_site_symmetry_multiplicity
 _atom_site_fract_x
 _atom_site_fract_y
 _atom_site_fract_z
 _atom_site_occupancy
  O  O0  1  0.01368749  0.44811459  0.40444537  1
  O  O1  1  0.01368749  0.55188557  0.09555468  1
  O  O2  1  0.98631323  0.94811468  0.59555473  1
  O  O3  1  0.98631323  0.05188549  0.90444543  1
  O  O4  1  0.98631323  0.55188557  0.59555473  1
  O  O5  1  0.98631323  0.44811459  0.90444543  1
  O  O6  1  0.01368749  0.05188549  0.40444537  1
  O  O7  1  0.01368749  0.94811468  0.09555468  1
  O  O8  1  0.50850573  0.75000012  0.97318436  1
  O  O9  1  0.50850573  0.25000004  0.52681500  1
  O  O10  1  0.49149499  0.25000004  0.02681575  1
  O  O11  1  0.49149499  0.75000012  0.47318431  1
  O  O12  1  0.49970974  0.00000000  0.74999968  1
  O  O13  1  0.50028857  0.50000008  0.24999962  1
  O  O14  1  0.00374272  0.75000012  0.30243626  1
  O  O15  1  0.49970974  0.50000008  0.74999968  1
  O  O16  1  0.99625800  0.75000012  0.80243631  1
  O  O17  1  0.99625800  0.25000004  0.69756385  1
  O  O18  1  0.00374272  0.25000004  0.19756379  1
  O  O19  1  0.50028857  0.00000000  0.24999962  1
  V  V20  1  0.90089680  0.50000008  0.74999968  1
  V  V21  1  0.09910391  0.00000000  0.24999962  1
  V  V22  1  0.09910391  0.50000008  0.24999962  1
  V  V23  1  0.90089680  0.00000000  0.74999968  1
  U  U24  1  0.99143840  0.75000012  0.47227612  1
  U  U25  1  0.99143840  0.25000004  0.02772394  1
  U  U26  1  0.00856231  0.25000004  0.52772399  1
  U  U27  1  0.00856231  0.75000012  0.97227617  1
