# generated using pymatgen
data_Li3Ti2(PO4)3
_symmetry_space_group_name_H-M   'P 1'
_cell_length_a   9.07267399
_cell_length_b   9.07267355
_cell_length_c   9.07267328
_cell_angle_alpha   55.84949800
_cell_angle_beta   55.84949988
_cell_angle_gamma   55.84949845
_symmetry_Int_Tables_number   1
_chemical_formula_structural   Li3Ti2(PO4)3
_chemical_formula_sum   'Li6 Ti4 P6 O24'
_cell_volume   477.25849125
_cell_formula_units_Z   2
loop_
 _symmetry_equiv_pos_site_id
 _symmetry_equiv_pos_as_xyz
  1  'x, y, z'
loop_
 _atom_site_type_symbol
 _atom_site_label
 _atom_site_symmetry_multiplicity
 _atom_site_fract_x
 _atom_site_fract_y
 _atom_site_fract_z
 _atom_site_occupancy
  Li  Li0  1  0.26435492  0.92233403  0.66184007  1
  Li  Li1  1  0.92233403  0.66184007  0.26435492  1
  Li  Li2  1  0.07766597  0.33815893  0.73564508  1
  Li  Li3  1  0.73564508  0.07766597  0.33815893  1
  Li  Li4  1  0.33815893  0.73564508  0.07766597  1
  Li  Li5  1  0.66184007  0.26435492  0.92233403  1
  Ti  Ti6  1  0.85349916  0.85349916  0.85349916  1
  Ti  Ti7  1  0.65170813  0.65170813  0.65170813  1
  Ti  Ti8  1  0.14650084  0.14650084  0.14650084  1
  Ti  Ti9  1  0.34829187  0.34829187  0.34829187  1
  P  P10  1  0.74982620  0.45907105  0.04192251  1
  P  P11  1  0.54092895  0.95807749  0.25017380  1
  P  P12  1  0.45907105  0.04192251  0.74982620  1
  P  P13  1  0.95807749  0.25017380  0.54092895  1
  P  P14  1  0.25017380  0.54092895  0.95807749  1
  P  P15  1  0.04192251  0.74982620  0.45907105  1
  O  O16  1  0.80363054  0.61178331  0.00448331  1
  O  O17  1  0.20741321  0.53917816  0.15377631  1
  O  O18  1  0.53469593  0.49423153  0.16460250  1
  O  O19  1  0.19636946  0.38821669  0.99551669  1
  O  O20  1  0.12688053  0.74506026  0.86017765  1
  O  O21  1  0.87311947  0.25493974  0.13982235  1
  O  O22  1  0.99551669  0.19636946  0.38821669  1
  O  O23  1  0.15377631  0.20741321  0.53917816  1
  O  O24  1  0.61178331  0.00448331  0.80363054  1
  O  O25  1  0.46530407  0.50576847  0.83539750  1
  O  O26  1  0.84622369  0.79258679  0.46082184  1
  O  O27  1  0.74506026  0.86017765  0.12688053  1
  O  O28  1  0.83539750  0.46530407  0.50576847  1
  O  O29  1  0.79258679  0.46082184  0.84622369  1
  O  O30  1  0.53917816  0.15377631  0.20741321  1
  O  O31  1  0.25493974  0.13982235  0.87311947  1
  O  O32  1  0.46082184  0.84622369  0.79258679  1
  O  O33  1  0.38821669  0.99551669  0.19636946  1
  O  O34  1  0.16460250  0.53469593  0.49423153  1
  O  O35  1  0.86017765  0.12688053  0.74506026  1
  O  O36  1  0.13982235  0.87311947  0.25493974  1
  O  O37  1  0.49423153  0.16460250  0.53469593  1
  O  O38  1  0.00448331  0.80363054  0.61178331  1
  O  O39  1  0.50576847  0.83539750  0.46530407  1
