# generated using pymatgen
data_LiNb(PO3)4
_symmetry_space_group_name_H-M   'P 1'
_cell_length_a   13.17201375
_cell_length_b   8.36110899
_cell_length_c   9.79478674
_cell_angle_alpha   90.00000000
_cell_angle_beta   90.00000000
_cell_angle_gamma   90.00000000
_symmetry_Int_Tables_number   1
_chemical_formula_structural   LiNb(PO3)4
_chemical_formula_sum   'Li4 Nb4 P16 O48'
_cell_volume   1078.72574720
_cell_formula_units_Z   4
loop_
 _symmetry_equiv_pos_site_id
 _symmetry_equiv_pos_as_xyz
  1  'x, y, z'
loop_
 _atom_site_type_symbol
 _atom_site_label
 _atom_site_symmetry_multiplicity
 _atom_site_fract_x
 _atom_site_fract_y
 _atom_site_fract_z
 _atom_site_occupancy
  Li  Li0  1  -0.00000000  0.99484716  0.75000000  1
  Li  Li1  1  -0.00000000  0.00515284  0.25000000  1
  Li  Li2  1  0.50000000  0.50515284  0.25000000  1
  Li  Li3  1  0.50000000  0.49484716  0.75000000  1
  Nb  Nb4  1  -0.00000000  0.62957711  0.25000000  1
  Nb  Nb5  1  0.50000000  0.12957711  0.25000000  1
  Nb  Nb6  1  -0.00000000  0.37042289  0.75000000  1
  Nb  Nb7  1  0.50000000  0.87042289  0.75000000  1
  P  P8  1  0.36125962  0.32308657  0.00196887  1
  P  P9  1  0.86126062  0.82308657  0.49803113  1
  P  P10  1  0.84599925  0.53543620  0.99129301  1
  P  P11  1  0.63873938  0.32308657  0.49803113  1
  P  P12  1  0.15400075  0.53543620  0.50870699  1
  P  P13  1  0.15400075  0.46456380  0.00870699  1
  P  P14  1  0.86126062  0.17691343  0.99803113  1
  P  P15  1  0.65400075  0.96456380  0.49129301  1
  P  P16  1  0.84599925  0.46456380  0.49129301  1
  P  P17  1  0.13874038  0.17691343  0.50196887  1
  P  P18  1  0.34599925  0.03543620  0.50870699  1
  P  P19  1  0.63873938  0.67691343  0.99803113  1
  P  P20  1  0.34599925  0.96456380  0.00870699  1
  P  P21  1  0.65400075  0.03543620  0.99129301  1
  P  P22  1  0.36125962  0.67691343  0.50196887  1
  P  P23  1  0.13874038  0.82308657  0.00196887  1
  O  O24  1  0.62690896  0.86892325  0.61652115  1
  O  O25  1  0.39494049  0.59534501  0.37601006  1
  O  O26  1  0.10505951  0.90465499  0.87601006  1
  O  O27  1  0.07811170  0.53969096  0.62355085  1
  O  O28  1  0.60505951  0.59534501  0.12398994  1
  O  O29  1  0.10505951  0.09534501  0.37601006  1
  O  O30  1  0.42188830  0.96030904  0.12355085  1
  O  O31  1  0.62690896  0.13107675  0.11652115  1
  O  O32  1  0.92188830  0.46030904  0.37644915  1
  O  O33  1  0.32064056  0.14510173  0.96617167  1
  O  O34  1  0.24072388  0.90115413  0.06692988  1
  O  O35  1  0.17935944  0.64510173  0.96617167  1
  O  O36  1  0.37309104  0.13107675  0.38347885  1
  O  O37  1  0.93186502  0.18479054  0.87496937  1
  O  O38  1  0.12690896  0.36892325  0.88347885  1
  O  O39  1  0.25927612  0.59884587  0.56692988  1
  O  O40  1  0.93186502  0.81520946  0.37496937  1
  O  O41  1  0.24072388  0.09884587  0.56692988  1
  O  O42  1  0.75927612  0.90115413  0.43307012  1
  O  O43  1  0.37309104  0.86892325  0.88347885  1
  O  O44  1  0.25927612  0.40115413  0.06692988  1
  O  O45  1  0.17935944  0.35489827  0.46617167  1
  O  O46  1  0.92188830  0.53969096  0.87644915  1
  O  O47  1  0.74072388  0.40115413  0.43307012  1
  O  O48  1  0.42188830  0.03969096  0.62355085  1
  O  O49  1  0.74072388  0.59884587  0.93307012  1
  O  O50  1  0.06813498  0.81520946  0.12503063  1
  O  O51  1  0.32064056  0.85489827  0.46617167  1
  O  O52  1  0.56813498  0.68479054  0.87496937  1
  O  O53  1  0.67935944  0.85489827  0.03382833  1
  O  O54  1  0.87309104  0.63107675  0.11652115  1
  O  O55  1  0.60505951  0.40465499  0.62398994  1
  O  O56  1  0.43186502  0.31520946  0.12503063  1
  O  O57  1  0.43186502  0.68479054  0.62503063  1
  O  O58  1  0.89494049  0.09534501  0.12398994  1
  O  O59  1  0.57811170  0.96030904  0.37644915  1
  O  O60  1  0.39494049  0.40465499  0.87601006  1
  O  O61  1  0.67935944  0.14510173  0.53382833  1
  O  O62  1  0.07811170  0.46030904  0.12355085  1
  O  O63  1  0.82064056  0.64510173  0.53382833  1
  O  O64  1  0.75927612  0.09884587  0.93307012  1
  O  O65  1  0.89494049  0.90465499  0.62398994  1
  O  O66  1  0.06813498  0.18479054  0.62503063  1
  O  O67  1  0.57811170  0.03969096  0.87644915  1
  O  O68  1  0.87309104  0.36892325  0.61652115  1
  O  O69  1  0.82064056  0.35489827  0.03382833  1
  O  O70  1  0.12690896  0.63107675  0.38347885  1
  O  O71  1  0.56813498  0.31520946  0.37496937  1
