# generated using pymatgen
data_Li3Ti2(PO4)3
_symmetry_space_group_name_H-M   'P 1'
_cell_length_a   8.52445951
_cell_length_b   8.90584025
_cell_length_c   12.12409637
_cell_angle_alpha   89.94763674
_cell_angle_beta   88.90101767
_cell_angle_gamma   90.04620770
_symmetry_Int_Tables_number   1
_chemical_formula_structural   Li3Ti2(PO4)3
_chemical_formula_sum   'Li12 Ti8 P12 O48'
_cell_volume   920.26077083
_cell_formula_units_Z   4
loop_
 _symmetry_equiv_pos_site_id
 _symmetry_equiv_pos_as_xyz
  1  'x, y, z'
loop_
 _atom_site_type_symbol
 _atom_site_label
 _atom_site_symmetry_multiplicity
 _atom_site_fract_x
 _atom_site_fract_y
 _atom_site_fract_z
 _atom_site_occupancy
  Li  Li0  1  0.93565581  0.48807009  0.34743885  1
  Li  Li1  1  0.41670601  0.58569360  0.18744968  1
  Li  Li2  1  0.43560993  0.01193078  0.84740739  1
  Li  Li3  1  0.91669939  0.91427742  0.68742459  1
  Li  Li4  1  0.06434419  0.51192991  0.65256115  1
  Li  Li5  1  0.17940666  0.78228602  0.82208379  1
  Li  Li6  1  0.32062824  0.28233765  0.67789139  1
  Li  Li7  1  0.67937176  0.71766235  0.32210861  1
  Li  Li8  1  0.56439007  0.98806922  0.15259261  1
  Li  Li9  1  0.58329399  0.41430640  0.81255032  1
  Li  Li10  1  0.08330061  0.08572258  0.31257541  1
  Li  Li11  1  0.82059334  0.21771398  0.17791621  1
  Ti  Ti12  1  0.24264349  0.02583002  0.10440794  1
  Ti  Ti13  1  0.74262563  0.47416248  0.60440229  1
  Ti  Ti14  1  0.25632138  0.96404347  0.60469691  1
  Ti  Ti15  1  0.75735651  0.97416998  0.89559206  1
  Ti  Ti16  1  0.75629180  0.53600810  0.10462072  1
  Ti  Ti17  1  0.25737437  0.52583752  0.39559771  1
  Ti  Ti18  1  0.74367862  0.03595653  0.39530309  1
  Ti  Ti19  1  0.24370820  0.46399190  0.89537928  1
  P  P20  1  0.38764865  0.88039266  0.34527463  1
  P  P21  1  0.95822020  0.75001987  0.49050423  1
  P  P22  1  0.88768877  0.61952500  0.84523187  1
  P  P23  1  0.11508764  0.10922736  0.84941283  1
  P  P24  1  0.61506088  0.39069465  0.34943979  1
  P  P25  1  0.38493912  0.60930535  0.65056021  1
  P  P26  1  0.54183761  0.25008134  0.00934499  1
  P  P27  1  0.88491236  0.89077264  0.15058717  1
  P  P28  1  0.04177980  0.24998013  0.50949577  1
  P  P29  1  0.61235135  0.11960734  0.65472537  1
  P  P30  1  0.11231123  0.38047500  0.15476813  1
  P  P31  1  0.45816239  0.74991866  0.99065501  1
  O  O32  1  0.62352868  0.29235995  0.67273950  1
  O  O33  1  0.59784367  0.13872204  0.91769634  1
  O  O34  1  0.67382174  0.23434871  0.31184782  1
  O  O35  1  0.44696852  0.39058387  0.39654954  1
  O  O36  1  0.23398295  0.04408762  0.93382523  1
  O  O37  1  0.55788080  0.83340317  0.90137755  1
  O  O38  1  0.04991123  0.87132716  0.55285715  1
  O  O39  1  0.45011086  0.37130555  0.94708672  1
  O  O40  1  0.87551252  0.00394820  0.25053428  1
  O  O41  1  0.26604250  0.54407345  0.56614600  1
  O  O42  1  0.31120850  0.68032760  0.93680603  1
  O  O43  1  0.05783089  0.66666471  0.40145119  1
  O  O44  1  0.62456297  0.50399204  0.24940397  1
  O  O45  1  0.22860718  0.47117267  0.22362306  1
  O  O46  1  0.05300371  0.89057504  0.10346542  1
  O  O47  1  0.12348668  0.20768604  0.17274053  1
  O  O48  1  0.76601705  0.95591238  0.06617477  1
  O  O49  1  0.81118186  0.81966728  0.43679189  1
  O  O50  1  0.54988914  0.62869445  0.05291328  1
  O  O51  1  0.94699629  0.10942496  0.89653458  1
  O  O52  1  0.44211920  0.16659683  0.09862245  1
  O  O53  1  0.06052417  0.57794786  0.81118125  1
  O  O54  1  0.87651332  0.79231396  0.82725947  1
  O  O55  1  0.68879150  0.31967240  0.06319397  1
  O  O56  1  0.13956468  0.41428284  0.03087858  1
  O  O57  1  0.40215633  0.86127796  0.08230366  1
  O  O58  1  0.95008877  0.12867284  0.44714285  1
  O  O59  1  0.12448748  0.99605180  0.74946572  1
  O  O60  1  0.86043532  0.58571716  0.96912142  1
  O  O61  1  0.36042940  0.91411851  0.46912247  1
  O  O62  1  0.72855070  0.02885687  0.72360851  1
  O  O63  1  0.90209651  0.63860467  0.58234760  1
  O  O64  1  0.43944645  0.07788528  0.68885834  1
  O  O65  1  0.18881814  0.18033272  0.56320811  1
  O  O66  1  0.93947583  0.42205214  0.18881875  1
  O  O67  1  0.56055355  0.92211472  0.31114166  1
  O  O68  1  0.63957060  0.08588149  0.53087753  1
  O  O69  1  0.27144930  0.97114313  0.27639149  1
  O  O70  1  0.32617826  0.76565129  0.68815218  1
  O  O71  1  0.82608627  0.73424991  0.18819856  1
  O  O72  1  0.37543703  0.49600796  0.75059603  1
  O  O73  1  0.77139282  0.52882733  0.77637694  1
  O  O74  1  0.17391373  0.26575009  0.81180144  1
  O  O75  1  0.37647132  0.70764005  0.32726050  1
  O  O76  1  0.09790349  0.36139533  0.41765240  1
  O  O77  1  0.94216911  0.33333529  0.59854881  1
  O  O78  1  0.55303148  0.60941613  0.60345046  1
  O  O79  1  0.73395750  0.45592655  0.43385400  1
