# generated using pymatgen
data_P4(SeO2)3
_symmetry_space_group_name_H-M   'P 1'
_cell_length_a   8.89458369
_cell_length_b   10.26143304
_cell_length_c   13.29265540
_cell_angle_alpha   90.37393950
_cell_angle_beta   90.00000000
_cell_angle_gamma   90.00000000
_symmetry_Int_Tables_number   1
_chemical_formula_structural   P4(SeO2)3
_chemical_formula_sum   'P16 Se12 O24'
_cell_volume   1213.21043738
_cell_formula_units_Z   4
loop_
 _symmetry_equiv_pos_site_id
 _symmetry_equiv_pos_as_xyz
  1  'x, y, z'
loop_
 _atom_site_type_symbol
 _atom_site_label
 _atom_site_symmetry_multiplicity
 _atom_site_fract_x
 _atom_site_fract_y
 _atom_site_fract_z
 _atom_site_occupancy
  O  O0  1  0.13719378  0.97832410  0.19693418  1
  O  O1  1  0.63719378  0.52167590  0.80306582  1
  O  O2  1  0.86280622  0.02167590  0.80306582  1
  O  O3  1  0.36280622  0.47832410  0.19693418  1
  O  O4  1  0.87911894  0.91613427  0.26672270  1
  O  O5  1  0.37911894  0.58386573  0.73327730  1
  O  O6  1  0.12088106  0.08386573  0.73327730  1
  O  O7  1  0.62088106  0.41613427  0.26672270  1
  O  O8  1  0.07630706  0.02120730  0.38229034  1
  O  O9  1  0.57630706  0.47879270  0.61770966  1
  O  O10  1  0.92369294  0.97879270  0.61770966  1
  O  O11  1  0.42369294  0.52120730  0.38229034  1
  O  O12  1  0.15543563  0.85273089  0.66974304  1
  O  O13  1  0.65543563  0.64726911  0.33025696  1
  O  O14  1  0.10068162  0.20905450  0.26061764  1
  O  O15  1  0.60068162  0.29094550  0.73938236  1
  O  O16  1  0.89931838  0.79094550  0.73938236  1
  O  O17  1  0.39931838  0.70905450  0.26061764  1
  O  O18  1  0.90510042  0.10565956  0.14629449  1
  O  O19  1  0.34456437  0.35273089  0.66974304  1
  O  O20  1  0.40510042  0.39434044  0.85370551  1
  O  O21  1  0.09489958  0.89434044  0.85370551  1
  O  O22  1  0.59489958  0.60565956  0.14629449  1
  O  O23  1  0.84456437  0.14726911  0.33025696  1
  P  P24  1  0.43802265  0.40068266  0.29614023  1
  P  P25  1  0.93802265  0.09931734  0.70385977  1
  P  P26  1  0.56197735  0.59931734  0.70385977  1
  P  P27  1  0.06197735  0.90068266  0.29614023  1
  P  P28  1  0.51907373  0.33012350  0.63321480  1
  P  P29  1  0.98092627  0.83012350  0.63321480  1
  P  P30  1  0.48092627  0.66987650  0.36678520  1
  P  P31  1  0.58840478  0.37866325  0.84332491  1
  P  P32  1  0.91159522  0.87866325  0.84332491  1
  P  P33  1  0.41159522  0.62133675  0.15667509  1
  P  P34  1  0.79612897  0.05107024  0.23637977  1
  P  P35  1  0.29612897  0.44892976  0.76362023  1
  P  P36  1  0.20387103  0.94892976  0.76362023  1
  P  P37  1  0.70387103  0.55107024  0.23637977  1
  P  P38  1  0.08840478  0.12133675  0.15667509  1
  P  P39  1  0.01907373  0.16987650  0.36678520  1
  Se  Se40  1  0.69857740  0.30583238  0.96457060  1
  Se  Se41  1  0.19857740  0.19416762  0.03542940  1
  Se  Se42  1  0.30142260  0.69416762  0.03542940  1
  Se  Se43  1  0.80142260  0.80583238  0.96457060  1
  Se  Se44  1  0.05066420  0.29826485  0.48278850  1
  Se  Se45  1  0.55066420  0.20173515  0.51721150  1
  Se  Se46  1  0.94933580  0.70173515  0.51721150  1
  Se  Se47  1  0.44933580  0.79826485  0.48278850  1
  Se  Se48  1  0.57280890  0.04195330  0.20284551  1
  Se  Se49  1  0.07280890  0.45804670  0.79715449  1
  Se  Se50  1  0.42719110  0.95804670  0.79715449  1
  Se  Se51  1  0.92719110  0.54195330  0.20284551  1
