# generated using pymatgen
data_W3Br8
_symmetry_space_group_name_H-M   'P 1'
_cell_length_a   10.00514551
_cell_length_b   10.00514551
_cell_length_c   14.81694695
_cell_angle_alpha   90.00000000
_cell_angle_beta   90.00000000
_cell_angle_gamma   100.47497050
_symmetry_Int_Tables_number   1
_chemical_formula_structural   W3Br8
_chemical_formula_sum   'W12 Br32'
_cell_volume   1458.50118682
_cell_formula_units_Z   4
loop_
 _symmetry_equiv_pos_site_id
 _symmetry_equiv_pos_as_xyz
  1  'x, y, z'
loop_
 _atom_site_type_symbol
 _atom_site_label
 _atom_site_symmetry_multiplicity
 _atom_site_fract_x
 _atom_site_fract_y
 _atom_site_fract_z
 _atom_site_occupancy
  Br  Br0  1  0.04323990  0.95676010  0.43194351  1
  Br  Br1  1  0.45676010  0.54323990  0.93194351  1
  Br  Br2  1  0.95676010  0.04323990  0.56805649  1
  Br  Br3  1  0.54323990  0.45676010  0.06805649  1
  Br  Br4  1  0.65900532  0.34099468  0.23930767  1
  Br  Br5  1  0.84099468  0.15900532  0.73930767  1
  Br  Br6  1  0.34099468  0.65900532  0.76069233  1
  Br  Br7  1  0.15900532  0.84099468  0.26069233  1
  Br  Br8  1  0.57689156  0.91229200  0.38404900  1
  Br  Br9  1  0.92310844  0.58770800  0.88404900  1
  Br  Br10  1  0.91229200  0.57689156  0.61595100  1
  Br  Br11  1  0.58770800  0.92310844  0.11595100  1
  Br  Br12  1  0.27300144  0.13421479  0.10860181  1
  Br  Br13  1  0.22699856  0.36578521  0.60860181  1
  Br  Br14  1  0.13421479  0.27300144  0.89139819  1
  Br  Br15  1  0.36578521  0.22699856  0.39139819  1
  Br  Br16  1  0.72699856  0.86578521  0.89139819  1
  Br  Br17  1  0.77300144  0.63421479  0.39139819  1
  Br  Br18  1  0.86578521  0.72699856  0.10860181  1
  Br  Br19  1  0.63421479  0.77300144  0.60860181  1
  Br  Br20  1  0.07459895  0.92540105  0.79508744  1
  Br  Br21  1  0.42540105  0.57459895  0.29508744  1
  Br  Br22  1  0.92540105  0.07459895  0.20491256  1
  Br  Br23  1  0.57459895  0.42540105  0.70491256  1
  Br  Br24  1  0.21004437  0.78995563  0.01367493  1
  Br  Br25  1  0.28995563  0.71004437  0.51367493  1
  Br  Br26  1  0.78995563  0.21004437  0.98632507  1
  Br  Br27  1  0.71004437  0.28995563  0.48632507  1
  Br  Br28  1  0.41229200  0.07689156  0.88404900  1
  Br  Br29  1  0.08770800  0.42310844  0.38404900  1
  Br  Br30  1  0.07689156  0.41229200  0.11595100  1
  Br  Br31  1  0.42310844  0.08770800  0.61595100  1
  W  W32  1  0.56940111  0.43059889  0.38741146  1
  W  W33  1  0.93059889  0.06940111  0.88741146  1
  W  W34  1  0.43059889  0.56940111  0.61258854  1
  W  W35  1  0.06940111  0.93059889  0.11258854  1
  W  W36  1  0.53129955  0.67463104  0.45143920  1
  W  W37  1  0.96870045  0.82536896  0.95143920  1
  W  W38  1  0.67463104  0.53129955  0.54856080  1
  W  W39  1  0.82536896  0.96870045  0.04856080  1
  W  W40  1  0.46870045  0.32536896  0.54856080  1
  W  W41  1  0.03129955  0.17463104  0.04856080  1
  W  W42  1  0.32536896  0.46870045  0.45143920  1
  W  W43  1  0.17463104  0.03129955  0.95143920  1
