# generated using pymatgen
data_RbCO3
_symmetry_space_group_name_H-M   'P 1'
_cell_length_a   7.87814382
_cell_length_b   8.04467865
_cell_length_c   10.71095946
_cell_angle_alpha   90.00000000
_cell_angle_beta   90.00000000
_cell_angle_gamma   101.50483664
_symmetry_Int_Tables_number   1
_chemical_formula_structural   RbCO3
_chemical_formula_sum   'Rb8 C8 O24'
_cell_volume   665.19078928
_cell_formula_units_Z   8
loop_
 _symmetry_equiv_pos_site_id
 _symmetry_equiv_pos_as_xyz
  1  'x, y, z'
loop_
 _atom_site_type_symbol
 _atom_site_label
 _atom_site_symmetry_multiplicity
 _atom_site_fract_x
 _atom_site_fract_y
 _atom_site_fract_z
 _atom_site_occupancy
  C  C0  1  0.81428352  0.03668219  0.77450901  1
  C  C1  1  0.31428352  0.03668219  0.72549099  1
  C  C2  1  0.18571648  0.96331781  0.22549099  1
  C  C3  1  0.68571648  0.96331781  0.27450901  1
  C  C4  1  0.80613092  0.55278532  0.22154616  1
  C  C5  1  0.69386908  0.44721468  0.72154616  1
  C  C6  1  0.19386908  0.44721468  0.77845384  1
  C  C7  1  0.30613092  0.55278532  0.27845384  1
  O  O8  1  0.22815876  0.82743883  0.29461997  1
  O  O9  1  0.27184124  0.17256117  0.79461997  1
  O  O10  1  0.77184124  0.17256117  0.70538003  1
  O  O11  1  0.72815876  0.82743883  0.20538003  1
  O  O12  1  0.27427068  0.69311208  0.20910005  1
  O  O13  1  0.22572932  0.30688792  0.70910005  1
  O  O14  1  0.72572932  0.30688792  0.79089995  1
  O  O15  1  0.77427068  0.69311208  0.29089995  1
  O  O16  1  0.14191296  0.06650848  0.30188054  1
  O  O17  1  0.35808704  0.93349152  0.80188054  1
  O  O18  1  0.85808704  0.93349152  0.69811946  1
  O  O19  1  0.64191296  0.06650848  0.19811946  1
  O  O20  1  0.28799732  0.54713670  0.39461949  1
  O  O21  1  0.21200268  0.45286330  0.89461949  1
  O  O22  1  0.71200268  0.45286330  0.60538051  1
  O  O23  1  0.78799732  0.54713670  0.10538051  1
  O  O24  1  0.35054541  0.44887990  0.20312574  1
  O  O25  1  0.14945459  0.55112010  0.70312574  1
  O  O26  1  0.64945459  0.55112010  0.79687426  1
  O  O27  1  0.85054541  0.44887990  0.29687426  1
  O  O28  1  0.30336901  0.03297606  0.60906516  1
  O  O29  1  0.80336901  0.03297606  0.89093484  1
  O  O30  1  0.69663099  0.96702394  0.39093484  1
  O  O31  1  0.19663099  0.96702394  0.10906516  1
  Rb  Rb32  1  0.99389470  0.25152770  0.08633235  1
  Rb  Rb33  1  0.50610530  0.74847230  0.58633235  1
  Rb  Rb34  1  0.00610530  0.74847230  0.91366765  1
  Rb  Rb35  1  0.49389470  0.25152770  0.41366765  1
  Rb  Rb36  1  0.99436259  0.25420127  0.48706173  1
  Rb  Rb37  1  0.50563741  0.74579873  0.98706173  1
  Rb  Rb38  1  0.00563741  0.74579873  0.51293827  1
  Rb  Rb39  1  0.49436259  0.25420127  0.01293827  1
