# generated using pymatgen
data_Co(PO3)4
_symmetry_space_group_name_H-M   'P 1'
_cell_length_a   12.81841353
_cell_length_b   8.40770495
_cell_length_c   9.26223809
_cell_angle_alpha   90.00000000
_cell_angle_beta   90.00000000
_cell_angle_gamma   90.00000000
_symmetry_Int_Tables_number   1
_chemical_formula_structural   Co(PO3)4
_chemical_formula_sum   'Co4 P16 O48'
_cell_volume   998.22325075
_cell_formula_units_Z   4
loop_
 _symmetry_equiv_pos_site_id
 _symmetry_equiv_pos_as_xyz
  1  'x, y, z'
loop_
 _atom_site_type_symbol
 _atom_site_label
 _atom_site_symmetry_multiplicity
 _atom_site_fract_x
 _atom_site_fract_y
 _atom_site_fract_z
 _atom_site_occupancy
  Co  Co0  1  0.50000000  0.85901750  0.75000000  1
  Co  Co1  1  -0.00000000  0.35901750  0.75000000  1
  Co  Co2  1  0.50000000  0.14098250  0.25000000  1
  Co  Co3  1  -0.00000000  0.64098250  0.25000000  1
  P  P4  1  0.64885612  0.96426078  0.48729014  1
  P  P5  1  0.85702857  0.18372287  0.99227491  1
  P  P6  1  0.14297143  0.18372287  0.50772509  1
  P  P7  1  0.35702857  0.68372287  0.50772509  1
  P  P8  1  0.14885612  0.46426078  0.01270986  1
  P  P9  1  0.35114388  0.03573922  0.51270986  1
  P  P10  1  0.85702857  0.81627713  0.49227491  1
  P  P11  1  0.64297143  0.68372287  0.99227491  1
  P  P12  1  0.35114388  0.96426078  0.01270986  1
  P  P13  1  0.85114388  0.53573922  0.98729014  1
  P  P14  1  0.64297143  0.31627713  0.49227491  1
  P  P15  1  0.14297143  0.81627713  0.00772509  1
  P  P16  1  0.35702857  0.31627713  0.00772509  1
  P  P17  1  0.64885612  0.03573922  0.98729014  1
  P  P18  1  0.85114388  0.46426078  0.48729014  1
  P  P19  1  0.14885612  0.53573922  0.51270986  1
  O  O20  1  0.93277863  0.19871369  0.86566220  1
  O  O21  1  0.10488475  0.09522049  0.37959474  1
  O  O22  1  0.37544663  0.86899055  0.87954363  1
  O  O23  1  0.06845046  0.47143022  0.13149972  1
  O  O24  1  0.06722137  0.19871369  0.63433780  1
  O  O25  1  0.43154954  0.02856978  0.63149972  1
  O  O26  1  0.89511525  0.09522049  0.12040526  1
  O  O27  1  0.43154954  0.97143022  0.13149972  1
  O  O28  1  0.56845046  0.02856978  0.86850028  1
  O  O29  1  0.24597834  0.89318316  0.07967518  1
  O  O30  1  0.06722137  0.80128631  0.13433780  1
  O  O31  1  0.31645226  0.14039370  0.96526915  1
  O  O32  1  0.18354774  0.35960630  0.46526915  1
  O  O33  1  0.43277863  0.69871369  0.63433780  1
  O  O34  1  0.68354774  0.14039370  0.53473085  1
  O  O35  1  0.62455337  0.86899055  0.62045637  1
  O  O36  1  0.74597834  0.39318316  0.42032482  1
  O  O37  1  0.24597834  0.10681684  0.57967518  1
  O  O38  1  0.39511525  0.40477951  0.87959474  1
  O  O39  1  0.12455337  0.63100945  0.37954363  1
  O  O40  1  0.60488475  0.59522049  0.12040526  1
  O  O41  1  0.60488475  0.40477951  0.62040526  1
  O  O42  1  0.81645226  0.35960630  0.03473085  1
  O  O43  1  0.10488475  0.90477951  0.87959474  1
  O  O44  1  0.68354774  0.85960630  0.03473085  1
  O  O45  1  0.43277863  0.30128631  0.13433780  1
  O  O46  1  0.31645226  0.85960630  0.46526915  1
  O  O47  1  0.18354774  0.64039370  0.96526915  1
  O  O48  1  0.62455337  0.13100945  0.12045637  1
  O  O49  1  0.56722137  0.69871369  0.86566220  1
  O  O50  1  0.93154954  0.47143022  0.36850028  1
  O  O51  1  0.93277863  0.80128631  0.36566220  1
  O  O52  1  0.93154954  0.52856978  0.86850028  1
  O  O53  1  0.87544663  0.63100945  0.12045637  1
  O  O54  1  0.89511525  0.90477951  0.62040526  1
  O  O55  1  0.74597834  0.60681684  0.92032482  1
  O  O56  1  0.37544663  0.13100945  0.37954363  1
  O  O57  1  0.06845046  0.52856978  0.63149972  1
  O  O58  1  0.56845046  0.97143022  0.36850028  1
  O  O59  1  0.75402166  0.10681684  0.92032482  1
  O  O60  1  0.25402166  0.39318316  0.07967518  1
  O  O61  1  0.12455337  0.36899055  0.87954363  1
  O  O62  1  0.25402166  0.60681684  0.57967518  1
  O  O63  1  0.81645226  0.64039370  0.53473085  1
  O  O64  1  0.39511525  0.59522049  0.37959474  1
  O  O65  1  0.75402166  0.89318316  0.42032482  1
  O  O66  1  0.87544663  0.36899055  0.62045637  1
  O  O67  1  0.56722137  0.30128631  0.36566220  1
