# generated using pymatgen
data_CsB9H14
_symmetry_space_group_name_H-M   'P 1'
_cell_length_a   5.88278852
_cell_length_b   8.85134050
_cell_length_c   10.10432837
_cell_angle_alpha   87.65503552
_cell_angle_beta   82.43597733
_cell_angle_gamma   81.49496719
_symmetry_Int_Tables_number   1
_chemical_formula_structural   CsB9H14
_chemical_formula_sum   'Cs2 B18 H28'
_cell_volume   515.70072618
_cell_formula_units_Z   2
loop_
 _symmetry_equiv_pos_site_id
 _symmetry_equiv_pos_as_xyz
  1  'x, y, z'
loop_
 _atom_site_type_symbol
 _atom_site_label
 _atom_site_symmetry_multiplicity
 _atom_site_fract_x
 _atom_site_fract_y
 _atom_site_fract_z
 _atom_site_occupancy
  H  H0  1  0.52754407  0.85085525  0.57429403  1
  H  H1  1  0.47245593  0.14914475  0.42570597  1
  H  H2  1  0.43248127  0.69016986  0.68417317  1
  H  H3  1  0.56751873  0.30983014  0.31582683  1
  H  H4  1  0.82848939  0.91023780  0.47700717  1
  H  H5  1  0.17151061  0.08976220  0.52299283  1
  H  H6  1  0.45077413  1.00215146  0.73077211  1
  H  H7  1  0.54922587  -0.00215146  0.26922789  1
  H  H8  1  0.71393099  0.12671398  0.71125759  1
  H  H9  1  0.28606901  0.87328602  0.28874241  1
  H  H10  1  0.49434307  0.88403723  0.91497971  1
  H  H11  1  0.50565693  0.11596277  0.08502029  1
  H  H12  1  0.79883533  0.92972548  0.96957782  1
  H  H13  1  0.20116467  0.07027452  0.03042218  1
  H  H14  1  0.33980115  0.73911619  0.87818057  1
  H  H15  1  0.66019885  0.26088381  0.12181943  1
  H  H16  1  0.53019070  0.66758771  0.02299256  1
  H  H17  1  0.46980930  0.33241229  0.97700744  1
  H  H18  1  0.57320063  0.48660126  0.76097230  1
  H  H19  1  0.42679937  0.51339874  0.23902770  1
  H  H20  1  0.97982824  0.40304765  0.40216870  1
  H  H21  1  0.02017176  0.59695235  0.59783130  1
  H  H22  1  0.05032640  0.38955790  0.11292287  1
  H  H23  1  0.94967360  0.61044210  0.88707713  1
  H  H24  1  0.92594240  0.10796687  0.28258805  1
  H  H25  1  0.07405760  0.89203313  0.71741195  1
  H  H26  1  0.44503937  0.36182185  0.50821125  1
  H  H27  1  0.55496063  0.63817815  0.49178875  1
  B  B28  1  0.74792185  0.86462612  0.58353743  1
  B  B29  1  0.25207815  0.13537388  0.41646257  1
  B  B30  1  0.65659229  1.00090792  0.72752289  1
  B  B31  1  0.34340771  -0.00090792  0.27247711  1
  B  B32  1  0.71517850  0.88412534  0.87915990  1
  B  B33  1  0.28482150  0.11587466  0.12084010  1
  B  B34  1  0.53127032  0.72751837  0.91368692  1
  B  B35  1  0.46872968  0.27248163  0.08631308  1
  B  B36  1  0.61236115  0.61584552  0.74730014  1
  B  B37  1  0.38763885  0.38415448  0.25269986  1
  B  B38  1  0.59725086  0.70162921  0.58568850  1
  B  B39  1  0.40274914  0.29837079  0.41431150  1
  B  B40  1  0.88515953  0.85332562  0.72636513  1
  B  B41  1  0.11484047  0.14667438  0.27363487  1
  B  B42  1  0.81424479  0.69310440  0.82762495  1
  B  B43  1  0.18575521  0.30689560  0.17237505  1
  B  B44  1  0.85547698  0.67954779  0.64964469  1
  B  B45  1  0.14452302  0.32045221  0.35035531  1
  Cs  Cs46  1  0.91631820  0.72874229  0.20780711  1
  Cs  Cs47  1  0.08368180  0.27125771  0.79219289  1
