# generated using pymatgen
data_Ba2S3
_symmetry_space_group_name_H-M   'P 1'
_cell_length_a   6.09460292
_cell_length_b   6.09460292
_cell_length_c   9.15348266
_cell_angle_alpha   109.44559936
_cell_angle_beta   109.44559934
_cell_angle_gamma   89.99999998
_symmetry_Int_Tables_number   1
_chemical_formula_structural   Ba2S3
_chemical_formula_sum   'Ba4 S6'
_cell_volume   299.95890357
_cell_formula_units_Z   2
loop_
 _symmetry_equiv_pos_site_id
 _symmetry_equiv_pos_as_xyz
  1  'x, y, z'
loop_
 _atom_site_type_symbol
 _atom_site_label
 _atom_site_symmetry_multiplicity
 _atom_site_fract_x
 _atom_site_fract_y
 _atom_site_fract_z
 _atom_site_occupancy
  S  S0  1  0.96902660  0.64204341  0.28408683  1
  S  S1  1  0.39204341  0.21902660  0.78408683  1
  S  S2  1  0.39204341  0.56506023  0.78408683  1
  S  S3  1  0.31506023  0.64204341  0.28408683  1
  S  S4  1  0.99914686  0.99914686  0.99829371  1
  S  S5  1  0.74914686  0.24914686  0.49829371  1
  Ba  Ba6  1  0.95442126  0.45442126  0.90884251  1
  Ba  Ba7  1  0.20442126  0.20442126  0.40884251  1
  Ba  Ba8  1  0.54954506  0.04954506  0.09909012  1
  Ba  Ba9  1  0.79954506  0.79954506  0.59909012  1
