# generated using pymatgen
data_MoP4O13
_symmetry_space_group_name_H-M   'P 1'
_cell_length_a   7.12694216
_cell_length_b   8.34490593
_cell_length_c   17.39709030
_cell_angle_alpha   90.00000000
_cell_angle_beta   90.00000000
_cell_angle_gamma   90.00000000
_symmetry_Int_Tables_number   1
_chemical_formula_structural   MoP4O13
_chemical_formula_sum   'Mo4 P16 O52'
_cell_volume   1034.66866644
_cell_formula_units_Z   4
loop_
 _symmetry_equiv_pos_site_id
 _symmetry_equiv_pos_as_xyz
  1  'x, y, z'
loop_
 _atom_site_type_symbol
 _atom_site_label
 _atom_site_symmetry_multiplicity
 _atom_site_fract_x
 _atom_site_fract_y
 _atom_site_fract_z
 _atom_site_occupancy
  O  O0  1  0.97044548  0.82494278  0.85293258  1
  O  O1  1  0.99691240  0.29115756  0.50716883  1
  O  O2  1  0.92884992  0.87760816  0.41433013  1
  O  O3  1  0.92743945  0.29597513  0.21676183  1
  O  O4  1  0.00308855  0.79115727  0.99283122  1
  O  O5  1  0.02955407  0.32494307  0.64706690  1
  O  O6  1  0.07115103  0.37760725  0.08566969  1
  O  O7  1  0.07256009  0.79597485  0.28323800  1
  O  O8  1  0.07073060  0.07186940  0.92862252  1
  O  O9  1  0.08099768  0.33247486  0.80216120  1
  O  O10  1  0.10707035  0.93853028  0.57878329  1
  O  O11  1  0.10615615  0.76362136  0.12738691  1
  O  O12  1  0.14404802  0.05593857  0.71451363  1
  O  O13  1  0.14734663  0.47410095  0.40038806  1
  O  O14  1  0.17418423  0.50542821  0.21387193  1
  O  O15  1  0.20843150  0.16761933  0.41160240  1
  O  O16  1  0.24742865  0.21940591  0.19543431  1
  O  O17  1  0.25257042  0.78059352  0.69543413  1
  O  O18  1  0.29156757  0.83238010  0.91160223  1
  O  O19  1  0.32581484  0.49457241  0.71387175  1
  O  O20  1  0.35265385  0.52589967  0.90038788  1
  O  O21  1  0.35595105  0.94406085  0.21451323  1
  O  O22  1  0.39384292  0.23637926  0.62738673  1
  O  O23  1  0.39292872  0.06146914  0.07878347  1
  O  O24  1  0.41900139  0.66752457  0.30216080  1
  O  O25  1  0.42926987  0.92813003  0.42862212  1
  O  O26  1  0.42744038  0.20402458  0.78323840  1
  O  O27  1  0.42884945  0.62239217  0.58567009  1
  O  O28  1  0.47044641  0.67505755  0.14706707  1
  O  O29  1  0.49691193  0.20884336  0.49283140  1
  O  O30  1  0.50308762  0.70884307  0.00716900  1
  O  O31  1  0.52955454  0.17505784  0.35293275  1
  O  O32  1  0.57115010  0.12239246  0.91432995  1
  O  O33  1  0.57256056  0.70402549  0.71676165  1
  O  O34  1  0.57073108  0.42813032  0.07137770  1
  O  O35  1  0.58099816  0.16752486  0.19783903  1
  O  O36  1  0.60707082  0.56146885  0.42121636  1
  O  O37  1  0.60615662  0.73637898  0.87261274  1
  O  O38  1  0.64404849  0.44406114  0.28548660  1
  O  O39  1  0.64734710  0.02589876  0.59961217  1
  O  O40  1  0.67418470  0.99457212  0.78612830  1
  O  O41  1  0.70843197  0.33238038  0.58839782  1
  O  O42  1  0.74742912  0.28059380  0.80456591  1
  O  O43  1  0.75257089  0.71940562  0.30456551  1
  O  O44  1  0.79156804  0.66761904  0.08839799  1
  O  O45  1  0.82581531  0.00542730  0.28612790  1
  O  O46  1  0.85265291  0.97410066  0.09961177  1
  O  O47  1  0.85595152  0.55593948  0.78548642  1
  O  O48  1  0.89384339  0.26362045  0.37261291  1
  O  O49  1  0.92926894  0.57187031  0.57137753  1
  O  O50  1  0.91900186  0.83247577  0.69783885  1
  O  O51  1  0.89292920  0.43853057  0.92121675  1
  P  P52  1  0.89705758  0.40583087  0.83887825  1
  P  P53  1  0.89787723  0.85359989  0.33224467  1
  P  P54  1  0.60294244  0.59416975  0.33887843  1
  P  P55  1  0.91816790  0.39775096  0.57693567  1
  P  P56  1  0.06900604  0.31777617  0.42059709  1
  P  P57  1  0.08183164  0.89775187  0.92306438  1
  P  P58  1  0.10212372  0.35360018  0.16775573  1
  P  P59  1  0.10294196  0.90583058  0.66112180  1
  P  P60  1  0.39705851  0.09417004  0.16112140  1
  P  P61  1  0.39787675  0.64640044  0.66775556  1
  P  P62  1  0.41816883  0.10224875  0.42306456  1
  P  P63  1  0.43099443  0.68222446  0.92059692  1
  P  P64  1  0.56900511  0.18222475  0.57940313  1
  P  P65  1  0.58183212  0.60224846  0.07693527  1
  P  P66  1  0.60212279  0.14640073  0.83224449  1
  P  P67  1  0.93099490  0.81777588  0.07940330  1
  Mo  Mo68  1  0.76595005  0.77567983  0.78357525  1
  Mo  Mo69  1  0.73404997  0.22432079  0.28357486  1
  Mo  Mo70  1  0.26594957  0.72432050  0.21642497  1
  Mo  Mo71  1  0.23405090  0.27567892  0.71642479  1
