# generated using pymatgen
data_LiFe2(PO4)3
_symmetry_space_group_name_H-M   'P 1'
_cell_length_a   8.59198272
_cell_length_b   12.16549634
_cell_length_c   8.77969793
_cell_angle_alpha   90.00000000
_cell_angle_beta   90.00000000
_cell_angle_gamma   90.33147396
_symmetry_Int_Tables_number   1
_chemical_formula_structural   LiFe2(PO4)3
_chemical_formula_sum   'Li4 Fe8 P12 O48'
_cell_volume   917.68901554
_cell_formula_units_Z   4
loop_
 _symmetry_equiv_pos_site_id
 _symmetry_equiv_pos_as_xyz
  1  'x, y, z'
loop_
 _atom_site_type_symbol
 _atom_site_label
 _atom_site_symmetry_multiplicity
 _atom_site_fract_x
 _atom_site_fract_y
 _atom_site_fract_z
 _atom_site_occupancy
  Li  Li0  1  0.19493736  0.18188375  0.78215073  1
  Li  Li1  1  0.80506351  0.81811625  0.21784847  1
  Li  Li2  1  0.69493719  0.68188375  0.71784923  1
  Li  Li3  1  0.30506248  0.31811625  0.28215113  1
  O  O4  1  0.30693704  0.45900562  0.54662979  1
  O  O5  1  0.90221275  0.42018678  0.63542634  1
  O  O6  1  0.85848425  0.02911282  0.56610774  1
  O  O7  1  0.85282309  0.76244069  0.01059692  1
  O  O8  1  0.87093132  0.16186704  0.78824959  1
  O  O9  1  0.93692071  0.40784816  0.33883758  1
  O  O10  1  0.93553878  0.12137931  0.11539706  1
  O  O11  1  0.93948749  0.55460891  0.13115820  1
  O  O12  1  0.06051219  0.44539109  0.86884216  1
  O  O13  1  0.06446208  0.87862069  0.88460214  1
  O  O14  1  0.06308015  0.59215184  0.66116278  1
  O  O15  1  0.06979045  0.17222600  0.58695540  1
  O  O16  1  0.09778692  0.57981322  0.36457402  1
  O  O17  1  0.12906955  0.83813296  0.21175076  1
  O  O18  1  0.14151542  0.97088718  0.43389262  1
  O  O19  1  0.14717658  0.23755931  0.98940343  1
  O  O20  1  0.17203924  0.43056022  0.17749994  1
  O  O21  1  0.17584281  0.17874093  0.26420997  1
  O  O22  1  0.19306280  0.04099438  0.04663019  1
  O  O23  1  0.21021090  0.77505850  0.47828233  1
  O  O24  1  0.28978970  0.72494148  0.97828193  1
  O  O25  1  0.93020923  0.82777400  0.41304380  1
  O  O26  1  0.32415702  0.32125907  0.76421073  1
  O  O27  1  0.32796059  0.06943978  0.67749954  1
  O  O28  1  0.35282325  0.26244069  0.48940268  1
  O  O29  1  0.35848518  0.52911279  0.93389222  1
  O  O30  1  0.37093105  0.66186702  0.71175036  1
  O  O31  1  0.40221248  0.92018676  0.86457362  1
  O  O32  1  0.43692045  0.90784814  0.16116318  1
  O  O33  1  0.43020939  0.32777400  0.08695580  1
  O  O34  1  0.43553852  0.62137929  0.38460254  1
  O  O35  1  0.43948765  0.05460891  0.36884140  1
  O  O36  1  0.56051202  0.94539109  0.63115780  1
  O  O37  1  0.56446235  0.37862071  0.61539782  1
  O  O38  1  0.56979028  0.67222600  0.91304456  1
  O  O39  1  0.56308042  0.09215186  0.83883718  1
  O  O40  1  0.59778719  0.07981324  0.13542558  1
  O  O41  1  0.62906981  0.33813298  0.28824999  1
  O  O42  1  0.64151568  0.47088720  0.06610814  1
  O  O43  1  0.64717761  0.73755930  0.51059768  1
  O  O44  1  0.67203908  0.93056022  0.32250082  1
  O  O45  1  0.67584265  0.67874093  0.23578963  1
  O  O46  1  0.82796043  0.56943978  0.82250042  1
  O  O47  1  0.71021117  0.27505852  0.02171843  1
  O  O48  1  0.78978877  0.22494150  0.52171803  1
  O  O49  1  0.80693806  0.95900562  0.95337017  1
  O  O50  1  0.82415686  0.82125907  0.73578923  1
  O  O51  1  0.69306264  0.54099438  0.45337057  1
  P  P52  1  0.39485017  0.64819022  0.88529498  1
  P  P53  1  0.46451135  0.00615137  0.75073826  1
  P  P54  1  0.38792993  0.35452062  0.60639129  1
  P  P55  1  0.53548833  0.99384863  0.24926210  1
  P  P56  1  0.60514951  0.35180978  0.11470422  1
  P  P57  1  0.61206974  0.64547938  0.39360907  1
  P  P58  1  0.88792977  0.85452062  0.89360867  1
  P  P59  1  0.89485043  0.14819024  0.61470498  1
  P  P60  1  0.03548849  0.49384863  0.25073750  1
  P  P61  1  0.10514924  0.85180976  0.38529538  1
  P  P62  1  0.11206990  0.14547938  0.10639169  1
  P  P63  1  0.96451118  0.50615137  0.74926170  1
  Fe  Fe64  1  0.75059723  0.11822724  0.97241049  1
  Fe  Fe65  1  0.74940271  0.38177278  0.47241089  1
  Fe  Fe66  1  0.75071620  0.61079842  0.03457302  1
  Fe  Fe67  1  0.74928450  0.88920158  0.53457262  1
  Fe  Fe68  1  0.25071636  0.11079842  0.46542774  1
  Fe  Fe69  1  0.24928347  0.38920158  0.96542734  1
  Fe  Fe70  1  0.25059697  0.61822722  0.52758947  1
  Fe  Fe71  1  0.24940363  0.88177275  0.02758987  1
