# generated using pymatgen
data_Li3TaO4
_symmetry_space_group_name_H-M   'P 1'
_cell_length_a   5.84010843
_cell_length_b   7.85070416
_cell_length_c   5.24665711
_cell_angle_alpha   28.91902572
_cell_angle_beta   56.18210113
_cell_angle_gamma   41.93562786
_symmetry_Int_Tables_number   1
_chemical_formula_structural   Li3TaO4
_chemical_formula_sum   'Li3 Ta1 O4'
_cell_volume   74.33586634
_cell_formula_units_Z   1
loop_
 _symmetry_equiv_pos_site_id
 _symmetry_equiv_pos_as_xyz
  1  'x, y, z'
loop_
 _atom_site_type_symbol
 _atom_site_label
 _atom_site_symmetry_multiplicity
 _atom_site_fract_x
 _atom_site_fract_y
 _atom_site_fract_z
 _atom_site_occupancy
  Li  Li0  1  0.50000000  0.00000000  0.00000000  1
  Li  Li1  1  0.25000328  0.50000000  0.00000000  1
  Li  Li2  1  0.74999672  0.50000000  0.00000000  1
  O  O3  1  0.50000000  0.50000000  0.50000000  1
  O  O4  1  0.22216318  0.99995555  0.55576255  1
  O  O5  1  0.00000000  0.50000000  0.50000000  1
  O  O6  1  0.77783682  0.00004445  0.44423745  1
  Ta  Ta7  1  0.00000000  0.00000000  0.00000000  1
