# generated using pymatgen
data_Li2HN
_symmetry_space_group_name_H-M   'P 1'
_cell_length_a   3.66859576
_cell_length_b   3.66859640
_cell_length_c   3.54638921
_cell_angle_alpha   61.09596354
_cell_angle_beta   61.09596522
_cell_angle_gamma   56.18651121
_symmetry_Int_Tables_number   1
_chemical_formula_structural   Li2HN
_chemical_formula_sum   'Li2 H1 N1'
_cell_volume   33.17422165
_cell_formula_units_Z   1
loop_
 _symmetry_equiv_pos_site_id
 _symmetry_equiv_pos_as_xyz
  1  'x, y, z'
loop_
 _atom_site_type_symbol
 _atom_site_label
 _atom_site_symmetry_multiplicity
 _atom_site_fract_x
 _atom_site_fract_y
 _atom_site_fract_z
 _atom_site_occupancy
  H  H0  1  0.76251078  0.23748922  1.00000000  1
  Li  Li1  1  0.19408666  0.23816267  0.28387534  1
  Li  Li2  1  0.76183733  0.80591334  0.71612466  1
  N  N3  1  0.06156523  0.93843477  0.00000000  1
