# generated using pymatgen
data_Ba2ReNiO6
_symmetry_space_group_name_H-M   'P 1'
_cell_length_a   5.76881177
_cell_length_b   5.76881176
_cell_length_c   5.76881176
_cell_angle_alpha   60.00000001
_cell_angle_beta   60.00000003
_cell_angle_gamma   60.00000003
_symmetry_Int_Tables_number   1
_chemical_formula_structural   Ba2ReNiO6
_chemical_formula_sum   'Ba2 Re1 Ni1 O6'
_cell_volume   135.75133417
_cell_formula_units_Z   1
loop_
 _symmetry_equiv_pos_site_id
 _symmetry_equiv_pos_as_xyz
  1  'x, y, z'
loop_
 _atom_site_type_symbol
 _atom_site_label
 _atom_site_symmetry_multiplicity
 _atom_site_fract_x
 _atom_site_fract_y
 _atom_site_fract_z
 _atom_site_occupancy
  O  O0  1  0.26074370  0.73925635  0.73925689  1
  O  O1  1  0.26074370  0.73925635  0.26074265  1
  O  O2  1  0.73925789  0.26074320  0.73925637  1
  O  O3  1  0.26074318  0.26074320  0.73925747  1
  O  O4  1  0.73925789  0.26074320  0.26074213  1
  O  O5  1  0.73925841  0.73925635  0.26074328  1
  Ni  Ni6  1  0.00000000  0.00000000  0.00000000  1
  Ba  Ba7  1  0.24999904  0.25000095  0.25000033  1
  Ba  Ba8  1  0.74999984  0.75000072  0.74999897  1
  Re  Re9  1  0.50000079  0.49999978  0.50000037  1
