# generated using pymatgen
data_Li3Ni(PO4)2
_symmetry_space_group_name_H-M   'P 1'
_cell_length_a   8.27096672
_cell_length_b   10.36879372
_cell_length_c   8.17584695
_cell_angle_alpha   90.00000000
_cell_angle_beta   105.58946385
_cell_angle_gamma   90.00000000
_symmetry_Int_Tables_number   1
_chemical_formula_structural   Li3Ni(PO4)2
_chemical_formula_sum   'Li12 Ni4 P8 O32'
_cell_volume   675.36592729
_cell_formula_units_Z   4
loop_
 _symmetry_equiv_pos_site_id
 _symmetry_equiv_pos_as_xyz
  1  'x, y, z'
loop_
 _atom_site_type_symbol
 _atom_site_label
 _atom_site_symmetry_multiplicity
 _atom_site_fract_x
 _atom_site_fract_y
 _atom_site_fract_z
 _atom_site_occupancy
  Li  Li0  1  0.09866394  0.66350432  0.60926371  1
  Li  Li1  1  0.16870155  0.15167625  0.64428104  1
  Li  Li2  1  0.15631378  0.35440548  0.16324414  1
  Li  Li3  1  0.34368544  0.85440507  0.83675591  1
  Li  Li4  1  0.33129767  0.65167583  0.35571901  1
  Li  Li5  1  0.40133653  0.16350377  0.39073668  1
  Li  Li6  1  0.58834935  0.83346561  0.60478847  1
  Li  Li7  1  0.66181405  0.34251169  0.65045145  1
  Li  Li8  1  0.71508590  0.07709353  0.45335143  1
  Li  Li9  1  0.78491420  0.57709311  0.54664919  1
  Li  Li10  1  0.83818605  0.84251127  0.34954917  1
  Li  Li11  1  0.91165075  0.33346602  0.39521215  1
  O  O12  1  0.05251980  0.16738592  0.12959788  1
  O  O13  1  0.91145900  0.65897545  0.38823688  1
  O  O14  1  0.99270293  0.53781616  0.72661650  1
  O  O15  1  0.88316867  0.14284574  0.34887942  1
  O  O16  1  0.00823492  0.06166553  0.75957065  1
  O  O17  1  0.08073020  0.32402894  0.61948335  1
  O  O18  1  0.00247245  0.45480897  0.25481604  1
  O  O19  1  0.11674784  0.84598762  0.68574645  1
  O  O20  1  0.20413108  0.38522896  0.92759483  1
  O  O21  1  0.99177083  0.94402995  0.23787714  1
  O  O22  1  0.10032743  0.67269828  0.18788452  1
  O  O23  1  0.19710848  0.10256513  0.42593369  1
  O  O24  1  0.30289074  0.60256471  0.57406514  1
  O  O25  1  0.39967178  0.17269773  0.81211430  1
  O  O26  1  0.44748067  0.66738550  0.87040251  1
  O  O27  1  0.29586938  0.88522950  0.07240556  1
  O  O28  1  0.79344570  0.61481684  0.07617838  1
  O  O29  1  0.49752802  0.95480856  0.74518435  1
  O  O30  1  0.50822927  0.44403037  0.76212348  1
  O  O31  1  0.41927027  0.82402949  0.38051704  1
  O  O32  1  0.58854110  0.15897491  0.61176252  1
  O  O33  1  0.49176555  0.56166608  0.24042852  1
  O  O34  1  0.50729717  0.03781658  0.27338412  1
  O  O35  1  0.61683143  0.64284629  0.65112120  1
  O  O36  1  0.70655441  0.11481630  0.92382225  1
  O  O37  1  0.57231546  0.35685042  0.11435576  1
  O  O38  1  0.60385712  0.82922808  0.17724732  1
  O  O39  1  0.69358953  0.40398635  0.42823778  1
  O  O40  1  0.80641057  0.90398689  0.57176162  1
  O  O41  1  0.89614298  0.32922754  0.82275331  1
  O  O42  1  0.92768464  0.85685096  0.88564486  1
  O  O43  1  0.38325137  0.34598804  0.31425360  1
  P  P44  1  0.95095416  0.59535690  0.23186992  1
  P  P45  1  0.96624531  0.91259518  0.72171274  1
  P  P46  1  0.53375480  0.41259560  0.27828789  1
  P  P47  1  0.45468647  0.89877054  0.23373254  1
  P  P48  1  0.04531274  0.39876999  0.76626752  1
  P  P49  1  0.03077955  0.09078189  0.29102249  1
  P  P50  1  0.54904594  0.09535732  0.76812948  1
  P  P51  1  0.46922092  0.59078147  0.70897790  1
  Ni  Ni52  1  0.08057751  0.83961283  0.09705906  1
  Ni  Ni53  1  0.41942296  0.33961325  0.90294010  1
  Ni  Ni54  1  0.58344542  0.65947697  0.09341723  1
  Ni  Ni55  1  0.91655468  0.15947642  0.90658217  1
