# generated using pymatgen
data_LiNi2P5O16
_symmetry_space_group_name_H-M   'P 1'
_cell_length_a   18.46594012
_cell_length_b   6.81288880
_cell_length_c   5.03646339
_cell_angle_alpha   90.00000000
_cell_angle_beta   90.95676386
_cell_angle_gamma   90.00000000
_symmetry_Int_Tables_number   1
_chemical_formula_structural   LiNi2P5O16
_chemical_formula_sum   'Li2 Ni4 P10 O32'
_cell_volume   633.53097111
_cell_formula_units_Z   2
loop_
 _symmetry_equiv_pos_site_id
 _symmetry_equiv_pos_as_xyz
  1  'x, y, z'
loop_
 _atom_site_type_symbol
 _atom_site_label
 _atom_site_symmetry_multiplicity
 _atom_site_fract_x
 _atom_site_fract_y
 _atom_site_fract_z
 _atom_site_occupancy
  Li  Li0  1  0.96814298  0.64418527  0.73571870  1
  Li  Li1  1  0.46814298  0.35581473  0.73571870  1
  Ni  Ni2  1  0.09291466  0.81422010  0.26109140  1
  Ni  Ni3  1  0.59291466  0.18577990  0.26109140  1
  Ni  Ni4  1  0.40653972  0.81993798  0.73853463  1
  Ni  Ni5  1  0.90653972  0.18006202  0.73853463  1
  P  P6  1  0.12802732  0.53693040  0.74380234  1
  P  P7  1  0.24999815  0.75279470  0.00563400  1
  P  P8  1  0.62802732  0.46306960  0.74380234  1
  P  P9  1  0.41869866  0.12605756  0.22755986  1
  P  P10  1  0.58132330  0.87332136  0.77388924  1
  P  P11  1  0.08132330  0.12667864  0.77388924  1
  P  P12  1  0.37176778  0.53273531  0.25101498  1
  P  P13  1  0.74999815  0.24720530  0.00563400  1
  P  P14  1  0.91869866  0.87394244  0.22755986  1
  P  P15  1  0.87176778  0.46726469  0.25101498  1
  O  O16  1  0.29018654  0.60524567  0.20930246  1
  O  O17  1  0.57157934  0.94059629  0.06152143  1
  O  O18  1  0.51148127  0.78764003  0.65676689  1
  O  O19  1  0.11700920  0.97466194  0.60057238  1
  O  O20  1  0.30386135  0.86513087  0.84566437  1
  O  O21  1  0.88324109  0.03620875  0.38465356  1
  O  O22  1  0.11275761  0.56270120  0.44959914  1
  O  O23  1  0.01148127  0.21235997  0.65676689  1
  O  O24  1  0.35876963  0.30267112  0.20810701  1
  O  O25  1  0.61275761  0.43729880  0.44959914  1
  O  O26  1  0.61700920  0.02533806  0.60057238  1
  O  O27  1  0.43264642  0.08215015  0.93386067  1
  O  O28  1  0.57268698  0.36881063  0.92291979  1
  O  O29  1  0.07157934  0.05940371  0.06152143  1
  O  O30  1  0.85876963  0.69732888  0.20810701  1
  O  O31  1  0.42220625  0.61386433  0.04607905  1
  O  O32  1  0.63839597  0.69192947  0.79898952  1
  O  O33  1  0.19584591  0.86710479  0.16026644  1
  O  O34  1  0.93264642  0.91784985  0.93386067  1
  O  O35  1  0.70918497  0.39820863  0.80934575  1
  O  O36  1  0.38324109  0.96379125  0.38465356  1
  O  O37  1  0.07268698  0.63118937  0.92291979  1
  O  O38  1  0.69584591  0.13289521  0.16026644  1
  O  O39  1  0.39312564  0.55692825  0.54147117  1
  O  O40  1  0.48561225  0.21132450  0.37365624  1
  O  O41  1  0.98561225  0.78867550  0.37365624  1
  O  O42  1  0.89312564  0.44307175  0.54147117  1
  O  O43  1  0.79018654  0.39475433  0.20930246  1
  O  O44  1  0.92220625  0.38613567  0.04607905  1
  O  O45  1  0.80386135  0.13486913  0.84566437  1
  O  O46  1  0.20918497  0.60179137  0.80934575  1
  O  O47  1  0.13839597  0.30807053  0.79898952  1
