# generated using pymatgen
data_CoP2O7
_symmetry_space_group_name_H-M   'P 1'
_cell_length_a   8.77810338
_cell_length_b   5.22179669
_cell_length_c   12.41759940
_cell_angle_alpha   90.00000000
_cell_angle_beta   76.80390429
_cell_angle_gamma   90.00000000
_symmetry_Int_Tables_number   1
_chemical_formula_structural   CoP2O7
_chemical_formula_sum   'Co4 P8 O28'
_cell_volume   554.16154988
_cell_formula_units_Z   4
loop_
 _symmetry_equiv_pos_site_id
 _symmetry_equiv_pos_as_xyz
  1  'x, y, z'
loop_
 _atom_site_type_symbol
 _atom_site_label
 _atom_site_symmetry_multiplicity
 _atom_site_fract_x
 _atom_site_fract_y
 _atom_site_fract_z
 _atom_site_occupancy
  O  O0  1  0.66852097  0.06520181  0.04823531  1
  O  O1  1  0.90030191  0.97350573  0.86003514  1
  O  O2  1  0.85408174  0.45308912  0.88075718  1
  O  O3  1  0.89397983  0.25937630  0.62145268  1
  O  O4  1  0.09969742  0.02649401  0.13996471  1
  O  O5  1  0.14591876  0.54691062  0.11924247  1
  O  O6  1  0.10602068  0.74062344  0.37854697  1
  O  O7  1  0.12750176  0.96137432  0.58564873  1
  O  O8  1  0.08898535  0.27928013  0.74214937  1
  O  O9  1  0.16852131  0.43479806  0.54823538  1
  O  O10  1  0.07950101  0.25541127  0.94384306  1
  O  O11  1  0.39398016  0.24062357  0.12145276  1
  O  O12  1  0.35408208  0.04691075  0.38075726  1
  O  O13  1  0.40030224  0.52649388  0.36003522  1
  O  O14  1  0.42049983  0.75541114  0.55615667  1
  O  O15  1  0.33147953  0.93479793  0.95176434  1
  O  O16  1  0.41101431  0.77928000  0.75785055  1
  O  O17  1  0.91101515  0.72071961  0.25785029  1
  O  O18  1  0.37249791  0.46137445  0.91435199  1
  O  O19  1  0.58898502  0.22071974  0.24215011  1
  O  O20  1  0.87249758  0.03862542  0.41435192  1
  O  O21  1  0.57950068  0.24458860  0.44384380  1
  O  O22  1  0.59969709  0.47350586  0.63996463  1
  O  O23  1  0.64591843  0.95308899  0.61924240  1
  O  O24  1  0.60602035  0.75937617  0.87854770  1
  O  O25  1  0.92049949  0.74458847  0.05615660  1
  O  O26  1  0.83147920  0.56520168  0.45176427  1
  O  O27  1  0.62750260  0.53862529  0.08564847  1
  P  P28  1  0.56864136  0.26749145  0.11788384  1
  P  P29  1  0.43135798  0.73250829  0.88211601  1
  P  P30  1  0.52551976  0.73832269  0.63757828  1
  P  P31  1  0.93135882  0.76749326  0.38211575  1
  P  P32  1  0.02552009  0.76167692  0.13757835  1
  P  P33  1  0.06864169  0.23250842  0.61788391  1
  P  P34  1  0.47448075  0.26167705  0.36242219  1
  P  P35  1  0.97448042  0.23832282  0.86242211  1
  Co  Co36  1  0.75892533  0.75178738  0.97091226  1
  Co  Co37  1  0.74107485  0.25178752  0.52908813  1
  Co  Co38  1  0.25892566  0.74821416  0.47091234  1
  Co  Co39  1  0.24107518  0.24821235  0.02908820  1
