# generated using pymatgen
data_Al2CuO4
_symmetry_space_group_name_H-M   'P 1'
_cell_length_a   5.74824160
_cell_length_b   5.74824202
_cell_length_c   23.11804963
_cell_angle_alpha   60.17882091
_cell_angle_beta   60.17881850
_cell_angle_gamma   60.00000094
_symmetry_Int_Tables_number   1
_chemical_formula_structural   Al2CuO4
_chemical_formula_sum   'Al16 Cu8 O32'
_cell_volume   541.59521536
_cell_formula_units_Z   8
loop_
 _symmetry_equiv_pos_site_id
 _symmetry_equiv_pos_as_xyz
  1  'x, y, z'
loop_
 _atom_site_type_symbol
 _atom_site_label
 _atom_site_symmetry_multiplicity
 _atom_site_fract_x
 _atom_site_fract_y
 _atom_site_fract_z
 _atom_site_occupancy
  Al  Al0  1  0.49702012  0.00498767  0.12524302  1
  Al  Al1  1  0.49702012  0.49702012  0.12524302  1
  Al  Al2  1  0.00457658  0.49685290  0.37542941  1
  Al  Al3  1  0.49685290  0.00457658  0.37542941  1
  Al  Al4  1  0.00498767  0.49702012  0.12524302  1
  Al  Al5  1  0.49685290  0.49685290  0.37542941  1
  Al  Al6  1  0.00094118  0.49801704  0.62575619  1
  Al  Al7  1  0.49801704  0.00094118  0.62575619  1
  Al  Al8  1  0.87784450  0.87784450  0.21661663  1
  Al  Al9  1  0.49801704  0.49801704  0.62575619  1
  Al  Al10  1  0.50058860  0.50058860  0.74955855  1
  Al  Al11  1  0.87899403  0.87899403  0.46575448  1
  Al  Al12  1  0.49949658  0.49949658  0.87451449  1
  Al  Al13  1  0.49949658  0.00294889  0.87451449  1
  Al  Al14  1  0.00294889  0.49949658  0.87451449  1
  Al  Al15  1  0.87549750  0.87549750  0.96837688  1
  Cu  Cu16  1  0.12639957  0.12639957  0.03020032  1
  Cu  Cu17  1  0.49744160  0.49744160  0.00191880  1
  Cu  Cu18  1  0.12427540  0.12427540  0.28179345  1
  Cu  Cu19  1  0.49649455  0.49649455  0.25262908  1
  Cu  Cu20  1  0.12268077  0.12268077  0.53298943  1
  Cu  Cu21  1  0.49538744  0.49538744  0.50345942  1
  Cu  Cu22  1  0.12608305  0.12608305  0.78043771  1
  Cu  Cu23  1  0.87575320  0.87575320  0.71818510  1
  O  O24  1  0.25342286  0.25342286  0.07042188  1
  O  O25  1  0.26300785  0.26300785  0.17774411  1
  O  O26  1  0.25342286  0.71146678  0.07042188  1
  O  O27  1  0.71146678  0.25342286  0.07042188  1
  O  O28  1  0.25348961  0.25348961  0.32058791  1
  O  O29  1  0.26850702  0.75397772  0.18088439  1
  O  O30  1  0.75397772  0.26850702  0.18088439  1
  O  O31  1  0.25348961  0.71066915  0.32058791  1
  O  O32  1  0.26231084  0.26231084  0.42826687  1
  O  O33  1  0.74221544  0.74221544  0.06833842  1
  O  O34  1  0.71066915  0.25348961  0.32058791  1
  O  O35  1  0.75397772  0.75397772  0.18088439  1
  O  O36  1  0.25192410  0.25192410  0.57119003  1
  O  O37  1  0.27103357  0.75405930  0.43021196  1
  O  O38  1  0.75405930  0.27103357  0.43021196  1
  O  O39  1  0.25192410  0.71139167  0.57119003  1
  O  O40  1  0.74488520  0.74488520  0.31633610  1
  O  O41  1  0.26375971  0.26375971  0.67718022  1
  O  O42  1  0.71139167  0.25192410  0.57119003  1
  O  O43  1  0.75405930  0.75405930  0.43021196  1
  O  O44  1  0.26636872  0.26636872  0.81532139  1
  O  O45  1  0.29982449  0.73562158  0.68223309  1
  O  O46  1  0.26507277  0.26507277  0.92619542  1
  O  O47  1  0.26636872  0.70597699  0.81532139  1
  O  O48  1  0.73562158  0.29982449  0.68223309  1
  O  O49  1  0.74968273  0.74968273  0.56273796  1
  O  O50  1  0.70597699  0.26636872  0.81532139  1
  O  O51  1  0.73562158  0.73562158  0.68223309  1
  O  O52  1  0.26099518  0.75458457  0.93245892  1
  O  O53  1  0.75458457  0.26099518  0.93245892  1
  O  O54  1  0.72863585  0.72863585  0.82852311  1
  O  O55  1  0.75458457  0.75458457  0.93245892  1
