# generated using pymatgen
data_Fe(PO3)5
_symmetry_space_group_name_H-M   'P 1'
_cell_length_a   5.22861541
_cell_length_b   13.80630812
_cell_length_c   9.12856126
_cell_angle_alpha   90.00000000
_cell_angle_beta   105.40693444
_cell_angle_gamma   90.00000000
_symmetry_Int_Tables_number   1
_chemical_formula_structural   Fe(PO3)5
_chemical_formula_sum   'Fe2 P10 O30'
_cell_volume   635.29015533
_cell_formula_units_Z   2
loop_
 _symmetry_equiv_pos_site_id
 _symmetry_equiv_pos_as_xyz
  1  'x, y, z'
loop_
 _atom_site_type_symbol
 _atom_site_label
 _atom_site_symmetry_multiplicity
 _atom_site_fract_x
 _atom_site_fract_y
 _atom_site_fract_z
 _atom_site_occupancy
  Fe  Fe0  1  0.50000000  0.00000000  0.50000000  1
  Fe  Fe1  1  0.50000000  0.50000000  0.50000000  1
  O  O2  1  0.29353309  0.02087811  0.93960088  1
  O  O3  1  0.29353309  0.47912189  0.93960088  1
  O  O4  1  0.07284764  0.25000000  0.50715030  1
  O  O5  1  0.13437638  0.12926850  0.71835267  1
  O  O6  1  0.13437638  0.37073150  0.71835267  1
  O  O7  1  0.22688443  0.75000000  0.85185249  1
  O  O8  1  0.16612963  0.07932279  0.45259936  1
  O  O9  1  0.16612963  0.42067721  0.45259936  1
  O  O10  1  0.28320444  0.62366442  0.49718756  1
  O  O11  1  0.28320444  0.87633558  0.49718756  1
  O  O12  1  0.53103647  0.01824806  0.72156457  1
  O  O13  1  0.53103647  0.48175194  0.72156457  1
  O  O14  1  0.58575511  0.16250272  0.89195291  1
  O  O15  1  0.58575511  0.33749728  0.89195291  1
  O  O16  1  0.29470094  0.25000000  0.04461356  1
  O  O17  1  0.70529906  0.75000000  0.95538644  1
  O  O18  1  0.41424489  0.66250272  0.10804709  1
  O  O19  1  0.41424489  0.83749728  0.10804709  1
  O  O20  1  0.46896353  0.51824806  0.27843543  1
  O  O21  1  0.46896353  0.98175194  0.27843543  1
  O  O22  1  0.71679556  0.12366442  0.50281244  1
  O  O23  1  0.71679556  0.37633558  0.50281244  1
  O  O24  1  0.83387037  0.57932279  0.54740164  1
  O  O25  1  0.83387037  0.92067721  0.54740164  1
  O  O26  1  0.77311557  0.25000000  0.14814751  1
  O  O27  1  0.86562362  0.62926850  0.28164733  1
  O  O28  1  0.86562362  0.87073150  0.28164733  1
  O  O29  1  0.92715236  0.75000000  0.49284970  1
  O  O30  1  0.70646691  0.52087811  0.06039912  1
  O  O31  1  0.70646691  0.97912189  0.06039912  1
  P  P32  1  0.01008598  0.13955489  0.53555237  1
  P  P33  1  0.01008598  0.36044511  0.53555237  1
  P  P34  1  0.39345554  0.07409208  0.81868777  1
  P  P35  1  0.39345554  0.42590792  0.81868777  1
  P  P36  1  0.44548103  0.75000000  -0.00160980  1
  P  P37  1  0.55451897  0.25000000  1.00160980  1
  P  P38  1  0.60654346  0.57409208  0.18131223  1
  P  P39  1  0.60654346  0.92590792  0.18131223  1
  P  P40  1  0.98991402  0.63955489  0.46444763  1
  P  P41  1  0.98991402  0.86044511  0.46444763  1
