# generated using pymatgen
data_Co(PO3)4
_symmetry_space_group_name_H-M   'P 1'
_cell_length_a   8.38354126
_cell_length_b   8.38354105
_cell_length_c   7.66891351
_cell_angle_alpha   83.06995957
_cell_angle_beta   96.93004029
_cell_angle_gamma   70.33380319
_symmetry_Int_Tables_number   1
_chemical_formula_structural   Co(PO3)4
_chemical_formula_sum   'Co2 P8 O24'
_cell_volume   496.29757539
_cell_formula_units_Z   2
loop_
 _symmetry_equiv_pos_site_id
 _symmetry_equiv_pos_as_xyz
  1  'x, y, z'
loop_
 _atom_site_type_symbol
 _atom_site_label
 _atom_site_symmetry_multiplicity
 _atom_site_fract_x
 _atom_site_fract_y
 _atom_site_fract_z
 _atom_site_occupancy
  Co  Co0  1  0.86825740  0.86825740  0.25000000  1
  Co  Co1  1  0.13174260  0.13174260  0.75000000  1
  P  P2  1  0.43605416  0.24231409  0.62744325  1
  P  P3  1  0.20156783  0.95276704  0.16490179  1
  P  P4  1  0.79843217  0.04723296  0.83509821  1
  P  P5  1  0.95276704  0.20156783  0.33509821  1
  P  P6  1  0.56394584  0.75768591  0.37255675  1
  P  P7  1  0.04723296  0.79843217  0.66490179  1
  P  P8  1  0.24231409  0.43605416  0.87255675  1
  P  P9  1  0.75768591  0.56394584  0.12744325  1
  O  O10  1  0.33298031  0.39070729  0.06187752  1
  O  O11  1  0.66701969  0.60929271  0.93812248  1
  O  O12  1  0.87725221  0.87725221  0.75000000  1
  O  O13  1  0.39070729  0.33298031  0.43812248  1
  O  O14  1  0.99832947  0.26476409  0.50219635  1
  O  O15  1  0.92055849  0.14471779  0.84234038  1
  O  O16  1  0.10911390  0.35735779  0.81820948  1
  O  O17  1  0.73523591  0.00167053  0.00219635  1
  O  O18  1  0.60894385  0.60894385  0.25000000  1
  O  O19  1  0.15770398  0.63982870  0.81942853  1
  O  O20  1  0.39105615  0.39105615  0.75000000  1
  O  O21  1  0.12274779  0.12274779  0.25000000  1
  O  O22  1  0.26476409  0.99832947  0.99780365  1
  O  O23  1  0.00167053  0.73523591  0.49780365  1
  O  O24  1  0.85528221  0.07944151  0.34234038  1
  O  O25  1  0.07944151  0.85528221  0.15765962  1
  O  O26  1  0.89088610  0.64264221  0.18179052  1
  O  O27  1  0.14471779  0.92055849  0.65765962  1
  O  O28  1  0.64264221  0.89088610  0.31820948  1
  O  O29  1  0.63982870  0.15770398  0.68057147  1
  O  O30  1  0.35735779  0.10911390  0.68179052  1
  O  O31  1  0.84229602  0.36017130  0.18057147  1
  O  O32  1  0.36017130  0.84229602  0.31942853  1
  O  O33  1  0.60929271  0.66701969  0.56187752  1
