# generated using pymatgen
data_Ag3RuO4
_symmetry_space_group_name_H-M   'P 1'
_cell_length_a   7.30317291
_cell_length_b   7.30317291
_cell_length_c   8.41550210
_cell_angle_alpha   90.00000000
_cell_angle_beta   90.00000000
_cell_angle_gamma   90.00000000
_symmetry_Int_Tables_number   1
_chemical_formula_structural   Ag3RuO4
_chemical_formula_sum   'Ag12 Ru4 O16'
_cell_volume   448.85203544
_cell_formula_units_Z   4
loop_
 _symmetry_equiv_pos_site_id
 _symmetry_equiv_pos_as_xyz
  1  'x, y, z'
loop_
 _atom_site_type_symbol
 _atom_site_label
 _atom_site_symmetry_multiplicity
 _atom_site_fract_x
 _atom_site_fract_y
 _atom_site_fract_z
 _atom_site_occupancy
  Ag  Ag0  1  0.25367624  0.00000000  0.25000000  1
  Ag  Ag1  1  0.00000000  0.25367624  0.50000000  1
  Ag  Ag2  1  0.00000000  0.74632376  0.00000000  1
  Ag  Ag3  1  0.74632376  0.00000000  0.75000000  1
  Ag  Ag4  1  0.00000000  0.18452633  0.00000000  1
  Ag  Ag5  1  0.81547367  0.00000000  0.25000000  1
  Ag  Ag6  1  0.18452633  0.00000000  0.75000000  1
  Ag  Ag7  1  0.00000000  0.81547367  0.50000000  1
  Ag  Ag8  1  0.50000000  0.79932660  0.00000000  1
  Ag  Ag9  1  0.20067340  0.50000000  0.25000000  1
  Ag  Ag10  1  0.79932660  0.50000000  0.75000000  1
  Ag  Ag11  1  0.50000000  0.20067340  0.50000000  1
  Ru  Ru12  1  0.50000000  0.28361447  0.00000000  1
  Ru  Ru13  1  0.71638553  0.50000000  0.25000000  1
  Ru  Ru14  1  0.28361447  0.50000000  0.75000000  1
  Ru  Ru15  1  0.50000000  0.71638553  0.50000000  1
  O  O16  1  0.69182572  0.48291555  0.01535479  1
  O  O17  1  0.51708445  0.69182572  0.26535479  1
  O  O18  1  0.48291555  0.30817428  0.76535479  1
  O  O19  1  0.69182572  0.51708445  0.48464521  1
  O  O20  1  0.30817428  0.48291555  0.98464521  1
  O  O21  1  0.30817428  0.51708445  0.51535479  1
  O  O22  1  0.48291555  0.69182572  0.73464521  1
  O  O23  1  0.51708445  0.30817428  0.23464521  1
  O  O24  1  0.30959085  0.09570537  0.01232563  1
  O  O25  1  0.90429463  0.30959085  0.26232563  1
  O  O26  1  0.09570537  0.69040915  0.76232563  1
  O  O27  1  0.30959085  0.90429463  0.48767437  1
  O  O28  1  0.69040915  0.09570537  0.98767437  1
  O  O29  1  0.69040915  0.90429463  0.51232563  1
  O  O30  1  0.09570537  0.30959085  0.73767437  1
  O  O31  1  0.90429463  0.69040915  0.23767437  1
