# generated using pymatgen
data_La6Zr8F47
_symmetry_space_group_name_H-M   'P 1'
_cell_length_a   11.11175179
_cell_length_b   11.11175117
_cell_length_c   11.01450398
_cell_angle_alpha   109.15174343
_cell_angle_beta   110.02094016
_cell_angle_gamma   109.59886153
_symmetry_Int_Tables_number   1
_chemical_formula_structural   La6Zr8F47
_chemical_formula_sum   'La6 Zr8 F47'
_cell_volume   1042.21248217
_cell_formula_units_Z   1
loop_
 _symmetry_equiv_pos_site_id
 _symmetry_equiv_pos_as_xyz
  1  'x, y, z'
loop_
 _atom_site_type_symbol
 _atom_site_label
 _atom_site_symmetry_multiplicity
 _atom_site_fract_x
 _atom_site_fract_y
 _atom_site_fract_z
 _atom_site_occupancy
  F  F0  1  0.01669799  0.64727736  0.99466322  1
  F  F1  1  0.13737120  0.98575311  0.98760366  1
  F  F2  1  0.09047448  0.82685586  0.68552200  1
  F  F3  1  1.00541698  0.52911663  0.66626699  1
  F  F4  1  0.10104790  0.74251366  0.41642999  1
  F  F5  1  0.13078897  0.31276708  0.90374981  1
  F  F6  1  0.34664340  0.84765184  0.86371763  1
  F  F7  1  0.01351438  0.50263164  0.15616040  1
  F  F8  1  0.20127984  0.45127984  0.75000000  1
  F  F9  1  0.15334439  0.51105989  0.49394651  1
  F  F10  1  0.40110143  0.81656398  0.63805681  1
  F  F11  1  0.34941934  0.84476640  0.35893534  1
  F  F12  1  0.36284965  0.33914999  0.83373301  1
  F  F13  1  0.31812898  0.89975135  0.13692727  1
  F  F14  1  0.18614414  0.36407464  0.26094934  1
  F  F15  1  0.15261415  0.02203478  0.50533678  1
  F  F16  1  0.30660324  0.58122110  0.16178911  1
  F  F17  1  0.26282408  0.18120170  0.36307273  1
  F  F18  1  0.48329801  0.63955867  0.48581735  1
  F  F19  1  0.48393422  0.48292577  0.63628237  1
  F  F20  1  0.41643806  0.09332245  0.73220095  1
  F  F21  1  0.67850717  0.76304462  0.86194319  1
  F  F22  1  0.36200872  0.25980551  0.18200896  1
  F  F23  1  0.60312529  0.92519479  0.23905066  1
  F  F24  1  0.64133387  0.40495248  0.81447800  1
  F  F25  1  0.76184783  0.85988506  0.68091312  1
  F  F26  1  0.49814946  0.14976754  0.51239634  1
  F  F27  1  0.50442777  0.49091742  0.14237579  1
  F  F28  1  0.51711338  0.65939787  0.00605349  1
  F  F29  1  0.65374132  0.99748066  0.01418265  1
  F  F30  1  0.63974876  0.49178836  0.48424342  1
  F  F31  1  0.86112150  0.68423712  0.76779905  1
  F  F32  1  0.67897194  0.08093471  0.81908688  1
  F  F33  1  0.57779655  0.17999976  0.31799104  1
  F  F34  1  0.84647124  0.85735397  0.34383960  1
  F  F35  1  0.50754494  0.15550534  0.01575658  1
  F  F36  1  0.85665257  0.34157930  0.84912265  1
  F  F37  1  0.82330054  0.64014895  0.40397160  1
  F  F38  1  0.65060346  -0.00253659  0.51510680  1
  F  F39  1  0.82608367  0.68461791  0.08357001  1
  F  F40  1  0.73617735  0.41932894  0.09602840  1
  F  F41  1  0.84854163  0.36205198  0.35762421  1
  F  F42  1  0.98583105  0.99048400  0.14106466  1
  F  F43  1  0.98235661  0.13549666  0.98489320  1
  F  F44  1  0.90901727  0.22703916  0.59625019  1
  F  F45  1  0.91943199  0.14481413  0.33821089  1
  F  F46  1  0.99245666  0.00752992  0.65087735  1
  La  La47  1  0.12523821  0.75528801  0.87636942  1
  La  La48  1  0.24961178  0.62308663  0.37075533  1
  La  La49  1  0.37891859  0.24886879  0.62363058  1
  La  La50  1  0.62819445  0.37819445  0.25000000  1
  La  La51  1  0.75233130  0.87885645  0.12924467  1
  La  La52  1  0.87272907  0.12272907  0.75000000  1
  Zr  Zr53  1  0.15653244  0.15794183  0.15648361  1
  Zr  Zr54  1  0.33178326  0.49152505  0.97876621  1
  Zr  Zr55  1  0.65411321  0.65579886  0.65645291  1
  Zr  Zr56  1  0.49934595  -0.00233970  0.84354709  1
  Zr  Zr57  1  0.50145822  0.00004883  0.34351639  1
  Zr  Zr58  1  0.00251274  0.84586165  0.50068702  1
  Zr  Zr59  1  0.84517462  0.50182571  0.99931298  1
  Zr  Zr60  1  0.01275883  0.35301705  0.52123379  1
