# generated using pymatgen
data_Fe(PO3)3
_symmetry_space_group_name_H-M   'P 1'
_cell_length_a   6.75551606
_cell_length_b   7.36015550
_cell_length_c   6.88493045
_cell_angle_alpha   100.58958439
_cell_angle_beta   86.10708401
_cell_angle_gamma   86.37961085
_symmetry_Int_Tables_number   1
_chemical_formula_structural   Fe(PO3)3
_chemical_formula_sum   'Fe2 P6 O18'
_cell_volume   334.72377950
_cell_formula_units_Z   2
loop_
 _symmetry_equiv_pos_site_id
 _symmetry_equiv_pos_as_xyz
  1  'x, y, z'
loop_
 _atom_site_type_symbol
 _atom_site_label
 _atom_site_symmetry_multiplicity
 _atom_site_fract_x
 _atom_site_fract_y
 _atom_site_fract_z
 _atom_site_occupancy
  Fe  Fe0  1  0.17055794  0.14594951  0.91062649  1
  Fe  Fe1  1  0.82944206  0.85405049  0.08937351  1
  O  O2  1  0.04113645  0.31753708  0.14901815  1
  O  O3  1  0.13622260  0.35518501  0.76457494  1
  O  O4  1  0.17191718  0.94212434  0.08696308  1
  O  O5  1  0.19013157  0.95762367  0.67220561  1
  O  O6  1  0.28966923  0.60410646  0.99042644  1
  O  O7  1  0.27890987  0.61088091  0.62351566  1
  O  O8  1  0.28834748  0.75655434  0.33758342  1
  O  O9  1  0.44113571  0.17564453  0.41274597  1
  O  O10  1  0.45555638  0.16927236  0.92501515  1
  O  O11  1  0.54444362  0.83072764  0.07498485  1
  O  O12  1  0.55886429  0.82435547  0.58725403  1
  O  O13  1  0.71165252  0.24344566  0.66241658  1
  O  O14  1  0.72109013  0.38911909  0.37648434  1
  O  O15  1  0.71033077  0.39589354  0.00957356  1
  O  O16  1  0.80986843  0.04237633  0.32779439  1
  O  O17  1  0.82808282  0.05787566  0.91303692  1
  O  O18  1  0.86377740  0.64481499  0.23542506  1
  O  O19  1  0.95886355  0.68246292  0.85098185  1
  P  P20  1  0.15166295  0.56154471  0.80564610  1
  P  P21  1  0.33162083  0.79912598  0.12454902  1
  P  P22  1  0.34578798  0.80684538  0.56632828  1
  P  P23  1  0.65421202  0.19315462  0.43367172  1
  P  P24  1  0.66837917  0.20087402  0.87545098  1
  P  P25  1  0.84833705  0.43845529  0.19435390  1
