# generated using pymatgen
data_Li2Cr(PO4)2
_symmetry_space_group_name_H-M   'P 1'
_cell_length_a   5.03421784
_cell_length_b   8.33863118
_cell_length_c   7.00863759
_cell_angle_alpha   90.00126124
_cell_angle_beta   97.41957682
_cell_angle_gamma   90.00098605
_symmetry_Int_Tables_number   1
_chemical_formula_structural   Li2Cr(PO4)2
_chemical_formula_sum   'Li4 Cr2 P4 O16'
_cell_volume   291.74858565
_cell_formula_units_Z   2
loop_
 _symmetry_equiv_pos_site_id
 _symmetry_equiv_pos_as_xyz
  1  'x, y, z'
loop_
 _atom_site_type_symbol
 _atom_site_label
 _atom_site_symmetry_multiplicity
 _atom_site_fract_x
 _atom_site_fract_y
 _atom_site_fract_z
 _atom_site_occupancy
  Li  Li0  1  0.48344687  0.00168823  0.51867309  1
  Li  Li1  1  0.98373529  0.84932525  0.35821433  1
  Li  Li2  1  0.01652010  0.50169175  0.98133270  1
  Li  Li3  1  0.51621626  0.34932321  0.14174726  1
  O  O4  1  0.22051532  0.16482026  0.06192698  1
  O  O5  1  0.96126643  0.63605029  0.74205763  1
  O  O6  1  0.05062754  0.36220430  0.28042191  1
  O  O7  1  0.14233591  0.07060673  0.39473290  1
  O  O8  1  0.25566960  0.37929435  0.68477391  1
  O  O9  1  0.44939100  0.86219556  0.21959837  1
  O  O10  1  0.24436449  0.87927709  0.81524059  1
  O  O11  1  0.75835491  0.63912407  0.33891210  1
  O  O12  1  0.35764395  0.57061827  0.10524922  1
  O  O13  1  0.81632479  0.89599177  0.58837031  1
  O  O14  1  0.53873742  0.13603531  0.75794266  1
  O  O15  1  0.68367758  0.39598264  0.91163150  1
  O  O16  1  0.69935027  0.35592635  0.54920741  1
  O  O17  1  0.74165250  0.13912085  0.16109231  1
  O  O18  1  0.80067966  0.85590568  0.95080743  1
  O  O19  1  0.27951406  0.66484175  0.43809435  1
  P  P20  1  0.45689284  0.68001733  0.27221077  1
  P  P21  1  0.55233676  0.32123338  0.72471421  1
  P  P22  1  0.04311143  0.18003158  0.22779967  1
  P  P23  1  0.94767145  0.82124960  0.77528250  1
  Cr  Cr24  1  0.49435296  0.00084516  0.99177283  1
  Cr  Cr25  1  0.00561662  0.50080123  0.50819405  1
