# generated using pymatgen
data_Mg6TiSn
_symmetry_space_group_name_H-M   'P 1'
_cell_length_a   6.31029730
_cell_length_b   6.31029680
_cell_length_c   5.00692835
_cell_angle_alpha   90.00000000
_cell_angle_beta   90.00000000
_cell_angle_gamma   119.09004660
_symmetry_Int_Tables_number   1
_chemical_formula_structural   Mg6TiSn
_chemical_formula_sum   'Mg6 Ti1 Sn1'
_cell_volume   174.22529247
_cell_formula_units_Z   1
loop_
 _symmetry_equiv_pos_site_id
 _symmetry_equiv_pos_as_xyz
  1  'x, y, z'
loop_
 _atom_site_type_symbol
 _atom_site_label
 _atom_site_symmetry_multiplicity
 _atom_site_fract_x
 _atom_site_fract_y
 _atom_site_fract_z
 _atom_site_occupancy
  Mg  Mg0  1  0.16972477  0.83807706  0.25000000  1
  Mg  Mg1  1  0.66192294  0.33027523  0.25000000  1
  Mg  Mg2  1  0.66676063  0.83323937  0.25000000  1
  Mg  Mg3  1  0.33469610  0.67237115  0.75000000  1
  Mg  Mg4  1  0.82762885  0.16530390  0.75000000  1
  Mg  Mg5  1  0.83478687  0.66521313  0.75000000  1
  Ti  Ti6  1  0.33104873  0.16895127  0.75000000  1
  Sn  Sn7  1  0.17343112  0.32656888  0.25000000  1
