# generated using pymatgen
data_GaH20C2S2NO14
_symmetry_space_group_name_H-M   'P 1'
_cell_length_a   6.33163487
_cell_length_b   11.00582264
_cell_length_c   11.51640799
_cell_angle_alpha   90.00000000
_cell_angle_beta   103.42470009
_cell_angle_gamma   90.00000000
_symmetry_Int_Tables_number   1
_chemical_formula_structural   GaH20C2S2NO14
_chemical_formula_sum   'Ga2 H40 C4 S4 N2 O28'
_cell_volume   780.59103852
_cell_formula_units_Z   2
loop_
 _symmetry_equiv_pos_site_id
 _symmetry_equiv_pos_as_xyz
  1  'x, y, z'
loop_
 _atom_site_type_symbol
 _atom_site_label
 _atom_site_symmetry_multiplicity
 _atom_site_fract_x
 _atom_site_fract_y
 _atom_site_fract_z
 _atom_site_occupancy
  Ga  Ga0  1  0.74417026  0.50432508  0.25623478  1
  Ga  Ga1  1  0.25582974  0.00432508  0.74376522  1
  H  H2  1  0.51495921  0.00802274  0.29587570  1
  H  H3  1  0.98578472  0.35631261  0.16169200  1
  H  H4  1  0.49265716  0.15516134  0.65661910  1
  H  H5  1  0.60134183  0.68638749  0.11068787  1
  H  H6  1  0.11000350  0.82201414  0.60485487  1
  H  H7  1  0.94672160  0.95672370  0.30275678  1
  H  H8  1  0.95379648  0.99347751  0.86807624  1
  H  H9  1  0.09949998  0.09634137  0.33004246  1
  H  H10  1  0.55673540  0.35997500  0.07000217  1
  H  H11  1  0.39865817  0.18638749  0.88931213  1
  H  H12  1  0.09884091  0.53244958  0.43078123  1
  H  H13  1  0.48504079  0.50802274  0.70412430  1
  H  H14  1  0.62015059  0.31489217  0.36279342  1
  H  H15  1  0.46485115  0.00334881  0.13553248  1
  H  H16  1  0.01421528  0.85631261  0.83830800  1
  H  H17  1  0.90115909  0.03244958  0.56921877  1
  H  H18  1  0.43989906  0.51860551  0.37717040  1
  H  H19  1  0.90050002  0.59634137  0.66995754  1
  H  H20  1  0.05327840  0.45672370  0.69724322  1
  H  H21  1  0.93551102  0.65163507  0.43491086  1
  H  H22  1  0.22017364  0.95536003  0.39061264  1
  H  H23  1  0.92252392  0.51271817  0.86653340  1
  H  H24  1  0.53514885  0.50334881  0.86446752  1
  H  H25  1  0.80475996  0.38482193  0.81005464  1
  H  H26  1  0.50734284  0.65516134  0.34338090  1
  H  H27  1  0.38293158  0.13355778  0.20851307  1
  H  H28  1  0.13131695  0.19281793  0.85323717  1
  H  H29  1  0.86868305  0.69281793  0.14676283  1
  H  H30  1  0.61062838  0.97483670  0.92529176  1
  H  H31  1  0.19524004  0.88482193  0.18994536  1
  H  H32  1  0.07747608  0.01271817  0.13346660  1
  H  H33  1  0.38937162  0.47483670  0.07470824  1
  H  H34  1  0.37984941  0.81489217  0.63720658  1
  H  H35  1  0.61706842  0.63355778  0.79148693  1
  H  H36  1  0.06448898  0.15163507  0.56508914  1
  H  H37  1  0.56010094  0.01860551  0.62282960  1
  H  H38  1  0.88999650  0.32201414  0.39514513  1
  H  H39  1  0.77982636  0.45536003  0.60938736  1
  H  H40  1  0.04620352  0.49347751  0.13192376  1
  H  H41  1  0.44326460  0.85997500  0.92999783  1
  C  C42  1  0.89271127  0.49835607  0.68443781  1
  C  C43  1  0.59524894  0.53499696  0.78808534  1
  C  C44  1  0.40475106  0.03499696  0.21191466  1
  C  C45  1  0.10728873  0.99835607  0.31556219  1
  S  S46  1  0.33283795  0.32206566  0.49670108  1
  S  S47  1  0.15860239  0.68980033  0.00740159  1
  S  S48  1  0.66716205  0.82206566  0.50329892  1
  S  S49  1  0.84139761  0.18980033  0.99259841  1
  N  N50  1  0.81048772  0.47776852  0.79380474  1
  N  N51  1  0.18951228  0.97776852  0.20619526  1
  O  O52  1  0.67530104  0.95822008  0.51785330  1
  O  O53  1  0.47580853  0.29179067  0.61472330  1
  O  O54  1  0.26444376  0.16256977  0.82820100  1
  O  O55  1  0.96242050  0.57673981  0.39059809  1
  O  O56  1  0.15657900  0.55273318  0.01795517  1
  O  O57  1  0.58579080  0.76661744  0.60194879  1
  O  O58  1  0.10658750  0.27666788  0.49234343  1
  O  O59  1  0.47286000  0.93303256  0.88540128  1
  O  O60  1  0.61548602  0.23249547  0.98991039  1
  O  O61  1  0.99032833  0.22348088  0.10677786  1
  O  O62  1  0.75306828  0.34548030  0.33508380  1
  O  O63  1  0.41420920  0.26661744  0.39805121  1
  O  O64  1  0.52714000  0.43303256  0.11459872  1
  O  O65  1  0.32469896  0.45822008  0.48214670  1
  O  O66  1  0.98792715  0.44379780  0.18977932  1
  O  O67  1  0.84342100  0.05273318  0.98204483  1
  O  O68  1  0.91377520  0.24286893  0.88865732  1
  O  O69  1  0.08622480  0.74286893  0.11134268  1
  O  O70  1  0.03757950  0.07673981  0.60940191  1
  O  O71  1  0.52419147  0.79179067  0.38527670  1
  O  O72  1  0.89341250  0.77666788  0.50765657  1
  O  O73  1  0.50201748  0.06633403  0.68307928  1
  O  O74  1  0.38451398  0.73249547  0.01008961  1
  O  O75  1  0.00967167  0.72348088  0.89322214  1
  O  O76  1  0.73555624  0.66256977  0.17179900  1
  O  O77  1  0.01207285  0.94379780  0.81022068  1
  O  O78  1  0.24693172  0.84548030  0.66491620  1
  O  O79  1  0.49798252  0.56633403  0.31692072  1
