# generated using pymatgen
data_Mg6TiSn
_symmetry_space_group_name_H-M   'P 1'
_cell_length_a   6.36194692
_cell_length_b   6.09447786
_cell_length_c   5.11351283
_cell_angle_alpha   90.00000000
_cell_angle_beta   90.00000000
_cell_angle_gamma   118.61874482
_symmetry_Int_Tables_number   1
_chemical_formula_structural   Mg6TiSn
_chemical_formula_sum   'Mg6 Ti1 Sn1'
_cell_volume   174.04217139
_cell_formula_units_Z   1
loop_
 _symmetry_equiv_pos_site_id
 _symmetry_equiv_pos_as_xyz
  1  'x, y, z'
loop_
 _atom_site_type_symbol
 _atom_site_label
 _atom_site_symmetry_multiplicity
 _atom_site_fract_x
 _atom_site_fract_y
 _atom_site_fract_z
 _atom_site_occupancy
  Mg  Mg0  1  0.66488095  0.33352268  0.25000000  1
  Mg  Mg1  1  0.66488095  0.83135727  0.25000000  1
  Mg  Mg2  1  0.33537368  0.15836031  0.75000000  1
  Mg  Mg3  1  0.33537368  0.67701437  0.75000000  1
  Mg  Mg4  1  0.82936107  0.16468104  0.75000000  1
  Mg  Mg5  1  0.84272159  0.67136130  0.75000000  1
  Ti  Ti6  1  0.16177956  0.83088928  0.25000000  1
  Sn  Sn7  1  0.16562851  0.33281376  0.25000000  1
