# generated using pymatgen
data_LiMo(PO4)2
_symmetry_space_group_name_H-M   'P 1'
_cell_length_a   4.71428439
_cell_length_b   5.17877860
_cell_length_c   13.95367268
_cell_angle_alpha   85.00037636
_cell_angle_beta   90.00000000
_cell_angle_gamma   62.92515749
_symmetry_Int_Tables_number   1
_chemical_formula_structural   LiMo(PO4)2
_chemical_formula_sum   'Li2 Mo2 P4 O16'
_cell_volume   301.87894469
_cell_formula_units_Z   2
loop_
 _symmetry_equiv_pos_site_id
 _symmetry_equiv_pos_as_xyz
  1  'x, y, z'
loop_
 _atom_site_type_symbol
 _atom_site_label
 _atom_site_symmetry_multiplicity
 _atom_site_fract_x
 _atom_site_fract_y
 _atom_site_fract_z
 _atom_site_occupancy
  Li  Li0  1  0.93060073  1.00000000  0.75000000  1
  Li  Li1  1  0.06939927  0.00000000  0.25000000  1
  Mo  Mo2  1  0.00000000  -0.00000000  0.00000000  1
  Mo  Mo3  1  0.00000000  -0.00000000  0.50000000  1
  P  P4  1  0.64234655  0.67562999  0.88041224  1
  P  P5  1  0.31797754  0.32437001  0.61958776  1
  P  P6  1  0.35765345  0.32437001  0.11958776  1
  P  P7  1  0.68202246  0.67562999  0.38041224  1
  O  O8  1  0.86099086  0.86989553  0.38031372  1
  O  O9  1  0.26911361  0.86989553  0.88031372  1
  O  O10  1  0.56567794  0.21081079  0.53632673  1
  O  O11  1  0.73088639  0.13010447  0.11968628  1
  O  O12  1  0.22351126  0.21081079  0.03632673  1
  O  O13  1  0.29225290  0.63975835  0.08224221  1
  O  O14  1  0.93201126  0.36024165  0.41775779  1
  O  O15  1  0.21061511  0.30170321  0.21220594  1
  O  O16  1  0.43432206  0.78918921  0.46367327  1
  O  O17  1  0.51231832  0.69829679  0.28779406  1
  O  O18  1  0.77648874  0.78918921  0.96367327  1
  O  O19  1  0.70774710  0.36024165  0.91775779  1
  O  O20  1  0.06798874  0.63975835  0.58224221  1
  O  O21  1  0.78938489  0.69829679  0.78779406  1
  O  O22  1  0.48768168  0.30170321  0.71220594  1
  O  O23  1  0.13900914  0.13010447  0.61968628  1
