# generated using pymatgen
data_NbAgO3
_symmetry_space_group_name_H-M   'P 1'
_cell_length_a   5.67056394
_cell_length_b   5.74775136
_cell_length_c   15.76260209
_cell_angle_alpha   90.00000000
_cell_angle_beta   90.00000000
_cell_angle_gamma   90.00000000
_symmetry_Int_Tables_number   1
_chemical_formula_structural   NbAgO3
_chemical_formula_sum   'Nb8 Ag8 O24'
_cell_volume   513.75035748
_cell_formula_units_Z   8
loop_
 _symmetry_equiv_pos_site_id
 _symmetry_equiv_pos_as_xyz
  1  'x, y, z'
loop_
 _atom_site_type_symbol
 _atom_site_label
 _atom_site_symmetry_multiplicity
 _atom_site_fract_x
 _atom_site_fract_y
 _atom_site_fract_z
 _atom_site_occupancy
  O  O0  1  0.80505865  0.72573315  0.75000000  1
  O  O1  1  0.80505865  0.77426685  0.25000000  1
  O  O2  1  0.19494135  0.22573315  0.75000000  1
  O  O3  1  0.19494135  0.27426685  0.25000000  1
  O  O4  1  0.54641829  0.46249097  0.35969930  1
  O  O5  1  0.54641829  0.03750903  0.64030070  1
  O  O6  1  0.45358171  0.96249097  0.14030070  1
  O  O7  1  0.45358171  0.53750903  0.85969930  1
  O  O8  1  0.45358171  0.53750903  0.64030070  1
  O  O9  1  0.45358171  0.96249097  0.35969930  1
  O  O10  1  0.54641829  0.03750903  0.85969930  1
  O  O11  1  0.54641829  0.46249097  0.14030070  1
  O  O12  1  0.95896063  0.04348195  0.39033180  1
  O  O13  1  0.95896063  0.45651805  0.60966820  1
  O  O14  1  0.04103937  0.54348195  0.10966820  1
  O  O15  1  0.04103937  0.95651805  0.89033180  1
  O  O16  1  0.31123228  0.25000000  0.00000000  1
  O  O17  1  0.68876772  0.75000000  0.50000000  1
  O  O18  1  0.68876772  0.75000000  0.00000000  1
  O  O19  1  0.31123228  0.25000000  0.50000000  1
  O  O20  1  0.95896063  0.04348195  0.10966820  1
  O  O21  1  0.95896063  0.45651805  0.89033180  1
  O  O22  1  0.04103937  0.54348195  0.39033180  1
  O  O23  1  0.04103937  0.95651805  0.60966820  1
  Nb  Nb24  1  0.24240598  0.21453223  0.12499277  1
  Nb  Nb25  1  0.24240598  0.28546777  0.87500723  1
  Nb  Nb26  1  0.75759402  0.71453223  0.37500723  1
  Nb  Nb27  1  0.75759402  0.78546777  0.62499277  1
  Nb  Nb28  1  0.75759402  0.78546777  0.87500723  1
  Nb  Nb29  1  0.75759402  0.71453223  0.12499277  1
  Nb  Nb30  1  0.24240598  0.28546777  0.62499277  1
  Nb  Nb31  1  0.24240598  0.21453223  0.37500723  1
  Ag  Ag32  1  0.74028591  0.25000000  0.00000000  1
  Ag  Ag33  1  0.25971409  0.75000000  0.50000000  1
  Ag  Ag34  1  0.25971409  0.75000000  0.00000000  1
  Ag  Ag35  1  0.74028591  0.25000000  0.50000000  1
  Ag  Ag36  1  0.73517851  0.21578323  0.25000000  1
  Ag  Ag37  1  0.73517851  0.28421677  0.75000000  1
  Ag  Ag38  1  0.26482149  0.71578323  0.25000000  1
  Ag  Ag39  1  0.26482149  0.78421677  0.75000000  1
