# generated using pymatgen
data_BaH2N2O5
_symmetry_space_group_name_H-M   'P 1'
_cell_length_a   7.17570888
_cell_length_b   7.17570924
_cell_length_c   18.22568289
_cell_angle_alpha   90.00000000
_cell_angle_beta   90.00000000
_cell_angle_gamma   119.99999832
_symmetry_Int_Tables_number   1
_chemical_formula_structural   BaH2N2O5
_chemical_formula_sum   'Ba6 H12 N12 O30'
_cell_volume   812.72588544
_cell_formula_units_Z   6
loop_
 _symmetry_equiv_pos_site_id
 _symmetry_equiv_pos_as_xyz
  1  'x, y, z'
loop_
 _atom_site_type_symbol
 _atom_site_label
 _atom_site_symmetry_multiplicity
 _atom_site_fract_x
 _atom_site_fract_y
 _atom_site_fract_z
 _atom_site_occupancy
  Ba  Ba0  1  0.85703338  0.43158749  0.99800762  1
  Ba  Ba1  1  0.42544589  0.85703338  0.16467462  1
  Ba  Ba2  1  0.43158749  0.57455411  0.83134062  1
  Ba  Ba3  1  0.56841251  0.42544589  0.33134062  1
  Ba  Ba4  1  0.57455411  0.14296662  0.66467462  1
  Ba  Ba5  1  0.14296662  0.56841251  0.49800762  1
  N  N6  1  0.03678194  0.24669507  0.14530261  1
  N  N7  1  0.79008687  0.03678194  0.31196961  1
  N  N8  1  0.24669507  0.20991313  0.97863561  1
  N  N9  1  0.75330493  0.79008687  0.47863561  1
  N  N10  1  0.20991313  0.96321806  0.81196961  1
  N  N11  1  0.96321806  0.75330493  0.64530261  1
  N  N12  1  0.12486004  0.57047761  0.32506277  1
  N  N13  1  0.55438243  0.12486004  0.49172977  1
  N  N14  1  0.57047761  0.44561757  0.15839577  1
  N  N15  1  0.42952239  0.55438243  0.65839577  1
  N  N16  1  0.44561757  0.87513996  0.99172977  1
  N  N17  1  0.87513996  0.42952239  0.82506277  1
  O  O18  1  0.10531185  0.43787378  0.12332356  1
  O  O19  1  0.66743807  0.10531185  0.28999056  1
  O  O20  1  0.43787378  0.33256193  0.95665656  1
  O  O21  1  0.56212622  0.66743807  0.45665656  1
  O  O22  1  0.33256193  0.89468815  0.78999056  1
  O  O23  1  0.89468815  0.56212622  0.62332356  1
  O  O24  1  0.86827307  0.10500661  0.11289363  1
  O  O25  1  0.76326646  0.86827307  0.27956063  1
  O  O26  1  0.10500661  0.23673354  0.94622663  1
  O  O27  1  0.89499339  0.76326646  0.44622663  1
  O  O28  1  0.23673354  0.13172693  0.77956063  1
  O  O29  1  0.13172693  0.89499339  0.61289363  1
  O  O30  1  0.29700321  0.59605681  0.29553732  1
  O  O31  1  0.70094639  0.29700321  0.46220432  1
  O  O32  1  0.59605681  0.29905361  0.12887032  1
  O  O33  1  0.40394319  0.70094639  0.62887032  1
  O  O34  1  0.29905361  0.70299679  0.96220432  1
  O  O35  1  0.70299679  0.40394319  0.79553732  1
  O  O36  1  0.01087459  0.61757008  0.28477756  1
  O  O37  1  0.39330451  0.01087459  0.45144456  1
  O  O38  1  0.61757008  0.60669549  0.11811056  1
  O  O39  1  0.38242992  0.39330451  0.61811056  1
  O  O40  1  0.60669549  0.98912541  0.95144456  1
  O  O41  1  0.98912541  0.38242992  0.78477756  1
  O  O42  1  0.15454737  0.23100042  0.41172698  1
  O  O43  1  0.92354696  0.15454737  0.57839398  1
  O  O44  1  0.23100042  0.07645304  0.24505998  1
  O  O45  1  0.76899958  0.92354696  0.74505998  1
  O  O46  1  0.07645304  0.84545263  0.07839398  1
  O  O47  1  0.84545263  0.76899958  0.91172698  1
  H  H48  1  0.02702898  0.17026926  0.37849858  1
  H  H49  1  0.85675972  0.02702898  0.54516558  1
  H  H50  1  0.17026926  0.14324028  0.21183158  1
  H  H51  1  0.82973074  0.85675972  0.71183158  1
  H  H52  1  0.14324028  0.97297102  0.04516558  1
  H  H53  1  0.97297102  0.82973074  0.87849858  1
  H  H54  1  0.14587721  0.10384042  0.43526937  1
  H  H55  1  0.04203679  0.14587721  0.60193637  1
  H  H56  1  0.10384042  0.95796321  0.26860237  1
  H  H57  1  0.89615958  0.04203679  0.76860237  1
  H  H58  1  0.95796321  0.85412279  0.10193637  1
  H  H59  1  0.85412279  0.89615958  0.93526937  1
