# generated using pymatgen
data_PH10C2NO4
_symmetry_space_group_name_H-M   'P 1'
_cell_length_a   6.85902617
_cell_length_b   9.49445144
_cell_length_c   9.65962906
_cell_angle_alpha   90.00000000
_cell_angle_beta   92.94278743
_cell_angle_gamma   90.00000000
_symmetry_Int_Tables_number   1
_chemical_formula_structural   PH10C2NO4
_chemical_formula_sum   'P4 H40 C8 N4 O16'
_cell_volume   628.23149205
_cell_formula_units_Z   4
loop_
 _symmetry_equiv_pos_site_id
 _symmetry_equiv_pos_as_xyz
  1  'x, y, z'
loop_
 _atom_site_type_symbol
 _atom_site_label
 _atom_site_symmetry_multiplicity
 _atom_site_fract_x
 _atom_site_fract_y
 _atom_site_fract_z
 _atom_site_occupancy
  P  P0  1  0.25521433  0.32463916  0.52073485  1
  P  P1  1  0.25521433  0.17536084  0.02073485  1
  P  P2  1  0.74478567  0.82463916  0.97926515  1
  P  P3  1  0.74478567  0.67536084  0.47926515  1
  H  H4  1  0.92702484  0.29391690  0.68811198  1
  H  H5  1  0.12033321  0.65741320  0.07196293  1
  H  H6  1  0.87966679  0.15741320  0.42803707  1
  H  H7  1  0.19627841  0.89991469  0.17884020  1
  H  H8  1  0.69188307  0.34437501  0.64453638  1
  H  H9  1  0.00000000  0.00000000  0.00000000  1
  H  H10  1  0.24158771  0.21250355  0.31578247  1
  H  H11  1  0.80372159  0.39991469  0.32115980  1
  H  H12  1  0.92702484  0.20608310  0.18811198  1
  H  H13  1  0.07297516  0.70608310  0.31188802  1
  H  H14  1  0.62908098  0.38724393  0.88385551  1
  H  H15  1  0.07297516  0.79391690  0.81188802  1
  H  H16  1  0.82327336  0.49418449  0.82313888  1
  H  H17  1  0.12033321  0.84258680  0.57196293  1
  H  H18  1  0.80372159  0.10008531  0.82115980  1
  H  H19  1  0.56019153  0.34263818  0.27374257  1
  H  H20  1  0.30811693  0.65562499  0.35546362  1
  H  H21  1  0.43980847  0.65736182  0.72625743  1
  H  H22  1  0.37091902  0.88724393  0.61614449  1
  H  H23  1  0.24158771  0.28749645  0.81578247  1
  H  H24  1  0.17672664  -0.00581551  0.67686112  1
  H  H25  1  0.30811693  0.84437501  0.85546362  1
  H  H26  1  0.69188307  0.15562499  0.14453638  1
  H  H27  1  0.82327336  1.00581551  0.32313888  1
  H  H28  1  0.43980847  0.84263818  0.22625743  1
  H  H29  1  0.50000000  0.00000000  0.00000000  1
  H  H30  1  0.37091902  0.61275607  0.11614449  1
  H  H31  1  0.28447950  0.59414339  0.85607384  1
  H  H32  1  0.00000000  0.50000000  0.50000000  1
  H  H33  1  0.62908098  0.11275607  0.38385551  1
  H  H34  1  0.87966679  0.34258680  0.92803707  1
  H  H35  1  0.56019153  0.15736182  0.77374257  1
  H  H36  1  0.75841229  0.78749645  0.68421753  1
  H  H37  1  0.28447950  0.90585661  0.35607384  1
  H  H38  1  0.75841229  0.71250355  0.18421753  1
  H  H39  1  0.17672664  0.50581551  0.17686112  1
  H  H40  1  0.71552050  0.40585661  0.14392616  1
  H  H41  1  0.71552050  0.09414339  0.64392616  1
  H  H42  1  0.19627841  0.60008531  0.67884020  1
  H  H43  1  0.50000000  0.50000000  0.50000000  1
  C  C44  1  0.22171541  0.61309820  0.15170803  1
  C  C45  1  0.71058738  0.15219172  0.74158567  1
  C  C46  1  0.77828459  0.38690180  0.84829197  1
  C  C47  1  0.77828459  0.11309820  0.34829197  1
  C  C48  1  0.28941262  0.84780828  0.25841433  1
  C  C49  1  0.71058738  0.34780828  0.24158567  1
  C  C50  1  0.28941262  0.65219172  0.75841433  1
  C  C51  1  0.22171541  0.88690180  0.65170803  1
  N  N52  1  0.78290173  0.29801995  0.72148828  1
  N  N53  1  0.21709827  0.79801995  0.77851172  1
  N  N54  1  0.21709827  0.70198005  0.27851172  1
  N  N55  1  0.78290173  0.20198005  0.22148828  1
  O  O56  1  0.27088887  0.30659444  0.91855995  1
  O  O57  1  0.17225322  0.22916077  0.15453739  1
  O  O58  1  0.12560632  0.43657293  0.44372373  1
  O  O59  1  0.72911113  0.80659444  0.58144005  1
  O  O60  1  0.82774678  0.77083923  0.84546261  1
  O  O61  1  0.87439368  0.93657293  0.05627627  1
  O  O62  1  0.72911113  0.69340556  0.08144005  1
  O  O63  1  0.27088887  0.19340556  0.41855995  1
  O  O64  1  0.53472902  0.61431625  0.45218236  1
  O  O65  1  0.53472902  0.88568375  0.95218236  1
  O  O66  1  0.82774678  0.72916077  0.34546261  1
  O  O67  1  0.12560632  0.06342707  0.94372373  1
  O  O68  1  0.17225322  0.27083923  0.65453739  1
  O  O69  1  0.46527098  0.11431625  0.04781764  1
  O  O70  1  0.46527098  0.38568375  0.54781764  1
  O  O71  1  0.87439368  0.56342707  0.55627627  1
