# generated using pymatgen
data_BaH2N2O5
_symmetry_space_group_name_H-M   'P 1'
_cell_length_a   7.17410802
_cell_length_b   7.17410842
_cell_length_c   18.17519682
_cell_angle_alpha   90.00000000
_cell_angle_beta   90.00000000
_cell_angle_gamma   119.99999810
_symmetry_Int_Tables_number   1
_chemical_formula_structural   BaH2N2O5
_chemical_formula_sum   'Ba6 H12 N12 O30'
_cell_volume   810.11301568
_cell_formula_units_Z   6
loop_
 _symmetry_equiv_pos_site_id
 _symmetry_equiv_pos_as_xyz
  1  'x, y, z'
loop_
 _atom_site_type_symbol
 _atom_site_label
 _atom_site_symmetry_multiplicity
 _atom_site_fract_x
 _atom_site_fract_y
 _atom_site_fract_z
 _atom_site_occupancy
  Ba  Ba0  1  0.43361253  0.85454842  0.99940803  1
  Ba  Ba1  1  0.57906411  0.43361253  0.83274103  1
  Ba  Ba2  1  0.85454842  0.42093589  0.16607503  1
  Ba  Ba3  1  0.14545158  0.57906411  0.66607503  1
  Ba  Ba4  1  0.42093589  0.56638747  0.33274103  1
  Ba  Ba5  1  0.56638747  0.14545158  0.49940803  1
  N  N6  1  0.24564114  0.03339129  0.14627923  1
  N  N7  1  0.21224985  0.24564114  0.97961223  1
  N  N8  1  0.03339129  0.78775015  0.31294623  1
  N  N9  1  0.96660871  0.21224985  0.81294623  1
  N  N10  1  0.78775015  0.75435886  0.47961223  1
  N  N11  1  0.75435886  0.96660871  0.64627923  1
  N  N12  1  0.56620652  0.12153242  0.32610560  1
  N  N13  1  0.44467410  0.56620652  0.15943860  1
  N  N14  1  0.12153242  0.55532590  0.49277260  1
  N  N15  1  0.87846758  0.44467410  0.99277260  1
  N  N16  1  0.55532590  0.43379348  0.65943860  1
  N  N17  1  0.43379348  0.87846758  0.82610560  1
  O  O18  1  0.43688945  0.10079931  0.12444605  1
  O  O19  1  0.33609014  0.43688945  0.95777905  1
  O  O20  1  0.10079931  0.66390986  0.29111305  1
  O  O21  1  0.89920069  0.33609014  0.79111305  1
  O  O22  1  0.66390986  0.56311055  0.45777905  1
  O  O23  1  0.56311055  0.89920069  0.62444605  1
  O  O24  1  0.10352985  0.86524117  0.11365441  1
  O  O25  1  0.23828868  0.10352985  0.94698741  1
  O  O26  1  0.86524117  0.76171132  0.28032141  1
  O  O27  1  0.13475883  0.23828868  0.78032141  1
  O  O28  1  0.76171132  0.89647015  0.44698741  1
  O  O29  1  0.89647015  0.13475883  0.61365441  1
  O  O30  1  0.59331804  0.29559584  0.29755914  1
  O  O31  1  0.29772219  0.59331804  0.13089214  1
  O  O32  1  0.29559584  0.70227781  0.46422614  1
  O  O33  1  0.70440416  0.29772219  0.96422614  1
  O  O34  1  0.70227781  0.40668196  0.63089214  1
  O  O35  1  0.40668196  0.70440416  0.79755914  1
  O  O36  1  0.61214565  0.00839229  0.28485347  1
  O  O37  1  0.60375335  0.61214565  0.11818647  1
  O  O38  1  0.00839229  0.39624665  0.45152047  1
  O  O39  1  0.99160771  0.60375335  0.95152047  1
  O  O40  1  0.39624665  0.38785435  0.61818647  1
  O  O41  1  0.38785435  0.99160771  0.78485347  1
  O  O42  1  0.22628637  0.15159574  0.41347535  1
  O  O43  1  0.07469063  0.22628637  0.24680835  1
  O  O44  1  0.15159574  0.92530937  0.58014235  1
  O  O45  1  0.84840426  0.07469063  0.08014235  1
  O  O46  1  0.92530937  0.77371363  0.74680835  1
  O  O47  1  0.77371363  0.84840426  0.91347535  1
  H  H48  1  0.16788894  0.02479064  0.37986540  1
  H  H49  1  0.14309831  0.16788894  0.21319840  1
  H  H50  1  0.02479064  0.85690169  0.54653240  1
  H  H51  1  0.97520936  0.14309831  0.04653240  1
  H  H52  1  0.85690169  0.83211106  0.71319840  1
  H  H53  1  0.83211106  0.97520936  0.87986540  1
  H  H54  1  0.09723230  0.13916150  0.43694334  1
  H  H55  1  0.95807080  0.09723230  0.27027634  1
  H  H56  1  0.13916150  0.04192920  0.60361034  1
  H  H57  1  0.86083850  0.95807080  0.10361034  1
  H  H58  1  0.04192920  0.90276770  0.77027634  1
  H  H59  1  0.90276770  0.86083850  0.93694334  1
