# generated using pymatgen
data_CuSiO3
_symmetry_space_group_name_H-M   'P 1'
_cell_length_a   8.83105141
_cell_length_b   8.83541169
_cell_length_c   8.83155815
_cell_angle_alpha   111.68765766
_cell_angle_beta   111.85595926
_cell_angle_gamma   111.62742749
_symmetry_Int_Tables_number   1
_chemical_formula_structural   CuSiO3
_chemical_formula_sum   'Cu6 Si6 O18'
_cell_volume   481.17754566
_cell_formula_units_Z   6
loop_
 _symmetry_equiv_pos_site_id
 _symmetry_equiv_pos_as_xyz
  1  'x, y, z'
loop_
 _atom_site_type_symbol
 _atom_site_label
 _atom_site_symmetry_multiplicity
 _atom_site_fract_x
 _atom_site_fract_y
 _atom_site_fract_z
 _atom_site_occupancy
  Cu  Cu0  1  0.95494036  0.34152103  0.53463186  1
  Si  Si1  1  0.78523029  0.91933305  0.17711423  1
  Cu  Cu2  1  0.46648459  0.04706464  0.65920448  1
  Cu  Cu3  1  0.04495730  0.65847746  0.46540143  1
  Si  Si4  1  0.82270766  0.21347577  0.08038350  1
  Si  Si5  1  0.91944089  0.17659254  0.78625346  1
  Cu  Cu6  1  0.53349535  0.95280237  0.34073686  1
  Si  Si7  1  0.17727352  0.78655673  0.91964432  1
  Si  Si8  1  0.21481422  0.08068865  0.82288269  1
  Cu  Cu9  1  0.33947247  0.53275967  0.95012966  1
  Cu  Cu10  1  0.66057326  0.46731125  0.04985592  1
  Si  Si11  1  0.08058381  0.82341557  0.21378880  1
  O  O12  1  0.93704618  0.37403751  0.32244822  1
  O  O13  1  0.95095176  0.63365193  0.21456821  1
  O  O14  1  0.73319165  0.98650786  0.02500049  1
  O  O15  1  0.04907073  0.36641314  0.78552281  1
  O  O16  1  0.36624182  0.78407640  0.05067574  1
  O  O17  1  0.26675876  0.01351569  0.97502027  1
  O  O18  1  0.98789854  0.02581320  0.73415165  1
  O  O19  1  0.78411939  0.05121658  0.36647727  1
  O  O20  1  0.67712546  0.06102822  0.62538569  1
  O  O21  1  0.37488442  0.32225247  0.93622148  1
  O  O22  1  0.32290540  0.93892439  0.37460074  1
  O  O23  1  0.02558927  0.73539841  0.98689505  1
  O  O24  1  0.01214907  0.97422024  0.26581836  1
  O  O25  1  0.21597932  0.94876068  0.63359481  1
  O  O26  1  0.62510749  0.67774960  0.06366812  1
  O  O27  1  0.63378199  0.21594780  0.94923374  1
  O  O28  1  0.06279377  0.62592857  0.67755377  1
  O  O29  1  0.97443126  0.26455856  0.01313637  1
