# generated using pymatgen
data_TlFeO3
_symmetry_space_group_name_H-M   'P 1'
_cell_length_a   5.41454549
_cell_length_b   5.55344849
_cell_length_c   7.94733710
_cell_angle_alpha   90.00000000
_cell_angle_beta   90.00000000
_cell_angle_gamma   90.00000000
_symmetry_Int_Tables_number   1
_chemical_formula_structural   TlFeO3
_chemical_formula_sum   'Tl4 Fe4 O12'
_cell_volume   238.97165403
_cell_formula_units_Z   4
loop_
 _symmetry_equiv_pos_site_id
 _symmetry_equiv_pos_as_xyz
  1  'x, y, z'
loop_
 _atom_site_type_symbol
 _atom_site_label
 _atom_site_symmetry_multiplicity
 _atom_site_fract_x
 _atom_site_fract_y
 _atom_site_fract_z
 _atom_site_occupancy
  Tl  Tl0  1  0.98280256  0.04957323  0.25000000  1
  Tl  Tl1  1  0.48280256  0.45042677  0.75000000  1
  Tl  Tl2  1  0.51719744  0.54957323  0.25000000  1
  Tl  Tl3  1  0.01719744  0.95042677  0.75000000  1
  Fe  Fe4  1  0.50000000  0.00000000  0.00000000  1
  Fe  Fe5  1  0.00000000  0.50000000  0.00000000  1
  Fe  Fe6  1  0.00000000  0.50000000  0.50000000  1
  Fe  Fe7  1  0.50000000  0.00000000  0.50000000  1
  O  O8  1  0.11397552  0.44576989  0.25000000  1
  O  O9  1  0.61397552  0.05423011  0.75000000  1
  O  O10  1  0.38602448  0.94576989  0.25000000  1
  O  O11  1  0.88602448  0.55423011  0.75000000  1
  O  O12  1  0.69600107  0.30054005  0.06166881  1
  O  O13  1  0.19600107  0.19945995  0.93833119  1
  O  O14  1  0.80399893  0.80054005  0.43833119  1
  O  O15  1  0.30399893  0.69945995  0.56166881  1
  O  O16  1  0.30399893  0.69945995  0.93833119  1
  O  O17  1  0.80399893  0.80054005  0.06166881  1
  O  O18  1  0.19600107  0.19945995  0.56166881  1
  O  O19  1  0.69600107  0.30054005  0.43833119  1
