# generated using pymatgen
data_SiO2
_symmetry_space_group_name_H-M   'P 1'
_cell_length_a   4.97978581
_cell_length_b   13.29135778
_cell_length_c   13.29135789
_cell_angle_alpha   115.09117656
_cell_angle_beta   75.59357193
_cell_angle_gamma   75.59357304
_symmetry_Int_Tables_number   1
_chemical_formula_structural   SiO2
_chemical_formula_sum   'Si12 O24'
_cell_volume   705.90994223
_cell_formula_units_Z   12
loop_
 _symmetry_equiv_pos_site_id
 _symmetry_equiv_pos_as_xyz
  1  'x, y, z'
loop_
 _atom_site_type_symbol
 _atom_site_label
 _atom_site_symmetry_multiplicity
 _atom_site_fract_x
 _atom_site_fract_y
 _atom_site_fract_z
 _atom_site_occupancy
  Si  Si0  1  0.16372003  0.63928261  0.50672636  1
  Si  Si1  1  0.86427837  0.87473847  0.51690164  1
  Si  Si2  1  0.13572163  0.48309836  0.12526153  1
  Si  Si3  1  0.47078126  0.86468105  0.36822609  1
  Si  Si4  1  0.83627997  0.36071739  0.49327364  1
  Si  Si5  1  0.47078126  0.36822609  0.86468105  1
  Si  Si6  1  0.52921874  0.63177391  0.13531895  1
  Si  Si7  1  0.86427837  0.51690164  0.87473847  1
  Si  Si8  1  0.83627997  0.49327364  0.36071739  1
  Si  Si9  1  0.52921874  0.13531895  0.63177391  1
  Si  Si10  1  0.13572163  0.12526153  0.48309836  1
  Si  Si11  1  0.16372003  0.50672636  0.63928261  1
  O  O12  1  0.81682373  0.11266954  0.52271573  1
  O  O13  1  0.76456765  0.82910232  0.40107655  1
  O  O14  1  0.06199022  0.43649290  0.22032759  1
  O  O15  1  0.18317627  0.47728427  0.88733046  1
  O  O16  1  0.50000000  0.23903151  0.76096849  1
  O  O17  1  0.40142440  0.99360043  0.37070177  1
  O  O18  1  0.40142440  0.37070177  0.99360043  1
  O  O19  1  0.93800978  0.77967241  0.56350710  1
  O  O20  1  0.00000000  0.55944470  0.44055530  1
  O  O21  1  0.50000000  0.59609583  0.40390417  1
  O  O22  1  0.79597180  0.38593368  0.38593368  1
  O  O23  1  1.00000000  0.44055530  0.55944470  1
  O  O24  1  0.23543235  0.17089768  0.59892345  1
  O  O25  1  0.81682373  0.52271573  0.11266954  1
  O  O26  1  0.76456765  0.40107655  0.82910232  1
  O  O27  1  0.59857560  0.00639957  0.62929823  1
  O  O28  1  0.06199022  0.22032759  0.43649290  1
  O  O29  1  0.93800978  0.56350710  0.77967241  1
  O  O30  1  0.50000000  0.40390417  0.59609583  1
  O  O31  1  0.20402820  0.61406632  0.61406632  1
  O  O32  1  0.18317627  0.88733046  0.47728427  1
  O  O33  1  0.50000000  0.76096849  0.23903151  1
  O  O34  1  0.59857560  0.62929823  0.00639957  1
  O  O35  1  0.23543235  0.59892345  0.17089768  1
