# generated using pymatgen
data_Te2MoCl4O
_symmetry_space_group_name_H-M   'P 1'
_cell_length_a   7.19012792
_cell_length_b   10.97079025
_cell_length_c   12.22412709
_cell_angle_alpha   89.16886737
_cell_angle_beta   90.00000000
_cell_angle_gamma   90.00000000
_symmetry_Int_Tables_number   1
_chemical_formula_structural   Te2MoCl4O
_chemical_formula_sum   'Te8 Mo4 Cl16 O4'
_cell_volume   964.15462971
_cell_formula_units_Z   4
loop_
 _symmetry_equiv_pos_site_id
 _symmetry_equiv_pos_as_xyz
  1  'x, y, z'
loop_
 _atom_site_type_symbol
 _atom_site_label
 _atom_site_symmetry_multiplicity
 _atom_site_fract_x
 _atom_site_fract_y
 _atom_site_fract_z
 _atom_site_occupancy
  Te  Te0  1  0.71323003  0.42708717  0.07283901  1
  Te  Te1  1  0.78676997  0.92708717  0.57283901  1
  Te  Te2  1  0.42674393  0.57175495  0.13565867  1
  Te  Te3  1  0.92674393  0.92824505  0.36434133  1
  Te  Te4  1  0.07325607  0.07175495  0.63565867  1
  Te  Te5  1  0.21323003  0.07291283  0.42716099  1
  Te  Te6  1  0.57325607  0.42824505  0.86434133  1
  Te  Te7  1  0.28676997  0.57291283  0.92716099  1
  Mo  Mo8  1  0.18556700  0.13460286  0.04570973  1
  Mo  Mo9  1  0.81443300  0.86539714  0.95429027  1
  Mo  Mo10  1  0.31443300  0.63460286  0.54570973  1
  Mo  Mo11  1  0.68556700  0.36539714  0.45429027  1
  Cl  Cl12  1  0.72180739  0.01444546  0.81676936  1
  Cl  Cl13  1  0.00772209  0.26462214  0.92179397  1
  Cl  Cl14  1  0.09996596  0.26636388  0.18848969  1
  Cl  Cl15  1  0.83167491  0.03110997  0.08679968  1
  Cl  Cl16  1  0.50772209  0.23537786  0.57820603  1
  Cl  Cl17  1  0.77819261  0.51444546  0.31676936  1
  Cl  Cl18  1  0.66832509  0.53110997  0.58679968  1
  Cl  Cl19  1  0.59996596  0.23363612  0.31151031  1
  Cl  Cl20  1  0.22180739  0.48555454  0.68323064  1
  Cl  Cl21  1  0.40003404  0.76636388  0.68848969  1
  Cl  Cl22  1  0.27819261  0.98555454  0.18323064  1
  Cl  Cl23  1  0.16832509  0.96889003  0.91320032  1
  Cl  Cl24  1  0.99227791  0.73537786  0.07820603  1
  Cl  Cl25  1  0.33167491  0.46889003  0.41320032  1
  Cl  Cl26  1  0.49227791  0.76462214  0.42179397  1
  Cl  Cl27  1  0.90003404  0.73363612  0.81151031  1
  O  O28  1  0.40100825  0.18452662  0.01057688  1
  O  O29  1  0.90100825  0.31547338  0.48942312  1
  O  O30  1  0.09899175  0.68452662  0.51057688  1
  O  O31  1  0.59899175  0.81547338  0.98942312  1
