# generated using pymatgen
data_BaTbMn2O6
_symmetry_space_group_name_H-M   'P 1'
_cell_length_a   5.58221366
_cell_length_b   5.53596374
_cell_length_c   7.82362787
_cell_angle_alpha   90.00000000
_cell_angle_beta   89.95980154
_cell_angle_gamma   90.00000000
_symmetry_Int_Tables_number   1
_chemical_formula_structural   BaTbMn2O6
_chemical_formula_sum   'Ba2 Tb2 Mn4 O12'
_cell_volume   241.77298396
_cell_formula_units_Z   2
loop_
 _symmetry_equiv_pos_site_id
 _symmetry_equiv_pos_as_xyz
  1  'x, y, z'
loop_
 _atom_site_type_symbol
 _atom_site_label
 _atom_site_symmetry_multiplicity
 _atom_site_fract_x
 _atom_site_fract_y
 _atom_site_fract_z
 _atom_site_occupancy
  Ba  Ba0  1  0.74056053  0.25000000  0.99994473  1
  Ba  Ba1  1  0.25943947  0.75000000  0.00005527  1
  Tb  Tb2  1  0.74108963  0.25000000  0.50019591  1
  Tb  Tb3  1  0.25891037  0.75000000  0.49980409  1
  Mn  Mn4  1  0.24892887  0.25000000  0.25766465  1
  Mn  Mn5  1  0.75107113  0.75000000  0.74233535  1
  Mn  Mn6  1  0.24888820  0.25000000  0.74226233  1
  Mn  Mn7  1  0.75111180  0.75000000  0.25773767  1
  O  O8  1  0.50001342  0.99992695  0.25426538  1
  O  O9  1  0.49998658  0.49992695  0.74573462  1
  O  O10  1  0.49998658  0.00007305  0.74573462  1
  O  O11  1  0.50001342  0.50007305  0.25426538  1
  O  O12  1  0.21791384  0.25000000  0.99994012  1
  O  O13  1  0.78208616  0.75000000  0.00005988  1
  O  O14  1  0.32148519  0.25000000  0.49996478  1
  O  O15  1  0.67851481  0.75000000  0.50003522  1
  O  O16  1  0.00009593  0.49997159  0.30692382  1
  O  O17  1  0.99990407  0.99997159  0.69307618  1
  O  O18  1  0.99990407  0.50002841  0.69307618  1
  O  O19  1  0.00009593  0.00002841  0.30692382  1
