# generated using pymatgen
data_Li2V6O13
_symmetry_space_group_name_H-M   'P 1'
_cell_length_a   3.71563123
_cell_length_b   6.32695602
_cell_length_c   11.12666352
_cell_angle_alpha   100.25531481
_cell_angle_beta   89.99947943
_cell_angle_gamma   107.07249470
_symmetry_Int_Tables_number   1
_chemical_formula_structural   Li2V6O13
_chemical_formula_sum   'Li2 V6 O13'
_cell_volume   245.67154152
_cell_formula_units_Z   1
loop_
 _symmetry_equiv_pos_site_id
 _symmetry_equiv_pos_as_xyz
  1  'x, y, z'
loop_
 _atom_site_type_symbol
 _atom_site_label
 _atom_site_symmetry_multiplicity
 _atom_site_fract_x
 _atom_site_fract_y
 _atom_site_fract_z
 _atom_site_occupancy
  Li  Li0  1  0.09436675  0.18860878  0.14291322  1
  Li  Li1  1  0.90563115  0.81138562  0.85708377  1
  V  V2  1  0.64518598  0.29028965  0.95176263  1
  V  V3  1  0.35481500  0.70971544  0.04824119  1
  V  V4  1  0.40777366  0.81570737  0.39255344  1
  V  V5  1  0.29391638  0.58780000  0.63672081  1
  V  V6  1  0.59222510  0.18429295  0.60744845  1
  V  V7  1  0.70608370  0.41219639  0.36327744  1
  O  O8  1  0.43243303  0.86482065  0.57196949  1
  O  O9  1  0.81816327  0.63637204  0.99252691  1
  O  O10  1  0.75878440  0.51751014  0.59471953  1
  O  O11  1  0.12305048  0.24600570  0.62335751  1
  O  O12  1  0.38958232  0.77924360  0.20254900  1
  O  O13  1  0.65458898  0.30898507  0.21185623  1
  O  O14  1  0.61042098  0.22076325  0.79745486  1
  O  O15  1  0.18183837  0.36363480  0.00747633  1
  O  O16  1  0.49999792  0.99999884  0.99999876  1
  O  O17  1  0.24121571  0.48248643  0.40527758  1
  O  O18  1  0.56756653  0.13517735  0.42802961  1
  O  O19  1  0.34541264  0.69101559  0.78814013  1
  O  O20  1  0.87694765  0.75399033  0.37664412  1
