# generated using pymatgen
data_Sr8Tl3Cr(CuO5)4
_symmetry_space_group_name_H-M   'P 1'
_cell_length_a   3.70275750
_cell_length_b   11.79078486
_cell_length_c   11.79078376
_cell_angle_alpha   99.44153047
_cell_angle_beta   90.00000000
_cell_angle_gamma   90.00000000
_symmetry_Int_Tables_number   1
_chemical_formula_structural   Sr8Tl3Cr(CuO5)4
_chemical_formula_sum   'Sr8 Tl3 Cr1 Cu4 O20'
_cell_volume   507.79367301
_cell_formula_units_Z   1
loop_
 _symmetry_equiv_pos_site_id
 _symmetry_equiv_pos_as_xyz
  1  'x, y, z'
loop_
 _atom_site_type_symbol
 _atom_site_label
 _atom_site_symmetry_multiplicity
 _atom_site_fract_x
 _atom_site_fract_y
 _atom_site_fract_z
 _atom_site_occupancy
  Sr  Sr0  1  0.50000000  0.02762603  0.72535277  1
  Sr  Sr1  1  0.50000000  0.27464723  0.97237397  1
  Sr  Sr2  1  0.50000000  0.48680310  0.76755625  1
  Sr  Sr3  1  0.50000000  0.76746247  0.48677891  1
  Sr  Sr4  1  0.50000000  0.72533380  0.02758810  1
  Sr  Sr5  1  0.50000000  0.51322109  0.23253753  1
  Sr  Sr6  1  0.50000000  0.23244375  0.51319690  1
  Sr  Sr7  1  0.50000000  0.97241190  0.27466620  1
  Tl  Tl8  1  0.00000000  0.77327410  0.77324425  1
  Tl  Tl9  1  0.00000000  0.99999051  0.00000949  1
  Tl  Tl10  1  0.00000000  0.22675575  0.22672590  1
  Cr  Cr11  1  0.00000000  0.50000304  0.49999696  1
  Cu  Cu12  1  0.00000000  0.74724644  0.25275356  1
  Cu  Cu13  1  0.00000000  0.50000779  0.00020394  1
  Cu  Cu14  1  0.00000000  0.99979606  0.49999221  1
  Cu  Cu15  1  0.00000000  0.25269730  0.74730270  1
  O  O16  1  0.00000000  0.88352309  0.11647691  1
  O  O17  1  0.50000000  0.58393647  0.58391156  1
  O  O18  1  0.00000000  0.40302340  0.59697660  1
  O  O19  1  0.00000000  0.36308193  0.13499374  1
  O  O20  1  0.00000000  0.13079357  0.62028716  1
  O  O21  1  0.50000000  0.41608844  0.41606353  1
  O  O22  1  0.00000000  0.37971284  0.86920643  1
  O  O23  1  0.00000000  0.59699282  0.40300718  1
  O  O24  1  0.50000000  0.12518017  0.12516788  1
  O  O25  1  0.00000000  0.11645818  0.88354182  1
  O  O26  1  0.00000000  0.86500626  0.63691807  1
  O  O27  1  0.00000000  0.62014115  0.13069910  1
  O  O28  1  0.00000000  0.63697666  0.86498318  1
  O  O29  1  0.50000000  0.49987568  0.99973847  1
  O  O30  1  0.50000000  0.73600926  0.26399074  1
  O  O31  1  0.50000000  0.00026153  0.50012432  1
  O  O32  1  0.00000000  0.13501682  0.36302334  1
  O  O33  1  0.50000000  0.26406932  0.73593068  1
  O  O34  1  0.50000000  0.87483212  0.87481983  1
  O  O35  1  0.00000000  0.86930090  0.37985885  1
