# generated using pymatgen
data_SbAs3(Se2F3)2
_symmetry_space_group_name_H-M   'P 1'
_cell_length_a   6.45269655
_cell_length_b   9.97960307
_cell_length_c   10.77324534
_cell_angle_alpha   90.00000000
_cell_angle_beta   92.35850880
_cell_angle_gamma   90.00000000
_symmetry_Int_Tables_number   1
_chemical_formula_structural   SbAs3(Se2F3)2
_chemical_formula_sum   'Sb2 As6 Se8 F12'
_cell_volume   693.15922885
_cell_formula_units_Z   2
loop_
 _symmetry_equiv_pos_site_id
 _symmetry_equiv_pos_as_xyz
  1  'x, y, z'
loop_
 _atom_site_type_symbol
 _atom_site_label
 _atom_site_symmetry_multiplicity
 _atom_site_fract_x
 _atom_site_fract_y
 _atom_site_fract_z
 _atom_site_occupancy
  Sb  Sb0  1  0.50094143  0.25000000  0.83257168  1
  Sb  Sb1  1  0.49905857  0.75000000  0.16742832  1
  As  As2  1  0.94144289  0.75000000  0.51750397  1
  As  As3  1  0.02606195  0.87598100  0.84457862  1
  As  As4  1  0.97393805  0.37598100  0.15542138  1
  As  As5  1  0.05855711  0.25000000  0.48249603  1
  As  As6  1  0.97393805  0.12401900  0.15542138  1
  As  As7  1  0.02606195  0.62401900  0.84457862  1
  Se  Se8  1  0.86369425  0.93421129  0.65258499  1
  Se  Se9  1  0.86369425  0.56578871  0.65258499  1
  Se  Se10  1  0.65943710  0.25000000  0.22569713  1
  Se  Se11  1  0.34056290  0.75000000  0.77430287  1
  Se  Se12  1  0.13630575  0.43421129  0.34741501  1
  Se  Se13  1  0.68572493  0.25000000  0.44268681  1
  Se  Se14  1  0.13630575  0.06578871  0.34741501  1
  Se  Se15  1  0.31427507  0.75000000  0.55731319  1
  F  F16  1  0.72299654  0.25000000  0.71719852  1
  F  F17  1  0.64809574  0.38477421  0.92935902  1
  F  F18  1  0.63890620  0.61337249  0.26453104  1
  F  F19  1  0.28229757  0.25000000  0.94856625  1
  F  F20  1  0.63890620  0.88662751  0.26453104  1
  F  F21  1  0.71770243  0.75000000  0.05143375  1
  F  F22  1  0.35190426  0.88477421  0.07064098  1
  F  F23  1  0.36109380  0.38662751  0.73546896  1
  F  F24  1  0.36109380  0.11337249  0.73546896  1
  F  F25  1  0.64809574  0.11522579  0.92935902  1
  F  F26  1  0.35190426  0.61522579  0.07064098  1
  F  F27  1  0.27700346  0.75000000  0.28280148  1
