# generated using pymatgen
data_NaTiP2O7
_symmetry_space_group_name_H-M   'P 1'
_cell_length_a   5.31362276
_cell_length_b   8.81078007
_cell_length_c   12.34029069
_cell_angle_alpha   102.60670061
_cell_angle_beta   90.00000000
_cell_angle_gamma   90.00000000
_symmetry_Int_Tables_number   1
_chemical_formula_structural   NaTiP2O7
_chemical_formula_sum   'Na4 Ti4 P8 O28'
_cell_volume   563.80885272
_cell_formula_units_Z   4
loop_
 _symmetry_equiv_pos_site_id
 _symmetry_equiv_pos_as_xyz
  1  'x, y, z'
loop_
 _atom_site_type_symbol
 _atom_site_label
 _atom_site_symmetry_multiplicity
 _atom_site_fract_x
 _atom_site_fract_y
 _atom_site_fract_z
 _atom_site_occupancy
  Na  Na0  1  0.22961371  0.36381438  0.81020271  1
  Na  Na1  1  0.27038629  0.86381438  0.31020271  1
  Na  Na2  1  0.77038629  0.63618562  0.18979729  1
  Na  Na3  1  0.72961371  0.13618562  0.68979729  1
  Ti  Ti4  1  0.73567083  0.73402942  0.47128911  1
  Ti  Ti5  1  0.23567083  0.76597058  0.02871089  1
  Ti  Ti6  1  0.26432917  0.26597058  0.52871089  1
  Ti  Ti7  1  0.76432917  0.23402942  0.97128911  1
  P  P8  1  0.77832026  0.06819187  0.38470881  1
  P  P9  1  0.22167974  0.93180813  0.61529119  1
  P  P10  1  0.27832026  0.43180813  0.11529119  1
  P  P11  1  0.24465596  0.02185454  0.85474433  1
  P  P12  1  0.25534404  0.52185454  0.35474433  1
  P  P13  1  0.75534404  0.97814546  0.14525567  1
  P  P14  1  0.74465596  0.47814546  0.64525567  1
  P  P15  1  0.72167974  0.56819187  0.88470881  1
  O  O16  1  0.09652476  0.33119769  0.03651566  1
  O  O17  1  0.59652476  0.16880231  0.46348434  1
  O  O18  1  0.94392490  0.89557527  0.58849722  1
  O  O19  1  0.40347524  0.83119769  0.53651566  1
  O  O20  1  0.75603358  0.57673130  0.55822201  1
  O  O21  1  0.51250171  0.59845243  0.34685434  1
  O  O22  1  0.71869807  0.10186678  0.26291011  1
  O  O23  1  0.44392490  0.60442473  0.91150278  1
  O  O24  1  0.01250171  0.90154757  0.15314566  1
  O  O25  1  0.90347524  0.66880231  0.96348434  1
  O  O26  1  0.74396642  0.07673130  0.05822201  1
  O  O27  1  0.45997876  0.13977683  0.86568287  1
  O  O28  1  0.98749829  0.09845243  0.84685434  1
  O  O29  1  0.55607510  0.39557527  0.08849722  1
  O  O30  1  0.27387779  0.10812949  0.62918148  1
  O  O31  1  0.72612221  0.89187051  0.37081852  1
  O  O32  1  0.77387779  0.39187051  0.87081852  1
  O  O33  1  0.05607510  0.10442473  0.41150278  1
  O  O34  1  0.04002124  0.63977683  0.36568287  1
  O  O35  1  0.22612221  0.60812949  0.12918148  1
  O  O36  1  0.25603358  0.92326870  0.94177799  1
  O  O37  1  0.95997876  0.36022317  0.63431713  1
  O  O38  1  0.78130193  0.60186678  0.76291011  1
  O  O39  1  0.21869807  0.39813322  0.23708989  1
  O  O40  1  0.54002124  0.86022317  0.13431713  1
  O  O41  1  0.48749829  0.40154757  0.65314566  1
  O  O42  1  0.24396642  0.42326870  0.44177799  1
  O  O43  1  0.28130193  0.89813322  0.73708989  1
