# generated using pymatgen
data_Ho8Mg12Zn61
_symmetry_space_group_name_H-M   'P 1'
_cell_length_a   12.19774928
_cell_length_b   12.19774989
_cell_length_c   12.19774943
_cell_angle_alpha   109.47121819
_cell_angle_beta   109.47121921
_cell_angle_gamma   109.47122103
_symmetry_Int_Tables_number   1
_chemical_formula_structural   Ho8Mg12Zn61
_chemical_formula_sum   'Ho8 Mg12 Zn61'
_cell_volume   1397.06708913
_cell_formula_units_Z   1
loop_
 _symmetry_equiv_pos_site_id
 _symmetry_equiv_pos_as_xyz
  1  'x, y, z'
loop_
 _atom_site_type_symbol
 _atom_site_label
 _atom_site_symmetry_multiplicity
 _atom_site_fract_x
 _atom_site_fract_y
 _atom_site_fract_z
 _atom_site_occupancy
  Ho  Ho0  1  0.62668435  0.62668435  0.62668435  1
  Ho  Ho1  1  0.00000000  0.62668435  0.00000000  1
  Ho  Ho2  1  0.37331565  0.37331565  0.37331565  1
  Ho  Ho3  1  1.00000000  0.37331565  1.00000000  1
  Ho  Ho4  1  1.00000000  1.00000000  0.37331565  1
  Ho  Ho5  1  0.00000000  0.00000000  0.62668435  1
  Ho  Ho6  1  0.62668435  1.00000000  0.00000000  1
  Ho  Ho7  1  0.37331565  0.00000000  1.00000000  1
  Mg  Mg8  1  0.31891965  0.11670414  0.43562380  1
  Mg  Mg9  1  0.56437620  0.68108035  0.88329586  1
  Mg  Mg10  1  0.11670414  0.79778449  0.68108035  1
  Mg  Mg11  1  0.68108035  0.11670414  0.79778449  1
  Mg  Mg12  1  0.79778449  0.68108035  0.11670414  1
  Mg  Mg13  1  0.68108035  0.88329586  0.56437620  1
  Mg  Mg14  1  0.88329586  0.20221551  0.31891965  1
  Mg  Mg15  1  0.20221551  0.31891965  0.88329586  1
  Mg  Mg16  1  0.88329586  0.56437620  0.68108035  1
  Mg  Mg17  1  0.43562380  0.31891965  0.11670414  1
  Mg  Mg18  1  0.11670414  0.43562380  0.31891965  1
  Mg  Mg19  1  0.31891965  0.88329586  0.20221551  1
  Zn  Zn20  1  0.09927255  0.15433594  0.25360849  1
  Zn  Zn21  1  0.48910780  0.17420052  0.31490728  1
  Zn  Zn22  1  0.75196619  0.40993353  0.97589689  1
  Zn  Zn23  1  0.68509272  0.85929324  0.17420052  1
  Zn  Zn24  1  0.65796733  0.43403664  0.40993353  1
  Zn  Zn25  1  0.34203267  0.75196619  0.77606930  1
  Zn  Zn26  1  0.22393070  0.97589689  0.56596336  1
  Zn  Zn27  1  0.43403664  0.40993353  0.65796733  1
  Zn  Zn28  1  0.43403664  0.77606930  0.02410311  1
  Zn  Zn29  1  0.84566406  0.74639151  0.90072745  1
  Zn  Zn30  1  0.34203267  0.56596336  0.59006647  1
  Zn  Zn31  1  0.50000000  0.59011986  0.09011986  1
  Zn  Zn32  1  0.09927255  0.84566406  0.94493661  1
  Zn  Zn33  1  0.40993353  0.65796733  0.43403664  1
  Zn  Zn34  1  0.59006647  0.34203267  0.56596336  1
  Zn  Zn35  1  0.82579948  0.68509272  0.51089220  1
  Zn  Zn36  1  0.24803381  0.22393070  0.65796733  1
  Zn  Zn37  1  0.02410311  0.24803381  0.59006647  1
  Zn  Zn38  1  0.15433594  0.25360849  0.09927255  1
  Zn  Zn39  1  0.56596336  0.22393070  0.97589689  1
  Zn  Zn40  1  0.59006647  0.02410311  0.24803381  1
  Zn  Zn41  1  0.21730076  0.71730076  0.50000000  1
  Zn  Zn42  1  0.50000000  0.78269924  0.28269924  1
  Zn  Zn43  1  0.17420052  0.31490728  0.48910780  1
  Zn  Zn44  1  0.84566406  0.94493661  0.09927255  1
  Zn  Zn45  1  0.78269924  0.28269924  0.50000000  1
  Zn  Zn46  1  0.05506339  0.90072745  0.15433594  1
  Zn  Zn47  1  0.77606930  0.02410311  0.43403664  1
  Zn  Zn48  1  0.15433594  0.05506339  0.90072745  1
  Zn  Zn49  1  0.85929324  0.17420052  0.68509272  1
  Zn  Zn50  1  0.59011986  0.09011986  0.50000000  1
  Zn  Zn51  1  0.24803381  0.59006647  0.02410311  1
  Zn  Zn52  1  0.82579948  0.31490728  0.14070676  1
  Zn  Zn53  1  0.68509272  0.51089220  0.82579948  1
  Zn  Zn54  1  0.71730076  0.50000000  0.21730076  1
  Zn  Zn55  1  0.17420052  0.68509272  0.85929324  1
  Zn  Zn56  1  0.90072745  0.15433594  0.05506339  1
  Zn  Zn57  1  0.77606930  0.34203267  0.75196619  1
  Zn  Zn58  1  0.51089220  0.82579948  0.68509272  1
  Zn  Zn59  1  0.22393070  0.65796733  0.24803381  1
  Zn  Zn60  1  0.90072745  0.84566406  0.74639151  1
  Zn  Zn61  1  0.65796733  0.24803381  0.22393070  1
  Zn  Zn62  1  0.00000000  0.00000000  0.00000000  1
  Zn  Zn63  1  0.31490728  0.48910780  0.17420052  1
  Zn  Zn64  1  0.50000000  0.40988014  0.90988014  1
  Zn  Zn65  1  0.90988014  0.50000000  0.40988014  1
  Zn  Zn66  1  0.14070676  0.82579948  0.31490728  1
  Zn  Zn67  1  0.74639151  0.90072745  0.84566406  1
  Zn  Zn68  1  0.94493661  0.09927255  0.84566406  1
  Zn  Zn69  1  0.75196619  0.77606930  0.34203267  1
  Zn  Zn70  1  0.97589689  0.56596336  0.22393070  1
  Zn  Zn71  1  0.31490728  0.14070676  0.82579948  1
  Zn  Zn72  1  0.40993353  0.97589689  0.75196619  1
  Zn  Zn73  1  0.97589689  0.75196619  0.40993353  1
  Zn  Zn74  1  0.40988014  0.90988014  0.50000000  1
  Zn  Zn75  1  0.56596336  0.59006647  0.34203267  1
  Zn  Zn76  1  0.02410311  0.43403664  0.77606930  1
  Zn  Zn77  1  0.50000000  0.21730076  0.71730076  1
  Zn  Zn78  1  0.25360849  0.09927255  0.15433594  1
  Zn  Zn79  1  0.28269924  0.50000000  0.78269924  1
  Zn  Zn80  1  0.09011986  0.50000000  0.59011986  1
