# generated using pymatgen
data_Na3V(SO)2
_symmetry_space_group_name_H-M   'P 1'
_cell_length_a   5.99795114
_cell_length_b   11.74576796
_cell_length_c   17.89753019
_cell_angle_alpha   90.00000000
_cell_angle_beta   90.00000000
_cell_angle_gamma   90.00000000
_symmetry_Int_Tables_number   1
_chemical_formula_structural   Na3V(SO)2
_chemical_formula_sum   'Na24 V8 S16 O16'
_cell_volume   1260.89070818
_cell_formula_units_Z   8
loop_
 _symmetry_equiv_pos_site_id
 _symmetry_equiv_pos_as_xyz
  1  'x, y, z'
loop_
 _atom_site_type_symbol
 _atom_site_label
 _atom_site_symmetry_multiplicity
 _atom_site_fract_x
 _atom_site_fract_y
 _atom_site_fract_z
 _atom_site_occupancy
  Na  Na0  1  0.71086236  0.62213345  0.73800326  1
  Na  Na1  1  0.28913764  0.87786655  0.23800326  1
  Na  Na2  1  0.85595568  0.16991909  0.95306089  1
  Na  Na3  1  0.28913764  0.37786655  0.26199674  1
  Na  Na4  1  0.76100638  0.37223329  0.09994275  1
  Na  Na5  1  0.73899362  0.37223329  0.59994275  1
  Na  Na6  1  0.64404432  0.66991909  0.04693911  1
  Na  Na7  1  0.21086236  0.37786655  0.76199674  1
  Na  Na8  1  0.78913764  0.62213345  0.23800326  1
  Na  Na9  1  0.64404432  0.16991909  0.45306089  1
  Na  Na10  1  0.23899362  0.12776671  0.59994275  1
  Na  Na11  1  0.76100638  0.87223329  0.40005725  1
  Na  Na12  1  0.21086236  0.87786655  0.73800326  1
  Na  Na13  1  0.85595568  0.66991909  0.54693911  1
  Na  Na14  1  0.73899362  0.87223329  0.90005725  1
  Na  Na15  1  0.35595568  0.33008091  0.95306089  1
  Na  Na16  1  0.26100638  0.62776671  0.40005725  1
  Na  Na17  1  0.14404432  0.33008091  0.45306089  1
  Na  Na18  1  0.78913764  0.12213345  0.26199674  1
  Na  Na19  1  0.26100638  0.12776671  0.09994275  1
  Na  Na20  1  0.23899362  0.62776671  0.90005725  1
  Na  Na21  1  0.71086236  0.12213345  0.76199674  1
  Na  Na22  1  0.35595568  0.83008091  0.54693911  1
  Na  Na23  1  0.14404432  0.83008091  0.04693911  1
  V  V24  1  0.16758610  0.55823438  0.11225733  1
  V  V25  1  0.66758710  0.44176562  0.38774267  1
  V  V26  1  0.83241290  0.94176562  0.61225733  1
  V  V27  1  0.66758710  0.94176562  0.11225733  1
  V  V28  1  0.16758610  0.05823438  0.38774267  1
  V  V29  1  0.33241390  0.05823438  0.88774267  1
  V  V30  1  0.33241390  0.55823438  0.61225733  1
  V  V31  1  0.83241290  0.44176562  0.88774267  1
  S  S32  1  0.20337139  0.62853626  0.71807884  1
  S  S33  1  0.29662861  0.12853626  0.28192116  1
  S  S34  1  0.77231376  0.62369478  0.39672776  1
  S  S35  1  0.27231376  0.87630522  0.39672776  1
  S  S36  1  0.72768624  0.12369478  0.60327224  1
  S  S37  1  0.79662861  0.87146374  0.21807884  1
  S  S38  1  0.29662861  0.62853626  0.21807884  1
  S  S39  1  0.27231376  0.37630522  0.10327224  1
  S  S40  1  0.79662861  0.37146374  0.28192116  1
  S  S41  1  0.72768624  0.62369478  0.89672776  1
  S  S42  1  0.22768624  0.37630522  0.60327224  1
  S  S43  1  0.77231376  0.12369478  0.10327224  1
  S  S44  1  0.70337139  0.87146374  0.71807884  1
  S  S45  1  0.22768624  0.87630522  0.89672776  1
  S  S46  1  0.70337139  0.37146374  0.78192116  1
  S  S47  1  0.20337139  0.12853626  0.78192116  1
  O  O48  1  0.73791243  0.36157567  0.96136810  1
  O  O49  1  0.88264043  0.06224596  0.38414033  1
  O  O50  1  0.38264043  0.93775404  0.11585967  1
  O  O51  1  0.61735957  0.56224596  0.61585967  1
  O  O52  1  0.11735957  0.93775404  0.61585967  1
  O  O53  1  0.76208757  0.36157567  0.46136810  1
  O  O54  1  0.73791243  0.86157567  0.53863190  1
  O  O55  1  0.26208757  0.63842433  0.03863190  1
  O  O56  1  0.23791243  0.13842433  0.96136810  1
  O  O57  1  0.11735957  0.43775404  0.88414033  1
  O  O58  1  0.23791243  0.63842433  0.53863190  1
  O  O59  1  0.61735957  0.06224596  0.88414033  1
  O  O60  1  0.76208757  0.86157567  0.03863190  1
  O  O61  1  0.38264043  0.43775404  0.38414033  1
  O  O62  1  0.88264043  0.56224596  0.11585967  1
  O  O63  1  0.26208757  0.13842433  0.46136810  1
