# generated using pymatgen
data_Ba4Fe3(S3F2)2
_symmetry_space_group_name_H-M   'P 1'
_cell_length_a   6.25158674
_cell_length_b   12.81374312
_cell_length_c   19.11516205
_cell_angle_alpha   90.00000000
_cell_angle_beta   90.00000000
_cell_angle_gamma   90.00000000
_symmetry_Int_Tables_number   1
_chemical_formula_structural   Ba4Fe3(S3F2)2
_chemical_formula_sum   'Ba16 Fe12 S24 F16'
_cell_volume   1531.24350227
_cell_formula_units_Z   4
loop_
 _symmetry_equiv_pos_site_id
 _symmetry_equiv_pos_as_xyz
  1  'x, y, z'
loop_
 _atom_site_type_symbol
 _atom_site_label
 _atom_site_symmetry_multiplicity
 _atom_site_fract_x
 _atom_site_fract_y
 _atom_site_fract_z
 _atom_site_occupancy
  Ba  Ba0  1  0.24529074  0.00063063  0.42127076  1
  Ba  Ba1  1  0.74529074  0.49936937  0.57872924  1
  Ba  Ba2  1  0.26366865  0.75040358  0.92138883  1
  Ba  Ba3  1  0.25470926  0.50063063  0.42127076  1
  Ba  Ba4  1  0.76366865  0.74959642  0.07861117  1
  Ba  Ba5  1  0.25470926  0.50063063  0.07872924  1
  Ba  Ba6  1  0.76366865  0.74959642  0.42138883  1
  Ba  Ba7  1  0.23633135  0.25040358  0.57861117  1
  Ba  Ba8  1  0.75470926  0.99936937  0.92127076  1
  Ba  Ba9  1  0.75470926  0.99936937  0.57872924  1
  Ba  Ba10  1  0.23633135  0.25040358  0.92138883  1
  Ba  Ba11  1  0.24529074  0.00063063  0.07872924  1
  Ba  Ba12  1  0.73633135  0.24959642  0.42138883  1
  Ba  Ba13  1  0.73633135  0.24959642  0.07861117  1
  Ba  Ba14  1  0.26366865  0.75040358  0.57861117  1
  Ba  Ba15  1  0.74529074  0.49936937  0.92127076  1
  Fe  Fe16  1  0.85726880  0.04879850  0.25000000  1
  Fe  Fe17  1  0.64273120  0.54879850  0.25000000  1
  Fe  Fe18  1  0.50330997  0.87517838  0.25000000  1
  Fe  Fe19  1  0.14649363  0.70230990  0.25000000  1
  Fe  Fe20  1  0.49669003  0.12482162  0.75000000  1
  Fe  Fe21  1  0.14273120  0.95120150  0.75000000  1
  Fe  Fe22  1  0.64649363  0.79769010  0.75000000  1
  Fe  Fe23  1  0.85350637  0.29769010  0.75000000  1
  Fe  Fe24  1  0.00330997  0.62482162  0.75000000  1
  Fe  Fe25  1  0.99669003  0.37517838  0.25000000  1
  Fe  Fe26  1  0.35726880  0.45120150  0.75000000  1
  Fe  Fe27  1  0.35350637  0.20230990  0.25000000  1
  S  S28  1  0.78135923  0.72815301  0.84915297  1
  S  S29  1  0.76649023  0.97265242  0.75000000  1
  S  S30  1  0.72465413  0.97816393  0.15088365  1
  S  S31  1  0.22465413  0.52183607  0.84911635  1
  S  S32  1  0.27534587  0.02183607  0.84911635  1
  S  S33  1  0.78135923  0.72815301  0.65084703  1
  S  S34  1  0.72465413  0.97816393  0.34911635  1
  S  S35  1  0.71864077  0.22815301  0.65084703  1
  S  S36  1  0.28135923  0.77184699  0.15084703  1
  S  S37  1  0.77534587  0.47816393  0.34911635  1
  S  S38  1  0.28135923  0.77184699  0.34915297  1
  S  S39  1  0.23350977  0.02734758  0.25000000  1
  S  S40  1  0.77534587  0.47816393  0.15088365  1
  S  S41  1  0.26649023  0.52734758  0.25000000  1
  S  S42  1  0.21864077  0.27184699  0.15084703  1
  S  S43  1  0.71864077  0.22815301  0.84915297  1
  S  S44  1  0.27038802  0.77723259  0.75000000  1
  S  S45  1  0.21864077  0.27184699  0.34915297  1
  S  S46  1  0.27534587  0.02183607  0.65088365  1
  S  S47  1  0.22961198  0.27723259  0.75000000  1
  S  S48  1  0.22465413  0.52183607  0.65088365  1
  S  S49  1  0.73350977  0.47265242  0.75000000  1
  S  S50  1  0.72961198  0.22276741  0.25000000  1
  S  S51  1  0.77038802  0.72276741  0.25000000  1
  F  F52  1  0.49077673  0.12503458  0.49872414  1
  F  F53  1  0.99077673  0.37496542  0.50127586  1
  F  F54  1  0.50916191  0.62506072  0.49787411  1
  F  F55  1  0.00916191  0.87493928  0.99787411  1
  F  F56  1  0.99083809  0.12506072  0.49787411  1
  F  F57  1  0.00916191  0.87493928  0.50212589  1
  F  F58  1  0.99083809  0.12506072  0.00212589  1
  F  F59  1  0.49083809  0.37493928  0.50212589  1
  F  F60  1  0.49083809  0.37493928  0.99787411  1
  F  F61  1  0.50922327  0.87496542  0.50127586  1
  F  F62  1  0.00922327  0.62503458  0.00127586  1
  F  F63  1  0.50922327  0.87496542  0.99872414  1
  F  F64  1  0.50916191  0.62506072  0.00212589  1
  F  F65  1  0.49077673  0.12503458  0.00127586  1
  F  F66  1  0.99077673  0.37496542  0.99872414  1
  F  F67  1  0.00922327  0.62503458  0.49872414  1
