# generated using pymatgen
data_Mo15Se19
_symmetry_space_group_name_H-M   'P 1'
_cell_length_a   9.62931776
_cell_length_b   9.62931771
_cell_length_c   19.85199648
_cell_angle_alpha   90.00000000
_cell_angle_beta   90.00000000
_cell_angle_gamma   120.00000023
_symmetry_Int_Tables_number   1
_chemical_formula_structural   Mo15Se19
_chemical_formula_sum   'Mo30 Se38'
_cell_volume   1594.13778006
_cell_formula_units_Z   2
loop_
 _symmetry_equiv_pos_site_id
 _symmetry_equiv_pos_as_xyz
  1  'x, y, z'
loop_
 _atom_site_type_symbol
 _atom_site_label
 _atom_site_symmetry_multiplicity
 _atom_site_fract_x
 _atom_site_fract_y
 _atom_site_fract_z
 _atom_site_occupancy
  Mo  Mo0  1  0.68743159  0.50447080  0.13343487  1
  Mo  Mo1  1  0.16536994  0.51208141  0.75000000  1
  Mo  Mo2  1  0.02101115  0.17104981  0.55965244  1
  Mo  Mo3  1  0.82895019  0.84996133  0.55965244  1
  Mo  Mo4  1  0.68743159  0.50447080  0.36656513  1
  Mo  Mo5  1  0.81703921  0.31256841  0.36656513  1
  Mo  Mo6  1  0.49552920  0.18296079  0.13343487  1
  Mo  Mo7  1  0.31256841  0.49552920  0.63343487  1
  Mo  Mo8  1  0.51208141  0.34671147  0.25000000  1
  Mo  Mo9  1  0.15003867  0.97898885  0.55965244  1
  Mo  Mo10  1  0.48791859  0.65328853  0.75000000  1
  Mo  Mo11  1  0.65328853  0.16536994  0.25000000  1
  Mo  Mo12  1  0.82895019  0.84996133  0.94034756  1
  Mo  Mo13  1  0.49552920  0.18296079  0.36656513  1
  Mo  Mo14  1  0.84996133  0.02101115  0.44034756  1
  Mo  Mo15  1  0.18296079  0.68743159  0.86656513  1
  Mo  Mo16  1  0.84996133  0.02101115  0.05965244  1
  Mo  Mo17  1  0.18296079  0.68743159  0.63343487  1
  Mo  Mo18  1  0.97898885  0.82895019  0.44034756  1
  Mo  Mo19  1  0.50447080  0.81703921  0.86656513  1
  Mo  Mo20  1  0.17104981  0.15003867  0.44034756  1
  Mo  Mo21  1  0.15003867  0.97898885  0.94034756  1
  Mo  Mo22  1  0.31256841  0.49552920  0.86656513  1
  Mo  Mo23  1  0.02101115  0.17104981  0.94034756  1
  Mo  Mo24  1  0.81703921  0.31256841  0.13343487  1
  Mo  Mo25  1  0.97898885  0.82895019  0.05965244  1
  Mo  Mo26  1  0.50447080  0.81703921  0.63343487  1
  Mo  Mo27  1  0.34671147  0.83463006  0.75000000  1
  Mo  Mo28  1  0.17104981  0.15003867  0.05965244  1
  Mo  Mo29  1  0.83463006  0.48791859  0.25000000  1
  Se  Se30  1  0.99692918  0.62440118  0.35610892  1
  Se  Se31  1  0.03538921  0.32706991  0.04805945  1
  Se  Se32  1  0.37252800  0.99692918  0.64389108  1
  Se  Se33  1  0.62440118  0.62747200  0.85610892  1
  Se  Se34  1  0.00000000  0.00000000  0.33881265  1
  Se  Se35  1  0.34207170  0.03811952  0.25000000  1
  Se  Se36  1  0.33333300  0.66666700  0.53188289  1
  Se  Se37  1  0.00000000  0.00000000  0.83881265  1
  Se  Se38  1  0.32706991  0.29168070  0.54805945  1
  Se  Se39  1  0.30395218  0.34207170  0.75000000  1
  Se  Se40  1  0.66666700  0.33333300  0.46811711  1
  Se  Se41  1  0.29168070  0.96461079  0.45194055  1
  Se  Se42  1  0.96461079  0.67293009  0.54805945  1
  Se  Se43  1  0.67293009  0.70831930  0.04805945  1
  Se  Se44  1  0.03811952  0.69604782  0.75000000  1
  Se  Se45  1  0.70831930  0.03538921  0.54805945  1
  Se  Se46  1  0.67293009  0.70831930  0.45194055  1
  Se  Se47  1  0.62747200  0.00307082  0.14389108  1
  Se  Se48  1  0.00307082  0.37559882  0.64389108  1
  Se  Se49  1  0.00307082  0.37559882  0.85610892  1
  Se  Se50  1  0.96188048  0.30395218  0.25000000  1
  Se  Se51  1  0.70831930  0.03538921  0.95194055  1
  Se  Se52  1  0.03538921  0.32706991  0.45194055  1
  Se  Se53  1  0.66666700  0.33333300  0.03188289  1
  Se  Se54  1  0.62747200  0.00307082  0.35610892  1
  Se  Se55  1  0.37252800  0.99692918  0.85610892  1
  Se  Se56  1  0.99692918  0.62440118  0.14389108  1
  Se  Se57  1  0.96461079  0.67293009  0.95194055  1
  Se  Se58  1  0.37559882  0.37252800  0.35610892  1
  Se  Se59  1  0.65792830  0.96188048  0.75000000  1
  Se  Se60  1  0.32706991  0.29168070  0.95194055  1
  Se  Se61  1  0.00000000  0.00000000  0.66118735  1
  Se  Se62  1  0.33333300  0.66666700  0.96811711  1
  Se  Se63  1  0.29168070  0.96461079  0.04805945  1
  Se  Se64  1  0.69604782  0.65792830  0.25000000  1
  Se  Se65  1  0.62440118  0.62747200  0.64389108  1
  Se  Se66  1  0.00000000  0.00000000  0.16118735  1
  Se  Se67  1  0.37559882  0.37252800  0.14389108  1
