# generated using pymatgen
data_InP3(HO5)2
_symmetry_space_group_name_H-M   'P 1'
_cell_length_a   9.15163405
_cell_length_b   9.32536171
_cell_length_c   13.42796359
_cell_angle_alpha   90.00000000
_cell_angle_beta   104.38139463
_cell_angle_gamma   90.00000000
_symmetry_Int_Tables_number   1
_chemical_formula_structural   InP3(HO5)2
_chemical_formula_sum   'In4 P12 H8 O40'
_cell_volume   1110.06289470
_cell_formula_units_Z   4
loop_
 _symmetry_equiv_pos_site_id
 _symmetry_equiv_pos_as_xyz
  1  'x, y, z'
loop_
 _atom_site_type_symbol
 _atom_site_label
 _atom_site_symmetry_multiplicity
 _atom_site_fract_x
 _atom_site_fract_y
 _atom_site_fract_z
 _atom_site_occupancy
  In  In0  1  0.70180198  0.89493035  0.77017668  1
  In  In1  1  0.79819802  0.39493035  0.72982332  1
  In  In2  1  0.20180198  0.60506965  0.27017668  1
  In  In3  1  0.29819802  0.10506965  0.22982332  1
  P  P4  1  0.24530680  0.40482635  0.08474894  1
  P  P5  1  0.50035105  0.60241260  0.74973331  1
  P  P6  1  0.00035105  0.89758740  0.24973331  1
  P  P7  1  0.75469320  0.59517365  0.91525106  1
  P  P8  1  0.74530680  0.09517365  0.58474894  1
  P  P9  1  0.38473276  0.98776205  0.02467558  1
  P  P10  1  0.99964895  0.10241260  0.75026669  1
  P  P11  1  0.88473276  0.51223795  0.52467558  1
  P  P12  1  0.49964895  0.39758740  0.25026669  1
  P  P13  1  0.25469320  0.90482635  0.41525106  1
  P  P14  1  0.11526724  0.48776205  0.47532442  1
  P  P15  1  0.61526724  0.01223795  0.97532442  1
  H  H16  1  0.14765485  0.34401565  0.92216159  1
  H  H17  1  0.29360370  0.52065410  0.65716052  1
  H  H18  1  0.35234515  0.84401565  0.57783841  1
  H  H19  1  0.20639630  0.02065410  0.84283948  1
  H  H20  1  0.85234515  0.65598435  0.07783841  1
  H  H21  1  0.64765485  0.15598435  0.42216159  1
  H  H22  1  0.79360370  0.97934590  0.15716052  1
  H  H23  1  0.70639630  0.47934590  0.34283948  1
  O  O24  1  0.16335584  0.04948899  0.76511342  1
  O  O25  1  0.80898070  0.73173348  0.87347621  1
  O  O26  1  0.09307166  0.98884921  0.19426292  1
  O  O27  1  0.67331650  0.95898574  0.61473783  1
  O  O28  1  0.59307166  0.51115079  0.69426292  1
  O  O29  1  0.00239073  0.62181918  0.48980211  1
  O  O30  1  0.76707215  0.00411945  0.04780048  1
  O  O31  1  0.99574335  0.26311731  0.77689053  1
  O  O32  1  0.23292785  0.99588055  0.95219952  1
  O  O33  1  0.40692834  0.48884921  0.30573708  1
  O  O34  1  0.22843217  0.40165234  0.96614506  1
  O  O35  1  0.49760927  0.12181918  0.01019789  1
  O  O36  1  0.66335584  0.45051101  0.26511342  1
  O  O37  1  0.60815404  0.03376240  0.86226490  1
  O  O38  1  0.82668350  0.45898574  0.88526217  1
  O  O39  1  0.90692834  0.01115079  0.80573708  1
  O  O40  1  0.73292785  0.50411945  0.45219952  1
  O  O41  1  0.10815404  0.46623760  0.36226490  1
  O  O42  1  0.19101930  0.26826652  0.12652379  1
  O  O43  1  0.39184596  0.96623760  0.13773510  1
  O  O44  1  0.33664416  0.54948899  0.73488658  1
  O  O45  1  0.89184596  0.53376240  0.63773510  1
  O  O46  1  0.30898070  0.76826652  0.37347621  1
  O  O47  1  0.27156783  0.90165234  0.53385494  1
  O  O48  1  0.26707215  0.49588055  0.54780048  1
  O  O49  1  0.49574335  0.23688269  0.27689053  1
  O  O50  1  0.17331650  0.54101426  0.11473783  1
  O  O51  1  0.42703534  0.41576840  0.12690915  1
  O  O52  1  0.83664416  0.95051101  0.23488658  1
  O  O53  1  0.69101930  0.23173348  0.62652379  1
  O  O54  1  0.07296466  0.91576840  0.37309085  1
  O  O55  1  0.32668350  0.04101426  0.38526217  1
  O  O56  1  0.77156783  0.59834766  0.03385494  1
  O  O57  1  0.00425665  0.73688269  0.22310947  1
  O  O58  1  0.50239073  0.87818082  0.98980211  1
  O  O59  1  0.50425665  0.76311731  0.72310947  1
  O  O60  1  0.57296466  0.58423160  0.87309085  1
  O  O61  1  0.72843217  0.09834766  0.46614506  1
  O  O62  1  0.99760927  0.37818082  0.51019789  1
  O  O63  1  0.92703534  0.08423160  0.62690915  1
