# generated using pymatgen
data_SiO2
_symmetry_space_group_name_H-M   'P 1'
_cell_length_a   20.54099515
_cell_length_b   7.20953800
_cell_length_c   9.85163810
_cell_angle_alpha   90.00000000
_cell_angle_beta   90.00000000
_cell_angle_gamma   90.00000000
_symmetry_Int_Tables_number   1
_chemical_formula_structural   SiO2
_chemical_formula_sum   'Si24 O48'
_cell_volume   1458.93977616
_cell_formula_units_Z   24
loop_
 _symmetry_equiv_pos_site_id
 _symmetry_equiv_pos_as_xyz
  1  'x, y, z'
loop_
 _atom_site_type_symbol
 _atom_site_label
 _atom_site_symmetry_multiplicity
 _atom_site_fract_x
 _atom_site_fract_y
 _atom_site_fract_z
 _atom_site_occupancy
  Si  Si0  1  0.18849207  0.51764865  0.16136315  1
  Si  Si1  1  0.18849207  0.48235135  0.83863685  1
  Si  Si2  1  0.31150793  0.51764865  0.33863685  1
  Si  Si3  1  0.31150793  0.48235135  0.66136315  1
  Si  Si4  1  0.81150793  0.48235135  0.83863685  1
  Si  Si5  1  0.81150793  0.51764865  0.16136315  1
  Si  Si6  1  0.68849207  0.48235135  0.66136315  1
  Si  Si7  1  0.68849207  0.51764865  0.33863685  1
  Si  Si8  1  0.07371549  0.24112053  0.14608912  1
  Si  Si9  1  0.07371549  0.75887947  0.85391088  1
  Si  Si10  1  0.42628451  0.24112053  0.35391088  1
  Si  Si11  1  0.42628451  0.75887947  0.64608912  1
  Si  Si12  1  0.92628451  0.75887947  0.85391088  1
  Si  Si13  1  0.92628451  0.24112053  0.14608912  1
  Si  Si14  1  0.57371549  0.75887947  0.64608912  1
  Si  Si15  1  0.57371549  0.24112053  0.35391088  1
  Si  Si16  1  0.13096520  0.88150525  0.11195552  1
  Si  Si17  1  0.13096520  0.11849475  0.88804448  1
  Si  Si18  1  0.36903480  0.88150525  0.38804448  1
  Si  Si19  1  0.36903480  0.11849475  0.61195552  1
  Si  Si20  1  0.86903480  0.11849475  0.88804448  1
  Si  Si21  1  0.86903480  0.88150525  0.11195552  1
  Si  Si22  1  0.63096520  0.11849475  0.61195552  1
  Si  Si23  1  0.63096520  0.88150525  0.38804448  1
  O  O24  1  0.20495505  0.50000000  0.00000000  1
  O  O25  1  0.29504495  0.50000000  0.50000000  1
  O  O26  1  0.79504495  0.50000000  0.00000000  1
  O  O27  1  0.70495505  0.50000000  0.50000000  1
  O  O28  1  0.12433892  0.60372152  0.79866322  1
  O  O29  1  0.12433892  0.39627848  0.20133678  1
  O  O30  1  0.37566108  0.60372152  0.70133678  1
  O  O31  1  0.37566108  0.39627848  0.29866322  1
  O  O32  1  0.87566108  0.39627848  0.20133678  1
  O  O33  1  0.87566108  0.60372152  0.79866322  1
  O  O34  1  0.62433892  0.39627848  0.29866322  1
  O  O35  1  0.62433892  0.60372152  0.70133678  1
  O  O36  1  0.17451794  0.00000000  0.00000000  1
  O  O37  1  0.32548206  0.00000000  0.50000000  1
  O  O38  1  0.82548206  0.00000000  0.00000000  1
  O  O39  1  0.67451794  0.00000000  0.50000000  1
  O  O40  1  0.17472990  0.73685302  0.19792906  1
  O  O41  1  0.17472990  0.26314698  0.80207094  1
  O  O42  1  0.32527010  0.73685302  0.30207094  1
  O  O43  1  0.32527010  0.26314698  0.69792906  1
  O  O44  1  0.82527010  0.26314698  0.80207094  1
  O  O45  1  0.82527010  0.73685302  0.19792906  1
  O  O46  1  0.67472990  0.26314698  0.69792906  1
  O  O47  1  0.67472990  0.73685302  0.30207094  1
  O  O48  1  0.25000000  0.55442381  0.75000000  1
  O  O49  1  0.25000000  0.44557619  0.25000000  1
  O  O50  1  0.75000000  0.44557619  0.25000000  1
  O  O51  1  0.75000000  0.55442381  0.75000000  1
  O  O52  1  0.09382502  0.96454789  0.79345536  1
  O  O53  1  0.09382502  0.03545211  0.20654464  1
  O  O54  1  0.40617498  0.96454789  0.70654464  1
  O  O55  1  0.40617498  0.03545211  0.29345536  1
  O  O56  1  0.90617498  0.03545211  0.20654464  1
  O  O57  1  0.90617498  0.96454789  0.79345536  1
  O  O58  1  0.59382502  0.03545211  0.29345536  1
  O  O59  1  0.59382502  0.96454789  0.70654464  1
  O  O60  1  0.07733097  0.23473056  0.97896352  1
  O  O61  1  0.07733097  0.76526944  0.02103648  1
  O  O62  1  0.42266903  0.23473056  0.52103648  1
  O  O63  1  0.42266903  0.76526944  0.47896352  1
  O  O64  1  0.92266903  0.76526944  0.02103648  1
  O  O65  1  0.92266903  0.23473056  0.97896352  1
  O  O66  1  0.57733097  0.76526944  0.47896352  1
  O  O67  1  0.57733097  0.23473056  0.52103648  1
  O  O68  1  0.00000000  0.29219900  0.19213750  1
  O  O69  1  0.00000000  0.70780100  0.80786250  1
  O  O70  1  0.50000000  0.29219900  0.30786250  1
  O  O71  1  0.50000000  0.70780100  0.69213750  1
