# generated using pymatgen
data_Li2Co(PO4)2
_symmetry_space_group_name_H-M   'P 1'
_cell_length_a   8.40761485
_cell_length_b   10.58805158
_cell_length_c   8.29255757
_cell_angle_alpha   89.75986051
_cell_angle_beta   103.72633746
_cell_angle_gamma   89.84880378
_symmetry_Int_Tables_number   1
_chemical_formula_structural   Li2Co(PO4)2
_chemical_formula_sum   'Li8 Co4 P8 O32'
_cell_volume   717.11127015
_cell_formula_units_Z   4
loop_
 _symmetry_equiv_pos_site_id
 _symmetry_equiv_pos_as_xyz
  1  'x, y, z'
loop_
 _atom_site_type_symbol
 _atom_site_label
 _atom_site_symmetry_multiplicity
 _atom_site_fract_x
 _atom_site_fract_y
 _atom_site_fract_z
 _atom_site_occupancy
  Li  Li0  1  0.77689327  0.56593527  0.56081809  1
  Li  Li1  1  0.28254093  0.93924191  0.55461209  1
  Li  Li2  1  0.09924954  0.66972029  0.61473045  1
  Li  Li3  1  0.82856910  0.85214043  0.36363347  1
  Li  Li4  1  0.41277059  0.17131189  0.37964957  1
  Li  Li5  1  0.89544685  0.32303021  0.39293027  1
  Li  Li6  1  0.21863607  0.43168617  0.44813304  1
  Li  Li7  1  0.59608422  0.83045107  0.61999182  1
  Co  Co8  1  0.07962394  0.83228908  0.09399232  1
  Co  Co9  1  0.42355344  0.33920427  0.91180626  1
  Co  Co10  1  0.57342119  0.66563222  0.09583822  1
  Co  Co11  1  0.92225665  0.15945108  0.89006294  1
  P  P12  1  0.52958847  0.41827048  0.28498547  1
  P  P13  1  0.94095232  0.59788412  0.25037378  1
  P  P14  1  0.46928142  0.58406337  0.71925553  1
  P  P15  1  0.05534138  0.40482931  0.74947062  1
  P  P16  1  0.44877442  0.90421321  0.24806936  1
  P  P17  1  0.54970970  0.09803252  0.75634341  1
  P  P18  1  0.97127690  0.90939256  0.70975490  1
  P  P19  1  0.03624814  0.08076351  0.27263274  1
  O  O20  1  0.93138601  0.31971930  0.81904087  1
  O  O21  1  0.45967074  0.66384748  0.88032738  1
  O  O22  1  0.29165988  0.87634067  0.10386826  1
  O  O23  1  0.00254891  0.46411308  0.28102758  1
  O  O24  1  0.56441322  0.16255168  0.59703523  1
  O  O25  1  0.48821624  0.96305102  0.73490027  1
  O  O26  1  0.69689924  0.42323890  0.40528727  1
  O  O27  1  0.21849800  0.40006942  0.89304548  1
  O  O28  1  0.77797865  0.60546382  0.10537811  1
  O  O29  1  0.42326413  0.85503792  0.41235204  1
  O  O30  1  0.11358782  0.85649623  0.64644414  1
  O  O31  1  0.08504901  0.34531888  0.59276753  1
  O  O32  1  0.51897932  0.44587470  0.78530475  1
  O  O33  1  0.96385218  0.84338229  0.88010103  1
  O  O34  1  0.54591644  0.34161145  0.12611410  1
  O  O35  1  0.20476669  0.08219315  0.39095160  1
  O  O36  1  0.29998782  0.58264090  0.60242661  1
  O  O37  1  0.98742920  0.53842620  0.72721990  1
  O  O38  1  0.07044206  0.67591398  0.18069024  1
  O  O39  1  0.60369921  0.64200236  0.64909805  1
  O  O40  1  0.80618670  0.88886844  0.58914216  1
  O  O41  1  0.39187518  0.36222517  0.35133909  1
  O  O42  1  0.42785776  0.17988993  0.83248229  1
  O  O43  1  0.71848974  0.10300996  0.89052788  1
  O  O44  1  0.90058057  0.14590889  0.33099900  1
  O  O45  1  0.00163207  0.05338865  0.75248634  1
  O  O46  1  0.59063737  0.82169223  0.19922725  1
  O  O47  1  0.48019213  0.55830733  0.21900846  1
  O  O48  1  0.90821910  0.66863525  0.40064326  1
  O  O49  1  0.98640067  0.93553246  0.23265288  1
  O  O50  1  0.04977970  0.14037071  0.10066269  1
  O  O51  1  0.49227273  0.04212457  0.24210589  1
