# generated using pymatgen
data_Mg6CuBi
_symmetry_space_group_name_H-M   'P 1'
_cell_length_a   6.34973898
_cell_length_b   6.49160889
_cell_length_c   4.98486632
_cell_angle_alpha   90.00000000
_cell_angle_beta   90.00000000
_cell_angle_gamma   120.74188756
_symmetry_Int_Tables_number   1
_chemical_formula_structural   Mg6CuBi
_chemical_formula_sum   'Mg6 Cu1 Bi1'
_cell_volume   176.60252241
_cell_formula_units_Z   1
loop_
 _symmetry_equiv_pos_site_id
 _symmetry_equiv_pos_as_xyz
  1  'x, y, z'
loop_
 _atom_site_type_symbol
 _atom_site_label
 _atom_site_symmetry_multiplicity
 _atom_site_fract_x
 _atom_site_fract_y
 _atom_site_fract_z
 _atom_site_occupancy
  Mg  Mg0  1  0.66882875  0.33275957  0.25000000  1
  Mg  Mg1  1  0.66882875  0.83606818  0.25000000  1
  Mg  Mg2  1  0.33031832  0.18603399  0.75000000  1
  Mg  Mg3  1  0.33031832  0.64428533  0.75000000  1
  Mg  Mg4  1  0.84229872  0.17114986  0.75000000  1
  Mg  Mg5  1  0.81908316  0.65954208  0.75000000  1
  Cu  Cu6  1  0.17208847  0.33604374  0.25000000  1
  Bi  Bi7  1  0.16823551  0.83411725  0.25000000  1
