# generated using pymatgen
data_U3(Al3Ru)4
_symmetry_space_group_name_H-M   'P 1'
_cell_length_a   8.82943771
_cell_length_b   8.82943745
_cell_length_c   9.44189506
_cell_angle_alpha   90.00000000
_cell_angle_beta   90.00000000
_cell_angle_gamma   120.00000103
_symmetry_Int_Tables_number   1
_chemical_formula_structural   U3(Al3Ru)4
_chemical_formula_sum   'U6 Al24 Ru8'
_cell_volume   637.46431409
_cell_formula_units_Z   2
loop_
 _symmetry_equiv_pos_site_id
 _symmetry_equiv_pos_as_xyz
  1  'x, y, z'
loop_
 _atom_site_type_symbol
 _atom_site_label
 _atom_site_symmetry_multiplicity
 _atom_site_fract_x
 _atom_site_fract_y
 _atom_site_fract_z
 _atom_site_occupancy
  U  U0  1  0.40825108  0.20412554  0.75000000  1
  U  U1  1  0.79587446  0.20412554  0.75000000  1
  U  U2  1  0.20412554  0.40825108  0.25000000  1
  U  U3  1  0.59174892  0.79587446  0.25000000  1
  U  U4  1  0.79587446  0.59174892  0.75000000  1
  U  U5  1  0.20412554  0.79587446  0.25000000  1
  Al  Al6  1  0.67897117  0.83948558  0.91917723  1
  Al  Al7  1  0.83948558  0.67897117  0.41917723  1
  Al  Al8  1  0.16051442  0.83948558  0.91917723  1
  Al  Al9  1  0.43818166  0.87636332  0.75000000  1
  Al  Al10  1  0.43818166  0.56181834  0.75000000  1
  Al  Al11  1  0.32102883  0.16051442  0.08082277  1
  Al  Al12  1  0.66666700  0.33333300  0.51200102  1
  Al  Al13  1  0.16051442  0.32102883  0.91917723  1
  Al  Al14  1  0.83948558  0.67897117  0.08082277  1
  Al  Al15  1  0.12363668  0.56181834  0.75000000  1
  Al  Al16  1  0.83948558  0.16051442  0.08082277  1
  Al  Al17  1  0.87636332  0.43818166  0.25000000  1
  Al  Al18  1  0.32102883  0.16051442  0.41917723  1
  Al  Al19  1  0.00000000  0.00000000  0.25000000  1
  Al  Al20  1  0.00000000  0.00000000  0.75000000  1
  Al  Al21  1  0.56181834  0.12363668  0.25000000  1
  Al  Al22  1  0.83948558  0.16051442  0.41917723  1
  Al  Al23  1  0.16051442  0.32102883  0.58082277  1
  Al  Al24  1  0.66666700  0.33333300  0.98799898  1
  Al  Al25  1  0.33333300  0.66666700  0.01200102  1
  Al  Al26  1  0.16051442  0.83948558  0.58082277  1
  Al  Al27  1  0.56181834  0.43818166  0.25000000  1
  Al  Al28  1  0.33333300  0.66666700  0.48799898  1
  Al  Al29  1  0.67897117  0.83948558  0.58082277  1
  Ru  Ru30  1  0.00000000  0.00000000  0.00000000  1
  Ru  Ru31  1  0.50000000  0.50000000  0.50000000  1
  Ru  Ru32  1  0.50000000  0.50000000  0.00000000  1
  Ru  Ru33  1  0.00000000  0.00000000  0.50000000  1
  Ru  Ru34  1  0.00000000  0.50000000  0.50000000  1
  Ru  Ru35  1  0.50000000  0.00000000  0.50000000  1
  Ru  Ru36  1  0.50000000  0.00000000  0.00000000  1
  Ru  Ru37  1  0.00000000  0.50000000  0.00000000  1
