# generated using pymatgen
data_HgH10C3I3N
_symmetry_space_group_name_H-M   'P 1'
_cell_length_a   8.91635696
_cell_length_b   9.29409443
_cell_length_c   15.95683608
_cell_angle_alpha   90.00000000
_cell_angle_beta   90.00000000
_cell_angle_gamma   90.44603728
_symmetry_Int_Tables_number   1
_chemical_formula_structural   HgH10C3I3N
_chemical_formula_sum   'Hg4 H40 C12 I12 N4'
_cell_volume   1322.29437702
_cell_formula_units_Z   4
loop_
 _symmetry_equiv_pos_site_id
 _symmetry_equiv_pos_as_xyz
  1  'x, y, z'
loop_
 _atom_site_type_symbol
 _atom_site_label
 _atom_site_symmetry_multiplicity
 _atom_site_fract_x
 _atom_site_fract_y
 _atom_site_fract_z
 _atom_site_occupancy
  Hg  Hg0  1  0.17948432  0.75772001  0.78355535  1
  Hg  Hg1  1  0.32051568  0.24227999  0.28355535  1
  Hg  Hg2  1  0.82051568  0.24227999  0.21644465  1
  Hg  Hg3  1  0.67948432  0.75772001  0.71644465  1
  H  H4  1  0.10534713  0.91433744  0.40224420  1
  H  H5  1  0.03661960  0.82841858  0.49557556  1
  H  H6  1  0.45553047  0.27036237  0.89872719  1
  H  H7  1  0.04446953  0.72963763  0.39872719  1
  H  H8  1  0.54446953  0.72963763  0.10127281  1
  H  H9  1  0.86844070  0.60271913  0.97534948  1
  H  H10  1  0.39465287  0.08566256  0.90224420  1
  H  H11  1  0.96338040  0.17158142  0.50442444  1
  H  H12  1  0.19759164  0.15635639  0.99544210  1
  H  H13  1  0.95553047  0.27036237  0.60127281  1
  H  H14  1  0.46214233  0.72152628  0.39866116  1
  H  H15  1  0.46338040  0.17158142  0.99557556  1
  H  H16  1  0.70691507  0.54198203  0.03331731  1
  H  H17  1  0.89465287  0.08566256  0.59775580  1
  H  H18  1  0.60534713  0.91433744  0.09775580  1
  H  H19  1  0.80240836  0.84364361  0.00455790  1
  H  H20  1  0.34975053  0.85453638  0.34707704  1
  H  H21  1  0.65024947  0.14546362  0.65292296  1
  H  H22  1  0.81613048  0.35804533  0.43733791  1
  H  H23  1  0.70166183  0.33263050  0.65945661  1
  H  H24  1  0.79833817  0.66736950  0.15945661  1
  H  H25  1  0.79308493  0.45801797  0.53331731  1
  H  H26  1  0.84975053  0.85453638  0.15292296  1
  H  H27  1  0.15024947  0.14546362  0.84707704  1
  H  H28  1  0.03785767  0.27847372  0.89866116  1
  H  H29  1  0.29833817  0.66736950  0.34054339  1
  H  H30  1  0.53785767  0.27847372  0.60133884  1
  H  H31  1  0.31613048  0.35804533  0.06266209  1
  H  H32  1  0.96214233  0.72152628  0.10133884  1
  H  H33  1  0.30240836  0.84364361  0.49544210  1
  H  H34  1  0.20691507  0.54198203  0.46668269  1
  H  H35  1  0.18386952  0.64195467  0.56266209  1
  H  H36  1  0.36844070  0.60271913  0.52465052  1
  H  H37  1  0.69759164  0.15635639  0.50455790  1
  H  H38  1  0.20166183  0.33263050  0.84054339  1
  H  H39  1  0.63155930  0.39728087  0.47534948  1
  H  H40  1  0.13155930  0.39728087  0.02465052  1
  H  H41  1  0.53661960  0.82841858  0.00442444  1
  H  H42  1  0.68386952  0.64195467  0.93733791  1
  H  H43  1  0.29308493  0.45801797  0.96668269  1
  C  C44  1  0.90133743  0.18702906  0.56295227  1
  C  C45  1  0.34821694  0.75132852  0.38020097  1
  C  C46  1  0.15178306  0.24867148  0.88020097  1
  C  C47  1  0.25299585  0.62762338  0.50656360  1
  C  C48  1  0.74700415  0.37237662  0.49343640  1
  C  C49  1  0.75299585  0.62762338  0.99343640  1
  C  C50  1  0.84821694  0.75132852  0.11979903  1
  C  C51  1  0.09866257  0.81297094  0.43704773  1
  C  C52  1  0.40133743  0.18702906  0.93704773  1
  C  C53  1  0.59866257  0.81297094  0.06295227  1
  C  C54  1  0.24700415  0.37237662  0.00656360  1
  C  C55  1  0.65178306  0.24867148  0.61979903  1
  I  I56  1  0.32594689  0.18804758  0.45547789  1
  I  I57  1  0.55079218  0.44655323  0.23272618  1
  I  I58  1  0.75973936  0.02908690  0.33286990  1
  I  I59  1  0.05079218  0.44655323  0.26727382  1
  I  I60  1  0.25973936  0.02908690  0.16713010  1
  I  I61  1  0.94920782  0.55344677  0.73272618  1
  I  I62  1  0.24026064  0.97091310  0.66713010  1
  I  I63  1  0.44920782  0.55344677  0.76727382  1
  I  I64  1  0.82594689  0.18804758  0.04452211  1
  I  I65  1  0.17405311  0.81195242  0.95547789  1
  I  I66  1  0.74026064  0.97091310  0.83286990  1
  I  I67  1  0.67405311  0.81195242  0.54452211  1
  N  N68  1  0.25436464  0.76492947  0.45754022  1
  N  N69  1  0.74563536  0.23507053  0.54245978  1
  N  N70  1  0.75436464  0.76492947  0.04245978  1
  N  N71  1  0.24563536  0.23507053  0.95754022  1
