# generated using pymatgen
data_LaFe12O19
_symmetry_space_group_name_H-M   'P 1'
_cell_length_a   6.00845933
_cell_length_b   6.00845905
_cell_length_c   23.08408931
_cell_angle_alpha   90.00000000
_cell_angle_beta   90.00000000
_cell_angle_gamma   120.00000147
_symmetry_Int_Tables_number   1
_chemical_formula_structural   LaFe12O19
_chemical_formula_sum   'La2 Fe24 O38'
_cell_volume   721.72143312
_cell_formula_units_Z   2
loop_
 _symmetry_equiv_pos_site_id
 _symmetry_equiv_pos_as_xyz
  1  'x, y, z'
loop_
 _atom_site_type_symbol
 _atom_site_label
 _atom_site_symmetry_multiplicity
 _atom_site_fract_x
 _atom_site_fract_y
 _atom_site_fract_z
 _atom_site_occupancy
  La  La0  1  0.66666700  0.33333300  0.25000000  1
  La  La1  1  0.33333300  0.66666700  0.75000000  1
  Fe  Fe2  1  0.16746647  0.83253353  0.60940186  1
  Fe  Fe3  1  0.83253353  0.16746647  0.39059814  1
  Fe  Fe4  1  0.33333300  0.66666700  0.47185581  1
  Fe  Fe5  1  0.33333300  0.66666700  0.02814419  1
  Fe  Fe6  1  0.16746647  0.33493293  0.89059814  1
  Fe  Fe7  1  0.66666700  0.33333300  0.97185581  1
  Fe  Fe8  1  0.66666700  0.33333300  0.68994231  1
  Fe  Fe9  1  0.33333300  0.66666700  0.31005769  1
  Fe  Fe10  1  0.66506707  0.83253353  0.89059814  1
  Fe  Fe11  1  0.33493293  0.16746647  0.39059814  1
  Fe  Fe12  1  0.83253353  0.66506707  0.10940186  1
  Fe  Fe13  1  0.83253353  0.16746647  0.10940186  1
  Fe  Fe14  1  0.33333300  0.66666700  0.18994231  1
  Fe  Fe15  1  0.66506707  0.83253353  0.60940186  1
  Fe  Fe16  1  0.00000000  0.00000000  0.25000000  1
  Fe  Fe17  1  0.66666700  0.33333300  0.81005769  1
  Fe  Fe18  1  0.66666700  0.33333300  0.52814419  1
  Fe  Fe19  1  0.16746647  0.33493293  0.60940186  1
  Fe  Fe20  1  0.83253353  0.66506707  0.39059814  1
  Fe  Fe21  1  0.16746647  0.83253353  0.89059814  1
  Fe  Fe22  1  0.00000000  0.00000000  0.75000000  1
  Fe  Fe23  1  0.33493293  0.16746647  0.10940186  1
  Fe  Fe24  1  0.00000000  0.00000000  0.50000000  1
  Fe  Fe25  1  0.00000000  0.00000000  0.00000000  1
  O  O26  1  0.51221888  0.02443776  0.15661526  1
  O  O27  1  0.83982560  0.67965119  0.55703619  1
  O  O28  1  0.63476876  0.81738438  0.25000000  1
  O  O29  1  0.02443776  0.51221888  0.84338474  1
  O  O30  1  0.36523124  0.18261562  0.75000000  1
  O  O31  1  0.51221888  0.02443776  0.34338474  1
  O  O32  1  0.83982560  0.67965119  0.94296381  1
  O  O33  1  0.32034881  0.16017440  0.94296381  1
  O  O34  1  0.00000000  0.00000000  0.84576972  1
  O  O35  1  0.18261562  0.36523124  0.25000000  1
  O  O36  1  0.48778112  0.51221888  0.65661526  1
  O  O37  1  0.00000000  0.00000000  0.15423028  1
  O  O38  1  0.67965119  0.83982560  0.05703619  1
  O  O39  1  0.16017440  0.32034881  0.44296381  1
  O  O40  1  0.16017440  0.83982560  0.05703619  1
  O  O41  1  0.83982560  0.16017440  0.55703619  1
  O  O42  1  0.81738438  0.18261562  0.75000000  1
  O  O43  1  0.33333300  0.66666700  0.55699152  1
  O  O44  1  0.48778112  0.97556224  0.65661526  1
  O  O45  1  0.97556224  0.48778112  0.15661526  1
  O  O46  1  0.48778112  0.97556224  0.84338474  1
  O  O47  1  0.33333300  0.66666700  0.94300848  1
  O  O48  1  0.00000000  0.00000000  0.34576972  1
  O  O49  1  0.83982560  0.16017440  0.94296381  1
  O  O50  1  0.67965119  0.83982560  0.44296381  1
  O  O51  1  0.48778112  0.51221888  0.84338474  1
  O  O52  1  0.66666700  0.33333300  0.05699152  1
  O  O53  1  0.51221888  0.48778112  0.34338474  1
  O  O54  1  0.00000000  0.00000000  0.65423028  1
  O  O55  1  0.97556224  0.48778112  0.34338474  1
  O  O56  1  0.18261562  0.81738438  0.25000000  1
  O  O57  1  0.02443776  0.51221888  0.65661526  1
  O  O58  1  0.32034881  0.16017440  0.55703619  1
  O  O59  1  0.51221888  0.48778112  0.15661526  1
  O  O60  1  0.66666700  0.33333300  0.44300848  1
  O  O61  1  0.16017440  0.83982560  0.44296381  1
  O  O62  1  0.81738438  0.63476876  0.75000000  1
  O  O63  1  0.16017440  0.32034881  0.05703619  1
