# generated using pymatgen
data_Nd2Tl(MoO4)4
_symmetry_space_group_name_H-M   'P 1'
_cell_length_a   6.92141255
_cell_length_b   6.92141172
_cell_length_c   19.84510739
_cell_angle_alpha   88.94784136
_cell_angle_beta   91.05215854
_cell_angle_gamma   46.20999420
_symmetry_Int_Tables_number   1
_chemical_formula_structural   Nd2Tl(MoO4)4
_chemical_formula_sum   'Nd4 Tl2 Mo8 O32'
_cell_volume   685.53946203
_cell_formula_units_Z   2
loop_
 _symmetry_equiv_pos_site_id
 _symmetry_equiv_pos_as_xyz
  1  'x, y, z'
loop_
 _atom_site_type_symbol
 _atom_site_label
 _atom_site_symmetry_multiplicity
 _atom_site_fract_x
 _atom_site_fract_y
 _atom_site_fract_z
 _atom_site_occupancy
  Mo  Mo0  1  0.42771755  0.45298641  0.90786970  1
  Mo  Mo1  1  0.72658158  0.75519520  0.84806093  1
  Mo  Mo2  1  0.75519520  0.72658158  0.65193907  1
  Mo  Mo3  1  0.45298641  0.42771756  0.59213030  1
  Mo  Mo4  1  0.54701359  0.57228244  0.40786970  1
  Mo  Mo5  1  0.24480480  0.27341842  0.34806093  1
  Mo  Mo6  1  0.27341842  0.24480480  0.15193907  1
  Mo  Mo7  1  0.57228245  0.54701359  0.09213030  1
  Nd  Nd8  1  0.14618296  0.14865086  0.96674447  1
  Nd  Nd9  1  0.14865086  0.14618296  0.53325553  1
  Nd  Nd10  1  0.85134914  0.85381704  0.46674447  1
  Nd  Nd11  1  0.85381704  0.85134914  0.03325553  1
  O  O12  1  0.46715127  0.91424468  0.78492751  1
  O  O13  1  0.31973805  0.77420658  0.89692934  1
  O  O14  1  0.40872371  0.89642073  0.63567241  1
  O  O15  1  0.59129096  0.92764961  0.92959469  1
  O  O16  1  0.22667228  0.73783035  0.53741756  1
  O  O17  1  0.17412764  0.48669513  0.95414021  1
  O  O18  1  0.08575532  0.53284873  0.28492751  1
  O  O19  1  0.22579342  0.68026195  0.39692934  1
  O  O20  1  0.10357927  0.59127629  0.13567241  1
  O  O21  1  0.07235039  0.40870904  0.42959469  1
  O  O22  1  0.26216965  0.77332772  0.03741756  1
  O  O23  1  0.75940416  0.97149024  0.67580473  1
  O  O24  1  0.51330487  0.82587236  0.45414021  1
  O  O25  1  0.30639207  0.51459693  0.66979414  1
  O  O26  1  0.02850976  0.24059584  0.17580473  1
  O  O27  1  0.48540307  0.69360793  0.16979414  1
  O  O28  1  0.51459693  0.30639207  0.83020586  1
  O  O29  1  0.97149024  0.75940416  0.82419527  1
  O  O30  1  0.69360793  0.48540307  0.33020586  1
  O  O31  1  0.48669513  0.17412764  0.54585979  1
  O  O32  1  0.24059584  0.02850976  0.32419527  1
  O  O33  1  0.73783035  0.22667228  0.96258244  1
  O  O34  1  0.92764961  0.59129096  0.57040531  1
  O  O35  1  0.89642073  0.40872371  0.86432759  1
  O  O36  1  0.77420658  0.31973805  0.60307066  1
  O  O37  1  0.91424468  0.46715127  0.71507249  1
  O  O38  1  0.82587236  0.51330487  0.04585979  1
  O  O39  1  0.77332772  0.26216965  0.46258244  1
  O  O40  1  0.40870904  0.07235039  0.07040531  1
  O  O41  1  0.59127629  0.10357927  0.36432759  1
  O  O42  1  0.68026195  0.22579342  0.10307066  1
  O  O43  1  0.53284873  0.08575532  0.21507249  1
  Tl  Tl44  1  0.02501495  0.02501495  0.75000000  1
  Tl  Tl45  1  0.97498505  0.97498505  0.25000000  1
