# generated using pymatgen
data_Mn5Si2
_symmetry_space_group_name_H-M   'P 1'
_cell_length_a   8.47117396
_cell_length_b   8.73659747
_cell_length_c   8.73659747
_cell_angle_alpha   90.00000000
_cell_angle_beta   90.00000000
_cell_angle_gamma   90.00000000
_symmetry_Int_Tables_number   1
_chemical_formula_structural   Mn5Si2
_chemical_formula_sum   'Mn40 Si16'
_cell_volume   646.58891262
_cell_formula_units_Z   8
loop_
 _symmetry_equiv_pos_site_id
 _symmetry_equiv_pos_as_xyz
  1  'x, y, z'
loop_
 _atom_site_type_symbol
 _atom_site_label
 _atom_site_symmetry_multiplicity
 _atom_site_fract_x
 _atom_site_fract_y
 _atom_site_fract_z
 _atom_site_occupancy
  Mn  Mn0  1  -0.00000000  0.86524327  0.86524327  1
  Mn  Mn1  1  -0.00000000  0.54792567  0.54792567  1
  Mn  Mn2  1  0.90176933  0.72126493  0.32626902  1
  Mn  Mn3  1  0.78593524  0.45693757  0.36968314  1
  Mn  Mn4  1  0.25000000  0.95207433  0.04792567  1
  Mn  Mn5  1  0.17092951  0.81542974  0.57979754  1
  Mn  Mn6  1  0.03593524  0.13031686  0.95693757  1
  Mn  Mn7  1  0.15176933  0.17373098  0.22126493  1
  Mn  Mn8  1  0.07907049  0.68457026  0.07979754  1
  Mn  Mn9  1  0.71406476  0.63031686  0.54306243  1
  Mn  Mn10  1  0.50000000  0.45207433  0.45207433  1
  Mn  Mn11  1  0.57907049  0.31542974  0.92020246  1
  Mn  Mn12  1  0.21406476  0.36968314  0.45693757  1
  Mn  Mn13  1  0.07543722  0.39866215  0.00827630  1
  Mn  Mn14  1  0.32543722  0.49172370  0.89866215  1
  Mn  Mn15  1  0.82907049  0.57979754  0.81542974  1
  Mn  Mn16  1  0.92092951  0.07979754  0.68457026  1
  Mn  Mn17  1  0.50000000  0.13475673  0.13475673  1
  Mn  Mn18  1  0.59823067  0.67373098  0.27873507  1
  Mn  Mn19  1  0.17456278  0.10133785  0.50827630  1
  Mn  Mn20  1  0.65176933  0.82626902  0.77873507  1
  Mn  Mn21  1  0.67092951  0.18457026  0.42020246  1
  Mn  Mn22  1  0.84823067  0.22126493  0.17373098  1
  Mn  Mn23  1  0.53593524  0.86968314  0.04306243  1
  Mn  Mn24  1  0.28593524  0.54306243  0.63031686  1
  Mn  Mn25  1  0.32907049  0.42020246  0.18457026  1
  Mn  Mn26  1  0.92456278  0.00827630  0.39866215  1
  Mn  Mn27  1  0.75000000  0.04792567  0.95207433  1
  Mn  Mn28  1  0.25000000  0.63475673  0.36524327  1
  Mn  Mn29  1  0.67456278  0.89866215  0.49172370  1
  Mn  Mn30  1  0.82543722  0.50827630  0.10133785  1
  Mn  Mn31  1  0.57543722  0.60133785  0.99172370  1
  Mn  Mn32  1  0.42092951  0.92020246  0.31542974  1
  Mn  Mn33  1  0.40176933  0.27873507  0.67373098  1
  Mn  Mn34  1  0.09823067  0.32626902  0.72126493  1
  Mn  Mn35  1  0.42456278  0.99172370  0.60133785  1
  Mn  Mn36  1  0.46406476  0.04306243  0.86968314  1
  Mn  Mn37  1  0.75000000  0.36524327  0.63475673  1
  Mn  Mn38  1  0.34823067  0.77873507  0.82626902  1
  Mn  Mn39  1  0.96406476  0.95693757  0.13031686  1
  Si  Si40  1  0.35192512  0.69239405  0.11811593  1
  Si  Si41  1  0.89807488  0.80760595  0.61811593  1
  Si  Si42  1  0.14807488  0.88188407  0.30760595  1
  Si  Si43  1  0.85192512  0.30760595  0.88188407  1
  Si  Si44  1  0.04891852  0.46538408  0.26472735  1
  Si  Si45  1  0.20108148  0.03461592  0.76472735  1
  Si  Si46  1  0.64807488  0.11811593  0.69239405  1
  Si  Si47  1  0.10192512  0.61811593  0.80760595  1
  Si  Si48  1  0.54891852  0.53461592  0.73527265  1
  Si  Si49  1  0.79891852  0.76472735  0.03461592  1
  Si  Si50  1  0.70108148  0.96538408  0.23527265  1
  Si  Si51  1  0.45108148  0.73527265  0.53461592  1
  Si  Si52  1  0.39807488  0.19239405  0.38188407  1
  Si  Si53  1  0.29891852  0.23527265  0.96538408  1
  Si  Si54  1  0.60192512  0.38188407  0.19239405  1
  Si  Si55  1  0.95108148  0.26472735  0.46538408  1
