# generated using pymatgen
data_I
_symmetry_space_group_name_H-M   'P 1'
_cell_length_a   2.98332501
_cell_length_b   3.75864110
_cell_length_c   4.78573274
_cell_angle_alpha   112.91814719
_cell_angle_beta   107.93423691
_cell_angle_gamma   90.52748374
_symmetry_Int_Tables_number   1
_chemical_formula_structural   I
_chemical_formula_sum   I1
_cell_volume   46.51260205
_cell_formula_units_Z   1
loop_
 _symmetry_equiv_pos_site_id
 _symmetry_equiv_pos_as_xyz
  1  'x, y, z'
loop_
 _atom_site_type_symbol
 _atom_site_label
 _atom_site_symmetry_multiplicity
 _atom_site_fract_x
 _atom_site_fract_y
 _atom_site_fract_z
 _atom_site_occupancy
  I  I0  1  0.99941400  0.00489700  0.01607600  1
