# generated using pymatgen
data_LaNb2CuBrO7
_symmetry_space_group_name_H-M   'P 1'
_cell_length_a   3.94674637
_cell_length_b   3.94674433
_cell_length_c   11.81499768
_cell_angle_alpha   90.00019779
_cell_angle_beta   89.99993920
_cell_angle_gamma   89.99992930
_symmetry_Int_Tables_number   1
_chemical_formula_structural   LaNb2CuBrO7
_chemical_formula_sum   'La1 Nb2 Cu1 Br1 O7'
_cell_volume   184.03984237
_cell_formula_units_Z   1
loop_
 _symmetry_equiv_pos_site_id
 _symmetry_equiv_pos_as_xyz
  1  'x, y, z'
loop_
 _atom_site_type_symbol
 _atom_site_label
 _atom_site_symmetry_multiplicity
 _atom_site_fract_x
 _atom_site_fract_y
 _atom_site_fract_z
 _atom_site_occupancy
  La  La0  1  0.00000538  -0.00000124  -0.00000326  1
  Nb  Nb1  1  0.49999950  0.50000024  0.80869361  1
  Nb  Nb2  1  0.50000121  0.50000040  0.19130709  1
  Cu  Cu3  1  0.49999876  0.50000162  0.50000040  1
  Br  Br4  1  0.99999851  0.99999606  0.49999992  1
  O  O5  1  0.00000163  0.50000773  0.15524425  1
  O  O6  1  0.50000212  0.00000006  0.15524438  1
  O  O7  1  0.49999824  0.49999704  0.34397175  1
  O  O8  1  0.49999649  -0.00000306  0.84475731  1
  O  O9  1  0.99999718  0.50000177  0.84475557  1
  O  O10  1  0.49999923  0.49999828  0.65602880  1
  O  O11  1  0.50000175  0.50000110  0.00000018  1
