# generated using pymatgen
data_K3HgN5O11
_symmetry_space_group_name_H-M   'P 1'
_cell_length_a   9.66286244
_cell_length_b   10.88762202
_cell_length_c   12.59372652
_cell_angle_alpha   90.00000000
_cell_angle_beta   90.00000000
_cell_angle_gamma   90.00000000
_symmetry_Int_Tables_number   1
_chemical_formula_structural   K3HgN5O11
_chemical_formula_sum   'K12 Hg4 N20 O44'
_cell_volume   1324.93047767
_cell_formula_units_Z   4
loop_
 _symmetry_equiv_pos_site_id
 _symmetry_equiv_pos_as_xyz
  1  'x, y, z'
loop_
 _atom_site_type_symbol
 _atom_site_label
 _atom_site_symmetry_multiplicity
 _atom_site_fract_x
 _atom_site_fract_y
 _atom_site_fract_z
 _atom_site_occupancy
  N  N0  1  0.69391527  0.99687852  0.96453648  1
  N  N1  1  0.23627452  0.75000000  0.25219075  1
  N  N2  1  0.73627452  0.25000000  0.24780925  1
  N  N3  1  0.76372548  0.25000000  0.74780925  1
  N  N4  1  0.26372548  0.75000000  0.75219075  1
  N  N5  1  0.41789020  0.75000000  0.53268406  1
  N  N6  1  0.91789020  0.25000000  0.96731594  1
  N  N7  1  0.58210980  0.25000000  0.46731594  1
  N  N8  1  0.08210980  0.75000000  0.03268406  1
  N  N9  1  0.65510420  0.75000000  0.17077432  1
  N  N10  1  0.15510420  0.25000000  0.32922568  1
  N  N11  1  0.34489580  0.25000000  0.82922568  1
  N  N12  1  0.84489580  0.75000000  0.67077432  1
  N  N13  1  0.19391527  0.49687852  0.53546352  1
  N  N14  1  0.69391527  0.50312148  0.96453648  1
  N  N15  1  0.80608473  0.99687852  0.46453648  1
  N  N16  1  0.30608473  0.00312148  0.03546352  1
  N  N17  1  0.19391527  0.00312148  0.53546352  1
  N  N18  1  0.30608473  0.49687852  0.03546352  1
  N  N19  1  0.80608473  0.50312148  0.46453648  1
  O  O20  1  0.37531647  0.41232191  0.08021085  1
  O  O21  1  0.07014236  0.75000000  0.93216870  1
  O  O22  1  0.57014236  0.25000000  0.56783130  1
  O  O23  1  0.92985764  0.25000000  0.06783130  1
  O  O24  1  0.42985764  0.75000000  0.43216870  1
  O  O25  1  0.31940620  0.85114672  0.77888710  1
  O  O26  1  0.81940620  0.14885328  0.72111290  1
  O  O27  1  0.68059380  0.35114672  0.22111290  1
  O  O28  1  0.18059380  0.64885328  0.27888710  1
  O  O29  1  0.68059380  0.14885328  0.22111290  1
  O  O30  1  0.18059380  0.85114672  0.27888710  1
  O  O31  1  0.31940620  0.64885328  0.77888710  1
  O  O32  1  0.81940620  0.35114672  0.72111290  1
  O  O33  1  0.15015497  0.75000000  0.70198630  1
  O  O34  1  0.65015497  0.25000000  0.79801370  1
  O  O35  1  0.84984503  0.25000000  0.29801370  1
  O  O36  1  0.81799103  0.97150292  0.98505088  1
  O  O37  1  0.31799103  0.02849708  0.51494912  1
  O  O38  1  0.18200897  0.47150292  0.01494912  1
  O  O39  1  0.68200897  0.52849708  0.48505088  1
  O  O40  1  0.18200897  0.02849708  0.01494912  1
  O  O41  1  0.68200897  0.97150292  0.48505088  1
  O  O42  1  0.81799103  0.52849708  0.98505088  1
  O  O43  1  0.31799103  0.47150292  0.51494912  1
  O  O44  1  0.62468353  0.91232191  0.91978915  1
  O  O45  1  0.12468353  0.08767809  0.58021085  1
  O  O46  1  0.34984503  0.75000000  0.20198630  1
  O  O47  1  0.87531647  0.58767809  0.41978915  1
  O  O48  1  0.37531647  0.08767809  0.08021085  1
  O  O49  1  0.87531647  0.91232191  0.41978915  1
  O  O50  1  0.62468353  0.58767809  0.91978915  1
  O  O51  1  0.12468353  0.41232191  0.58021085  1
  O  O52  1  0.83581967  0.84843500  0.72352713  1
  O  O53  1  0.33581967  0.15156500  0.77647287  1
  O  O54  1  0.16418033  0.34843500  0.27647287  1
  O  O55  1  0.66418033  0.65156500  0.22352713  1
  O  O56  1  0.16418033  0.15156500  0.27647287  1
  O  O57  1  0.66418033  0.84843500  0.22352713  1
  O  O58  1  0.83581967  0.65156500  0.72352713  1
  O  O59  1  0.33581967  0.34843500  0.77647287  1
  O  O60  1  0.52935430  0.75000000  0.58436104  1
  O  O61  1  0.47064570  0.25000000  0.41563896  1
  O  O62  1  0.02935430  0.25000000  0.91563896  1
  O  O63  1  0.97064570  0.75000000  0.08436104  1
  K  K64  1  0.40058757  0.75000000  0.98436555  1
  K  K65  1  0.90058757  0.25000000  0.51563445  1
  K  K66  1  0.59941243  0.25000000  0.01563445  1
  K  K67  1  0.09941243  0.75000000  0.48436555  1
  K  K68  1  0.06554765  0.49610717  0.79756547  1
  K  K69  1  0.56554765  0.50389283  0.70243453  1
  K  K70  1  0.93445235  0.99610717  0.20243453  1
  K  K71  1  0.43445235  0.00389283  0.29756547  1
  K  K72  1  0.56554765  0.99610717  0.70243453  1
  K  K73  1  0.43445235  0.49610717  0.29756547  1
  K  K74  1  0.06554765  0.00389283  0.79756547  1
  K  K75  1  0.93445235  0.50389283  0.20243453  1
  Hg  Hg76  1  0.81229877  0.75000000  0.91258609  1
  Hg  Hg77  1  0.31229877  0.25000000  0.58741391  1
  Hg  Hg78  1  0.18770123  0.25000000  0.08741391  1
  Hg  Hg79  1  0.68770123  0.75000000  0.41258609  1
