# generated using pymatgen
data_Tl2Pt(CN)4
_symmetry_space_group_name_H-M   'P 1'
_cell_length_a   6.33339543
_cell_length_b   7.39777203
_cell_length_c   9.60030440
_cell_angle_alpha   90.00000000
_cell_angle_beta   104.89816738
_cell_angle_gamma   90.00000000
_symmetry_Int_Tables_number   1
_chemical_formula_structural   Tl2Pt(CN)4
_chemical_formula_sum   'Tl4 Pt2 C8 N8'
_cell_volume   434.68276310
_cell_formula_units_Z   2
loop_
 _symmetry_equiv_pos_site_id
 _symmetry_equiv_pos_as_xyz
  1  'x, y, z'
loop_
 _atom_site_type_symbol
 _atom_site_label
 _atom_site_symmetry_multiplicity
 _atom_site_fract_x
 _atom_site_fract_y
 _atom_site_fract_z
 _atom_site_occupancy
  Tl  Tl0  1  0.72973339  0.65341141  0.41853831  1
  Tl  Tl1  1  0.77026661  0.15341141  0.08146169  1
  Tl  Tl2  1  0.27026661  0.34658859  0.58146169  1
  Tl  Tl3  1  0.22973339  0.84658859  0.91853831  1
  Pt  Pt4  1  0.50000000  0.00000000  0.50000000  1
  Pt  Pt5  1  0.00000000  0.50000000  0.00000000  1
  C  C6  1  0.78794900  0.65848498  0.06572027  1
  C  C7  1  0.69320815  0.99815037  0.70038247  1
  C  C8  1  0.80679185  0.49815037  0.79961753  1
  C  C9  1  0.28794900  0.84151502  0.56572027  1
  C  C10  1  0.30679185  0.00184963  0.29961753  1
  C  C11  1  0.21205100  0.34151502  0.93427973  1
  C  C12  1  0.71205100  0.15848498  0.43427973  1
  C  C13  1  0.19320815  0.50184963  0.20038247  1
  N  N14  1  0.80323950  0.00639973  0.81864534  1
  N  N15  1  0.67521318  0.76163016  0.10645044  1
  N  N16  1  0.30323950  0.49360027  0.31864534  1
  N  N17  1  0.82478682  0.26163016  0.39354956  1
  N  N18  1  0.19676050  0.99360027  0.18135466  1
  N  N19  1  0.17521318  0.73836984  0.60645044  1
  N  N20  1  0.32478682  0.23836984  0.89354956  1
  N  N21  1  0.69676050  0.50639973  0.68135466  1
