# generated using pymatgen
data_H3ClO5
_symmetry_space_group_name_H-M   'P 1'
_cell_length_a   8.70457447
_cell_length_b   6.32079753
_cell_length_c   7.53478666
_cell_angle_alpha   90.00000000
_cell_angle_beta   90.00000000
_cell_angle_gamma   90.00000000
_symmetry_Int_Tables_number   1
_chemical_formula_structural   H3ClO5
_chemical_formula_sum   'H12 Cl4 O20'
_cell_volume   414.56285299
_cell_formula_units_Z   4
loop_
 _symmetry_equiv_pos_site_id
 _symmetry_equiv_pos_as_xyz
  1  'x, y, z'
loop_
 _atom_site_type_symbol
 _atom_site_label
 _atom_site_symmetry_multiplicity
 _atom_site_fract_x
 _atom_site_fract_y
 _atom_site_fract_z
 _atom_site_occupancy
  H  H0  1  0.18157482  0.25000000  0.53746618  1
  H  H1  1  0.68157482  0.25000000  0.96253382  1
  H  H2  1  0.81842518  0.75000000  0.46253382  1
  H  H3  1  0.31842518  0.75000000  0.03746618  1
  H  H4  1  0.75802094  0.25000000  0.73717199  1
  H  H5  1  0.87837962  0.25000000  0.90784939  1
  H  H6  1  0.25802094  0.25000000  0.76282801  1
  H  H7  1  0.37837962  0.25000000  0.59215061  1
  H  H8  1  0.12162038  0.75000000  0.09215061  1
  H  H9  1  0.24197906  0.75000000  0.26282801  1
  H  H10  1  0.62162038  0.75000000  0.40784939  1
  H  H11  1  0.74197906  0.75000000  0.23717199  1
  Cl  Cl12  1  0.94839170  0.25000000  0.31212988  1
  Cl  Cl13  1  0.44839170  0.25000000  0.18787012  1
  Cl  Cl14  1  0.05160830  0.75000000  0.68787012  1
  Cl  Cl15  1  0.55160830  0.75000000  0.81212988  1
  O  O16  1  0.84461284  0.25000000  0.46237796  1
  O  O17  1  0.34461284  0.25000000  0.03762204  1
  O  O18  1  0.15538716  0.75000000  0.53762204  1
  O  O19  1  0.65538716  0.75000000  0.96237796  1
  O  O20  1  0.11106759  0.25000000  0.37547670  1
  O  O21  1  0.61106759  0.25000000  0.12452330  1
  O  O22  1  0.88893241  0.75000000  0.62452330  1
  O  O23  1  0.38893241  0.75000000  0.87547670  1
  O  O24  1  0.92857416  0.06205321  0.20338104  1
  O  O25  1  0.42857416  0.43794679  0.29661896  1
  O  O26  1  0.07142584  0.56205321  0.79661896  1
  O  O27  1  0.57142584  0.93794679  0.70338104  1
  O  O28  1  0.07142584  0.93794679  0.79661896  1
  O  O29  1  0.57142584  0.56205321  0.70338104  1
  O  O30  1  0.92857416  0.43794679  0.20338104  1
  O  O31  1  0.42857416  0.06205321  0.29661896  1
  O  O32  1  0.77249751  0.25000000  0.86501831  1
  O  O33  1  0.27249751  0.25000000  0.63498169  1
  O  O34  1  0.22750249  0.75000000  0.13498169  1
  O  O35  1  0.72750249  0.75000000  0.36501831  1
