# generated using pymatgen
data_Sn3(P2O7)2
_symmetry_space_group_name_H-M   'P 1'
_cell_length_a   5.67278295
_cell_length_b   7.16508723
_cell_length_c   8.81792891
_cell_angle_alpha   97.24495091
_cell_angle_beta   87.45515564
_cell_angle_gamma   65.44971292
_symmetry_Int_Tables_number   1
_chemical_formula_structural   Sn3(P2O7)2
_chemical_formula_sum   'Sn3 P4 O14'
_cell_volume   321.54255261
_cell_formula_units_Z   1
loop_
 _symmetry_equiv_pos_site_id
 _symmetry_equiv_pos_as_xyz
  1  'x, y, z'
loop_
 _atom_site_type_symbol
 _atom_site_label
 _atom_site_symmetry_multiplicity
 _atom_site_fract_x
 _atom_site_fract_y
 _atom_site_fract_z
 _atom_site_occupancy
  Sn  Sn0  1  0.74302081  0.48852330  0.31890915  1
  Sn  Sn1  1  0.25697919  0.51147670  0.68109085  1
  Sn  Sn2  1  0.00000000  0.00000000  0.00000000  1
  P  P3  1  0.65388017  0.69270911  0.95216497  1
  P  P4  1  0.89200255  0.27478289  0.70347313  1
  P  P5  1  0.10799745  0.72521711  0.29652687  1
  P  P6  1  0.34611983  0.30729089  0.04783503  1
  O  O7  1  0.96716194  0.08631290  0.78738287  1
  O  O8  1  0.62428035  0.21175691  0.10075100  1
  O  O9  1  0.18027265  0.19091373  0.08801380  1
  O  O10  1  0.79740205  0.47300496  0.84152843  1
  O  O11  1  0.03283806  0.91368710  0.21261713  1
  O  O12  1  0.33446734  0.69352101  0.39334718  1
  O  O13  1  0.81972735  0.80908627  0.91198620  1
  O  O14  1  0.66553266  0.30647899  0.60665282  1
  O  O15  1  0.12440672  0.27040660  0.60653081  1
  O  O16  1  0.64815488  0.65896990  0.11642981  1
  O  O17  1  0.35184512  0.34103010  0.88357019  1
  O  O18  1  0.87559328  0.72959340  0.39346919  1
  O  O19  1  0.20259795  0.52699504  0.15847157  1
  O  O20  1  0.37571965  0.78824309  0.89924900  1
