# generated using pymatgen
data_Sr2Pr2MnCuO8
_symmetry_space_group_name_H-M   'P 1'
_cell_length_a   3.80843759
_cell_length_b   16.17483374
_cell_length_c   7.04430777
_cell_angle_alpha   106.56407996
_cell_angle_beta   105.69793614
_cell_angle_gamma   90.05079140
_symmetry_Int_Tables_number   1
_chemical_formula_structural   Sr2Pr2MnCuO8
_chemical_formula_sum   'Sr4 Pr4 Mn2 Cu2 O16'
_cell_volume   398.98027009
_cell_formula_units_Z   2
loop_
 _symmetry_equiv_pos_site_id
 _symmetry_equiv_pos_as_xyz
  1  'x, y, z'
loop_
 _atom_site_type_symbol
 _atom_site_label
 _atom_site_symmetry_multiplicity
 _atom_site_fract_x
 _atom_site_fract_y
 _atom_site_fract_z
 _atom_site_occupancy
  Sr  Sr0  1  0.36083902  0.61588081  0.72635827  1
  Sr  Sr1  1  0.63750553  0.66687911  0.27820553  1
  Sr  Sr2  1  0.36249447  0.08312189  0.72179447  1
  Sr  Sr3  1  0.63916098  0.13411919  0.27364173  1
  Pr  Pr4  1  0.82465464  0.32258606  0.64930045  1
  Pr  Pr5  1  0.64000207  0.90648526  0.27968635  1
  Pr  Pr6  1  0.17534536  0.42741394  0.35069955  1
  Pr  Pr7  1  0.35999793  0.84351474  0.72031365  1
  Mn  Mn8  1  0.00234697  0.23640608  0.00114080  1
  Mn  Mn9  1  0.99765303  0.51359392  0.99885920  1
  Cu  Cu10  1  0.99976693  0.99328095  0.99809114  1
  Cu  Cu11  1  0.00023307  0.75671905  0.00190886  1
  O  O12  1  0.16545922  0.02027474  0.32790519  1
  O  O13  1  0.22267017  0.29395607  0.44552365  1
  O  O14  1  0.16235647  0.56815934  0.32804286  1
  O  O15  1  0.17107579  0.80784011  0.34283224  1
  O  O16  1  0.49846159  0.98630194  0.99504869  1
  O  O17  1  0.52942703  0.24337084  0.05527624  1
  O  O18  1  0.47057297  0.50662916  0.94472376  1
  O  O19  1  0.50153841  0.76369806  0.00495131  1
  O  O20  1  0.83764353  0.18184066  0.67195714  1
  O  O21  1  0.77732983  0.45604393  0.55447635  1
  O  O22  1  0.83454078  0.72972526  0.67209481  1
  O  O23  1  0.82892421  0.94215989  0.65716776  1
  O  O24  1  0.01057341  0.11795663  0.01764373  1
  O  O25  1  -0.00000000  0.37500000  0.00000000  1
  O  O26  1  0.98942659  0.63204337  0.98235627  1
  O  O27  1  -0.00000000  0.87500000  0.00000000  1
