# generated using pymatgen
data_U2MoO8
_symmetry_space_group_name_H-M   'P 1'
_cell_length_a   4.15033969
_cell_length_b   6.65081342
_cell_length_c   23.83950518
_cell_angle_alpha   89.95035204
_cell_angle_beta   89.99719539
_cell_angle_gamma   90.48978121
_symmetry_Int_Tables_number   1
_chemical_formula_structural   U2MoO8
_chemical_formula_sum   'U8 Mo4 O32'
_cell_volume   658.02078714
_cell_formula_units_Z   4
loop_
 _symmetry_equiv_pos_site_id
 _symmetry_equiv_pos_as_xyz
  1  'x, y, z'
loop_
 _atom_site_type_symbol
 _atom_site_label
 _atom_site_symmetry_multiplicity
 _atom_site_fract_x
 _atom_site_fract_y
 _atom_site_fract_z
 _atom_site_occupancy
  U  U0  1  0.99438544  0.80432603  0.87969734  1
  U  U1  1  0.00312927  0.16816280  0.28722903  1
  U  U2  1  0.99665158  0.33246565  0.78710113  1
  U  U3  1  0.99519715  0.30342338  0.62044446  1
  U  U4  1  0.99732675  0.83218283  0.71282529  1
  U  U5  1  0.00599350  0.69679011  0.37966795  1
  U  U6  1  0.00310040  0.66755919  0.21289296  1
  U  U7  1  0.00539846  0.19585342  0.12021623  1
  Mo  Mo8  1  0.91547455  0.16641641  0.45237475  1
  Mo  Mo9  1  0.08776381  0.33459614  0.95219798  1
  Mo  Mo10  1  0.91309599  0.66479549  0.04770108  1
  Mo  Mo11  1  0.08312158  0.83369605  0.54770218  1
  O  O12  1  0.99942682  0.15851166  0.70827983  1
  O  O13  1  0.00937802  0.45397053  0.43150532  1
  O  O14  1  0.00526759  0.95236054  0.06875560  1
  O  O15  1  0.49570023  0.18208688  0.45501093  1
  O  O16  1  0.00282113  0.96635488  0.18720921  1
  O  O17  1  0.00149861  0.84165678  0.29175623  1
  O  O18  1  0.00188092  0.34163608  0.20834524  1
  O  O19  1  0.50281124  0.66602119  0.21486856  1
  O  O20  1  0.01064490  0.08313209  0.37428418  1
  O  O21  1  0.50624397  0.20991413  0.12230694  1
  O  O22  1  0.50715276  0.32049063  0.95457396  1
  O  O23  1  0.00970911  0.63824376  0.96360862  1
  O  O24  1  0.98852994  0.86257160  0.46367901  1
  O  O25  1  0.99839429  0.53347918  0.68715353  1
  O  O26  1  0.50272536  0.16648978  0.28525447  1
  O  O27  1  0.49354152  0.79063262  0.87759215  1
  O  O28  1  0.50679830  0.71172226  0.37758049  1
  O  O29  1  0.00243022  0.46596639  0.31285870  1
  O  O30  1  0.00658849  0.58093654  0.12567270  1
  O  O31  1  0.99037313  0.54614750  0.56832702  1
  O  O32  1  0.49689815  0.33439290  0.78495688  1
  O  O33  1  0.49300299  0.67938061  0.04513315  1
  O  O34  1  0.99806224  0.65828984  0.79164101  1
  O  O35  1  0.49469685  0.28797793  0.62260353  1
  O  O36  1  0.99655646  0.03343922  0.81283421  1
  O  O37  1  0.00878776  0.13734218  0.53645781  1
  O  O38  1  0.99473813  0.04727153  0.93144289  1
  O  O39  1  0.99411754  0.41879497  0.87423088  1
  O  O40  1  0.50251334  0.81882775  0.54516777  1
  O  O41  1  0.99108450  0.36135832  0.03616457  1
  O  O42  1  0.98918631  0.91694024  0.62574431  1
  O  O43  1  0.49780070  0.83339198  0.71494994  1
