# generated using pymatgen
data_In8Cu7Se16
_symmetry_space_group_name_H-M   'P 1'
_cell_length_a   24.48153406
_cell_length_b   8.60686999
_cell_length_c   11.05501185
_cell_angle_alpha   65.26762036
_cell_angle_beta   31.50083800
_cell_angle_gamma   45.28820019
_symmetry_Int_Tables_number   1
_chemical_formula_structural   In8Cu7Se16
_chemical_formula_sum   'In8 Cu7 Se16'
_cell_volume   754.61819019
_cell_formula_units_Z   1
loop_
 _symmetry_equiv_pos_site_id
 _symmetry_equiv_pos_as_xyz
  1  'x, y, z'
loop_
 _atom_site_type_symbol
 _atom_site_label
 _atom_site_symmetry_multiplicity
 _atom_site_fract_x
 _atom_site_fract_y
 _atom_site_fract_z
 _atom_site_occupancy
  In  In0  1  0.99666526  0.51293269  0.00563358  1
  In  In1  1  0.25151475  0.50768152  0.99014981  1
  In  In2  1  0.12474577  0.25317254  0.50059173  1
  In  In3  1  0.50336413  0.50770005  0.99195038  1
  In  In4  1  0.37505640  0.25447631  0.50053888  1
  In  In5  1  0.75745739  0.50033383  0.98582734  1
  In  In6  1  0.63232185  0.24597701  0.48767591  1
  In  In7  1  0.87626499  0.25525591  0.49689149  1
  Cu  Cu8  1  0.24773219  0.00885885  0.00247186  1
  Cu  Cu9  1  0.50241495  0.00412374  0.99208767  1
  Cu  Cu10  1  0.12932338  0.75311992  0.49353697  1
  Cu  Cu11  1  0.74787171  0.00736799  0.00443615  1
  Cu  Cu12  1  0.37546199  0.75326502  0.49986332  1
  Cu  Cu13  1  0.62998570  0.74869231  0.49113649  1
  Cu  Cu14  1  0.87357521  0.75464604  0.50110344  1
  Se  Se15  1  0.11448477  0.37323472  0.25554662  1
  Se  Se16  1  0.00057100  0.09632697  0.76581230  1
  Se  Se17  1  0.13275791  0.86751761  0.24921240  1
  Se  Se18  1  0.37057922  0.36729276  0.24567756  1
  Se  Se19  1  0.25431055  0.09096999  0.75490701  1
  Se  Se20  1  0.38133542  0.87168829  0.25311742  1
  Se  Se21  1  0.23456515  0.65638617  0.75824501  1
  Se  Se22  1  0.61749137  0.37265197  0.24890701  1
  Se  Se23  1  0.50225841  0.09650464  0.75551813  1
  Se  Se24  1  0.63254088  0.86833854  0.24886135  1
  Se  Se25  1  0.49188445  0.64998592  0.74791814  1
  Se  Se26  1  0.86936619  0.36811996  0.24924144  1
  Se  Se27  1  0.75429166  0.09282324  0.75647760  1
  Se  Se28  1  0.89062974  0.87211052  0.23241600  1
  Se  Se29  1  0.73910468  0.65191898  0.75421307  1
  Se  Se30  1  0.99317794  0.65008501  0.74679895  1
