# generated using pymatgen
data_Ag(Mo3S4)2
_symmetry_space_group_name_H-M   'P 1'
_cell_length_a   6.53651736
_cell_length_b   6.53651734
_cell_length_c   6.53651756
_cell_angle_alpha   92.07233947
_cell_angle_beta   92.07233949
_cell_angle_gamma   92.07233669
_symmetry_Int_Tables_number   1
_chemical_formula_structural   Ag(Mo3S4)2
_chemical_formula_sum   'Ag1 Mo6 S8'
_cell_volume   278.71807085
_cell_formula_units_Z   1
loop_
 _symmetry_equiv_pos_site_id
 _symmetry_equiv_pos_as_xyz
  1  'x, y, z'
loop_
 _atom_site_type_symbol
 _atom_site_label
 _atom_site_symmetry_multiplicity
 _atom_site_fract_x
 _atom_site_fract_y
 _atom_site_fract_z
 _atom_site_occupancy
  Ag  Ag0  1  0.00000000  0.00000000  0.00000000  1
  Mo  Mo1  1  0.44670793  0.59260184  0.78432719  1
  Mo  Mo2  1  0.59260184  0.78432719  0.44670793  1
  Mo  Mo3  1  0.78432719  0.44670793  0.59260184  1
  Mo  Mo4  1  0.21567281  0.55329207  0.40739816  1
  Mo  Mo5  1  0.40739816  0.21567281  0.55329207  1
  Mo  Mo6  1  0.55329207  0.40739816  0.21567281  1
  S  S7  1  0.27077796  0.86700416  0.61666957  1
  S  S8  1  0.61666957  0.27077796  0.86700416  1
  S  S9  1  0.86700416  0.61666957  0.27077796  1
  S  S10  1  0.13299584  0.38333043  0.72922204  1
  S  S11  1  0.22376828  0.22376828  0.22376828  1
  S  S12  1  0.38333043  0.72922204  0.13299584  1
  S  S13  1  0.72922204  0.13299584  0.38333043  1
  S  S14  1  0.77623172  0.77623172  0.77623172  1
