# generated using pymatgen
data_Bi5(S2Cl)3
_symmetry_space_group_name_H-M   'P 1'
_cell_length_a   12.23483863
_cell_length_b   12.21951902
_cell_length_c   12.31528562
_cell_angle_alpha   109.32511788
_cell_angle_beta   109.65654164
_cell_angle_gamma   108.77118220
_symmetry_Int_Tables_number   1
_chemical_formula_structural   Bi5(S2Cl)3
_chemical_formula_sum   'Bi20 S24 Cl12'
_cell_volume   1428.71964268
_cell_formula_units_Z   4
loop_
 _symmetry_equiv_pos_site_id
 _symmetry_equiv_pos_as_xyz
  1  'x, y, z'
loop_
 _atom_site_type_symbol
 _atom_site_label
 _atom_site_symmetry_multiplicity
 _atom_site_fract_x
 _atom_site_fract_y
 _atom_site_fract_z
 _atom_site_occupancy
  Bi  Bi0  1  0.10411882  0.97623569  0.68766605  1
  Bi  Bi1  1  0.04788055  0.30781906  0.89612739  1
  Bi  Bi2  1  0.04922563  0.48350993  0.31483335  1
  Bi  Bi3  1  0.22720040  0.33440632  0.64528970  1
  Bi  Bi4  1  0.37018138  0.77741090  0.63177277  1
  Bi  Bi5  1  0.29868394  0.89439432  0.03104378  1
  Bi  Bi6  1  0.53622644  0.69878683  0.96032464  1
  Bi  Bi7  1  0.29036406  0.30303563  0.29985423  1
  Bi  Bi8  1  0.38746622  0.62892104  0.23441272  1
  Bi  Bi9  1  0.66774003  0.97548692  0.55757003  1
  Bi  Bi10  1  0.31844185  0.00792337  0.43003137  1
  Bi  Bi11  1  0.64694838  0.37088814  0.78046107  1
  Bi  Bi12  1  0.69804647  0.70905591  0.72987449  1
  Bi  Bi13  1  0.41439529  0.31029685  0.99040437  1
  Bi  Bi14  1  0.70571040  0.15199548  0.97272686  1
  Bi  Bi15  1  0.60556764  0.20288481  0.36326249  1
  Bi  Bi16  1  0.75757493  0.65647530  0.36693020  1
  Bi  Bi17  1  0.02937938  0.59257276  0.68954794  1
  Bi  Bi18  1  0.98612621  0.68737473  0.10338489  1
  Bi  Bi19  1  0.90095550  0.04295435  0.34441609  1
  S  S20  1  0.07704268  0.83343035  0.83635052  1
  S  S21  1  0.05371860  0.66752973  0.52307600  1
  S  S22  1  0.01087632  0.13644361  0.61382700  1
  S  S23  1  0.15970165  0.92239475  0.16500955  1
  S  S24  1  0.29419748  0.66888694  0.79635104  1
  S  S25  1  0.16197494  0.15273956  0.92267697  1
  S  S26  1  0.32401145  0.47383799  0.95826593  1
  S  S27  1  0.20737155  0.71202192  0.33885115  1
  S  S28  1  0.25912821  0.48848472  0.47772903  1
  S  S29  1  0.15277196  0.15415341  0.40175154  1
  S  S30  1  0.16087341  0.39871409  0.15300383  1
  S  S31  1  0.60145419  0.84996668  0.84730194  1
  S  S32  1  0.35476459  0.21560636  0.72814099  1
  S  S33  1  0.47640580  0.95796852  0.33953381  1
  S  S34  1  0.51452516  0.52286721  0.73949875  1
  S  S35  1  0.52355108  0.73357668  0.51690865  1
  S  S36  1  0.47343004  0.26197515  0.48863933  1
  S  S37  1  0.48668556  0.47133095  0.26679278  1
  S  S38  1  0.52844058  0.03961607  0.67027120  1
  S  S39  1  0.64850970  0.78760538  0.28673288  1
  S  S40  1  0.39641712  0.15470134  0.15823742  1
  S  S41  1  0.84459686  0.59740298  0.84348415  1
  S  S42  1  0.84573621  0.84026402  0.60531629  1
  S  S43  1  0.85352342  0.37098602  0.97913379  1
  Cl  Cl44  1  0.39399533  0.00877325  0.86564037  1
  Cl  Cl45  1  0.13552633  0.61037984  0.00171951  1
  Cl  Cl46  1  0.73675387  0.50544604  0.52249567  1
  Cl  Cl47  1  0.78094609  0.27005827  0.64701184  1
  Cl  Cl48  1  0.65926635  0.52428657  0.03686258  1
  Cl  Cl49  1  0.82731435  0.83690746  0.08205425  1
  Cl  Cl50  1  0.71132197  0.32656210  0.18284290  1
  Cl  Cl51  1  0.84644203  0.07002111  0.83769756  1
  Cl  Cl52  1  0.61892637  0.99832875  0.15252642  1
  Cl  Cl53  1  0.98017963  0.84890082  0.37269731  1
  Cl  Cl54  1  0.94231411  0.30728606  0.45853429  1
  Cl  Cl55  1  0.91507149  0.16811695  0.15309831  1
