# generated using pymatgen
data_YbTiCdSbO7
_symmetry_space_group_name_H-M   'P 1'
_cell_length_a   7.29686514
_cell_length_b   14.60381993
_cell_length_c   12.65204257
_cell_angle_alpha   30.01777863
_cell_angle_beta   54.78314013
_cell_angle_gamma   60.01474863
_symmetry_Int_Tables_number   1
_chemical_formula_structural   YbTiCdSbO7
_chemical_formula_sum   'Yb4 Ti4 Cd4 Sb4 O28'
_cell_volume   551.03018956
_cell_formula_units_Z   4
loop_
 _symmetry_equiv_pos_site_id
 _symmetry_equiv_pos_as_xyz
  1  'x, y, z'
loop_
 _atom_site_type_symbol
 _atom_site_label
 _atom_site_symmetry_multiplicity
 _atom_site_fract_x
 _atom_site_fract_y
 _atom_site_fract_z
 _atom_site_occupancy
  Yb  Yb0  1  0.99943226  0.99403135  0.00613739  1
  Yb  Yb1  1  0.99874084  0.25114886  0.49909840  1
  Yb  Yb2  1  0.50094969  0.50396184  0.99437964  1
  Yb  Yb3  1  0.00384940  0.24969433  0.99942188  1
  Ti  Ti4  1  0.51604323  0.25046923  0.99741483  1
  Ti  Ti5  1  0.50243950  0.01604579  0.48313586  1
  Ti  Ti6  1  0.00174500  0.48574759  0.51214603  1
  Ti  Ti7  1  0.49109381  0.24753457  0.50259324  1
  Cd  Cd8  1  0.99754047  0.49805488  0.00296120  1
  Cd  Cd9  1  0.50043887  0.00189872  0.99699666  1
  Cd  Cd10  1  0.00296341  0.75259956  0.99515232  1
  Cd  Cd11  1  0.99865881  0.74796631  0.50068856  1
  Sb  Sb12  1  0.49644053  0.74822131  0.00027556  1
  Sb  Sb13  1  0.00236909  0.00494214  0.49374527  1
  Sb  Sb14  1  0.49981065  0.49545014  0.50423147  1
  Sb  Sb15  1  0.50608310  0.74988558  0.49927185  1
  O  O16  1  0.13015935  0.99308668  0.13149152  1
  O  O17  1  0.17833040  0.20278471  0.16866508  1
  O  O18  1  0.18183186  0.00398976  0.56758677  1
  O  O19  1  0.11941445  0.50518980  0.12004092  1
  O  O20  1  0.57851232  0.00215075  0.17488786  1
  O  O21  1  0.57368952  0.19819041  0.17608861  1
  O  O22  1  0.18135151  0.30323695  0.57104425  1
  O  O23  1  0.42874358  0.19718274  0.42750095  1
  O  O24  1  0.17150951  0.69903935  0.17822666  1
  O  O25  1  0.17421660  0.49622413  0.57772016  1
  O  O26  1  0.82362279  0.00768750  0.41756619  1
  O  O27  1  0.42093406  0.00004319  0.82209976  1
  O  O28  1  0.57229911  0.49627100  0.17824450  1
  O  O29  1  0.58040773  0.30001024  0.57054909  1
  O  O30  1  0.82404193  0.19796330  0.43217871  1
  O  O31  1  0.57780037  0.69994815  0.17355801  1
  O  O32  1  0.17552013  0.79916599  0.57442656  1
  O  O33  1  0.42012097  0.29873023  0.82958854  1
  O  O34  1  0.42666972  0.70157866  0.42201893  1
  O  O35  1  0.43489776  0.49821876  0.82367256  1
  O  O36  1  0.82440752  0.49124033  0.43651144  1
  O  O37  1  0.82543872  0.30073565  0.82333689  1
  O  O38  1  0.57541412  0.79861321  0.57879984  1
  O  O39  1  0.83179902  0.70166300  0.41794986  1
  O  O40  1  0.43129663  0.79712297  0.82141418  1
  O  O41  1  0.88085566  0.50514343  0.86936628  1
  O  O42  1  0.82735747  0.79892503  0.82438156  1
  O  O43  1  0.87084053  0.99616087  0.87861115  1
