# generated using pymatgen
data_Ta2O5
_symmetry_space_group_name_H-M   'P 1'
_cell_length_a   6.91920738
_cell_length_b   7.47556319
_cell_length_c   7.15368672
_cell_angle_alpha   59.66812675
_cell_angle_beta   62.82102591
_cell_angle_gamma   65.03323320
_symmetry_Int_Tables_number   1
_chemical_formula_structural   Ta2O5
_chemical_formula_sum   'Ta6 O15'
_cell_volume   275.13875163
_cell_formula_units_Z   3
loop_
 _symmetry_equiv_pos_site_id
 _symmetry_equiv_pos_as_xyz
  1  'x, y, z'
loop_
 _atom_site_type_symbol
 _atom_site_label
 _atom_site_symmetry_multiplicity
 _atom_site_fract_x
 _atom_site_fract_y
 _atom_site_fract_z
 _atom_site_occupancy
  Ta  Ta0  1  0.25703642  0.96528837  0.02749395  1
  Ta  Ta1  1  0.23135006  0.02904886  0.53552845  1
  Ta  Ta2  1  0.75059715  0.04028188  0.99178453  1
  Ta  Ta3  1  0.26941788  0.48063253  0.98357911  1
  Ta  Ta4  1  0.70399718  0.55443376  0.01277399  1
  Ta  Ta5  1  0.77355968  0.97862346  0.47207002  1
  O  O6  1  0.06369989  0.10432448  0.81762253  1
  O  O7  1  0.19842167  0.31396638  0.31990487  1
  O  O8  1  0.36870657  0.65057744  0.06857551  1
  O  O9  1  0.14341397  0.96186906  0.33763755  1
  O  O10  1  0.45704533  0.01213746  0.67683858  1
  O  O11  1  0.30754601  0.71109039  0.69320687  1
  O  O12  1  0.31731138  0.23802592  0.92649554  1
  O  O13  1  0.57722310  0.83899583  0.05700040  1
  O  O14  1  0.73995575  0.28292512  0.26845501  1
  O  O15  1  0.55741668  0.98787956  0.32203581  1
  O  O16  1  0.85729783  0.03926593  0.67583612  1
  O  O17  1  0.63023282  0.34037936  0.93454750  1
  O  O18  1  0.95404708  0.59022763  0.03556569  1
  O  O19  1  0.82236315  0.67281713  0.68874223  1
  O  O20  1  0.94706140  0.88650843  0.19640473  1
