# generated using pymatgen
data_LaMg6Cu
_symmetry_space_group_name_H-M   'P 1'
_cell_length_a   7.12189059
_cell_length_b   5.98538818
_cell_length_c   4.95418097
_cell_angle_alpha   90.00000000
_cell_angle_beta   90.00000000
_cell_angle_gamma   114.84789165
_symmetry_Int_Tables_number   1
_chemical_formula_structural   LaMg6Cu
_chemical_formula_sum   'La1 Mg6 Cu1'
_cell_volume   191.63329644
_cell_formula_units_Z   1
loop_
 _symmetry_equiv_pos_site_id
 _symmetry_equiv_pos_as_xyz
  1  'x, y, z'
loop_
 _atom_site_type_symbol
 _atom_site_label
 _atom_site_symmetry_multiplicity
 _atom_site_fract_x
 _atom_site_fract_y
 _atom_site_fract_z
 _atom_site_occupancy
  La  La0  1  0.10383518  0.80191709  0.25000000  1
  Mg  Mg1  1  0.62220529  0.30857586  0.25000000  1
  Mg  Mg2  1  0.62220529  0.81362843  0.25000000  1
  Mg  Mg3  1  0.34898232  0.17806646  0.75000000  1
  Mg  Mg4  1  0.34898232  0.67091686  0.75000000  1
  Mg  Mg5  1  0.91227922  0.20614011  0.75000000  1
  Mg  Mg6  1  0.78478334  0.64239217  0.75000000  1
  Cu  Cu7  1  0.25672703  0.37836301  0.25000000  1
