# generated using pymatgen
data_Ca2Bi10O17
_symmetry_space_group_name_H-M   'P 1'
_cell_length_a   7.88316195
_cell_length_b   8.07601471
_cell_length_c   9.78749546
_cell_angle_alpha   100.47134320
_cell_angle_beta   90.00556868
_cell_angle_gamma   121.78693269
_symmetry_Int_Tables_number   1
_chemical_formula_structural   Ca2Bi10O17
_chemical_formula_sum   'Ca2 Bi10 O17'
_cell_volume   517.40137899
_cell_formula_units_Z   1
loop_
 _symmetry_equiv_pos_site_id
 _symmetry_equiv_pos_as_xyz
  1  'x, y, z'
loop_
 _atom_site_type_symbol
 _atom_site_label
 _atom_site_symmetry_multiplicity
 _atom_site_fract_x
 _atom_site_fract_y
 _atom_site_fract_z
 _atom_site_occupancy
  Ca  Ca0  1  0.50877267  0.52062397  0.01941927  1
  Ca  Ca1  1  0.50838682  0.01681339  0.01932402  1
  Bi  Bi2  1  0.08873334  0.70513732  0.66871051  1
  Bi  Bi3  1  0.00722578  0.01846525  0.98235566  1
  Bi  Bi4  1  0.09687836  0.24054940  0.67340834  1
  Bi  Bi5  1  0.39034001  0.77885728  0.33819241  1
  Bi  Bi6  1  0.39655092  0.28328172  0.32986439  1
  Bi  Bi7  1  0.64051383  0.74888080  0.66446139  1
  Bi  Bi8  1  0.61881901  0.22701714  0.67607975  1
  Bi  Bi9  1  0.88796941  0.77400530  0.32789008  1
  Bi  Bi10  1  0.02658321  0.52431570  -0.00491612  1
  Bi  Bi11  1  0.89319035  0.27338362  0.33158614  1
  O  O12  1  0.05010966  0.60399249  0.32302217  1
  O  O13  1  0.17203334  0.79828340  0.89530387  1
  O  O14  1  0.06207540  0.10736099  0.34783919  1
  O  O15  1  0.16495725  0.33254211  0.90285102  1
  O  O16  1  0.34813923  0.70947046  0.11448808  1
  O  O17  1  0.31584397  0.63346421  0.58986574  1
  O  O18  1  0.34497977  0.20986376  0.11128299  1
  O  O19  1  0.64435329  0.81230448  0.88986825  1
  O  O20  1  0.54479153  0.60776234  0.30274842  1
  O  O21  1  0.55511431  0.11135477  0.30317571  1
  O  O22  1  0.62662008  0.29661873  0.89620373  1
  O  O23  1  0.72232524  0.49564422  0.59420701  1
  O  O24  1  0.86300201  0.72137632  0.10999013  1
  O  O25  1  0.00231408  0.95787702  0.73706379  1
  O  O26  1  0.76678381  0.04991781  0.58755584  1
  O  O27  1  0.86958204  0.19541983  0.11205346  1
  O  O28  1  0.95301129  0.41541618  0.73910476  1
