# generated using pymatgen
data_NaYbTiNbO6F
_symmetry_space_group_name_H-M   'P 1'
_cell_length_a   7.32945566
_cell_length_b   14.67707272
_cell_length_c   12.71595651
_cell_angle_alpha   29.95907361
_cell_angle_beta   54.80238240
_cell_angle_gamma   60.04092198
_symmetry_Int_Tables_number   1
_chemical_formula_structural   NaYbTiNbO6F
_chemical_formula_sum   'Na4 Yb4 Ti4 Nb4 O24 F4'
_cell_volume   558.21854866
_cell_formula_units_Z   4
loop_
 _symmetry_equiv_pos_site_id
 _symmetry_equiv_pos_as_xyz
  1  'x, y, z'
loop_
 _atom_site_type_symbol
 _atom_site_label
 _atom_site_symmetry_multiplicity
 _atom_site_fract_x
 _atom_site_fract_y
 _atom_site_fract_z
 _atom_site_occupancy
  Na  Na0  1  0.50000000  0.99732752  0.00267248  1
  Na  Na1  1  -0.00000000  0.50267248  0.99732752  1
  Na  Na2  1  0.99732752  0.75000000  0.00000000  1
  Na  Na3  1  0.00267248  0.75000000  0.50000000  1
  Yb  Yb4  1  -0.00000000  0.99423852  0.00576148  1
  Yb  Yb5  1  0.50000000  0.50576148  0.99423852  1
  Yb  Yb6  1  0.00576148  0.25000000  1.00000000  1
  Yb  Yb7  1  0.99423852  0.25000000  0.50000000  1
  Ti  Ti8  1  0.50000000  0.00842259  0.49157741  1
  Ti  Ti9  1  0.49157741  0.25000000  0.50000000  1
  Ti  Ti10  1  0.50842259  0.25000000  1.00000000  1
  Ti  Ti11  1  -0.00000000  0.49157741  0.50842259  1
  Nb  Nb12  1  0.50000000  0.49150632  0.50849368  1
  Nb  Nb13  1  -0.00000000  0.00849368  0.49150632  1
  Nb  Nb14  1  0.50849368  0.75000000  0.50000000  1
  Nb  Nb15  1  0.49150632  0.75000000  0.00000000  1
  O  O16  1  0.18589070  0.19668470  0.17205102  1
  O  O17  1  0.58725573  0.00341004  0.17507998  1
  O  O18  1  0.57558311  0.20058311  0.17441689  1
  O  O19  1  0.17205102  0.69537357  0.18589070  1
  O  O20  1  0.17441689  0.29941689  0.57558311  1
  O  O21  1  0.42441689  0.20058311  0.42441689  1
  O  O22  1  0.17507998  0.48425425  0.58725573  1
  O  O23  1  0.81809994  0.01574575  0.41274427  1
  O  O24  1  0.55576423  0.49658996  0.18190006  1
  O  O25  1  0.81410930  0.19668470  0.43457957  1
  O  O26  1  0.57663785  0.30331530  0.56542043  1
  O  O27  1  0.56660361  0.69160361  0.18339639  1
  O  O28  1  0.18339639  0.80839639  0.56660361  1
  O  O29  1  0.42336215  0.30331530  0.82794898  1
  O  O30  1  0.43339639  0.69160361  0.43339639  1
  O  O31  1  0.18190006  0.01574575  0.55576423  1
  O  O32  1  0.44423577  0.49658996  0.82492002  1
  O  O33  1  0.82492002  0.48425425  0.44423577  1
  O  O34  1  0.82558311  0.29941689  0.82558311  1
  O  O35  1  0.82794898  0.69537357  0.42336215  1
  O  O36  1  0.56542043  0.80462643  0.57663785  1
  O  O37  1  0.43457957  0.80462643  0.81410930  1
  O  O38  1  0.41274427  0.00341004  0.81809994  1
  O  O39  1  0.81660361  0.80839639  0.81660361  1
  F  F40  1  0.11780880  0.00719120  0.11780880  1
  F  F41  1  0.13219120  0.49280880  0.13219120  1
  F  F42  1  0.88219120  0.00719120  0.86780880  1
  F  F43  1  0.86780880  0.49280880  0.88219120  1
