# generated using pymatgen
data_Ag3SI
_symmetry_space_group_name_H-M   'P 1'
_cell_length_a   8.70921141
_cell_length_b   4.99904013
_cell_length_c   4.99904066
_cell_angle_alpha   88.99214430
_cell_angle_beta   53.54528968
_cell_angle_gamma   54.97074208
_symmetry_Int_Tables_number   1
_chemical_formula_structural   Ag3SI
_chemical_formula_sum   'Ag3 S1 I1'
_cell_volume   124.86938370
_cell_formula_units_Z   1
loop_
 _symmetry_equiv_pos_site_id
 _symmetry_equiv_pos_as_xyz
  1  'x, y, z'
loop_
 _atom_site_type_symbol
 _atom_site_label
 _atom_site_symmetry_multiplicity
 _atom_site_fract_x
 _atom_site_fract_y
 _atom_site_fract_z
 _atom_site_occupancy
  Ag  Ag0  1  0.07803397  0.42196603  0.00000000  1
  Ag  Ag1  1  0.50000000  0.42196603  0.42196603  1
  Ag  Ag2  1  0.92196603  0.15606794  0.57803397  1
  S  S3  1  0.00000000  0.00000000  0.00000000  1
  I  I4  1  0.50000000  0.00000000  0.00000000  1
