# generated using pymatgen
data_La5Mn5O18
_symmetry_space_group_name_H-M   'P 1'
_cell_length_a   5.40968591
_cell_length_b   16.30297741
_cell_length_c   14.34155966
_cell_angle_alpha   19.27922191
_cell_angle_beta   56.54345041
_cell_angle_gamma   60.99542952
_symmetry_Int_Tables_number   1
_chemical_formula_structural   La5Mn5O18
_chemical_formula_sum   'La5 Mn5 O18'
_cell_volume   345.51083818
_cell_formula_units_Z   1
loop_
 _symmetry_equiv_pos_site_id
 _symmetry_equiv_pos_as_xyz
  1  'x, y, z'
loop_
 _atom_site_type_symbol
 _atom_site_label
 _atom_site_symmetry_multiplicity
 _atom_site_fract_x
 _atom_site_fract_y
 _atom_site_fract_z
 _atom_site_occupancy
  La  La0  1  0.23249825  0.57352427  0.27039044  1
  La  La1  1  0.74188437  0.07662184  0.76201825  1
  La  La2  1  0.26637199  0.92147397  0.23379700  1
  La  La3  1  0.75843536  0.41872214  0.74317882  1
  La  La4  1  0.74965643  0.75050108  0.74935901  1
  Mn  Mn5  1  0.99401738  0.32487642  0.01427486  1
  Mn  Mn6  1  0.00792267  0.67223361  0.98824234  1
  Mn  Mn7  1  0.50389412  0.17291610  0.48993387  1
  Mn  Mn8  1  0.49928241  0.49800415  0.50221266  1
  Mn  Mn9  1  0.49281018  0.82374571  0.51377814  1
  O  O10  1  0.30410199  0.11248632  0.19323872  1
  O  O11  1  0.81160834  0.06762259  0.24373639  1
  O  O12  1  0.30394972  0.46501723  0.19131639  1
  O  O13  1  0.75608835  0.19309346  0.30410044  1
  O  O14  1  0.27407599  0.13143374  0.68922379  1
  O  O15  1  0.78945340  0.40991854  0.24260940  1
  O  O16  1  0.20949516  0.27526951  0.74038344  1
  O  O17  1  0.30727639  0.77233973  0.21050746  1
  O  O18  1  0.74882099  0.53009769  0.30305854  1
  O  O19  1  0.24754908  0.46501936  0.70221353  1
  O  O20  1  0.70332813  0.23206873  0.78109848  1
  O  O21  1  0.78077492  0.72572131  0.26290681  1
  O  O22  1  0.19342697  0.61631053  0.72766881  1
  O  O23  1  0.72825817  0.86192081  0.31752074  1
  O  O24  1  0.24496858  0.80367080  0.69896722  1
  O  O25  1  0.71606138  0.56178038  0.78535318  1
  O  O26  1  0.19352662  0.91619466  0.77822396  1
  O  O27  1  0.69046264  0.87741533  0.81068732  1
