# generated using pymatgen
data_Mn2CuO4
_symmetry_space_group_name_H-M   'P 1'
_cell_length_a   6.19400088
_cell_length_b   5.80984049
_cell_length_c   6.19400055
_cell_angle_alpha   62.03129102
_cell_angle_beta   57.06198920
_cell_angle_gamma   62.03129251
_symmetry_Int_Tables_number   1
_chemical_formula_structural   Mn2CuO4
_chemical_formula_sum   'Mn4 Cu2 O8'
_cell_volume   158.18599056
_cell_formula_units_Z   2
loop_
 _symmetry_equiv_pos_site_id
 _symmetry_equiv_pos_as_xyz
  1  'x, y, z'
loop_
 _atom_site_type_symbol
 _atom_site_label
 _atom_site_symmetry_multiplicity
 _atom_site_fract_x
 _atom_site_fract_y
 _atom_site_fract_z
 _atom_site_occupancy
  Mn  Mn0  1  0.02397906  0.97602094  0.02397906  1
  Mn  Mn1  1  0.22602094  0.27397906  0.22602094  1
  Mn  Mn2  1  0.12500000  0.62500000  0.62500000  1
  Mn  Mn3  1  0.62500000  0.62500000  0.12500000  1
  Cu  Cu4  1  0.62500000  0.12500000  0.62500000  1
  Cu  Cu5  1  0.62500000  0.62500000  0.62500000  1
  O  O6  1  0.36315601  0.41282724  0.36315601  1
  O  O7  1  0.36688260  0.40931225  0.81449290  1
  O  O8  1  0.36315601  0.86086075  0.36315601  1
  O  O9  1  0.43550710  0.84068775  0.88311740  1
  O  O10  1  0.81449290  0.40931225  0.36688260  1
  O  O11  1  0.88311740  0.84068775  0.43550710  1
  O  O12  1  0.88684399  0.38913925  0.88684399  1
  O  O13  1  0.88684399  0.83717276  0.88684399  1
