# generated using pymatgen
data_H16PtC4(NCl3)2
_symmetry_space_group_name_H-M   'P 1'
_cell_length_a   7.37880403
_cell_length_b   8.06498188
_cell_length_c   8.06498168
_cell_angle_alpha   75.02302346
_cell_angle_beta   64.11546633
_cell_angle_gamma   64.11547503
_symmetry_Int_Tables_number   1
_chemical_formula_structural   H16PtC4(NCl3)2
_chemical_formula_sum   'H16 Pt1 C4 N2 Cl6'
_cell_volume   387.10931572
_cell_formula_units_Z   1
loop_
 _symmetry_equiv_pos_site_id
 _symmetry_equiv_pos_as_xyz
  1  'x, y, z'
loop_
 _atom_site_type_symbol
 _atom_site_label
 _atom_site_symmetry_multiplicity
 _atom_site_fract_x
 _atom_site_fract_y
 _atom_site_fract_z
 _atom_site_occupancy
  H  H0  1  0.71869406  0.06439529  0.49594251  1
  H  H1  1  0.71869406  0.49594252  0.06439529  1
  H  H2  1  0.28130594  0.50405748  0.93560471  1
  H  H3  1  0.28130594  0.93560471  0.50405749  1
  H  H4  1  0.04213394  0.71003124  0.96829705  1
  H  H5  1  0.04213394  0.96829705  0.71003124  1
  H  H6  1  0.24275691  0.64598168  0.64598168  1
  H  H7  1  0.53724494  0.35030232  0.35030231  1
  H  H8  1  0.71833845  0.02707266  0.28608354  1
  H  H9  1  0.71833845  0.28608354  0.02707266  1
  H  H10  1  0.28166155  0.71391646  0.97292734  1
  H  H11  1  0.28166155  0.97292734  0.71391646  1
  H  H12  1  0.46275506  0.64969768  0.64969769  1
  H  H13  1  0.75724309  0.35401832  0.35401832  1
  H  H14  1  0.95786606  0.03170295  0.28996876  1
  H  H15  1  0.95786606  0.28996876  0.03170295  1
  Pt  Pt16  1  0.00000000  0.50000000  0.50000000  1
  C  C17  1  0.78035519  0.09051361  0.34431163  1
  C  C18  1  0.78035519  0.34431163  0.09051361  1
  C  C19  1  0.21964481  0.65568837  0.90948639  1
  C  C20  1  0.21964481  0.90948639  0.65568837  1
  N  N21  1  0.70525936  0.29282104  0.29282104  1
  N  N22  1  0.29474064  0.70717896  0.70717896  1
  Cl  Cl23  1  0.23080705  0.66593713  0.33594204  1
  Cl  Cl24  1  0.23080705  0.33594204  0.66593713  1
  Cl  Cl25  1  0.76919295  0.33406287  0.66405796  1
  Cl  Cl26  1  0.76919295  0.66405796  0.33406287  1
  Cl  Cl27  1  0.21328692  0.27831371  0.27831371  1
  Cl  Cl28  1  0.78671308  0.72168629  0.72168629  1
