# generated using pymatgen
data_In4As3Se
_symmetry_space_group_name_H-M   'P 1'
_cell_length_a   8.91820473
_cell_length_b   11.79664360
_cell_length_c   7.72181406
_cell_angle_alpha   29.20742677
_cell_angle_beta   54.72733149
_cell_angle_gamma   40.88759931
_symmetry_Int_Tables_number   1
_chemical_formula_structural   In4As3Se
_chemical_formula_sum   'In4 As3 Se1'
_cell_volume   250.69991652
_cell_formula_units_Z   1
loop_
 _symmetry_equiv_pos_site_id
 _symmetry_equiv_pos_as_xyz
  1  'x, y, z'
loop_
 _atom_site_type_symbol
 _atom_site_label
 _atom_site_symmetry_multiplicity
 _atom_site_fract_x
 _atom_site_fract_y
 _atom_site_fract_z
 _atom_site_occupancy
  In  In0  1  0.99713029  0.00000000  0.99409622  1
  In  In1  1  0.50877349  1.00000000  0.99409622  1
  In  In2  1  0.25286971  0.48835679  0.01754699  1
  In  In3  1  0.74122651  0.51164321  0.99426057  1
  As  As4  1  0.62500000  0.00000000  0.25000000  1
  As  As5  1  0.37500000  0.50000000  0.25000000  1
  As  As6  1  0.87500000  0.50000000  0.25000000  1
  Se  Se7  1  0.12500000  0.00000000  0.25000000  1
