# generated using pymatgen
data_Tb8O13
_symmetry_space_group_name_H-M   'P 1'
_cell_length_a   9.44448869
_cell_length_b   9.39560130
_cell_length_c   9.44104634
_cell_angle_alpha   108.66311721
_cell_angle_beta   108.61159834
_cell_angle_gamma   111.53019757
_symmetry_Int_Tables_number   1
_chemical_formula_structural   Tb8O13
_chemical_formula_sum   'Tb16 O26'
_cell_volume   641.36862277
_cell_formula_units_Z   2
loop_
 _symmetry_equiv_pos_site_id
 _symmetry_equiv_pos_as_xyz
  1  'x, y, z'
loop_
 _atom_site_type_symbol
 _atom_site_label
 _atom_site_symmetry_multiplicity
 _atom_site_fract_x
 _atom_site_fract_y
 _atom_site_fract_z
 _atom_site_occupancy
  Tb  Tb0  1  0.27458670  0.74756245  0.53005160  1
  Tb  Tb1  1  0.19260261  0.46668457  0.71371595  1
  Tb  Tb2  1  0.01066808  0.51804872  0.98932264  1
  Tb  Tb3  1  -0.00054652  0.22592545  0.25912622  1
  Tb  Tb4  1  0.47336508  0.74394808  0.25294747  1
  Tb  Tb5  1  0.24086889  0.27087553  0.97678135  1
  Tb  Tb6  1  0.75565361  0.98756982  0.78165129  1
  Tb  Tb7  1  0.49076465  0.49552654  0.48201176  1
  Tb  Tb8  1  0.52579425  0.02576248  0.01359364  1
  Tb  Tb9  1  0.26715683  0.99924678  0.25936363  1
  Tb  Tb10  1  0.81241321  0.77323091  0.03857948  1
  Tb  Tb11  1  0.52463709  0.26030174  0.77851146  1
  Tb  Tb12  1  0.98433948  0.73729010  0.72462698  1
  Tb  Tb13  1  0.99870122  0.99496418  0.50671929  1
  Tb  Tb14  1  0.72930925  0.50958197  0.24626391  1
  Tb  Tb15  1  0.73246850  0.26440591  0.48345408  1
  O  O16  1  0.02372871  0.75452148  0.48466300  1
  O  O17  1  0.26760657  0.76421166  0.78757495  1
  O  O18  1  0.99088596  0.99767323  0.75164472  1
  O  O19  1  0.04173235  0.78719734  0.99849774  1
  O  O20  1  0.22819090  0.74594564  0.27433755  1
  O  O21  1  0.50240299  0.01013338  0.75032598  1
  O  O22  1  0.24151980  0.48614642  0.49465001  1
  O  O23  1  0.26789542  0.25682101  0.72541351  1
  O  O24  1  0.53137429  0.77347386  0.51294660  1
  O  O25  1  0.26202876  0.52579006  0.98741111  1
  O  O26  1  0.24894087  0.22488885  0.20797631  1
  O  O27  1  0.71330309  0.70464335  0.75807504  1
  O  O28  1  0.48389475  0.24938534  0.52112441  1
  O  O29  1  0.47946599  0.49640894  0.24174597  1
  O  O30  1  0.72764990  0.77120014  0.25564915  1
  O  O31  1  0.47465132  0.23572247  0.00318398  1
  O  O32  1  0.73909157  0.50700083  0.48914113  1
  O  O33  1  0.50271671  0.99487673  0.23692518  1
  O  O34  1  0.75789594  0.22196208  0.73203903  1
  O  O35  1  0.97474931  0.49029595  0.73481555  1
  O  O36  1  0.00109920  0.27860378  0.02830143  1
  O  O37  1  0.76381257  0.50684984  0.00742680  1
  O  O38  1  0.04244199  0.00647478  0.28834942  1
  O  O39  1  0.78791270  0.29315346  0.25028027  1
  O  O40  1  0.74233101  0.97505097  0.01477090  1
  O  O41  1  0.95069441  0.21014321  0.49050951  1
