# generated using pymatgen
data_ZrCl3
_symmetry_space_group_name_H-M   'P 1'
_cell_length_a   10.84803579
_cell_length_b   6.26311710
_cell_length_c   7.47069893
_cell_angle_alpha   65.21725322
_cell_angle_beta   61.05132693
_cell_angle_gamma   30.00000275
_symmetry_Int_Tables_number   1
_chemical_formula_structural   ZrCl3
_chemical_formula_sum   'Zr2 Cl6'
_cell_volume   222.07905560
_cell_formula_units_Z   2
loop_
 _symmetry_equiv_pos_site_id
 _symmetry_equiv_pos_as_xyz
  1  'x, y, z'
loop_
 _atom_site_type_symbol
 _atom_site_label
 _atom_site_symmetry_multiplicity
 _atom_site_fract_x
 _atom_site_fract_y
 _atom_site_fract_z
 _atom_site_occupancy
  Zr  Zr0  1  0.33334241  1.00000000  0.99997177  1
  Zr  Zr1  1  0.66665759  0.00000000  0.00002823  1
  Cl  Cl2  1  0.07734211  0.33941942  0.76743719  1
  Cl  Cl3  1  0.26154082  0.66111807  0.23256281  1
  Cl  Cl4  1  0.41676153  0.32169765  0.76743719  1
  Cl  Cl5  1  0.58323847  0.67830235  0.23256281  1
  Cl  Cl6  1  0.73845918  0.33888193  0.76743719  1
  Cl  Cl7  1  0.92265789  0.66058058  0.23256281  1
