# generated using pymatgen
data_Ag2Te
_symmetry_space_group_name_H-M   'P 1'
_cell_length_a   4.76607775
_cell_length_b   4.85526999
_cell_length_c   32.92525481
_cell_angle_alpha   59.43722408
_cell_angle_beta   61.36952735
_cell_angle_gamma   58.72456546
_symmetry_Int_Tables_number   1
_chemical_formula_structural   Ag2Te
_chemical_formula_sum   'Ag14 Te7'
_cell_volume   536.21891042
_cell_formula_units_Z   7
loop_
 _symmetry_equiv_pos_site_id
 _symmetry_equiv_pos_as_xyz
  1  'x, y, z'
loop_
 _atom_site_type_symbol
 _atom_site_label
 _atom_site_symmetry_multiplicity
 _atom_site_fract_x
 _atom_site_fract_y
 _atom_site_fract_z
 _atom_site_occupancy
  Ag  Ag0  1  0.38564785  0.38252078  0.19915775  1
  Ag  Ag1  1  0.77026214  0.77072533  0.11383929  1
  Ag  Ag2  1  0.73627051  0.71649842  0.25563593  1
  Ag  Ag3  1  0.51381805  0.53599661  0.36040251  1
  Ag  Ag4  1  0.75236319  0.80469590  0.39168759  1
  Ag  Ag5  1  0.74665521  0.42508012  0.49172928  1
  Ag  Ag6  1  0.76465776  0.70886140  0.54784923  1
  Ag  Ag7  1  0.27369938  0.27844195  0.74316466  1
  Ag  Ag8  1  0.76367367  0.78213893  0.67041861  1
  Ag  Ag9  1  0.26520439  0.26652672  0.89838157  1
  Ag  Ag10  1  0.52704163  0.52959185  0.78249214  1
  Ag  Ag11  1  0.78552683  0.78763057  0.81627983  1
  Ag  Ag12  1  0.48562970  0.48846421  0.94595552  1
  Ag  Ag13  1  0.74255899  0.74700928  0.97758183  1
  Te  Te14  1  0.00508859  0.01304460  0.00623149  1
  Te  Te15  1  0.02281418  0.03325764  0.14058995  1
  Te  Te16  1  0.00461446  0.98357018  0.28726789  1
  Te  Te17  1  0.00085788  0.03200236  0.42880984  1
  Te  Te18  1  0.04330658  0.98458498  0.57033374  1
  Te  Te19  1  0.02197460  0.02800060  0.70551438  1
  Te  Te20  1  0.02833440  0.02935759  0.85639096  1
