# generated using pymatgen
data_Li2CrCl4
_symmetry_space_group_name_H-M   'P 1'
_cell_length_a   7.42284166
_cell_length_b   7.22876429
_cell_length_c   15.27689603
_cell_angle_alpha   61.51168777
_cell_angle_beta   58.01241240
_cell_angle_gamma   62.50011324
_symmetry_Int_Tables_number   1
_chemical_formula_structural   Li2CrCl4
_chemical_formula_sum   'Li8 Cr4 Cl16'
_cell_volume   586.55056995
_cell_formula_units_Z   4
loop_
 _symmetry_equiv_pos_site_id
 _symmetry_equiv_pos_as_xyz
  1  'x, y, z'
loop_
 _atom_site_type_symbol
 _atom_site_label
 _atom_site_symmetry_multiplicity
 _atom_site_fract_x
 _atom_site_fract_y
 _atom_site_fract_z
 _atom_site_occupancy
  Li  Li0  1  0.12702033  0.10662925  0.05087753  1
  Li  Li1  1  0.00899450  0.99535578  0.74342749  1
  Li  Li2  1  0.98666170  0.52703493  0.50498378  1
  Li  Li3  1  0.51991889  0.48672587  0.25779483  1
  Li  Li4  1  0.00714469  0.49854818  0.75541920  1
  Li  Li5  1  0.51336033  0.97057687  0.52011629  1
  Li  Li6  1  0.48598042  0.51901455  0.49781471  1
  Li  Li7  1  0.49151341  0.50801176  0.75081195  1
  Cr  Cr8  1  0.99169764  0.49614551  0.25425313  1
  Cr  Cr9  1  0.49893586  0.99403939  0.25364780  1
  Cr  Cr10  1  0.50522157  0.49619423  0.99086135  1
  Cr  Cr11  1  0.50531521  0.00033315  0.74984076  1
  Cl  Cl12  1  0.27921605  0.24886492  0.10538014  1
  Cl  Cl13  1  0.23343501  0.26152820  0.35217642  1
  Cl  Cl14  1  0.26604650  0.70142816  0.12413131  1
  Cl  Cl15  1  0.73124130  0.23498653  0.14010808  1
  Cl  Cl16  1  0.23076066  0.27219980  0.60765869  1
  Cl  Cl17  1  0.27725799  0.74759944  0.37042920  1
  Cl  Cl18  1  0.76419430  0.73723402  0.15145735  1
  Cl  Cl19  1  0.73999901  0.27812090  0.37092547  1
  Cl  Cl20  1  0.25316717  0.24919725  0.85893870  1
  Cl  Cl21  1  0.25913026  0.73465679  0.63341980  1
  Cl  Cl22  1  0.74074042  0.23620075  0.63974619  1
  Cl  Cl23  1  0.75343093  0.73757810  0.39714738  1
  Cl  Cl24  1  0.25091350  0.78547458  0.85540100  1
  Cl  Cl25  1  0.73561277  0.77392580  0.62979379  1
  Cl  Cl26  1  0.72929761  0.29263106  0.86305094  1
  Cl  Cl27  1  0.73879198  0.73476424  0.88288673  1
