# generated using pymatgen
data_Mg6ZrSn
_symmetry_space_group_name_H-M   'P 1'
_cell_length_a   6.44306785
_cell_length_b   6.44306731
_cell_length_c   4.98698363
_cell_angle_alpha   90.00000000
_cell_angle_beta   90.00000000
_cell_angle_gamma   118.99198121
_symmetry_Int_Tables_number   1
_chemical_formula_structural   Mg6ZrSn
_chemical_formula_sum   'Mg6 Zr1 Sn1'
_cell_volume   181.08240802
_cell_formula_units_Z   1
loop_
 _symmetry_equiv_pos_site_id
 _symmetry_equiv_pos_as_xyz
  1  'x, y, z'
loop_
 _atom_site_type_symbol
 _atom_site_label
 _atom_site_symmetry_multiplicity
 _atom_site_fract_x
 _atom_site_fract_y
 _atom_site_fract_z
 _atom_site_occupancy
  Mg  Mg0  1  0.16445030  0.82678870  0.25000000  1
  Mg  Mg1  1  0.67321130  0.33554970  0.25000000  1
  Mg  Mg2  1  0.66543418  0.83456582  0.25000000  1
  Mg  Mg3  1  0.33468088  0.66866564  0.75000000  1
  Mg  Mg4  1  0.83133436  0.16531912  0.75000000  1
  Mg  Mg5  1  0.83301807  0.66698193  0.75000000  1
  Zr  Zr6  1  0.16875972  0.33124028  0.25000000  1
  Sn  Sn7  1  0.32911119  0.17088881  0.75000000  1
