# generated using pymatgen
data_Mn2CuO4
_symmetry_space_group_name_H-M   'P 1'
_cell_length_a   6.13410915
_cell_length_b   6.13410901
_cell_length_c   35.58586015
_cell_angle_alpha   60.70158479
_cell_angle_beta   60.70158551
_cell_angle_gamma   58.20522358
_symmetry_Int_Tables_number   1
_chemical_formula_structural   Mn2CuO4
_chemical_formula_sum   'Mn24 Cu12 O48'
_cell_volume   942.83152143
_cell_formula_units_Z   12
loop_
 _symmetry_equiv_pos_site_id
 _symmetry_equiv_pos_as_xyz
  1  'x, y, z'
loop_
 _atom_site_type_symbol
 _atom_site_label
 _atom_site_symmetry_multiplicity
 _atom_site_fract_x
 _atom_site_fract_y
 _atom_site_fract_z
 _atom_site_occupancy
  Mn  Mn0  1  0.00551211  0.00551211  0.99949458  1
  Mn  Mn1  1  0.12656452  0.62379020  0.10429707  1
  Mn  Mn2  1  0.62379020  0.12656452  0.10429707  1
  Mn  Mn3  1  0.62301412  0.62301412  0.02170410  1
  Mn  Mn4  1  0.12716924  0.62771938  0.27039807  1
  Mn  Mn5  1  0.62534026  0.62534026  0.18793085  1
  Mn  Mn6  1  0.23499904  0.23499904  0.37768560  1
  Mn  Mn7  1  0.00865840  0.00865840  0.16521793  1
  Mn  Mn8  1  0.62771938  0.12716924  0.27039807  1
  Mn  Mn9  1  0.12533161  0.62508930  0.43732002  1
  Mn  Mn10  1  0.01716043  0.01716043  0.33003058  1
  Mn  Mn11  1  0.62508930  0.12533161  0.43732002  1
  Mn  Mn12  1  0.23473065  0.23473065  0.54457845  1
  Mn  Mn13  1  0.12502299  0.62501467  0.60415459  1
  Mn  Mn14  1  0.23462018  0.23462018  0.71131801  1
  Mn  Mn15  1  0.62501467  0.12502299  0.60415459  1
  Mn  Mn16  1  0.01544692  0.01544692  0.49696338  1
  Mn  Mn17  1  0.12481658  0.62559369  0.77072807  1
  Mn  Mn18  1  0.01553308  0.01553308  0.66362103  1
  Mn  Mn19  1  0.62559369  0.12481658  0.77072807  1
  Mn  Mn20  1  0.23467888  0.23467888  0.87692144  1
  Mn  Mn21  1  0.12385927  0.62063984  0.93790122  1
  Mn  Mn22  1  0.01433183  0.01433183  0.83088203  1
  Mn  Mn23  1  0.62063984  0.12385927  0.93790122  1
  Cu  Cu24  1  0.24475224  0.24475224  0.04199191  1
  Cu  Cu25  1  0.24475454  0.24475454  0.20900703  1
  Cu  Cu26  1  0.62577266  0.62577266  0.10421187  1
  Cu  Cu27  1  0.62577227  0.62577227  0.27092383  1
  Cu  Cu28  1  0.62694212  0.62694212  0.35364971  1
  Cu  Cu29  1  0.62505027  0.62505027  0.43742095  1
  Cu  Cu30  1  0.62517510  0.62517510  0.52077851  1
  Cu  Cu31  1  0.62505589  0.62505589  0.60415714  1
  Cu  Cu32  1  0.62505752  0.62505752  0.68749567  1
  Cu  Cu33  1  0.62540519  0.62540519  0.77079861  1
  Cu  Cu34  1  0.62404107  0.62404107  0.85450240  1
  Cu  Cu35  1  0.62515942  0.62515942  0.93727055  1
  O  O36  1  0.38041473  0.38041473  0.06429380  1
  O  O37  1  0.37391122  0.37391122  0.14098664  1
  O  O38  1  0.37182310  0.83232373  0.06523734  1
  O  O39  1  0.38229668  0.38229668  0.23114789  1
  O  O40  1  0.41970041  0.87629201  0.14355595  1
  O  O41  1  0.83232373  0.37182310  0.06523734  1
  O  O42  1  0.87456829  0.87456829  0.06827893  1
  O  O43  1  0.87629201  0.41970041  0.14355595  1
  O  O44  1  0.36950098  0.36950098  0.30856710  1
  O  O45  1  0.37542463  0.83074655  0.23182740  1
  O  O46  1  0.83074655  0.37542463  0.23182740  1
  O  O47  1  0.86840909  0.86840909  0.14377711  1
  O  O48  1  0.36710863  0.36710863  0.40178386  1
  O  O49  1  0.42517104  0.88310095  0.30752324  1
  O  O50  1  0.88310095  0.42517104  0.30752324  1
  O  O51  1  0.88032883  0.88032883  0.23370233  1
  O  O52  1  0.36555638  0.36555638  0.47591160  1
  O  O53  1  0.37272045  0.82463207  0.40014390  1
  O  O54  1  0.36747898  0.36747898  0.56842086  1
  O  O55  1  0.82463207  0.37272045  0.40014390  1
  O  O56  1  0.88701852  0.88701852  0.30585434  1
  O  O57  1  0.42560053  0.87789994  0.47453835  1
  O  O58  1  0.87789994  0.42560053  0.47453835  1
  O  O59  1  0.36534389  0.36534389  0.64264034  1
  O  O60  1  0.88484817  0.88484817  0.39879513  1
  O  O61  1  0.37229814  0.82468473  0.56702915  1
  O  O62  1  0.82468473  0.37229814  0.56702915  1
  O  O63  1  0.88297344  0.88297344  0.47299406  1
  O  O64  1  0.36733996  0.36733996  0.73511440  1
  O  O65  1  0.42540001  0.87776301  0.64128708  1
  O  O66  1  0.87776301  0.42540001  0.64128708  1
  O  O67  1  0.88472339  0.88472339  0.56565800  1
  O  O68  1  0.36738721  0.36738721  0.80881954  1
  O  O69  1  0.37241450  0.82496495  0.73360453  1
  O  O70  1  0.82496495  0.37241450  0.73360453  1
  O  O71  1  0.88250994  0.88250994  0.63989944  1
  O  O72  1  0.42514951  0.87782247  0.80819235  1
  O  O73  1  0.36100903  0.36100903  0.90230169  1
  O  O74  1  0.88407202  0.88407202  0.73228070  1
  O  O75  1  0.87782247  0.42514951  0.80819235  1
  O  O76  1  0.36977830  0.36977830  0.97470041  1
  O  O77  1  0.36678155  0.82668040  0.90068482  1
  O  O78  1  0.82668040  0.36678155  0.90068482  1
  O  O79  1  0.88340018  0.88340018  0.80632912  1
  O  O80  1  0.41927204  0.87057471  0.97727548  1
  O  O81  1  0.87911732  0.87911732  0.90004465  1
  O  O82  1  0.87057471  0.41927204  0.97727548  1
  O  O83  1  0.86408794  0.86408794  0.97774466  1
