# generated using pymatgen
data_ZnH8C2I2(N2O)2
_symmetry_space_group_name_H-M   'P 1'
_cell_length_a   14.09297392
_cell_length_b   6.99424464
_cell_length_c   12.68884128
_cell_angle_alpha   90.00000000
_cell_angle_beta   113.97864955
_cell_angle_gamma   90.00000000
_symmetry_Int_Tables_number   1
_chemical_formula_structural   ZnH8C2I2(N2O)2
_chemical_formula_sum   'Zn4 H32 C8 I8 N16 O8'
_cell_volume   1142.79310500
_cell_formula_units_Z   4
loop_
 _symmetry_equiv_pos_site_id
 _symmetry_equiv_pos_as_xyz
  1  'x, y, z'
loop_
 _atom_site_type_symbol
 _atom_site_label
 _atom_site_symmetry_multiplicity
 _atom_site_fract_x
 _atom_site_fract_y
 _atom_site_fract_z
 _atom_site_occupancy
  Zn  Zn0  1  0.25230966  0.90960358  0.12338145  1
  Zn  Zn1  1  0.24769034  0.40960358  0.87661855  1
  Zn  Zn2  1  0.74769034  0.09039642  0.87661855  1
  Zn  Zn3  1  0.75230966  0.59039642  0.12338145  1
  H  H4  1  0.32492678  0.33306292  0.73923972  1
  H  H5  1  0.17507322  0.83306292  0.26076028  1
  H  H6  1  0.67507322  0.66693708  0.26076028  1
  H  H7  1  0.82492678  0.16693708  0.73923972  1
  H  H8  1  0.41147124  0.49219580  0.81839323  1
  H  H9  1  0.08852876  0.99219580  0.18160677  1
  H  H10  1  0.58852876  0.50780420  0.18160677  1
  H  H11  1  0.91147124  0.00780420  0.81839323  1
  H  H12  1  0.57309806  0.35704153  0.93268372  1
  H  H13  1  0.92690194  0.85704153  0.06731628  1
  H  H14  1  0.42690194  0.64295847  0.06731628  1
  H  H15  1  0.07309806  0.14295847  0.93268372  1
  H  H16  1  0.57622626  0.13851235  0.00414151  1
  H  H17  1  0.92377374  0.63851235  0.99585849  1
  H  H18  1  0.42377374  0.86148765  0.99585849  1
  H  H19  1  0.07622626  0.36148765  0.00414151  1
  H  H20  1  0.94476448  0.45700018  0.57442493  1
  H  H21  1  0.55523552  0.95700018  0.42557507  1
  H  H22  1  0.05523552  0.54299982  0.42557507  1
  H  H23  1  0.44476448  0.04299982  0.57442493  1
  H  H24  1  0.06983470  0.55624751  0.64637317  1
  H  H25  1  0.43016530  0.05624751  0.35362683  1
  H  H26  1  0.93016530  0.44375249  0.35362683  1
  H  H27  1  0.56983470  0.94375249  0.64637317  1
  H  H28  1  0.93327992  0.12958148  0.55795874  1
  H  H29  1  0.56672008  0.62958148  0.44204126  1
  H  H30  1  0.06672008  0.87041852  0.44204126  1
  H  H31  1  0.43327992  0.37041852  0.55795874  1
  H  H32  1  0.04014167  0.99006929  0.64834748  1
  H  H33  1  0.45985833  0.49006929  0.35165252  1
  H  H34  1  0.95985833  0.00993071  0.35165252  1
  H  H35  1  0.54014167  0.50993071  0.64834748  1
  C  C36  1  0.43328945  0.21114398  0.88571481  1
  C  C37  1  0.06671055  0.71114398  0.11428519  1
  C  C38  1  0.56671055  0.78885602  0.11428519  1
  C  C39  1  0.93328945  0.28885602  0.88571481  1
  C  C40  1  0.06000239  0.27505914  0.67381233  1
  C  C41  1  0.43999761  0.77505914  0.32618767  1
  C  C42  1  0.93999761  0.72494086  0.32618767  1
  C  C43  1  0.56000239  0.22494086  0.67381233  1
  I  I44  1  0.22788913  0.71878987  0.60876872  1
  I  I45  1  0.27211087  0.21878987  0.39123128  1
  I  I46  1  0.77211087  0.28121013  0.39123128  1
  I  I47  1  0.72788913  0.78121013  0.60876872  1
  I  I48  1  0.18745624  0.76191632  0.90740740  1
  I  I49  1  0.31254376  0.26191632  0.09259260  1
  I  I50  1  0.81254376  0.23808368  0.09259260  1
  I  I51  1  0.68745624  0.73808368  0.90740740  1
  N  N52  1  0.37174808  0.37166748  0.82244916  1
  N  N53  1  0.12825192  0.87166748  0.17755084  1
  N  N54  1  0.62825192  0.62833252  0.17755084  1
  N  N55  1  0.87174808  0.12833252  0.82244916  1
  N  N56  1  0.53505531  0.24388974  0.94704577  1
  N  N57  1  0.96494469  0.74388974  0.05295423  1
  N  N58  1  0.46494469  0.75611026  0.05295423  1
  N  N59  1  0.03505531  0.25611026  0.94704577  1
  N  N60  1  0.01804555  0.44848862  0.63926071  1
  N  N61  1  0.48195445  0.94848862  0.36073929  1
  N  N62  1  0.98195445  0.55151138  0.36073929  1
  N  N63  1  0.51804555  0.05151138  0.63926071  1
  N  N64  1  0.00278939  0.11780239  0.62934494  1
  N  N65  1  0.49721061  0.61780239  0.37065506  1
  N  N66  1  0.99721061  0.88219761  0.37065506  1
  N  N67  1  0.50278939  0.38219761  0.62934494  1
  O  O68  1  0.38792817  0.06079660  0.88645803  1
  O  O69  1  0.11207183  0.56079660  0.11354197  1
  O  O70  1  0.61207183  0.93920340  0.11354197  1
  O  O71  1  0.88792817  0.43920340  0.88645803  1
  O  O72  1  0.15309146  0.25363144  0.75118579  1
  O  O73  1  0.34690854  0.75363144  0.24881421  1
  O  O74  1  0.84690854  0.74636856  0.24881421  1
  O  O75  1  0.65309146  0.24636856  0.75118579  1
