# generated using pymatgen
data_H2O
_symmetry_space_group_name_H-M   'P 1'
_cell_length_a   4.80477250
_cell_length_b   4.80477250
_cell_length_c   4.80477250
_cell_angle_alpha   121.21758976
_cell_angle_beta   121.21758976
_cell_angle_gamma   87.90370073
_symmetry_Int_Tables_number   1
_chemical_formula_structural   H2O
_chemical_formula_sum   'H8 O4'
_cell_volume   76.93443377
_cell_formula_units_Z   4
loop_
 _symmetry_equiv_pos_site_id
 _symmetry_equiv_pos_as_xyz
  1  'x, y, z'
loop_
 _atom_site_type_symbol
 _atom_site_label
 _atom_site_symmetry_multiplicity
 _atom_site_fract_x
 _atom_site_fract_y
 _atom_site_fract_z
 _atom_site_occupancy
  H  H0  1  0.80611663  0.72406337  0.41794674  1
  H  H1  1  0.72406337  0.80611663  0.91794674  1
  H  H2  1  0.38816989  0.80611663  0.58205326  1
  H  H3  1  0.80611663  0.38816989  0.08205326  1
  H  H4  1  0.19388337  0.27593663  0.58205326  1
  H  H5  1  0.27593663  0.19388337  0.08205326  1
  H  H6  1  0.61183011  0.19388337  0.41794674  1
  H  H7  1  0.19388337  0.61183011  0.91794674  1
  O  O8  1  0.89149411  0.64149411  0.25000000  1
  O  O9  1  0.64149411  0.89149411  0.75000000  1
  O  O10  1  0.10850589  0.35850589  0.75000000  1
  O  O11  1  0.35850589  0.10850589  0.25000000  1
