# generated using pymatgen
data_ZnH10C4(N2O3)2
_symmetry_space_group_name_H-M   'P 1'
_cell_length_a   12.14721773
_cell_length_b   12.14721773
_cell_length_c   15.49811804
_cell_angle_alpha   67.57240072
_cell_angle_beta   112.42759928
_cell_angle_gamma   90.42307600
_symmetry_Int_Tables_number   1
_chemical_formula_structural   ZnH10C4(N2O3)2
_chemical_formula_sum   'Zn8 H80 C32 N32 O48'
_cell_volume   1928.24982197
_cell_formula_units_Z   8
loop_
 _symmetry_equiv_pos_site_id
 _symmetry_equiv_pos_as_xyz
  1  'x, y, z'
loop_
 _atom_site_type_symbol
 _atom_site_label
 _atom_site_symmetry_multiplicity
 _atom_site_fract_x
 _atom_site_fract_y
 _atom_site_fract_z
 _atom_site_occupancy
  Zn  Zn0  1  0.25058819  0.75828389  0.00326873  1
  Zn  Zn1  1  0.75828389  0.25058819  0.49673127  1
  Zn  Zn2  1  0.74941181  0.24171611  0.99673127  1
  Zn  Zn3  1  0.24171611  0.74941181  0.50326873  1
  Zn  Zn4  1  0.25165276  0.25659068  0.00260531  1
  Zn  Zn5  1  0.25659068  0.25165276  0.49739469  1
  Zn  Zn6  1  0.74834724  0.74340932  0.99739469  1
  Zn  Zn7  1  0.74340932  0.74834724  0.50260531  1
  H  H8  1  0.54653315  0.64788720  0.32983816  1
  H  H9  1  0.64788720  0.54653315  0.17016184  1
  H  H10  1  0.45346685  0.35211280  0.67016184  1
  H  H11  1  0.35211280  0.45346685  0.82983816  1
  H  H12  1  0.49867330  0.51618815  0.39222305  1
  H  H13  1  0.51618815  0.49867330  0.10777695  1
  H  H14  1  0.50132670  0.48381185  0.60777695  1
  H  H15  1  0.48381185  0.50132670  0.89222305  1
  H  H16  1  0.24391891  0.53536042  0.17732937  1
  H  H17  1  0.53536042  0.24391891  0.32267063  1
  H  H18  1  0.75608109  0.46463958  0.82267063  1
  H  H19  1  0.46463958  0.75608109  0.67732937  1
  H  H20  1  0.33511809  0.45248846  0.30883993  1
  H  H21  1  0.45248846  0.33511809  0.19116007  1
  H  H22  1  0.66488191  0.54751154  0.69116007  1
  H  H23  1  0.54751154  0.66488191  0.80883993  1
  H  H24  1  0.97070454  0.98577358  0.67270149  1
  H  H25  1  0.98577358  0.97070454  0.82729851  1
  H  H26  1  0.02929546  0.01422642  0.32729851  1
  H  H27  1  0.01422642  0.02929546  0.17270149  1
  H  H28  1  0.01080417  0.90947325  0.61037419  1
  H  H29  1  0.90947325  0.01080417  0.88962581  1
  H  H30  1  0.98919583  0.09052675  0.38962581  1
  H  H31  1  0.09052675  0.98919583  0.11037419  1
  H  H32  1  0.17045246  0.75883264  0.69404796  1
  H  H33  1  0.75883264  0.17045246  0.80595204  1
  H  H34  1  0.82954754  0.24116736  0.30595204  1
  H  H35  1  0.24116736  0.82954754  0.19404796  1
  H  H36  1  0.25014635  0.70389723  0.82735555  1
  H  H37  1  0.70389723  0.25014635  0.67264445  1
  H  H38  1  0.74985365  0.29610277  0.17264445  1
  H  H39  1  0.29610277  0.74985365  0.32735555  1
  H  H40  1  0.28092868  0.02459994  0.95727642  1
  H  H41  1  0.02459994  0.28092868  0.54272358  1
  H  H42  1  0.71907132  0.97540006  0.04272358  1
  H  H43  1  0.97540006  0.71907132  0.45727642  1
  H  H44  1  0.50368380  0.69464659  0.01446565  1
  H  H45  1  0.69464659  0.50368380  0.48553435  1
  H  H46  1  0.49631620  0.30535341  0.98553435  1
  H  H47  1  0.30535341  0.49631620  0.51446565  1
  H  H48  1  0.41914373  0.04572115  0.39826966  1
  H  H49  1  0.04572115  0.41914373  0.10173034  1
  H  H50  1  0.58085627  0.95427885  0.60173034  1
  H  H51  1  0.95427885  0.58085627  0.89826966  1
  H  H52  1  0.29759019  0.16539720  0.33398296  1
  H  H53  1  0.16539720  0.29759019  0.16601704  1
  H  H54  1  0.70240981  0.83460280  0.66601704  1
  H  H55  1  0.83460280  0.70240981  0.83398296  1
  H  H56  1  0.50441924  0.98660687  0.31387690  1
  H  H57  1  0.98660687  0.50441924  0.18612310  1
  H  H58  1  0.49558076  0.01339313  0.68612310  1
  H  H59  1  0.01339313  0.49558076  0.81387690  1
  H  H60  1  0.44366863  0.05194618  0.17889441  1
  H  H61  1  0.05194618  0.44366863  0.32110559  1
  H  H62  1  0.55633137  0.94805382  0.82110559  1
  H  H63  1  0.94805382  0.55633137  0.67889441  1
  H  H64  1  0.06206802  0.44745456  0.60846705  1
  H  H65  1  0.44745456  0.06206802  0.89153295  1
  H  H66  1  0.93793198  0.55254544  0.39153295  1
  H  H67  1  0.55254544  0.93793198  0.10846705  1
  H  H68  1  0.19355843  0.49674924  0.67039950  1
  H  H69  1  0.49674924  0.19355843  0.82960050  1
  H  H70  1  0.80644157  0.50325076  0.32960050  1
  H  H71  1  0.50325076  0.80644157  0.17039950  1
  H  H72  1  0.06480796  0.21359588  0.82845753  1
  H  H73  1  0.21359588  0.06480796  0.67154247  1
  H  H74  1  0.93519204  0.78640412  0.17154247  1
  H  H75  1  0.78640412  0.93519204  0.32845753  1
  H  H76  1  0.99217538  0.29147036  0.69377833  1
  H  H77  1  0.29147036  0.99217538  0.80622167  1
  H  H78  1  0.00782462  0.70852964  0.30622167  1
  H  H79  1  0.70852964  0.00782462  0.19377833  1
  H  H80  1  0.99643557  0.80665867  0.99744014  1
  H  H81  1  0.80665867  0.99643557  0.50255986  1
  H  H82  1  0.00356443  0.19334133  0.00255986  1
  H  H83  1  0.19334133  0.00356443  0.49744014  1
  H  H84  1  0.17639208  0.51695253  0.96580734  1
  H  H85  1  0.51695253  0.17639208  0.53419266  1
  H  H86  1  0.82360792  0.48304747  0.03419266  1
  H  H87  1  0.48304747  0.82360792  0.46580734  1
  C  C88  1  0.35344282  0.11471844  0.24199619  1
  C  C89  1  0.11471844  0.35344282  0.25800381  1
  C  C90  1  0.64655718  0.88528156  0.75800381  1
  C  C91  1  0.88528156  0.64655718  0.74199619  1
  C  C92  1  0.14416824  0.35228213  0.76434715  1
  C  C93  1  0.35228213  0.14416824  0.73565285  1
  C  C94  1  0.85583176  0.64771787  0.23565285  1
  C  C95  1  0.64771787  0.85583176  0.26434715  1
  C  C96  1  0.01351014  0.70746248  0.02653368  1
  C  C97  1  0.70746248  0.01351014  0.47346632  1
  C  C98  1  0.98648986  0.29253752  0.97346632  1
  C  C99  1  0.29253752  0.98648986  0.52653368  1
  C  C100  1  0.27584722  0.50745919  0.99660190  1
  C  C101  1  0.50745919  0.27584722  0.50339810  1
  C  C102  1  0.72415278  0.49254081  0.00339810  1
  C  C103  1  0.49254081  0.72415278  0.49660190  1
  C  C104  1  0.39059901  0.60913219  0.23942568  1
  C  C105  1  0.60913219  0.39059901  0.26057432  1
  C  C106  1  0.60940099  0.39086781  0.76057432  1
  C  C107  1  0.39086781  0.60940099  0.73942568  1
  C  C108  1  0.11400086  0.84523082  0.76502918  1
  C  C109  1  0.84523082  0.11400086  0.73497082  1
  C  C110  1  0.88599914  0.15476918  0.23497082  1
  C  C111  1  0.15476918  0.88599914  0.26502918  1
  C  C112  1  0.21538359  0.01077629  0.99261145  1
  C  C113  1  0.01077629  0.21538359  0.50738855  1
  C  C114  1  0.78461641  0.98922371  0.00738855  1
  C  C115  1  0.98922371  0.78461641  0.49261145  1
  C  C116  1  0.49000221  0.79395710  0.97761756  1
  C  C117  1  0.79395710  0.49000221  0.52238244  1
  C  C118  1  0.50999779  0.20604290  0.02238244  1
  C  C119  1  0.20604290  0.50999779  0.47761756  1
  N  N120  1  0.48164592  0.59360385  0.32889688  1
  N  N121  1  0.59360385  0.48164592  0.17110312  1
  N  N122  1  0.51835408  0.40639615  0.67110312  1
  N  N123  1  0.40639615  0.51835408  0.82889688  1
  N  N124  1  0.31782514  0.52443459  0.24163960  1
  N  N125  1  0.52443459  0.31782514  0.25836040  1
  N  N126  1  0.68217486  0.47556541  0.75836040  1
  N  N127  1  0.47556541  0.68217486  0.74163960  1
  N  N128  1  0.02841101  0.92252607  0.67522161  1
  N  N129  1  0.92252607  0.02841101  0.82477839  1
  N  N130  1  0.97158899  0.07747393  0.32477839  1
  N  N131  1  0.07747393  0.97158899  0.17522161  1
  N  N132  1  0.18727082  0.76582372  0.76128131  1
  N  N133  1  0.76582372  0.18727082  0.73871869  1
  N  N134  1  0.81272918  0.23417628  0.23871869  1
  N  N135  1  0.23417628  0.81272918  0.26128131  1
  N  N136  1  0.35488713  0.10598529  0.33165080  1
  N  N137  1  0.10598529  0.35488713  0.16834920  1
  N  N138  1  0.64511287  0.89401471  0.66834920  1
  N  N139  1  0.89401471  0.64511287  0.83165080  1
  N  N140  1  0.43504870  0.03722859  0.24527018  1
  N  N141  1  0.03722859  0.43504870  0.25472982  1
  N  N142  1  0.56495130  0.96277141  0.75472982  1
  N  N143  1  0.96277141  0.56495130  0.74527018  1
  N  N144  1  0.13480278  0.43611274  0.67339668  1
  N  N145  1  0.43611274  0.13480278  0.82660332  1
  N  N146  1  0.86519722  0.56388726  0.32660332  1
  N  N147  1  0.56388726  0.86519722  0.17339668  1
  N  N148  1  0.05966559  0.27977346  0.76216103  1
  N  N149  1  0.27977346  0.05966559  0.73783897  1
  N  N150  1  0.94033441  0.72022654  0.23783897  1
  N  N151  1  0.72022654  0.94033441  0.26216103  1
  O  O152  1  0.37455145  0.70188031  0.15828151  1
  O  O153  1  0.70188031  0.37455145  0.34171849  1
  O  O154  1  0.62544855  0.29811969  0.84171849  1
  O  O155  1  0.29811969  0.62544855  0.65828151  1
  O  O156  1  0.12625783  0.85177417  0.84840014  1
  O  O157  1  0.85177417  0.12625783  0.65159986  1
  O  O158  1  0.87374217  0.14822583  0.15159986  1
  O  O159  1  0.14822583  0.87374217  0.34840014  1
  O  O160  1  0.18914119  0.90584983  0.02615116  1
  O  O161  1  0.90584983  0.18914119  0.47384884  1
  O  O162  1  0.81085881  0.09415017  0.97384884  1
  O  O163  1  0.09415017  0.81085881  0.52615116  1
  O  O164  1  0.38962619  0.85149623  0.95699253  1
  O  O165  1  0.85149623  0.38962619  0.54300747  1
  O  O166  1  0.61037381  0.14850377  0.04300747  1
  O  O167  1  0.14850377  0.61037381  0.45699253  1
  O  O168  1  0.11519221  0.65740473  0.04246849  1
  O  O169  1  0.65740473  0.11519221  0.45753151  1
  O  O170  1  0.88480779  0.34259527  0.95753151  1
  O  O171  1  0.34259527  0.88480779  0.54246849  1
  O  O172  1  0.32477548  0.59944980  0.00055325  1
  O  O173  1  0.59944980  0.32477548  0.49944675  1
  O  O174  1  0.67522452  0.40055020  0.99944675  1
  O  O175  1  0.40055020  0.67522452  0.50055325  1
  O  O176  1  0.22966502  0.34413647  0.84724609  1
  O  O177  1  0.34413647  0.22966502  0.65275391  1
  O  O178  1  0.77033498  0.65586353  0.15275391  1
  O  O179  1  0.65586353  0.77033498  0.34724609  1
  O  O180  1  0.27555475  0.19418329  0.15808479  1
  O  O181  1  0.19418329  0.27555475  0.34191521  1
  O  O182  1  0.72444525  0.80581671  0.84191521  1
  O  O183  1  0.80581671  0.72444525  0.65808479  1
  O  O184  1  0.93003522  0.65007012  0.04253525  1
  O  O185  1  0.65007012  0.93003522  0.45746475  1
  O  O186  1  0.06996478  0.34992988  0.95746475  1
  O  O187  1  0.34992988  0.06996478  0.54253525  1
  O  O188  1  0.33540261  0.40446842  0.02685491  1
  O  O189  1  0.40446842  0.33540261  0.47314509  1
  O  O190  1  0.66459739  0.59553158  0.97314509  1
  O  O191  1  0.59553158  0.66459739  0.52685491  1
  O  O192  1  0.17027412  0.10093510  0.99792524  1
  O  O193  1  0.10093510  0.17027412  0.50207476  1
  O  O194  1  0.82972588  0.89906490  0.00207476  1
  O  O195  1  0.89906490  0.82972588  0.49792524  1
  O  O196  1  0.57503022  0.84381356  0.95765763  1
  O  O197  1  0.84381356  0.57503022  0.54234237  1
  O  O198  1  0.42496978  0.15618644  0.04234237  1
  O  O199  1  0.15618644  0.42496978  0.45765763  1
