# generated using pymatgen
data_Al3P3H9C3NO14
_symmetry_space_group_name_H-M   'P 1'
_cell_length_a   9.12325174
_cell_length_b   9.12325174
_cell_length_c   8.78119091
_cell_angle_alpha   85.79855425
_cell_angle_beta   94.20144575
_cell_angle_gamma   92.31575877
_symmetry_Int_Tables_number   1
_chemical_formula_structural   Al3P3H9C3NO14
_chemical_formula_sum   'Al6 P6 H18 C6 N2 O28'
_cell_volume   726.51689924
_cell_formula_units_Z   2
loop_
 _symmetry_equiv_pos_site_id
 _symmetry_equiv_pos_as_xyz
  1  'x, y, z'
loop_
 _atom_site_type_symbol
 _atom_site_label
 _atom_site_symmetry_multiplicity
 _atom_site_fract_x
 _atom_site_fract_y
 _atom_site_fract_z
 _atom_site_occupancy
  Al  Al0  1  0.39825752  0.56223832  0.70754739  1
  Al  Al1  1  0.43776168  0.60174248  0.20754739  1
  Al  Al2  1  0.91825563  0.81582951  0.91858913  1
  Al  Al3  1  0.18417049  0.08174437  0.41858913  1
  Al  Al4  1  0.89024026  0.32601096  0.90834261  1
  Al  Al5  1  0.67398904  0.10975974  0.40834261  1
  P  P6  1  0.15968250  0.56178348  0.95817905  1
  P  P7  1  0.43821652  0.84031750  0.45817905  1
  P  P8  1  0.66977384  0.57850041  0.95742131  1
  P  P9  1  0.42149959  0.33022616  0.45742131  1
  P  P10  1  0.94621146  0.08055966  0.67592299  1
  P  P11  1  0.91944034  0.05378854  0.17592299  1
  H  H12  1  0.30832660  0.92335932  0.84484466  1
  H  H13  1  0.07664068  0.69167340  0.34484466  1
  H  H14  1  0.49627577  0.87782633  0.89498721  1
  H  H15  1  0.12217367  0.50372423  0.39498721  1
  H  H16  1  0.04782389  0.40127122  0.60928955  1
  H  H17  1  0.59872878  0.95217611  0.10928955  1
  H  H18  1  0.21667384  0.14443658  0.93444137  1
  H  H19  1  0.36688040  0.27193529  0.90760871  1
  H  H20  1  0.77953283  0.68666843  0.59644826  1
  H  H21  1  0.85556342  0.78332616  0.43444137  1
  H  H22  1  0.72806471  0.63311960  0.40760871  1
  H  H23  1  0.31333157  0.22046717  0.09644826  1
  H  H24  1  0.45474794  0.03209786  0.76476198  1
  H  H25  1  0.96790214  0.54525206  0.26476198  1
  H  H26  1  0.62243000  0.32815568  0.80686479  1
  H  H27  1  0.67184432  0.37757000  0.30686479  1
  H  H28  1  0.69442290  0.20018401  0.72746608  1
  H  H29  1  0.79981599  0.30557710  0.22746608  1
  C  C30  1  0.42078694  0.96787056  0.86792450  1
  C  C31  1  0.03212944  0.57921306  0.36792450  1
  C  C32  1  0.32438825  0.18141131  0.98348513  1
  C  C33  1  0.81858869  0.67561175  0.48348513  1
  C  C34  1  0.95579042  0.47481762  0.61234410  1
  C  C35  1  0.52518238  0.04420958  0.11234410  1
  N  N36  1  0.42519735  0.06070918  0.99631949  1
  N  N37  1  0.93929082  0.57480265  0.49631949  1
  O  O38  1  0.06457205  0.69782749  0.95378478  1
  O  O39  1  0.30217251  0.93542795  0.45378478  1
  O  O40  1  0.06851301  0.41941663  0.97484174  1
  O  O41  1  0.24121892  0.56970290  0.80829505  1
  O  O42  1  0.58058337  0.93148699  0.47484174  1
  O  O43  1  0.43029710  0.75878108  0.30829505  1
  O  O44  1  0.42757748  0.72423274  0.59499083  1
  O  O45  1  0.27576726  0.57242252  0.09499083  1
  O  O46  1  0.37837970  0.40996783  0.59612176  1
  O  O47  1  0.07497436  0.09476799  0.57076926  1
  O  O48  1  0.74774693  0.71878183  0.88987720  1
  O  O49  1  0.55191920  0.52119264  0.83585543  1
  O  O50  1  0.94665020  0.92144901  0.74987040  1
  O  O51  1  0.59003217  0.62162030  0.09612176  1
  O  O52  1  0.90523201  0.92502564  0.07076926  1
  O  O53  1  0.28121817  0.25225407  0.38987720  1
  O  O54  1  0.47880736  0.44808080  0.33585543  1
  O  O55  1  0.07855099  0.05334980  0.24987040  1
  O  O56  1  0.54361113  0.22402883  0.50626957  1
  O  O57  1  0.77597117  0.45638887  0.00626957  1
  O  O58  1  0.68988904  0.24629672  0.82614667  1
  O  O59  1  0.75370328  0.31011096  0.32614667  1
  O  O60  1  0.79711904  0.10964695  0.58788467  1
  O  O61  1  0.89035305  0.20288096  0.08788467  1
  O  O62  1  0.97522324  0.19018056  0.79945310  1
  O  O63  1  0.80981944  0.02477676  0.29945310  1
  O  O64  1  0.87254285  0.46272965  0.72278720  1
  O  O65  1  0.53727035  0.12745715  0.22278720  1
