# generated using pymatgen
data_Ta2W2O11
_symmetry_space_group_name_H-M   'P 1'
_cell_length_a   7.34349109
_cell_length_b   7.34349047
_cell_length_c   14.64723291
_cell_angle_alpha   64.89081710
_cell_angle_beta   64.89082009
_cell_angle_gamma   59.72780724
_symmetry_Int_Tables_number   1
_chemical_formula_structural   Ta2W2O11
_chemical_formula_sum   'Ta4 W4 O22'
_cell_volume   594.92429430
_cell_formula_units_Z   2
loop_
 _symmetry_equiv_pos_site_id
 _symmetry_equiv_pos_as_xyz
  1  'x, y, z'
loop_
 _atom_site_type_symbol
 _atom_site_label
 _atom_site_symmetry_multiplicity
 _atom_site_fract_x
 _atom_site_fract_y
 _atom_site_fract_z
 _atom_site_occupancy
  Ta  Ta0  1  0.98617632  0.45259624  0.54043458  1
  Ta  Ta1  1  0.99265949  0.07966968  0.22841826  1
  Ta  Ta2  1  0.54740376  0.01382368  0.45956542  1
  Ta  Ta3  1  0.92033032  0.00734051  0.77158174  1
  W  W4  1  0.00674409  0.99325591  0.00000000  1
  W  W5  1  0.00383100  0.51076635  0.98707087  1
  W  W6  1  0.48923365  0.99616900  0.01292913  1
  W  W7  1  0.01955724  0.98044276  0.50000000  1
  O  O8  1  0.06666301  0.69342234  0.02419256  1
  O  O9  1  0.06523790  0.03098651  0.34963903  1
  O  O10  1  0.69526126  0.06076924  0.02854039  1
  O  O11  1  0.07192239  0.68149629  0.52857789  1
  O  O12  1  0.31671315  0.96443763  0.15110673  1
  O  O13  1  0.29849289  0.28011015  0.49101130  1
  O  O14  1  0.05247806  0.03173725  0.85440409  1
  O  O15  1  0.69824567  0.08523541  0.31875359  1
  O  O16  1  0.69417230  0.70029558  0.02384679  1
  O  O17  1  0.94063077  0.35994118  0.14603064  1
  O  O18  1  0.31850371  0.92807761  0.47142211  1
  O  O19  1  0.71318067  0.05830234  0.51632339  1
  O  O20  1  0.03556237  0.68328685  0.84889327  1
  O  O21  1  0.29970442  0.30582770  0.97615321  1
  O  O22  1  0.71988984  0.70150711  0.50898870  1
  O  O23  1  0.96826275  0.94752194  0.14559591  1
  O  O24  1  0.64005882  0.05936923  0.85396936  1
  O  O25  1  0.94169766  0.28681933  0.48367661  1
  O  O26  1  0.91476459  0.30175433  0.68124641  1
  O  O27  1  0.30657766  0.93333699  0.97580744  1
  O  O28  1  0.96901349  0.93476210  0.65036097  1
  O  O29  1  0.93923076  0.30473874  0.97145961  1
