# generated using pymatgen
data_La16Mg2Ga14O47
_symmetry_space_group_name_H-M   'P 1'
_cell_length_a   5.53601071
_cell_length_b   11.10362259
_cell_length_c   22.09568639
_cell_angle_alpha   60.75348080
_cell_angle_beta   60.88743854
_cell_angle_gamma   60.67469171
_symmetry_Int_Tables_number   1
_chemical_formula_structural   La16Mg2Ga14O47
_chemical_formula_sum   'La16 Mg2 Ga14 O47'
_cell_volume   977.12106160
_cell_formula_units_Z   1
loop_
 _symmetry_equiv_pos_site_id
 _symmetry_equiv_pos_as_xyz
  1  'x, y, z'
loop_
 _atom_site_type_symbol
 _atom_site_label
 _atom_site_symmetry_multiplicity
 _atom_site_fract_x
 _atom_site_fract_y
 _atom_site_fract_z
 _atom_site_occupancy
  La  La0  1  0.25220082  0.11159573  0.06276611  1
  La  La1  1  0.24699591  0.12569683  0.31118700  1
  La  La2  1  0.25747322  0.63381683  0.06279557  1
  La  La3  1  0.24904185  0.12448646  0.56336812  1
  La  La4  1  0.24459299  0.62739815  0.31299173  1
  La  La5  1  0.72277624  0.37502447  0.19502221  1
  La  La6  1  0.25488957  0.12416062  0.81196767  1
  La  La7  1  0.25023333  0.62477489  0.56260612  1
  La  La8  1  0.74290801  0.87774617  0.18839904  1
  La  La9  1  0.75138776  0.37565498  0.43717254  1
  La  La10  1  0.25190603  0.62730103  0.81018027  1
  La  La11  1  0.74955314  0.37435354  0.68844021  1
  La  La12  1  0.74846072  0.87573504  0.43715114  1
  La  La13  1  0.75010003  0.37490241  0.93636422  1
  La  La14  1  0.74911811  0.87522072  0.68782739  1
  La  La15  1  0.75528111  0.87121003  0.93771691  1
  Mg  Mg16  1  0.52578490  0.24075918  0.12783343  1
  Mg  Mg17  1  0.98502996  0.50989234  0.99349922  1
  Ga  Ga18  1  0.99505916  0.00401789  0.99847387  1
  Ga  Ga19  1  0.49614031  0.24865200  0.37693151  1
  Ga  Ga20  1  0.50892548  0.74733777  0.12547161  1
  Ga  Ga21  1  0.50006746  0.25044319  0.62474589  1
  Ga  Ga22  1  0.49929422  0.75042374  0.37526552  1
  Ga  Ga23  1  0.99142625  0.50098583  0.24986133  1
  Ga  Ga24  1  0.50097096  0.24870491  0.87696296  1
  Ga  Ga25  1  0.50130832  0.75023962  0.62444191  1
  Ga  Ga26  1  -0.00063095  0.50002423  0.50045123  1
  Ga  Ga27  1  0.00532790  0.99957555  0.24873081  1
  Ga  Ga28  1  0.50101067  0.74765275  0.87555288  1
  Ga  Ga29  1  0.00010763  0.49988910  0.75005863  1
  Ga  Ga30  1  0.99914150  0.99983309  0.50018603  1
  Ga  Ga31  1  0.99835248  0.00056088  0.75018525  1
  O  O32  1  0.30833186  0.09492975  0.18506058  1
  O  O33  1  0.21369389  0.34776830  0.20167201  1
  O  O34  1  0.73906403  0.16277246  0.04254804  1
  O  O35  1  0.18171750  0.87517155  0.07992976  1
  O  O36  1  0.18781428  0.37228454  0.32675074  1
  O  O37  1  0.67177274  0.41284203  0.06555016  1
  O  O38  1  0.31814274  0.08997874  0.43805950  1
  O  O39  1  0.31892284  0.58889090  0.18919042  1
  O  O40  1  0.82773414  0.11395752  0.17319331  1
  O  O41  1  0.24675979  0.34002020  0.45504981  1
  O  O42  1  0.25749943  0.83685832  0.20496226  1
  O  O43  1  0.74315048  0.15998032  0.29639697  1
  O  O44  1  0.76275157  0.65374609  0.04957620  1
  O  O45  1  0.17939669  0.37487186  0.58004603  1
  O  O46  1  0.18114396  0.87749494  0.32917540  1
  O  O47  1  0.67090609  0.41103349  0.31346316  1
  O  O48  1  0.68556710  0.90792246  0.06223351  1
  O  O49  1  0.31912359  0.09030473  0.68759313  1
  O  O50  1  0.32000740  0.58989313  0.43728595  1
  O  O51  1  0.81987801  0.62954124  0.17091650  1
  O  O52  1  0.82205610  0.12536631  0.41940712  1
  O  O53  1  0.25051706  0.34080506  0.70484427  1
  O  O54  1  0.24895684  0.83992188  0.45505719  1
  O  O55  1  0.74842341  0.16099040  0.54449575  1
  O  O56  1  0.74875353  0.65981471  0.29587089  1
  O  O57  1  0.17970885  0.87523464  0.57993885  1
  O  O58  1  0.18448453  0.37636284  0.83051609  1
  O  O59  1  0.68000217  0.41020551  0.56189065  1
  O  O60  1  0.68017540  0.90909008  0.31335873  1
  O  O61  1  0.31947972  0.59050481  0.68746042  1
  O  O62  1  0.32148044  0.08914174  0.93811087  1
  O  O63  1  0.81997835  0.12636396  0.66930733  1
  O  O64  1  0.81930648  0.62433602  0.42044375  1
  O  O65  1  0.25129251  0.84167052  0.70389616  1
  O  O66  1  0.26600476  0.33134869  0.96077895  1
  O  O67  1  0.74934240  0.66072172  0.54452273  1
  O  O68  1  0.74912865  0.16020039  0.79477500  1
  O  O69  1  0.17998649  0.87144997  0.83061734  1
  O  O70  1  0.68020920  0.91036536  0.56206160  1
  O  O71  1  0.68215941  0.40904602  0.81311531  1
  O  O72  1  0.33013555  0.58529654  0.94301344  1
  O  O73  1  0.82060752  0.62423484  0.66943886  1
  O  O74  1  0.82828323  0.11980709  0.91762405  1
  O  O75  1  0.25180125  0.84302883  0.95438724  1
  O  O76  1  0.74541728  0.65990696  0.79390178  1
  O  O77  1  0.67889133  0.91268596  0.80962975  1
  O  O78  1  0.82280431  0.63876661  0.91402417  1
