# generated using pymatgen
data_NaYMg6
_symmetry_space_group_name_H-M   'P 1'
_cell_length_a   6.69126264
_cell_length_b   6.79020984
_cell_length_c   5.23666212
_cell_angle_alpha   90.00000000
_cell_angle_beta   90.00000000
_cell_angle_gamma   120.49039082
_symmetry_Int_Tables_number   1
_chemical_formula_structural   NaYMg6
_chemical_formula_sum   'Na1 Y1 Mg6'
_cell_volume   205.02608090
_cell_formula_units_Z   1
loop_
 _symmetry_equiv_pos_site_id
 _symmetry_equiv_pos_as_xyz
  1  'x, y, z'
loop_
 _atom_site_type_symbol
 _atom_site_label
 _atom_site_symmetry_multiplicity
 _atom_site_fract_x
 _atom_site_fract_y
 _atom_site_fract_z
 _atom_site_occupancy
  Na  Na0  1  0.16864768  0.83432334  0.25000000  1
  Y  Y1  1  0.17023265  0.33511582  0.25000000  1
  Mg  Mg2  1  0.66191977  0.32541960  0.25000000  1
  Mg  Mg3  1  0.66191977  0.83649917  0.25000000  1
  Mg  Mg4  1  0.34066772  0.17039279  0.75000000  1
  Mg  Mg5  1  0.34066772  0.67027593  0.75000000  1
  Mg  Mg6  1  0.82870076  0.16435088  0.75000000  1
  Mg  Mg7  1  0.82724392  0.66362246  0.75000000  1
