# generated using pymatgen
data_Na3Ca7Ti7Nb3O30
_symmetry_space_group_name_H-M   'P 1'
_cell_length_a   3.93422161
_cell_length_b   7.86796521
_cell_length_c   19.63077812
_cell_angle_alpha   90.02239058
_cell_angle_beta   90.00000000
_cell_angle_gamma   90.00000000
_symmetry_Int_Tables_number   1
_chemical_formula_structural   Na3Ca7Ti7Nb3O30
_chemical_formula_sum   'Na3 Ca7 Ti7 Nb3 O30'
_cell_volume   607.65731681
_cell_formula_units_Z   1
loop_
 _symmetry_equiv_pos_site_id
 _symmetry_equiv_pos_as_xyz
  1  'x, y, z'
loop_
 _atom_site_type_symbol
 _atom_site_label
 _atom_site_symmetry_multiplicity
 _atom_site_fract_x
 _atom_site_fract_y
 _atom_site_fract_z
 _atom_site_occupancy
  Na  Na0  1  0.00000000  0.00301471  0.00739947  1
  Na  Na1  1  0.00000000  0.00901855  0.79608365  1
  Na  Na2  1  0.00000000  0.49141327  0.79695350  1
  Ca  Ca3  1  0.00000000  0.00346688  0.19802707  1
  Ca  Ca4  1  0.00000000  0.49343768  0.01422858  1
  Ca  Ca5  1  0.00000000  0.00210325  0.39794408  1
  Ca  Ca6  1  0.00000000  0.49787396  0.39797863  1
  Ca  Ca7  1  0.00000000  0.01555015  0.59610286  1
  Ca  Ca8  1  0.00000000  0.49671568  0.19769792  1
  Ca  Ca9  1  0.00000000  0.48444377  0.59608712  1
  Ti  Ti10  1  0.50000000  0.24669448  0.10094844  1
  Ti  Ti11  1  0.50000000  0.25029760  0.29938306  1
  Ti  Ti12  1  0.50000000  0.75172215  0.10390202  1
  Ti  Ti13  1  0.50000000  0.24997206  0.49809885  1
  Ti  Ti14  1  0.50000000  0.74968193  0.30046000  1
  Ti  Ti15  1  0.50000000  0.25016439  0.69726340  1
  Ti  Ti16  1  0.50000000  0.74999922  0.49780782  1
  Nb  Nb17  1  0.50000000  0.25055833  0.89804171  1
  Nb  Nb18  1  0.50000000  0.74974622  0.69891101  1
  Nb  Nb19  1  0.50000000  0.74996498  0.90329027  1
  O  O20  1  0.00000000  0.25885367  0.10410231  1
  O  O21  1  0.00000000  0.74148698  0.10372953  1
  O  O22  1  0.00000000  0.24969278  0.30134947  1
  O  O23  1  0.00000000  0.75031881  0.30086342  1
  O  O24  1  0.00000000  0.24999566  0.50061790  1
  O  O25  1  0.00000000  0.75000953  0.49879399  1
  O  O26  1  0.00000000  0.25792671  0.90348833  1
  O  O27  1  0.00000000  0.75016583  0.69365014  1
  O  O28  1  0.00000000  0.74289077  0.90212393  1
  O  O29  1  0.50000000  0.00037322  0.10648611  1
  O  O30  1  0.50000000  0.26293568  0.00296193  1
  O  O31  1  0.50000000  0.00022965  0.30083911  1
  O  O32  1  0.50000000  0.25235482  0.20146482  1
  O  O33  1  0.50000000  0.50012072  0.10222487  1
  O  O34  1  0.50000000  0.73912155  0.00315224  1
  O  O35  1  0.50000000  0.00077611  0.49975429  1
  O  O36  1  0.50000000  0.24990392  0.40012034  1
  O  O37  1  0.50000000  0.49979878  0.30151571  1
  O  O38  1  0.50000000  0.74769208  0.20140284  1
  O  O39  1  0.50000000  0.00230755  0.69332474  1
  O  O40  1  0.50000000  0.24997390  0.59770049  1
  O  O41  1  0.50000000  0.49922159  0.49972638  1
  O  O42  1  0.50000000  0.75011938  0.39964588  1
  O  O43  1  0.50000000  0.00078328  0.90181514  1
  O  O44  1  0.50000000  0.25130951  0.79838683  1
  O  O45  1  0.50000000  0.49766287  0.69293121  1
  O  O46  1  0.50000000  0.74998489  0.59701781  1
  O  O47  1  0.50000000  0.49973006  0.90288331  1
  O  O48  1  0.50000000  0.74859554  0.79915165  1
  O  O49  1  0.00000000  0.24982493  0.69216584  1
