# generated using pymatgen
data_La5(Mo2O7)3
_symmetry_space_group_name_H-M   'P 1'
_cell_length_a   5.91046049
_cell_length_b   11.33710033
_cell_length_c   25.77772647
_cell_angle_alpha   90.00000000
_cell_angle_beta   90.00000000
_cell_angle_gamma   90.00000000
_symmetry_Int_Tables_number   1
_chemical_formula_structural   La5(Mo2O7)3
_chemical_formula_sum   'La20 Mo24 O84'
_cell_volume   1727.30058295
_cell_formula_units_Z   4
loop_
 _symmetry_equiv_pos_site_id
 _symmetry_equiv_pos_as_xyz
  1  'x, y, z'
loop_
 _atom_site_type_symbol
 _atom_site_label
 _atom_site_symmetry_multiplicity
 _atom_site_fract_x
 _atom_site_fract_y
 _atom_site_fract_z
 _atom_site_occupancy
  La  La0  1  0.25307814  0.47514046  0.96935215  1
  La  La1  1  0.25964333  0.06761267  0.81381793  1
  La  La2  1  0.75964333  0.43238733  0.18618207  1
  La  La3  1  0.77844944  0.68646108  0.05097016  1
  La  La4  1  0.27844944  0.81353892  0.94902984  1
  La  La5  1  0.22155056  0.18646108  0.44902984  1
  La  La6  1  0.75207122  0.27865814  0.89976508  1
  La  La7  1  0.25687748  0.43791273  0.81610047  1
  La  La8  1  0.24792878  0.77865814  0.60023492  1
  La  La9  1  0.24312252  0.56208727  0.31610047  1
  La  La10  1  0.24692186  0.52485954  0.46935215  1
  La  La11  1  0.24035667  0.93238733  0.31381793  1
  La  La12  1  0.74312252  0.93791273  0.68389953  1
  La  La13  1  0.25207122  0.22134186  0.10023492  1
  La  La14  1  0.75687748  0.06208727  0.18389953  1
  La  La15  1  0.74692186  0.97514046  0.53064785  1
  La  La16  1  0.72155056  0.31353892  0.55097016  1
  La  La17  1  0.74035667  0.56761267  0.68618207  1
  La  La18  1  0.75307814  0.02485954  0.03064785  1
  La  La19  1  0.74792878  0.72134186  0.39976508  1
  Mo  Mo20  1  0.50205725  0.25074792  0.68883101  1
  Mo  Mo21  1  0.73653662  0.80083842  0.27786986  1
  Mo  Mo22  1  0.74735713  0.97404496  0.89452396  1
  Mo  Mo23  1  0.49794275  0.75074792  0.81116899  1
  Mo  Mo24  1  0.26056607  0.92531252  0.08094493  1
  Mo  Mo25  1  0.26346338  0.30083842  0.22213014  1
  Mo  Mo26  1  0.24266704  0.83764353  0.46070748  1
  Mo  Mo27  1  0.74266704  0.66235647  0.53929252  1
  Mo  Mo28  1  0.23943393  0.07468748  0.58094493  1
  Mo  Mo29  1  0.00600658  0.75206748  0.81579491  1
  Mo  Mo30  1  0.23653662  0.69916158  0.72213014  1
  Mo  Mo31  1  0.99794275  0.74925208  0.18883101  1
  Mo  Mo32  1  0.24735713  0.52595504  0.10547604  1
  Mo  Mo33  1  0.25733296  0.16235647  0.96070748  1
  Mo  Mo34  1  0.73943393  0.42531252  0.41905507  1
  Mo  Mo35  1  0.25264287  0.47404496  0.60547604  1
  Mo  Mo36  1  0.49399342  0.24793252  0.31579491  1
  Mo  Mo37  1  0.76056607  0.57468748  0.91905507  1
  Mo  Mo38  1  0.99399342  0.25206748  0.68420509  1
  Mo  Mo39  1  0.50600658  0.74793252  0.18420509  1
  Mo  Mo40  1  0.75733296  0.33764353  0.03929252  1
  Mo  Mo41  1  0.00205725  0.24925208  0.31116899  1
  Mo  Mo42  1  0.75264287  0.02595504  0.39452396  1
  Mo  Mo43  1  0.76346338  0.19916158  0.77786986  1
  O  O44  1  0.47290063  0.02767792  0.11402732  1
  O  O45  1  0.25565586  0.67321831  0.85604771  1
  O  O46  1  0.51246451  0.33306028  0.45526438  1
  O  O47  1  0.74434414  0.17321831  0.64395229  1
  O  O48  1  0.45060920  0.41623882  0.05967900  1
  O  O49  1  0.16844519  0.60204966  0.04461452  1
  O  O50  1  0.31912432  0.71037464  0.42047797  1
  O  O51  1  0.48820313  0.39967185  0.26420525  1
  O  O52  1  0.23735278  0.85100132  0.77331154  1
  O  O53  1  0.75565586  0.82678169  0.14395229  1
  O  O54  1  0.02168049  0.88675642  0.87367113  1
  O  O55  1  0.80698557  0.45567930  0.98428370  1
  O  O56  1  0.25046236  0.32679337  0.72700327  1
  O  O57  1  0.48967323  0.60097168  0.76180853  1
  O  O58  1  0.28612766  0.43076870  0.16624702  1
  O  O59  1  0.98607256  0.54032363  0.39527751  1
  O  O60  1  0.24866300  0.82395070  0.14279429  1
  O  O61  1  0.94819834  0.41081352  0.09395289  1
  O  O62  1  0.97290063  0.47232208  0.88597268  1
  O  O63  1  0.49167617  0.73411161  0.32042492  1
  O  O64  1  0.48621916  0.88761462  0.86083651  1
  O  O65  1  0.52168049  0.61324358  0.12632887  1
  O  O66  1  0.94473959  0.75376612  0.48181659  1
  O  O67  1  0.51378084  0.38761462  0.63916349  1
  O  O68  1  0.98967323  0.89902832  0.23819147  1
  O  O69  1  0.55180166  0.58918648  0.59395289  1
  O  O70  1  0.75133700  0.32395070  0.35720571  1
  O  O71  1  0.00832383  0.26588839  0.82042492  1
  O  O72  1  0.74953764  0.82679337  0.77299673  1
  O  O73  1  0.01032677  0.39902832  0.26180853  1
  O  O74  1  0.18087568  0.28962536  0.92047797  1
  O  O75  1  0.74866300  0.67604930  0.85720571  1
  O  O76  1  0.66844519  0.89795034  0.95538548  1
  O  O77  1  0.99167617  0.76588839  0.67957508  1
  O  O78  1  0.48790439  0.76390438  0.67813828  1
  O  O79  1  0.98790439  0.73609562  0.32186172  1
  O  O80  1  0.69301443  0.54432070  0.48428370  1
  O  O81  1  0.76264722  0.35100132  0.72668846  1
  O  O82  1  0.05526041  0.25376612  0.01818341  1
  O  O83  1  0.52709937  0.52767792  0.38597268  1
  O  O84  1  0.48607256  0.95967637  0.60472249  1
  O  O85  1  0.30698557  0.04432070  0.01571630  1
  O  O86  1  0.81912432  0.78962536  0.57952203  1
  O  O87  1  0.26264722  0.14899868  0.27331154  1
  O  O88  1  0.51392744  0.45967637  0.89527751  1
  O  O89  1  0.71387234  0.93076870  0.33375298  1
  O  O90  1  0.44473959  0.74623388  0.51818341  1
  O  O91  1  0.44819834  0.08918648  0.90604711  1
  O  O92  1  0.98188643  0.35508522  0.46438103  1
  O  O93  1  0.98753549  0.66693972  0.95526438  1
  O  O94  1  0.51032677  0.10097168  0.73819147  1
  O  O95  1  0.95060920  0.08376118  0.94032100  1
  O  O96  1  0.48188643  0.14491478  0.53561897  1
  O  O97  1  0.24953764  0.67320663  0.22700327  1
  O  O98  1  0.54939080  0.91623882  0.44032100  1
  O  O99  1  0.05180166  0.91081352  0.40604711  1
  O  O100  1  0.01392744  0.04032363  0.10472249  1
  O  O101  1  0.97831951  0.38675642  0.62632887  1
  O  O102  1  0.02709937  0.97232208  0.61402732  1
  O  O103  1  0.75046236  0.17320663  0.27299673  1
  O  O104  1  0.83155481  0.10204966  0.45538548  1
  O  O105  1  0.98820313  0.10032815  0.73579475  1
  O  O106  1  0.78612766  0.06923130  0.83375298  1
  O  O107  1  0.01811357  0.85508522  0.03561897  1
  O  O108  1  0.47831951  0.11324358  0.37367113  1
  O  O109  1  0.01209561  0.23609562  0.17813828  1
  O  O110  1  0.73735278  0.64899868  0.22668846  1
  O  O111  1  0.04939080  0.58376118  0.55967900  1
  O  O112  1  0.24434414  0.32678169  0.35604771  1
  O  O113  1  0.55526041  0.24623388  0.98181659  1
  O  O114  1  0.01246451  0.16693972  0.54473562  1
  O  O115  1  0.51179687  0.89967185  0.23579475  1
  O  O116  1  0.01179687  0.60032815  0.76420525  1
  O  O117  1  0.01378084  0.11238538  0.36083651  1
  O  O118  1  0.98621916  0.61238538  0.13916349  1
  O  O119  1  0.51209561  0.26390438  0.82186172  1
  O  O120  1  0.33155481  0.39795034  0.54461452  1
  O  O121  1  0.50832383  0.23411161  0.17957508  1
  O  O122  1  0.21387234  0.56923130  0.66624702  1
  O  O123  1  0.25133700  0.17604930  0.64279429  1
  O  O124  1  0.51811357  0.64491478  0.96438103  1
  O  O125  1  0.68087568  0.21037464  0.07952203  1
  O  O126  1  0.19301443  0.95567930  0.51571630  1
  O  O127  1  0.48753549  0.83306028  0.04473562  1
