# generated using pymatgen
data_CuH18C4N10(ClO)2
_symmetry_space_group_name_H-M   'P 1'
_cell_length_a   6.91004679
_cell_length_b   9.83286867
_cell_length_c   12.71954148
_cell_angle_alpha   67.66420475
_cell_angle_beta   73.08725641
_cell_angle_gamma   78.30150944
_symmetry_Int_Tables_number   1
_chemical_formula_structural   CuH18C4N10(ClO)2
_chemical_formula_sum   'Cu2 H36 C8 N20 Cl4 O4'
_cell_volume   760.65787029
_cell_formula_units_Z   2
loop_
 _symmetry_equiv_pos_site_id
 _symmetry_equiv_pos_as_xyz
  1  'x, y, z'
loop_
 _atom_site_type_symbol
 _atom_site_label
 _atom_site_symmetry_multiplicity
 _atom_site_fract_x
 _atom_site_fract_y
 _atom_site_fract_z
 _atom_site_occupancy
  Cu  Cu0  1  0.76460274  0.05274549  0.93997204  1
  Cu  Cu1  1  0.23539726  0.94725451  0.06002796  1
  H  H2  1  0.17879376  0.54336935  0.88024312  1
  H  H3  1  0.82120624  0.45663065  0.11975688  1
  H  H4  1  0.40872881  0.53807655  0.81145529  1
  H  H5  1  0.59127119  0.46192345  0.18854471  1
  H  H6  1  0.10158424  0.64239607  0.65028516  1
  H  H7  1  0.89841576  0.35760393  0.34971484  1
  H  H8  1  0.67508405  0.31942733  0.42782863  1
  H  H9  1  0.32491595  0.68057267  0.57217137  1
  H  H10  1  0.72656338  0.25036595  0.03743912  1
  H  H11  1  0.27343662  0.74963405  0.96256088  1
  H  H12  1  0.66763717  0.87963641  0.31908026  1
  H  H13  1  0.33236283  0.12036359  0.68091974  1
  H  H14  1  0.66807053  0.25537880  0.21541918  1
  H  H15  1  0.33192947  0.74462120  0.78458082  1
  H  H16  1  0.62246462  0.09771615  0.33699234  1
  H  H17  1  0.37753538  0.90228385  0.66300766  1
  H  H18  1  0.68857834  0.65562517  0.33467631  1
  H  H19  1  0.31142166  0.34437483  0.66532369  1
  H  H20  1  0.71687423  0.59768474  0.21856998  1
  H  H21  1  0.28312577  0.40231526  0.78143002  1
  H  H22  1  0.72681254  0.76891726  0.03927105  1
  H  H23  1  0.27318746  0.23108274  0.96072895  1
  H  H24  1  0.80083669  0.33648308  0.84219132  1
  H  H25  1  0.19916331  0.66351692  0.15780868  1
  H  H26  1  0.81805695  0.50809573  0.66447620  1
  H  H27  1  0.18194305  0.49190427  0.33552380  1
  H  H28  1  0.81300288  0.45315549  0.54829213  1
  H  H29  1  0.18699712  0.54684451  0.45170787  1
  H  H30  1  0.85019369  0.22766780  0.56253580  1
  H  H31  1  0.14980631  0.77233220  0.43746420  1
  H  H32  1  0.78215700  0.01563272  0.55709202  1
  H  H33  1  0.21784300  0.98436728  0.44290798  1
  H  H34  1  0.81196738  0.85287118  0.67052788  1
  H  H35  1  0.18803262  0.14712882  0.32947212  1
  H  H36  1  0.78233431  0.85745196  0.84308024  1
  H  H37  1  0.21766569  0.14254804  0.15691976  1
  C  C38  1  0.70005389  0.07164333  0.17473435  1
  C  C39  1  0.29994611  0.92835667  0.82526565  1
  C  C40  1  0.70284662  0.82058630  0.17524571  1
  C  C41  1  0.29715338  0.17941370  0.82475429  1
  C  C42  1  0.81954836  0.28585335  0.70588934  1
  C  C43  1  0.18045164  0.71414665  0.29411066  1
  C  C44  1  0.81698416  0.03554004  0.70618908  1
  C  C45  1  0.18301584  0.96445996  0.29381092  1
  N  N46  1  0.72620475  0.13857018  0.06136954  1
  N  N47  1  0.27379525  0.86142982  0.93863046  1
  N  N48  1  0.68303649  0.14355798  0.24960376  1
  N  N49  1  0.31696351  0.85644202  0.75039624  1
  N  N50  1  0.69413466  0.92133915  0.22779761  1
  N  N51  1  0.30586534  0.07866085  0.77220239  1
  N  N52  1  0.67675690  0.68141911  0.25153570  1
  N  N53  1  0.32324310  0.31858089  0.74846430  1
  N  N54  1  0.72852982  0.85767508  0.06203869  1
  N  N55  1  0.27147018  0.14232492  0.93796131  1
  N  N56  1  0.80772501  0.24674805  0.81835086  1
  N  N57  1  0.19227499  0.75325195  0.18164914  1
  N  N58  1  0.81943313  0.42718718  0.63272705  1
  N  N59  1  0.18056687  0.57281282  0.36727295  1
  N  N60  1  0.83622310  0.18398003  0.65259660  1
  N  N61  1  0.16377690  0.81601997  0.34740340  1
  N  N62  1  0.83014270  0.96251888  0.63236089  1
  N  N63  1  0.16985730  0.03748112  0.36763911  1
  N  N64  1  0.79382131  0.96805576  0.81936718  1
  N  N65  1  0.20617869  0.03194424  0.18063282  1
  Cl  Cl66  1  0.59553045  0.78860174  0.50262348  1
  Cl  Cl67  1  0.40446955  0.21139826  0.49737652  1
  Cl  Cl68  1  0.10939412  0.39841409  0.18969377  1
  Cl  Cl69  1  0.89060588  0.60158591  0.81030623  1
  O  O70  1  0.32044866  0.51663692  0.88984778  1
  O  O71  1  0.67955134  0.48336308  0.11015222  1
  O  O72  1  0.80124637  0.35535080  0.42545364  1
  O  O73  1  0.19875363  0.64464920  0.57454636  1
