# generated using pymatgen
data_Sb2H30C9(NCl3)3
_symmetry_space_group_name_H-M   'P 1'
_cell_length_a   10.21653623
_cell_length_b   9.25154719
_cell_length_c   15.77197064
_cell_angle_alpha   90.00000000
_cell_angle_beta   89.87047282
_cell_angle_gamma   90.00000000
_symmetry_Int_Tables_number   1
_chemical_formula_structural   Sb2H30C9(NCl3)3
_chemical_formula_sum   'Sb4 H60 C18 N6 Cl18'
_cell_volume   1490.74340861
_cell_formula_units_Z   2
loop_
 _symmetry_equiv_pos_site_id
 _symmetry_equiv_pos_as_xyz
  1  'x, y, z'
loop_
 _atom_site_type_symbol
 _atom_site_label
 _atom_site_symmetry_multiplicity
 _atom_site_fract_x
 _atom_site_fract_y
 _atom_site_fract_z
 _atom_site_occupancy
  Sb  Sb0  1  -0.00018040  0.20794713  0.49984544  1
  Sb  Sb1  1  -0.00018040  0.79205287  0.99984544  1
  Sb  Sb2  1  0.69675719  0.29068305  0.82682283  1
  Sb  Sb3  1  0.69675719  0.70931695  0.32682283  1
  H  H4  1  0.05826730  0.30866253  0.77237904  1
  H  H5  1  0.05826730  0.69133747  0.27237904  1
  H  H6  1  0.63505304  0.11932010  0.45359208  1
  H  H7  1  0.63505304  0.88067990  0.95359208  1
  H  H8  1  0.82250119  0.39550197  0.21713483  1
  H  H9  1  0.82250119  0.60449803  0.71713483  1
  H  H10  1  0.22470376  0.48054961  0.73607009  1
  H  H11  1  0.22470376  0.51945039  0.23607009  1
  H  H12  1  0.29342385  0.45864171  0.83974681  1
  H  H13  1  0.29342385  0.54135829  0.33974681  1
  H  H14  1  0.13204320  0.53426903  0.82864589  1
  H  H15  1  0.13204320  0.46573097  0.32864589  1
  H  H16  1  0.25337002  0.23506169  0.70127196  1
  H  H17  1  0.25337002  0.76493831  0.20127196  1
  H  H18  1  0.18257975  0.09556727  0.76584678  1
  H  H19  1  0.18257975  0.90443273  0.26584678  1
  H  H20  1  0.32418097  0.19302789  0.80256307  1
  H  H21  1  0.32418097  0.80697211  0.30256307  1
  H  H22  1  0.07156589  0.15666461  0.89531624  1
  H  H23  1  0.07156589  0.84333539  0.39531624  1
  H  H24  1  0.04222200  0.34370942  0.92188229  1
  H  H25  1  0.04222200  0.65629058  0.42188229  1
  H  H26  1  0.20331054  0.26686885  0.93369239  1
  H  H27  1  0.20331054  0.73313115  0.43369239  1
  H  H28  1  0.43161996  0.98825335  0.45355579  1
  H  H29  1  0.43161996  0.01174665  0.95355579  1
  H  H30  1  0.36659865  0.12172061  0.52520053  1
  H  H31  1  0.36659865  0.87827939  0.02520053  1
  H  H32  1  0.50115705  0.00930366  0.55705237  1
  H  H33  1  0.50115705  0.99069634  0.05705237  1
  H  H34  1  0.56990348  0.32652390  0.37064021  1
  H  H35  1  0.56990348  0.67347610  0.87064021  1
  H  H36  1  0.40637770  0.30542330  0.41136107  1
  H  H37  1  0.40637770  0.69457670  0.91136107  1
  H  H38  1  0.47651299  0.16718238  0.34485786  1
  H  H39  1  0.47651299  0.83281762  0.84485786  1
  H  H40  1  0.65285256  0.35999491  0.51074077  1
  H  H41  1  0.65285256  0.64000509  0.01074077  1
  H  H42  1  0.62760128  0.22356676  0.59115060  1
  H  H43  1  0.62760128  0.77643324  0.09115060  1
  H  H44  1  0.49427024  0.33609719  0.55783441  1
  H  H45  1  0.49427024  0.66390281  0.05783441  1
  H  H46  1  0.01851556  0.43007930  0.13569673  1
  H  H47  1  0.01851556  0.56992070  0.63569673  1
  H  H48  1  0.02032974  0.23764295  0.11635439  1
  H  H49  1  0.02032974  0.76235705  0.61635439  1
  H  H50  1  0.03843030  0.30405324  0.22227624  1
  H  H51  1  0.03843030  0.69594676  0.72227624  1
  H  H52  1  0.69923971  0.17797348  0.21544175  1
  H  H53  1  0.69923971  0.82202652  0.71544175  1
  H  H54  1  0.85264470  0.15331091  0.26927041  1
  H  H55  1  0.85264470  0.84668909  0.76927041  1
  H  H56  1  0.83100719  0.09107268  0.16126527  1
  H  H57  1  0.83100719  0.90892732  0.66126527  1
  H  H58  1  0.80064922  0.44406849  0.06388510  1
  H  H59  1  0.80064922  0.55593151  0.56388510  1
  H  H60  1  0.66937549  0.34069652  0.11011714  1
  H  H61  1  0.66937549  0.65930348  0.61011714  1
  H  H62  1  0.79416975  0.24973094  0.05102177  1
  H  H63  1  0.79416975  0.75026906  0.55102177  1
  C  C64  1  0.20303689  0.45693187  0.80280477  1
  C  C65  1  0.20303689  0.54306813  0.30280477  1
  C  C66  1  0.23337390  0.19992602  0.76640243  1
  C  C67  1  0.23337390  0.80007398  0.26640243  1
  C  C68  1  0.11318658  0.26587995  0.89641484  1
  C  C69  1  0.11318658  0.73412005  0.39641484  1
  C  C70  1  0.45478510  0.06566793  0.50386888  1
  C  C71  1  0.45478510  0.93433207  0.00386888  1
  C  C72  1  0.49644563  0.24920473  0.39340554  1
  C  C73  1  0.49644563  0.75079527  0.89340554  1
  C  C74  1  0.58382623  0.28157034  0.53759922  1
  C  C75  1  0.58382623  0.71842966  0.03759922  1
  C  C76  1  0.99233376  0.32348386  0.16073626  1
  C  C77  1  0.99233376  0.67651614  0.66073626  1
  C  C78  1  0.80547364  0.17391996  0.20825119  1
  C  C79  1  0.80547364  0.82608004  0.70825119  1
  C  C80  1  0.77319650  0.34126882  0.09325874  1
  C  C81  1  0.77319650  0.65873118  0.59325874  1
  N  N82  1  0.14544803  0.30861037  0.80724740  1
  N  N83  1  0.14544803  0.69138963  0.30724740  1
  N  N84  1  0.54906673  0.17480946  0.47017525  1
  N  N85  1  0.54906673  0.82519054  0.97017525  1
  N  N86  1  0.84776900  0.31642884  0.17319409  1
  N  N87  1  0.84776900  0.68357116  0.67319409  1
  Cl  Cl88  1  0.11624898  0.01575605  0.57301994  1
  Cl  Cl89  1  0.11624898  0.98424395  0.07301994  1
  Cl  Cl90  1  0.12215884  0.16057656  0.36924062  1
  Cl  Cl91  1  0.12215884  0.83942344  0.86924062  1
  Cl  Cl92  1  0.17335517  0.38789043  0.54212465  1
  Cl  Cl93  1  0.17335517  0.61210957  0.04212465  1
  Cl  Cl94  1  0.84792774  0.44840553  0.38350122  1
  Cl  Cl95  1  0.84792774  0.55159447  0.88350122  1
  Cl  Cl96  1  0.88531717  0.27613019  0.68809166  1
  Cl  Cl97  1  0.88531717  0.72386981  0.18809166  1
  Cl  Cl98  1  0.81512830  0.98963925  0.44700360  1
  Cl  Cl99  1  0.81512830  0.01036075  0.94700360  1
  Cl  Cl100  1  0.57084240  0.08770074  0.76348162  1
  Cl  Cl101  1  0.57084240  0.91229926  0.26348162  1
  Cl  Cl102  1  0.52725895  0.32441777  0.93952343  1
  Cl  Cl103  1  0.52725895  0.67558223  0.43952343  1
  Cl  Cl104  1  0.57895657  0.46225355  0.73800249  1
  Cl  Cl105  1  0.57895657  0.53774645  0.23800249  1
