# generated using pymatgen
data_Sr5Fe3F19
_symmetry_space_group_name_H-M   'P 1'
_cell_length_a   8.85572265
_cell_length_b   9.81258312
_cell_length_c   10.72573523
_cell_angle_alpha   83.79976684
_cell_angle_beta   67.19557435
_cell_angle_gamma   73.66895877
_symmetry_Int_Tables_number   1
_chemical_formula_structural   Sr5Fe3F19
_chemical_formula_sum   'Sr10 Fe6 F38'
_cell_volume   824.51921468
_cell_formula_units_Z   2
loop_
 _symmetry_equiv_pos_site_id
 _symmetry_equiv_pos_as_xyz
  1  'x, y, z'
loop_
 _atom_site_type_symbol
 _atom_site_label
 _atom_site_symmetry_multiplicity
 _atom_site_fract_x
 _atom_site_fract_y
 _atom_site_fract_z
 _atom_site_occupancy
  Sr  Sr0  1  0.94995281  0.69929694  0.12972454  1
  Sr  Sr1  1  0.39124630  0.27025656  0.07207231  1
  Sr  Sr2  1  0.33049680  0.46339398  0.46970699  1
  Sr  Sr3  1  0.18985182  0.85500909  0.66921286  1
  Sr  Sr4  1  0.36062641  0.86035227  0.27588429  1
  Sr  Sr5  1  0.48017300  0.16834239  0.69461634  1
  Sr  Sr6  1  0.84574797  0.17381503  0.32033182  1
  Sr  Sr7  1  0.68156773  0.56840913  0.53942425  1
  Sr  Sr8  1  0.64022720  0.76526388  0.86508376  1
  Sr  Sr9  1  0.92188090  0.35854651  0.83786822  1
  Fe  Fe10  1  0.22885426  0.02157193  0.98604576  1
  Fe  Fe11  1  0.13477636  0.21711086  0.50328585  1
  Fe  Fe12  1  0.78291944  0.04119961  0.05775890  1
  Fe  Fe13  1  0.29987603  0.53211775  0.83276556  1
  Fe  Fe14  1  0.65903148  0.51169456  0.16002348  1
  Fe  Fe15  1  0.90137752  0.83531346  0.50447923  1
  F  F16  1  0.93199389  0.27927235  0.46344510  1
  F  F17  1  0.18645962  0.09882468  0.16484195  1
  F  F18  1  0.06707123  0.40465262  0.58094237  1
  F  F19  1  0.25616742  0.30034576  0.32626934  1
  F  F20  1  0.21988278  0.50801340  0.03276202  1
  F  F21  1  0.03328215  0.91327661  0.33677219  1
  F  F22  1  0.29399754  0.99061656  0.78891767  1
  F  F23  1  0.21680137  0.21886082  0.93640530  1
  F  F24  1  0.08955007  0.67557148  0.86446530  1
  F  F25  1  0.34912184  0.19125767  0.53025656  1
  F  F26  1  0.34597199  0.84408911  0.05027577  1
  F  F27  1  0.21807360  0.40491483  0.75592738  1
  F  F28  1  0.41539180  0.59215501  0.25974851  1
  F  F29  1  0.53936261  0.05602945  0.15592805  1
  F  F30  1  0.61926309  0.32837391  0.22947744  1
  F  F31  1  0.18984406  0.01906790  0.46327317  1
  F  F32  1  0.75324274  0.51335784  0.29823777  1
  F  F33  1  0.45972213  0.77122347  0.45806053  1
  F  F34  1  0.58933758  0.34019905  0.51259278  1
  F  F35  1  0.36756101  0.59072297  0.63883851  1
  F  F36  1  0.75315386  0.03570617  0.52349003  1
  F  F37  1  0.41965678  0.66953194  0.82813552  1
  F  F38  1  0.48842169  0.36542101  0.82099790  1
  F  F39  1  0.65711893  0.71571298  0.12889366  1
  F  F40  1  0.48573271  0.03113234  0.90533841  1
  F  F41  1  0.71542221  0.19494181  0.94592142  1
  F  F42  1  0.67682905  0.80117133  0.61414417  1
  F  F43  1  0.92184216  0.16222619  0.06788880  1
  F  F44  1  0.89856866  0.47714749  0.04008798  1
  F  F45  1  0.79309581  0.95325282  0.22497663  1
  F  F46  1  0.03151797  0.15034574  0.69079137  1
  F  F47  1  0.61977789  0.50088595  0.99879098  1
  F  F48  1  0.77671120  0.55146338  0.73192083  1
  F  F49  1  0.90677857  0.68863433  0.38593914  1
  F  F50  1  0.06361261  0.91389327  0.00155732  1
  F  F51  1  0.80695335  0.88736412  0.95592529  1
  F  F52  1  0.89417632  0.86705178  0.68486687  1
  F  F53  1  0.13242567  0.71969791  0.49631182  1
