# generated using pymatgen
data_YMg6Ga
_symmetry_space_group_name_H-M   'P 1'
_cell_length_a   6.69250796
_cell_length_b   6.13428663
_cell_length_c   5.08085596
_cell_angle_alpha   90.00000000
_cell_angle_beta   90.00000000
_cell_angle_gamma   117.27715095
_symmetry_Int_Tables_number   1
_chemical_formula_structural   YMg6Ga
_chemical_formula_sum   'Y1 Mg6 Ga1'
_cell_volume   185.39325249
_cell_formula_units_Z   1
loop_
 _symmetry_equiv_pos_site_id
 _symmetry_equiv_pos_as_xyz
  1  'x, y, z'
loop_
 _atom_site_type_symbol
 _atom_site_label
 _atom_site_symmetry_multiplicity
 _atom_site_fract_x
 _atom_site_fract_y
 _atom_site_fract_z
 _atom_site_occupancy
  Y  Y0  1  0.13542142  0.31771021  0.25000000  1
  Mg  Mg1  1  0.64105876  0.32304475  0.25000000  1
  Mg  Mg2  1  0.64105876  0.81801301  0.25000000  1
  Mg  Mg3  1  0.35012441  0.17453891  0.75000000  1
  Mg  Mg4  1  0.35012441  0.67558650  0.75000000  1
  Mg  Mg5  1  0.81676050  0.15838075  0.75000000  1
  Mg  Mg6  1  0.87785788  0.68892944  0.75000000  1
  Ga  Ga7  1  0.18759387  0.84379644  0.25000000  1
