# generated using pymatgen
data_ZrH14C2(N4F3)2
_symmetry_space_group_name_H-M   'P 1'
_cell_length_a   6.44958477
_cell_length_b   14.75295405
_cell_length_c   6.46430794
_cell_angle_alpha   90.00000000
_cell_angle_beta   90.00000000
_cell_angle_gamma   98.54395236
_symmetry_Int_Tables_number   1
_chemical_formula_structural   ZrH14C2(N4F3)2
_chemical_formula_sum   'Zr2 H28 C4 N16 F12'
_cell_volume   608.25560357
_cell_formula_units_Z   2
loop_
 _symmetry_equiv_pos_site_id
 _symmetry_equiv_pos_as_xyz
  1  'x, y, z'
loop_
 _atom_site_type_symbol
 _atom_site_label
 _atom_site_symmetry_multiplicity
 _atom_site_fract_x
 _atom_site_fract_y
 _atom_site_fract_z
 _atom_site_occupancy
  Zr  Zr0  1  0.00000000  0.50000000  0.50000000  1
  Zr  Zr1  1  0.00000000  0.00000000  0.00000000  1
  H  H2  1  0.00164502  0.72968057  0.49359962  1
  H  H3  1  0.99835498  0.77031943  0.99359962  1
  H  H4  1  0.99835498  0.27031943  0.50640038  1
  H  H5  1  0.00164502  0.22968057  0.00640038  1
  H  H6  1  0.03639130  0.84931518  0.49495753  1
  H  H7  1  0.96360870  0.65068482  0.99495753  1
  H  H8  1  0.96360870  0.15068482  0.50504247  1
  H  H9  1  0.03639130  0.34931518  0.00504247  1
  H  H10  1  0.56026903  0.78542239  0.03738536  1
  H  H11  1  0.43973097  0.71457761  0.53738536  1
  H  H12  1  0.43973097  0.21457761  0.96261464  1
  H  H13  1  0.56026903  0.28542239  0.46261464  1
  H  H14  1  0.34833365  0.84845471  0.04268253  1
  H  H15  1  0.65166635  0.65154529  0.54268253  1
  H  H16  1  0.65166635  0.15154529  0.95731747  1
  H  H17  1  0.34833365  0.34845471  0.45731747  1
  H  H18  1  0.23910405  0.57025316  0.97607693  1
  H  H19  1  0.76089595  0.92974684  0.47607693  1
  H  H20  1  0.76089595  0.42974684  0.02392307  1
  H  H21  1  0.23910405  0.07025316  0.52392307  1
  H  H22  1  0.59228339  0.58907220  0.14041013  1
  H  H23  1  0.40771661  0.91092780  0.64041013  1
  H  H24  1  0.40771661  0.41092780  0.85958987  1
  H  H25  1  0.59228339  0.08907220  0.35958987  1
  H  H26  1  0.59658659  0.59317161  0.88285571  1
  H  H27  1  0.40341341  0.90682839  0.38285571  1
  H  H28  1  0.40341341  0.40682839  0.11714429  1
  H  H29  1  0.59658659  0.09317161  0.61714429  1
  C  C30  1  0.73083413  0.79014154  0.51104790  1
  C  C31  1  0.26916587  0.70985846  0.01104790  1
  C  C32  1  0.26916587  0.20985846  0.48895210  1
  C  C33  1  0.73083413  0.29014154  0.98895210  1
  N  N34  1  0.93694447  0.78923874  0.49308827  1
  N  N35  1  0.06305553  0.71076126  0.99308827  1
  N  N36  1  0.06305553  0.21076126  0.50691173  1
  N  N37  1  0.93694447  0.28923874  0.00691173  1
  N  N38  1  0.40294251  0.78752736  0.02592943  1
  N  N39  1  0.59705749  0.71247264  0.52592943  1
  N  N40  1  0.59705749  0.21247264  0.97407057  1
  N  N41  1  0.40294251  0.28752736  0.47407057  1
  N  N42  1  0.33972236  0.62838552  0.01313224  1
  N  N43  1  0.66027764  0.87161448  0.51313224  1
  N  N44  1  0.66027764  0.37161448  0.98686776  1
  N  N45  1  0.33972236  0.12838552  0.48686776  1
  N  N46  1  0.55614126  0.62550354  0.01450528  1
  N  N47  1  0.44385874  0.87449646  0.51450528  1
  N  N48  1  0.44385874  0.37449646  0.98549472  1
  N  N49  1  0.55614126  0.12550354  0.48549472  1
  F  F50  1  0.14529389  0.63287386  0.50516373  1
  F  F51  1  0.85470611  0.86712614  0.00516373  1
  F  F52  1  0.85470611  0.36712614  0.49483627  1
  F  F53  1  0.14529389  0.13287386  0.99483627  1
  F  F54  1  0.87884009  0.52160738  0.21210570  1
  F  F55  1  0.12115991  0.97839262  0.71210570  1
  F  F56  1  0.12115991  0.47839262  0.78789430  1
  F  F57  1  0.87884009  0.02160738  0.28789430  1
  F  F58  1  0.25098712  0.95298618  0.13604500  1
  F  F59  1  0.74901288  0.54701382  0.63604500  1
  F  F60  1  0.74901288  0.04701382  0.86395500  1
  F  F61  1  0.25098712  0.45298618  0.36395500  1
