# generated using pymatgen
data_AsH12C4I3
_symmetry_space_group_name_H-M   'P 1'
_cell_length_a   15.27624370
_cell_length_b   15.27624370
_cell_length_c   14.06105296
_cell_angle_alpha   90.00000000
_cell_angle_beta   90.00000000
_cell_angle_gamma   90.00000000
_symmetry_Int_Tables_number   1
_chemical_formula_structural   AsH12C4I3
_chemical_formula_sum   'As10 H120 C40 I30'
_cell_volume   3281.33824200
_cell_formula_units_Z   10
loop_
 _symmetry_equiv_pos_site_id
 _symmetry_equiv_pos_as_xyz
  1  'x, y, z'
loop_
 _atom_site_type_symbol
 _atom_site_label
 _atom_site_symmetry_multiplicity
 _atom_site_fract_x
 _atom_site_fract_y
 _atom_site_fract_z
 _atom_site_occupancy
  As  As0  1  0.50000000  0.50000000  0.25000000  1
  As  As1  1  0.50000000  0.50000000  0.75000000  1
  As  As2  1  0.70331722  0.07751853  0.24869607  1
  As  As3  1  0.29668278  0.92248147  0.24869607  1
  As  As4  1  0.07751853  0.29668278  0.74869607  1
  As  As5  1  0.92248147  0.70331722  0.74869607  1
  As  As6  1  0.29668278  0.92248147  0.75130393  1
  As  As7  1  0.70331722  0.07751853  0.75130393  1
  As  As8  1  0.92248147  0.70331722  0.25130393  1
  As  As9  1  0.07751853  0.29668278  0.25130393  1
  H  H10  1  0.51987104  0.35467676  0.33295871  1
  H  H11  1  0.48012896  0.64532324  0.33295871  1
  H  H12  1  0.35467676  0.48012896  0.83295871  1
  H  H13  1  0.64532324  0.51987104  0.83295871  1
  H  H14  1  0.48012896  0.64532324  0.66704129  1
  H  H15  1  0.51987104  0.35467676  0.66704129  1
  H  H16  1  0.64532324  0.51987104  0.16704129  1
  H  H17  1  0.35467676  0.48012896  0.16704129  1
  H  H18  1  0.62426493  0.40232116  0.30383492  1
  H  H19  1  0.37573507  0.59767884  0.30383492  1
  H  H20  1  0.40232116  0.37573507  0.80383492  1
  H  H21  1  0.59767884  0.62426493  0.80383492  1
  H  H22  1  0.37573507  0.59767884  0.69616508  1
  H  H23  1  0.62426493  0.40232116  0.69616508  1
  H  H24  1  0.59767884  0.62426493  0.19616508  1
  H  H25  1  0.40232116  0.37573507  0.19616508  1
  H  H26  1  0.56361447  0.44275106  0.40343218  1
  H  H27  1  0.43638553  0.55724894  0.40343218  1
  H  H28  1  0.44275106  0.43638553  0.90343218  1
  H  H29  1  0.55724894  0.56361447  0.90343218  1
  H  H30  1  0.43638553  0.55724894  0.59656782  1
  H  H31  1  0.56361447  0.44275106  0.59656782  1
  H  H32  1  0.55724894  0.56361447  0.09656782  1
  H  H33  1  0.44275106  0.43638553  0.09656782  1
  H  H34  1  0.84691734  0.03200640  0.17565759  1
  H  H35  1  0.15308266  0.96799360  0.17565759  1
  H  H36  1  0.03200640  0.15308266  0.67565759  1
  H  H37  1  0.96799360  0.84691734  0.67565759  1
  H  H38  1  0.15308266  0.96799360  0.82434241  1
  H  H39  1  0.84691734  0.03200640  0.82434241  1
  H  H40  1  0.96799360  0.84691734  0.32434241  1
  H  H41  1  0.03200640  0.15308266  0.32434241  1
  H  H42  1  0.85612198  0.04046177  0.30323321  1
  H  H43  1  0.14387802  0.95953823  0.30323321  1
  H  H44  1  0.04046177  0.14387802  0.80323321  1
  H  H45  1  0.95953823  0.85612198  0.80323321  1
  H  H46  1  0.14387802  0.95953823  0.69676679  1
  H  H47  1  0.85612198  0.04046177  0.69676679  1
  H  H48  1  0.95953823  0.85612198  0.19676679  1
  H  H49  1  0.04046177  0.14387802  0.19676679  1
  H  H50  1  0.80422696  0.94689358  0.25090861  1
  H  H51  1  0.19577304  0.05310642  0.25090861  1
  H  H52  1  0.94689358  0.19577304  0.75090861  1
  H  H53  1  0.05310642  0.80422696  0.75090861  1
  H  H54  1  0.19577304  0.05310642  0.74909139  1
  H  H55  1  0.80422696  0.94689358  0.74909139  1
  H  H56  1  0.05310642  0.80422696  0.24909139  1
  H  H57  1  0.94689358  0.19577304  0.24909139  1
  H  H58  1  0.76171889  0.22578286  0.29744948  1
  H  H59  1  0.23828111  0.77421714  0.29744948  1
  H  H60  1  0.22578286  0.23828111  0.79744948  1
  H  H61  1  0.77421714  0.76171889  0.79744948  1
  H  H62  1  0.23828111  0.77421714  0.70255052  1
  H  H63  1  0.76171889  0.22578286  0.70255052  1
  H  H64  1  0.77421714  0.76171889  0.20255052  1
  H  H65  1  0.22578286  0.23828111  0.20255052  1
  H  H66  1  0.75264589  0.21718630  0.17012999  1
  H  H67  1  0.24735411  0.78281370  0.17012999  1
  H  H68  1  0.21718630  0.24735411  0.67012999  1
  H  H69  1  0.78281370  0.75264589  0.67012999  1
  H  H70  1  0.24735411  0.78281370  0.82987001  1
  H  H71  1  0.75264589  0.21718630  0.82987001  1
  H  H72  1  0.78281370  0.75264589  0.32987001  1
  H  H73  1  0.21718630  0.24735411  0.32987001  1
  H  H74  1  0.65663788  0.23534533  0.24043532  1
  H  H75  1  0.34336212  0.76465467  0.24043532  1
  H  H76  1  0.23534533  0.34336212  0.74043532  1
  H  H77  1  0.76465467  0.65663788  0.74043532  1
  H  H78  1  0.34336212  0.76465467  0.75956468  1
  H  H79  1  0.65663788  0.23534533  0.75956468  1
  H  H80  1  0.76465467  0.65663788  0.25956468  1
  H  H81  1  0.23534533  0.34336212  0.25956468  1
  H  H82  1  0.58597342  0.08312599  0.37378929  1
  H  H83  1  0.41402658  0.91687401  0.37378929  1
  H  H84  1  0.08312599  0.41402658  0.87378929  1
  H  H85  1  0.91687401  0.58597342  0.87378929  1
  H  H86  1  0.41402658  0.91687401  0.62621071  1
  H  H87  1  0.58597342  0.08312599  0.62621071  1
  H  H88  1  0.91687401  0.58597342  0.12621071  1
  H  H89  1  0.08312599  0.41402658  0.12621071  1
  H  H90  1  0.64078186  0.97868484  0.37472813  1
  H  H91  1  0.35921814  0.02131516  0.37472813  1
  H  H92  1  0.97868484  0.35921814  0.87472813  1
  H  H93  1  0.02131516  0.64078186  0.87472813  1
  H  H94  1  0.35921814  0.02131516  0.62527187  1
  H  H95  1  0.64078186  0.97868484  0.62527187  1
  H  H96  1  0.02131516  0.64078186  0.12527187  1
  H  H97  1  0.97868484  0.35921814  0.12527187  1
  H  H98  1  0.69309892  0.07301688  0.42605918  1
  H  H99  1  0.30690108  0.92698312  0.42605918  1
  H  H100  1  0.07301688  0.30690108  0.92605918  1
  H  H101  1  0.92698312  0.69309892  0.92605918  1
  H  H102  1  0.30690108  0.92698312  0.57394082  1
  H  H103  1  0.69309892  0.07301688  0.57394082  1
  H  H104  1  0.92698312  0.69309892  0.07394082  1
  H  H105  1  0.07301688  0.30690108  0.07394082  1
  H  H106  1  0.61974466  0.96815624  0.14845456  1
  H  H107  1  0.38025534  0.03184376  0.14845456  1
  H  H108  1  0.96815624  0.38025534  0.64845456  1
  H  H109  1  0.03184376  0.61974466  0.64845456  1
  H  H110  1  0.38025534  0.03184376  0.85154544  1
  H  H111  1  0.61974466  0.96815624  0.85154544  1
  H  H112  1  0.03184376  0.61974466  0.35154544  1
  H  H113  1  0.96815624  0.38025534  0.35154544  1
  H  H114  1  0.56740694  0.07400501  0.14740570  1
  H  H115  1  0.43259306  0.92599499  0.14740570  1
  H  H116  1  0.07400501  0.43259306  0.64740570  1
  H  H117  1  0.92599499  0.56740694  0.64740570  1
  H  H118  1  0.43259306  0.92599499  0.85259430  1
  H  H119  1  0.56740694  0.07400501  0.85259430  1
  H  H120  1  0.92599499  0.56740694  0.35259430  1
  H  H121  1  0.07400501  0.43259306  0.35259430  1
  H  H122  1  0.66377521  0.05523527  0.07718868  1
  H  H123  1  0.33622479  0.94476473  0.07718868  1
  H  H124  1  0.05523527  0.33622479  0.57718868  1
  H  H125  1  0.94476473  0.66377521  0.57718868  1
  H  H126  1  0.33622479  0.94476473  0.92281132  1
  H  H127  1  0.66377521  0.05523527  0.92281132  1
  H  H128  1  0.94476473  0.66377521  0.42281132  1
  H  H129  1  0.05523527  0.33622479  0.42281132  1
  C  C130  1  0.55856218  0.41521435  0.33164213  1
  C  C131  1  0.44143782  0.58478565  0.33164213  1
  C  C132  1  0.41521435  0.44143782  0.83164213  1
  C  C133  1  0.58478565  0.55856218  0.83164213  1
  C  C134  1  0.44143782  0.58478565  0.66835787  1
  C  C135  1  0.55856218  0.41521435  0.66835787  1
  C  C136  1  0.58478565  0.55856218  0.16835787  1
  C  C137  1  0.41521435  0.44143782  0.16835787  1
  C  C138  1  0.81557724  0.01757898  0.24394240  1
  C  C139  1  0.18442276  0.98242102  0.24394240  1
  C  C140  1  0.01757898  0.18442276  0.74394240  1
  C  C141  1  0.98242102  0.81557724  0.74394240  1
  C  C142  1  0.18442276  0.98242102  0.75605760  1
  C  C143  1  0.81557724  0.01757898  0.75605760  1
  C  C144  1  0.98242102  0.81557724  0.25605760  1
  C  C145  1  0.01757898  0.18442276  0.25605760  1
  C  C146  1  0.72074426  0.20303110  0.23807596  1
  C  C147  1  0.27925574  0.79696890  0.23807596  1
  C  C148  1  0.20303110  0.27925574  0.73807596  1
  C  C149  1  0.79696890  0.72074426  0.73807596  1
  C  C150  1  0.27925574  0.79696890  0.76192404  1
  C  C151  1  0.72074426  0.20303110  0.76192404  1
  C  C152  1  0.79696890  0.72074426  0.26192404  1
  C  C153  1  0.20303110  0.27925574  0.26192404  1
  C  C154  1  0.64943690  0.04962051  0.36966415  1
  C  C155  1  0.35056310  0.95037949  0.36966415  1
  C  C156  1  0.04962051  0.35056310  0.86966415  1
  C  C157  1  0.95037949  0.64943690  0.86966415  1
  C  C158  1  0.35056310  0.95037949  0.63033585  1
  C  C159  1  0.64943690  0.04962051  0.63033585  1
  C  C160  1  0.95037949  0.64943690  0.13033585  1
  C  C161  1  0.04962051  0.35056310  0.13033585  1
  C  C162  1  0.63007426  0.03891294  0.14372019  1
  C  C163  1  0.36992574  0.96108706  0.14372019  1
  C  C164  1  0.03891294  0.36992574  0.64372019  1
  C  C165  1  0.96108706  0.63007426  0.64372019  1
  C  C166  1  0.36992574  0.96108706  0.85627981  1
  C  C167  1  0.63007426  0.03891294  0.85627981  1
  C  C168  1  0.96108706  0.63007426  0.35627981  1
  C  C169  1  0.03891294  0.36992574  0.35627981  1
  I  I170  1  0.00000000  0.00000000  0.50000000  1
  I  I171  1  0.00000000  0.00000000  0.00000000  1
  I  I172  1  0.56224284  0.80988645  0.50000000  1
  I  I173  1  0.43775716  0.19011355  0.50000000  1
  I  I174  1  0.80988645  0.43775716  0.00000000  1
  I  I175  1  0.19011355  0.56224284  0.00000000  1
  I  I176  1  0.78493959  0.40358372  0.50000000  1
  I  I177  1  0.21506041  0.59641628  0.50000000  1
  I  I178  1  0.40358372  0.21506041  0.00000000  1
  I  I179  1  0.59641628  0.78493959  0.00000000  1
  I  I180  1  0.84529617  0.88044992  0.50000000  1
  I  I181  1  0.15470383  0.11955008  0.50000000  1
  I  I182  1  0.88044992  0.15470383  0.00000000  1
  I  I183  1  0.11955008  0.84529617  0.00000000  1
  I  I184  1  0.56379394  0.81039595  0.28777373  1
  I  I185  1  0.43620606  0.18960405  0.28777373  1
  I  I186  1  0.81039595  0.43620606  0.78777373  1
  I  I187  1  0.18960405  0.56379394  0.78777373  1
  I  I188  1  0.43620606  0.18960405  0.71222627  1
  I  I189  1  0.56379394  0.81039595  0.71222627  1
  I  I190  1  0.18960405  0.56379394  0.21222627  1
  I  I191  1  0.81039595  0.43620606  0.21222627  1
  I  I192  1  0.71465058  0.58432105  0.50000000  1
  I  I193  1  0.28534942  0.41567895  0.50000000  1
  I  I194  1  0.58432105  0.28534942  0.00000000  1
  I  I195  1  0.41567895  0.71465058  0.00000000  1
  I  I196  1  0.85217011  0.21813027  0.50000000  1
  I  I197  1  0.14782989  0.78186973  0.50000000  1
  I  I198  1  0.21813027  0.14782989  0.00000000  1
  I  I199  1  0.78186973  0.85217011  0.00000000  1
