# generated using pymatgen
data_Mg16Si8HO32
_symmetry_space_group_name_H-M   'P 1'
_cell_length_a   10.39206143
_cell_length_b   6.08826718
_cell_length_c   9.67200226
_cell_angle_alpha   89.95801512
_cell_angle_beta   89.86356296
_cell_angle_gamma   89.84780025
_symmetry_Int_Tables_number   1
_chemical_formula_structural   Mg16Si8HO32
_chemical_formula_sum   'Mg16 Si8 H1 O32'
_cell_volume   611.94010907
_cell_formula_units_Z   1
loop_
 _symmetry_equiv_pos_site_id
 _symmetry_equiv_pos_as_xyz
  1  'x, y, z'
loop_
 _atom_site_type_symbol
 _atom_site_label
 _atom_site_symmetry_multiplicity
 _atom_site_fract_x
 _atom_site_fract_y
 _atom_site_fract_z
 _atom_site_occupancy
  Mg  Mg0  1  0.00073240  0.00030556  0.00128529  1
  Mg  Mg1  1  0.49820230  0.00341118  0.24320286  1
  Mg  Mg2  1  0.00057799  0.49904728  0.00095453  1
  Mg  Mg3  1  0.48881875  0.49113396  0.23824730  1
  Mg  Mg4  1  0.27647795  0.24878183  0.49721848  1
  Mg  Mg5  1  0.21908538  0.74973989  0.24189893  1
  Mg  Mg6  1  0.72270036  0.74984720  0.00475346  1
  Mg  Mg7  1  0.77767457  0.25291776  0.25355109  1
  Mg  Mg8  1  0.00329389  0.00128355  0.49956248  1
  Mg  Mg9  1  0.49885854  0.00109428  0.75230169  1
  Mg  Mg10  1  0.00166709  0.49924309  0.49980408  1
  Mg  Mg11  1  0.49879136  0.49949202  0.75113750  1
  Mg  Mg12  1  0.27597900  0.24853762  0.99298921  1
  Mg  Mg13  1  0.22130412  0.74865610  0.74807844  1
  Mg  Mg14  1  0.74154871  0.77109507  0.51545421  1
  Mg  Mg15  1  0.78083906  0.24638168  0.75647236  1
  Si  Si16  1  0.09533091  0.25025058  0.21372700  1
  Si  Si17  1  0.39440503  0.74781872  0.46827675  1
  Si  Si18  1  0.90462297  0.75078984  0.28649230  1
  Si  Si19  1  0.59699134  0.24918160  0.03312540  1
  Si  Si20  1  0.09548735  0.24910513  0.71368223  1
  Si  Si21  1  0.40517177  0.75024954  0.96293327  1
  Si  Si22  1  0.90724189  0.74957686  0.78945557  1
  Si  Si23  1  0.59156469  0.24615239  0.53471569  1
  H  H24  1  0.58811957  0.59320180  0.45037812  1
  O  O25  1  0.09398516  0.24947432  0.38378539  1
  O  O26  1  0.40670718  0.75121320  0.13397621  1
  O  O27  1  0.90651425  0.75022952  0.11704216  1
  O  O28  1  0.58805710  0.24796794  0.36422927  1
  O  O29  1  0.44791016  0.24508249  0.10251078  1
  O  O30  1  0.05148150  0.74996940  0.35959627  1
  O  O31  1  0.55348617  0.72953158  0.40104683  1
  O  O32  1  0.94874147  0.25107040  0.14087110  1
  O  O33  1  0.16375554  0.03376254  0.13923529  1
  O  O34  1  0.34455889  0.96793639  0.38679269  1
  O  O35  1  0.83513640  0.53720081  0.36324269  1
  O  O36  1  0.66087283  0.46642295  0.11067072  1
  O  O37  1  0.83698213  0.96834888  0.36311752  1
  O  O38  1  0.66395691  0.03403033  0.11127937  1
  O  O39  1  0.16435176  0.46533221  0.13861236  1
  O  O40  1  0.33491682  0.53305148  0.38706313  1
  O  O41  1  0.09335579  0.24906984  0.88331697  1
  O  O42  1  0.40401306  0.74870777  0.63591505  1
  O  O43  1  0.91205160  0.75143092  0.61918160  1
  O  O44  1  0.59666344  0.25136267  0.86324769  1
  O  O45  1  0.44688071  0.24619115  0.61135240  1
  O  O46  1  0.05285502  0.74859939  0.86265572  1
  O  O47  1  0.55201834  0.75132541  0.89027902  1
  O  O48  1  0.94886424  0.25000899  0.64023395  1
  O  O49  1  0.16410252  0.03258373  0.63802675  1
  O  O50  1  0.33576130  0.96496615  0.88825774  1
  O  O51  1  0.83634096  0.53334019  0.86022961  1
  O  O52  1  0.65497125  0.47816746  0.59714310  1
  O  O53  1  0.83788650  0.96580954  0.86260060  1
  O  O54  1  0.66568262  0.03962273  0.61249071  1
  O  O55  1  0.16446614  0.46492671  0.63882460  1
  O  O56  1  0.33760524  0.53313842  0.88970447  1
