# generated using pymatgen
data_La2ThTa(ClO2)3
_symmetry_space_group_name_H-M   'P 1'
_cell_length_a   9.44742324
_cell_length_b   9.44840019
_cell_length_c   16.44985489
_cell_angle_alpha   90.00000000
_cell_angle_beta   90.00000000
_cell_angle_gamma   119.99680482
_symmetry_Int_Tables_number   1
_chemical_formula_structural   La2ThTa(ClO2)3
_chemical_formula_sum   'La12 Th6 Ta6 Cl18 O36'
_cell_volume   1271.68145100
_cell_formula_units_Z   6
loop_
 _symmetry_equiv_pos_site_id
 _symmetry_equiv_pos_as_xyz
  1  'x, y, z'
loop_
 _atom_site_type_symbol
 _atom_site_label
 _atom_site_symmetry_multiplicity
 _atom_site_fract_x
 _atom_site_fract_y
 _atom_site_fract_z
 _atom_site_occupancy
  La  La0  1  0.32085906  0.91344217  0.58333300  1
  La  La1  1  0.08833211  0.40621327  0.25006237  1
  La  La2  1  0.08833211  0.40621327  0.91660463  1
  La  La3  1  0.40616246  0.32262187  0.08333300  1
  La  La4  1  0.59416848  0.68206505  0.24908530  1
  La  La5  1  0.59393643  0.68573357  0.58333300  1
  La  La6  1  0.59416848  0.68206505  0.91758170  1
  La  La7  1  0.91265214  0.59369931  0.41570565  1
  La  La8  1  0.91265214  0.59369931  0.75096135  1
  La  La9  1  0.68388615  0.08835941  0.08333300  1
  La  La10  1  0.68273294  0.08842744  0.74998524  1
  La  La11  1  0.68273294  0.08842744  0.41668176  1
  Th  Th12  1  0.32667773  0.91249725  0.25067844  1
  Th  Th13  1  0.32667773  0.91249725  0.91598856  1
  Th  Th14  1  0.08476896  0.41178525  0.58333300  1
  Th  Th15  1  0.41365325  0.32605320  0.41745765  1
  Th  Th16  1  0.41365325  0.32605320  0.74920935  1
  Th  Th17  1  0.90887591  0.58486676  0.08333300  1
  Ta  Ta18  1  0.33081870  0.66501039  0.08333300  1
  Ta  Ta19  1  0.33368283  0.66583671  0.41674406  1
  Ta  Ta20  1  0.33368283  0.66583671  0.74992294  1
  Ta  Ta21  1  0.66589197  0.33204852  0.25003480  1
  Ta  Ta22  1  0.66635510  0.33275961  0.58333300  1
  Ta  Ta23  1  0.66589197  0.33204852  0.91663220  1
  Cl  Cl24  1  0.18976106  0.94965290  0.08333300  1
  Cl  Cl25  1  0.19381945  0.95665476  0.41587175  1
  Cl  Cl26  1  0.19381945  0.95665476  0.75079525  1
  Cl  Cl27  1  0.04898944  0.24010184  0.08333300  1
  Cl  Cl28  1  0.05190993  0.23988251  0.41804282  1
  Cl  Cl29  1  0.05190993  0.23988251  0.74862418  1
  Cl  Cl30  1  0.24014496  0.18848992  0.25149182  1
  Cl  Cl31  1  0.23674869  0.19366354  0.58333300  1
  Cl  Cl32  1  0.24014496  0.18848992  0.91517518  1
  Cl  Cl33  1  0.76222505  0.80676347  0.08333300  1
  Cl  Cl34  1  0.75882464  0.80769370  0.41617894  1
  Cl  Cl35  1  0.75882464  0.80769370  0.75048806  1
  Cl  Cl36  1  0.95718245  0.76307344  0.24882868  1
  Cl  Cl37  1  0.95011350  0.75761874  0.58333300  1
  Cl  Cl38  1  0.95718245  0.76307344  0.91783832  1
  Cl  Cl39  1  0.81243813  0.05231401  0.58333300  1
  Cl  Cl40  1  0.80850955  0.04965539  0.24972557  1
  Cl  Cl41  1  0.80850955  0.04965539  0.91694143  1
  O  O42  1  0.15375894  0.63824998  0.00556277  1
  O  O43  1  0.16280746  0.64295693  0.33789929  1
  O  O44  1  0.15638204  0.62849391  0.67023223  1
  O  O45  1  0.15375894  0.63824998  0.16110323  1
  O  O46  1  0.15638204  0.62849391  0.49643477  1
  O  O47  1  0.16280746  0.64295693  0.82876771  1
  O  O48  1  0.47282929  0.84273842  0.16253202  1
  O  O49  1  0.47721830  0.84037164  0.49368560  1
  O  O50  1  0.47282929  0.84273842  0.00413398  1
  O  O51  1  0.47464542  0.84327921  0.33546151  1
  O  O52  1  0.47721830  0.84037164  0.67298140  1
  O  O53  1  0.47464542  0.84327921  0.83120549  1
  O  O54  1  0.36290895  0.52320510  0.16222351  1
  O  O55  1  0.36697769  0.51904354  0.82565735  1
  O  O56  1  0.36290895  0.52320510  0.00444249  1
  O  O57  1  0.35951808  0.51478064  0.49561498  1
  O  O58  1  0.36697769  0.51904354  0.34100965  1
  O  O59  1  0.35951808  0.51478064  0.67105202  1
  O  O60  1  0.62886490  0.47196573  0.33004040  1
  O  O61  1  0.63025473  0.47425177  0.66264367  1
  O  O62  1  0.64301638  0.48043704  0.99534288  1
  O  O63  1  0.64301638  0.48043704  0.17132412  1
  O  O64  1  0.63025473  0.47425177  0.50402233  1
  O  O65  1  0.62886490  0.47196573  0.83662660  1
  O  O66  1  0.51963412  0.15187877  0.17410881  1
  O  O67  1  0.52075344  0.16199778  0.66273205  1
  O  O68  1  0.51445028  0.15506284  0.32886108  1
  O  O69  1  0.52075344  0.16199778  0.50393395  1
  O  O70  1  0.51963412  0.15187877  0.99255819  1
  O  O71  1  0.51445028  0.15506284  0.83780592  1
  O  O72  1  0.84643873  0.36471166  0.50622769  1
  O  O73  1  0.84290586  0.36820807  0.16892019  1
  O  O74  1  0.84048365  0.36372977  0.32691024  1
  O  O75  1  0.84643873  0.36471166  0.66043831  1
  O  O76  1  0.84048365  0.36372977  0.83975676  1
  O  O77  1  0.84290586  0.36820807  0.99774681  1
