# generated using pymatgen
data_KHoCoSi2O7
_symmetry_space_group_name_H-M   'P 1'
_cell_length_a   8.10950346
_cell_length_b   8.59137336
_cell_length_c   9.97826451
_cell_angle_alpha   90.00000000
_cell_angle_beta   90.00000000
_cell_angle_gamma   108.56830305
_symmetry_Int_Tables_number   1
_chemical_formula_structural   KHoCoSi2O7
_chemical_formula_sum   'K4 Ho4 Co4 Si8 O28'
_cell_volume   659.01436286
_cell_formula_units_Z   4
loop_
 _symmetry_equiv_pos_site_id
 _symmetry_equiv_pos_as_xyz
  1  'x, y, z'
loop_
 _atom_site_type_symbol
 _atom_site_label
 _atom_site_symmetry_multiplicity
 _atom_site_fract_x
 _atom_site_fract_y
 _atom_site_fract_z
 _atom_site_occupancy
  K  K0  1  0.29295090  0.74210556  0.91790481  1
  K  K1  1  0.20712074  0.25797409  0.41790218  1
  K  K2  1  0.70704910  0.25789444  0.91790481  1
  K  K3  1  0.79287926  0.74202591  0.41790218  1
  Ho  Ho4  1  0.75032767  0.20467404  0.49263440  1
  Ho  Ho5  1  0.24967233  0.79532596  0.49263440  1
  Ho  Ho6  1  0.25029119  0.20465686  0.99263128  1
  Ho  Ho7  1  0.74970881  0.79534314  0.99263128  1
  Co  Co8  1  0.00000000  0.50000000  0.20410262  1
  Co  Co9  1  0.50000000  0.00000000  0.21501742  1
  Co  Co10  1  0.00000000  0.00000000  0.71501951  1
  Co  Co11  1  0.50000000  0.50000000  0.70417610  1
  Si  Si12  1  0.60370020  0.87350606  0.67552211  1
  Si  Si13  1  0.89632030  0.12651693  0.17550923  1
  Si  Si14  1  0.42562965  0.64464887  0.26328098  1
  Si  Si15  1  0.39629980  0.12649394  0.67552211  1
  Si  Si16  1  0.10367970  0.87348307  0.17550923  1
  Si  Si17  1  0.92563187  0.64464343  0.76332391  1
  Si  Si18  1  0.07436813  0.35535657  0.76332391  1
  Si  Si19  1  0.57437035  0.35535113  0.26328098  1
  O  O20  1  0.71053313  0.03889307  0.10041323  1
  O  O21  1  0.00000000  0.00000000  0.11278984  1
  O  O22  1  0.50870181  0.17963623  0.34810634  1
  O  O23  1  0.12188028  0.88375497  0.33607411  1
  O  O24  1  0.87811972  0.11624503  0.33607411  1
  O  O25  1  0.50000000  0.50000000  0.32932240  1
  O  O26  1  0.21781396  0.58448200  0.30674456  1
  O  O27  1  0.00867306  0.17961659  0.84810886  1
  O  O28  1  0.78218604  0.41551800  0.30674456  1
  O  O29  1  0.53113604  0.30098378  0.62059362  1
  O  O30  1  0.21052228  0.03887143  0.60039711  1
  O  O31  1  -0.00190483  0.31900669  0.61082633  1
  O  O32  1  0.96884430  0.69901735  0.12054810  1
  O  O33  1  0.50000000  0.00000000  0.61279131  1
  O  O34  1  0.99132694  0.82038341  0.84810886  1
  O  O35  1  1.00190483  0.68099331  0.61082633  1
  O  O36  1  0.00000000  0.50000000  0.82936714  1
  O  O37  1  0.28946687  0.96110693  0.10041323  1
  O  O38  1  0.28217704  0.41549851  0.80681275  1
  O  O39  1  0.71782296  0.58450149  0.80681275  1
  O  O40  1  0.50193697  0.68102049  0.11080113  1
  O  O41  1  0.37805694  0.11617470  0.83607180  1
  O  O42  1  0.62194306  0.88382530  0.83607180  1
  O  O43  1  0.49129819  0.82036377  0.34810634  1
  O  O44  1  0.78947772  0.96112857  0.60039711  1
  O  O45  1  0.46886396  0.69901622  0.62059362  1
  O  O46  1  0.03115570  0.30098265  0.12054810  1
  O  O47  1  0.49806303  0.31897951  0.11080113  1
