# generated using pymatgen
data_VH24C4N4Cl7
_symmetry_space_group_name_H-M   'P 1'
_cell_length_a   16.15321610
_cell_length_b   7.38958208
_cell_length_c   16.24525060
_cell_angle_alpha   90.00000000
_cell_angle_beta   103.54191410
_cell_angle_gamma   90.00000000
_symmetry_Int_Tables_number   1
_chemical_formula_structural   VH24C4N4Cl7
_chemical_formula_sum   'V4 H96 C16 N16 Cl28'
_cell_volume   1885.21295222
_cell_formula_units_Z   4
loop_
 _symmetry_equiv_pos_site_id
 _symmetry_equiv_pos_as_xyz
  1  'x, y, z'
loop_
 _atom_site_type_symbol
 _atom_site_label
 _atom_site_symmetry_multiplicity
 _atom_site_fract_x
 _atom_site_fract_y
 _atom_site_fract_z
 _atom_site_occupancy
  V  V0  1  0.00000000  0.00000000  0.00000000  1
  V  V1  1  0.50000000  0.00000000  0.50000000  1
  V  V2  1  0.50000000  0.00000000  0.00000000  1
  V  V3  1  0.00000000  0.00000000  0.50000000  1
  H  H4  1  0.12345389  0.43305303  0.15521622  1
  H  H5  1  0.87654611  0.56694697  0.84478378  1
  H  H6  1  0.37654611  0.43305303  0.34478378  1
  H  H7  1  0.62345389  0.56694697  0.65521622  1
  H  H8  1  0.02839084  0.43412930  0.08548376  1
  H  H9  1  0.97160916  0.56587070  0.91451624  1
  H  H10  1  0.47160916  0.43412930  0.41451624  1
  H  H11  1  0.52839084  0.56587070  0.58548376  1
  H  H12  1  0.07922949  0.62678596  0.11981109  1
  H  H13  1  0.92077051  0.37321404  0.88018891  1
  H  H14  1  0.42077051  0.62678596  0.38018891  1
  H  H15  1  0.57922949  0.37321404  0.61981109  1
  H  H16  1  0.67191330  0.13327487  0.88221561  1
  H  H17  1  0.32808670  0.86672513  0.11778439  1
  H  H18  1  0.82808670  0.13327487  0.61778439  1
  H  H19  1  0.17191330  0.86672513  0.38221561  1
  H  H20  1  0.75677282  0.05629147  0.95310055  1
  H  H21  1  0.24322718  0.94370853  0.04689945  1
  H  H22  1  0.74322718  0.05629147  0.54689945  1
  H  H23  1  0.25677282  0.94370853  0.45310055  1
  H  H24  1  0.76776493  0.13797488  0.85975648  1
  H  H25  1  0.23223507  0.86202512  0.14024352  1
  H  H26  1  0.73223507  0.13797488  0.64024352  1
  H  H27  1  0.26776493  0.86202512  0.35975648  1
  H  H28  1  0.64617886  0.44228846  0.11861258  1
  H  H29  1  0.35382114  0.55771154  0.88138742  1
  H  H30  1  0.85382114  0.44228846  0.38138742  1
  H  H31  1  0.14617886  0.55771154  0.61861258  1
  H  H32  1  0.58160832  0.47620829  0.02342595  1
  H  H33  1  0.41839168  0.52379171  0.97657405  1
  H  H34  1  0.91839168  0.47620829  0.47657405  1
  H  H35  1  0.08160832  0.52379171  0.52342595  1
  H  H36  1  0.63367931  0.64999908  0.07930247  1
  H  H37  1  0.36632069  0.35000092  0.92069753  1
  H  H38  1  0.86632069  0.64999908  0.42069753  1
  H  H39  1  0.13367931  0.35000092  0.57930247  1
  H  H40  1  0.62159322  0.86691668  0.21961610  1
  H  H41  1  0.37840678  0.13308332  0.78038390  1
  H  H42  1  0.87840678  0.86691668  0.28038390  1
  H  H43  1  0.12159322  0.13308332  0.71961610  1
  H  H44  1  0.64010365  0.84220327  0.32389042  1
  H  H45  1  0.35989635  0.15779673  0.67610958  1
  H  H46  1  0.85989635  0.84220327  0.17610958  1
  H  H47  1  0.14010365  0.15779673  0.82389042  1
  H  H48  1  0.54727447  0.92761476  0.27169264  1
  H  H49  1  0.45272553  0.07238524  0.72830736  1
  H  H50  1  0.95272553  0.92761476  0.22830736  1
  H  H51  1  0.04727447  0.07238524  0.77169264  1
  H  H52  1  0.97148222  0.40239130  0.19748027  1
  H  H53  1  0.02851778  0.59760870  0.80251973  1
  H  H54  1  0.52851778  0.40239130  0.30251973  1
  H  H55  1  0.47148222  0.59760870  0.69748027  1
  H  H56  1  0.06893140  0.47085127  0.26887351  1
  H  H57  1  0.93106860  0.52914873  0.73112649  1
  H  H58  1  0.43106860  0.47085127  0.23112649  1
  H  H59  1  0.56893140  0.52914873  0.76887351  1
  H  H60  1  0.99683769  0.63731010  0.21361872  1
  H  H61  1  0.00316231  0.36268990  0.78638128  1
  H  H62  1  0.50316231  0.63731010  0.28638128  1
  H  H63  1  0.49683769  0.36268990  0.71361872  1
  H  H64  1  0.70332237  0.78586566  0.90145247  1
  H  H65  1  0.29667763  0.21413434  0.09854753  1
  H  H66  1  0.79667763  0.78586566  0.59854753  1
  H  H67  1  0.20332237  0.21413434  0.40145247  1
  H  H68  1  0.76765829  0.83745730  0.82842937  1
  H  H69  1  0.23234171  0.16254270  0.17157063  1
  H  H70  1  0.73234171  0.83745730  0.67157063  1
  H  H71  1  0.26765829  0.16254270  0.32842937  1
  H  H72  1  0.65452235  0.88222459  0.80082969  1
  H  H73  1  0.34547765  0.11777541  0.19917031  1
  H  H74  1  0.84547765  0.88222459  0.69917031  1
  H  H75  1  0.15452235  0.11777541  0.30082969  1
  H  H76  1  0.76998361  0.48161974  0.07258218  1
  H  H77  1  0.23001639  0.51838026  0.92741782  1
  H  H78  1  0.73001639  0.48161974  0.42741782  1
  H  H79  1  0.26998361  0.51838026  0.57258218  1
  H  H80  1  0.71324991  0.60084335  0.98097179  1
  H  H81  1  0.28675009  0.39915665  0.01902821  1
  H  H82  1  0.78675009  0.60084335  0.51902821  1
  H  H83  1  0.21324991  0.39915665  0.48097179  1
  H  H84  1  0.70038060  0.36105303  0.98725064  1
  H  H85  1  0.29961940  0.63894697  0.01274936  1
  H  H86  1  0.79961940  0.36105303  0.51274936  1
  H  H87  1  0.20038060  0.63894697  0.48725064  1
  H  H88  1  0.65259948  0.16433960  0.22438148  1
  H  H89  1  0.34740052  0.83566040  0.77561852  1
  H  H90  1  0.84740052  0.16433960  0.27561852  1
  H  H91  1  0.15259948  0.83566040  0.72438148  1
  H  H92  1  0.60506584  0.19606499  0.31297046  1
  H  H93  1  0.39493416  0.80393501  0.68702954  1
  H  H94  1  0.89493416  0.19606499  0.18702954  1
  H  H95  1  0.10506584  0.80393501  0.81297046  1
  H  H96  1  0.71043156  0.10675286  0.33045452  1
  H  H97  1  0.28956844  0.89324714  0.66954548  1
  H  H98  1  0.78956844  0.10675286  0.16954548  1
  H  H99  1  0.21043156  0.89324714  0.83045452  1
  C  C100  1  0.02268422  0.50205214  0.20999716  1
  C  C101  1  0.97731578  0.49794786  0.79000284  1
  C  C102  1  0.47731578  0.50205214  0.29000284  1
  C  C103  1  0.52268422  0.49794786  0.70999716  1
  C  C104  1  0.71244458  0.87774251  0.85186439  1
  C  C105  1  0.28755542  0.12225749  0.14813561  1
  C  C106  1  0.78755542  0.87774251  0.64813561  1
  C  C107  1  0.21244458  0.12225749  0.35186439  1
  C  C108  1  0.71115438  0.48711735  0.02317851  1
  C  C109  1  0.28884562  0.51288265  0.97682149  1
  C  C110  1  0.78884562  0.48711735  0.47682149  1
  C  C111  1  0.21115438  0.51288265  0.52317851  1
  C  C112  1  0.64804179  0.11294218  0.28621110  1
  C  C113  1  0.35195821  0.88705782  0.71378890  1
  C  C114  1  0.85195821  0.11294218  0.21378890  1
  C  C115  1  0.14804179  0.88705782  0.78621110  1
  N  N116  1  0.06565147  0.49877948  0.13811585  1
  N  N117  1  0.93434853  0.50122052  0.86188415  1
  N  N118  1  0.43434853  0.49877948  0.36188415  1
  N  N119  1  0.56565147  0.50122052  0.63811585  1
  N  N120  1  0.72834366  0.06293711  0.88905496  1
  N  N121  1  0.27165634  0.93706289  0.11094504  1
  N  N122  1  0.77165634  0.06293711  0.61094504  1
  N  N123  1  0.22834366  0.93706289  0.38905496  1
  N  N124  1  0.63839595  0.51505147  0.06326965  1
  N  N125  1  0.36160405  0.48494853  0.93673035  1
  N  N126  1  0.86160405  0.51505147  0.43673035  1
  N  N127  1  0.13839595  0.48494853  0.56326965  1
  N  N128  1  0.61191868  0.92572938  0.27427426  1
  N  N129  1  0.38808132  0.07427062  0.72572574  1
  N  N130  1  0.88808132  0.92572938  0.22572574  1
  N  N131  1  0.11191868  0.07427062  0.77427426  1
  Cl  Cl132  1  0.89949266  0.78027678  0.02606048  1
  Cl  Cl133  1  0.10050734  0.21972322  0.97393952  1
  Cl  Cl134  1  0.60050734  0.78027678  0.47393952  1
  Cl  Cl135  1  0.39949266  0.21972322  0.52606048  1
  Cl  Cl136  1  0.93644219  0.98942210  0.84919086  1
  Cl  Cl137  1  0.06355781  0.01057790  0.15080914  1
  Cl  Cl138  1  0.56355781  0.98942210  0.65080914  1
  Cl  Cl139  1  0.43644219  0.01057790  0.34919086  1
  Cl  Cl140  1  0.90470337  0.24133609  0.01572461  1
  Cl  Cl141  1  0.09529663  0.75866391  0.98427539  1
  Cl  Cl142  1  0.59529663  0.24133609  0.48427539  1
  Cl  Cl143  1  0.40470337  0.75866391  0.51572461  1
  Cl  Cl144  1  0.34886385  0.01966211  0.93645906  1
  Cl  Cl145  1  0.65113615  0.98033789  0.06354094  1
  Cl  Cl146  1  0.15113615  0.01966211  0.56354094  1
  Cl  Cl147  1  0.84886385  0.98033789  0.43645906  1
  Cl  Cl148  1  0.47103836  0.78110209  0.10147921  1
  Cl  Cl149  1  0.52896164  0.21889791  0.89852079  1
  Cl  Cl150  1  0.02896164  0.78110209  0.39852079  1
  Cl  Cl151  1  0.97103836  0.21889791  0.60147921  1
  Cl  Cl152  1  0.51284964  0.75921732  0.90614999  1
  Cl  Cl153  1  0.48715036  0.24078268  0.09385001  1
  Cl  Cl154  1  0.98715036  0.75921732  0.59385001  1
  Cl  Cl155  1  0.01284964  0.24078268  0.40614999  1
  Cl  Cl156  1  0.75000000  0.61343527  0.25000000  1
  Cl  Cl157  1  0.25000000  0.38656473  0.75000000  1
  Cl  Cl158  1  0.25000000  0.61983278  0.25000000  1
  Cl  Cl159  1  0.75000000  0.38016722  0.75000000  1
