# generated using pymatgen
data_TbBi5O9
_symmetry_space_group_name_H-M   'P 1'
_cell_length_a   3.88842059
_cell_length_b   9.57357512
_cell_length_c   6.88524249
_cell_angle_alpha   84.09288108
_cell_angle_beta   91.37653332
_cell_angle_gamma   101.55957466
_symmetry_Int_Tables_number   1
_chemical_formula_structural   TbBi5O9
_chemical_formula_sum   'Tb1 Bi5 O9'
_cell_volume   249.77693891
_cell_formula_units_Z   1
loop_
 _symmetry_equiv_pos_site_id
 _symmetry_equiv_pos_as_xyz
  1  'x, y, z'
loop_
 _atom_site_type_symbol
 _atom_site_label
 _atom_site_symmetry_multiplicity
 _atom_site_fract_x
 _atom_site_fract_y
 _atom_site_fract_z
 _atom_site_occupancy
  Tb  Tb0  1  0.97929295  0.02176216  0.98847724  1
  Bi  Bi1  1  0.84831058  0.65968961  0.40822362  1
  Bi  Bi2  1  0.47146458  0.99729193  0.45731522  1
  Bi  Bi3  1  0.66777118  0.35089438  0.11286901  1
  Bi  Bi4  1  0.14110615  0.32193141  0.60970745  1
  Bi  Bi5  1  0.33983674  0.66114679  0.87113956  1
  O  O6  1  0.15008453  0.52340111  0.21085018  1
  O  O7  1  0.81189609  0.56734306  0.74536150  1
  O  O8  1  0.63406124  0.29038481  0.44547799  1
  O  O9  1  0.52538344  0.10785503  0.14657892  1
  O  O10  1  0.94077478  0.89621997  0.30359876  1
  O  O11  1  0.40895938  0.88722468  0.90934344  1
  O  O12  1  0.36134769  0.73977542  0.54389203  1
  O  O13  1  0.07077559  0.27596562  0.93619592  1
  O  O14  1  0.04469008  0.09142401  0.64518416  1
