# generated using pymatgen
data_Li2Cr2H4O9
_symmetry_space_group_name_H-M   'P 1'
_cell_length_a   7.73991455
_cell_length_b   8.22044619
_cell_length_c   8.90798072
_cell_angle_alpha   90.09232805
_cell_angle_beta   90.00000000
_cell_angle_gamma   118.08443129
_symmetry_Int_Tables_number   1
_chemical_formula_structural   Li2Cr2H4O9
_chemical_formula_sum   'Li4 Cr4 H8 O18'
_cell_volume   500.03930192
_cell_formula_units_Z   2
loop_
 _symmetry_equiv_pos_site_id
 _symmetry_equiv_pos_as_xyz
  1  'x, y, z'
loop_
 _atom_site_type_symbol
 _atom_site_label
 _atom_site_symmetry_multiplicity
 _atom_site_fract_x
 _atom_site_fract_y
 _atom_site_fract_z
 _atom_site_occupancy
  Li  Li0  1  0.44333227  0.76159111  0.01899687  1
  Li  Li1  1  0.31825884  0.76159111  0.51899687  1
  Li  Li2  1  0.63322144  0.08811112  0.25918436  1
  Li  Li3  1  0.45488968  0.08811112  0.75918436  1
  Cr  Cr4  1  0.03586511  0.74799060  0.12060137  1
  Cr  Cr5  1  0.71212549  0.74799060  0.62060137  1
  Cr  Cr6  1  0.31711756  0.11880148  0.29310920  1
  Cr  Cr7  1  0.80168392  0.11880148  0.79310920  1
  H  H8  1  0.61256045  0.80327960  0.29798069  1
  H  H9  1  0.19071915  0.80327960  0.79798069  1
  H  H10  1  0.74407766  0.84421555  0.15359147  1
  H  H11  1  0.10013789  0.84421555  0.65359147  1
  H  H12  1  0.18835134  0.41455919  0.47770616  1
  H  H13  1  0.22620785  0.41455919  0.97770616  1
  H  H14  1  0.43921582  0.45349577  0.02592775  1
  H  H15  1  0.01427995  0.45349577  0.52592775  1
  O  O16  1  0.08903439  0.96384201  0.21264535  1
  O  O17  1  0.87480762  0.96384201  0.71264535  1
  O  O18  1  0.20029398  0.78542004  0.98633651  1
  O  O19  1  0.58512606  0.78542004  0.48633651  1
  O  O20  1  0.81651715  0.67290372  0.05330713  1
  O  O21  1  0.85638657  0.67290372  0.55330713  1
  O  O22  1  0.04556057  0.60844590  0.24276192  1
  O  O23  1  0.56288533  0.60844590  0.74276192  1
  O  O24  1  0.39587958  0.00019359  0.39812072  1
  O  O25  1  0.60431401  0.00019359  0.89812072  1
  O  O26  1  0.29064290  0.27231110  0.38991331  1
  O  O27  1  0.98166820  0.27231110  0.88991331  1
  O  O28  1  0.48618431  0.21073899  0.16271629  1
  O  O29  1  0.72455469  0.21073899  0.66271629  1
  O  O30  1  0.63892564  0.86446916  0.19715873  1
  O  O31  1  0.22554351  0.86446916  0.69715873  1
  O  O32  1  0.34450055  0.49963107  0.03294218  1
  O  O33  1  0.15513052  0.49963107  0.53294218  1
