# generated using pymatgen
data_VH16C4(NO4)3
_symmetry_space_group_name_H-M   'P 1'
_cell_length_a   11.58628788
_cell_length_b   15.78603236
_cell_length_c   8.03748472
_cell_angle_alpha   90.00000000
_cell_angle_beta   90.00000000
_cell_angle_gamma   90.00000000
_symmetry_Int_Tables_number   1
_chemical_formula_structural   VH16C4(NO4)3
_chemical_formula_sum   'V4 H64 C16 N12 O48'
_cell_volume   1470.06813534
_cell_formula_units_Z   4
loop_
 _symmetry_equiv_pos_site_id
 _symmetry_equiv_pos_as_xyz
  1  'x, y, z'
loop_
 _atom_site_type_symbol
 _atom_site_label
 _atom_site_symmetry_multiplicity
 _atom_site_fract_x
 _atom_site_fract_y
 _atom_site_fract_z
 _atom_site_occupancy
  V  V0  1  0.04175032  0.24002061  0.53747408  1
  V  V1  1  0.45824968  0.75997939  0.03747408  1
  V  V2  1  0.54175032  0.25997939  0.46252592  1
  V  V3  1  0.95824968  0.74002061  0.96252592  1
  H  H4  1  0.07405386  0.01146385  0.48820533  1
  H  H5  1  0.42594614  0.98853615  0.98820533  1
  H  H6  1  0.57405386  0.48853615  0.51179467  1
  H  H7  1  0.92594614  0.51146385  0.01179467  1
  H  H8  1  0.10698796  0.92394765  0.40575216  1
  H  H9  1  0.39301204  0.07605235  0.90575216  1
  H  H10  1  0.60698796  0.57605235  0.59424784  1
  H  H11  1  0.89301204  0.42394765  0.09424784  1
  H  H12  1  0.95785690  0.16509975  0.16110599  1
  H  H13  1  0.54214310  0.83490025  0.66110599  1
  H  H14  1  0.45785690  0.33490025  0.83889401  1
  H  H15  1  0.04214310  0.66509975  0.33889401  1
  H  H16  1  0.96358705  0.16638172  0.96343766  1
  H  H17  1  0.53641295  0.83361828  0.46343766  1
  H  H18  1  0.46358705  0.33361828  0.03656234  1
  H  H19  1  0.03641295  0.66638172  0.53656234  1
  H  H20  1  0.09724742  0.42073447  0.96544884  1
  H  H21  1  0.40275258  0.57926553  0.46544884  1
  H  H22  1  0.59724742  0.07926553  0.03455116  1
  H  H23  1  0.90275258  0.92073447  0.53455116  1
  H  H24  1  0.23540839  0.40328500  0.02778638  1
  H  H25  1  0.26459161  0.59671500  0.52778638  1
  H  H26  1  0.73540839  0.09671500  0.97221362  1
  H  H27  1  0.76459161  0.90328500  0.47221362  1
  H  H28  1  0.20800731  0.44768085  0.83905648  1
  H  H29  1  0.29199269  0.55231915  0.33905648  1
  H  H30  1  0.70800731  0.05231915  0.16094352  1
  H  H31  1  0.79199269  0.94768085  0.66094352  1
  H  H32  1  0.17716987  0.34552992  0.86587947  1
  H  H33  1  0.32283013  0.65447008  0.36587947  1
  H  H34  1  0.67716987  0.15447008  0.13412053  1
  H  H35  1  0.82283013  0.84552992  0.63412053  1
  H  H36  1  0.27950228  0.16095666  0.09729606  1
  H  H37  1  0.22049772  0.83904334  0.59729606  1
  H  H38  1  0.77950228  0.33904334  0.90270394  1
  H  H39  1  0.72049772  0.66095666  0.40270394  1
  H  H40  1  0.20450382  0.17083870  0.27627084  1
  H  H41  1  0.29549618  0.82916130  0.77627084  1
  H  H42  1  0.70450382  0.32916130  0.72372916  1
  H  H43  1  0.79549618  0.67083870  0.22372916  1
  H  H44  1  0.34438774  0.14102988  0.28264193  1
  H  H45  1  0.15561226  0.85897012  0.78264193  1
  H  H46  1  0.84438774  0.35897012  0.71735807  1
  H  H47  1  0.65561226  0.64102988  0.21735807  1
  H  H48  1  0.24637346  0.07162659  0.20378945  1
  H  H49  1  0.25362654  0.92837341  0.70378945  1
  H  H50  1  0.74637346  0.42837341  0.79621055  1
  H  H51  1  0.75362654  0.57162659  0.29621055  1
  H  H52  1  0.02317425  0.46486860  0.25623782  1
  H  H53  1  0.47682575  0.53513140  0.75623782  1
  H  H54  1  0.52317425  0.03513140  0.74376218  1
  H  H55  1  0.97682575  0.96486860  0.24376218  1
  H  H56  1  0.05254882  0.52081053  0.42773892  1
  H  H57  1  0.44745118  0.47918947  0.92773892  1
  H  H58  1  0.55254882  0.97918947  0.57226108  1
  H  H59  1  0.94745118  0.02081053  0.07226108  1
  H  H60  1  0.02428678  0.41294508  0.44403178  1
  H  H61  1  0.47571322  0.58705492  0.94403178  1
  H  H62  1  0.52428678  0.08705492  0.55596822  1
  H  H63  1  0.97571322  0.91294508  0.05596822  1
  H  H64  1  0.14892866  0.44667065  0.35553198  1
  H  H65  1  0.35107134  0.55332935  0.85553198  1
  H  H66  1  0.64892866  0.05332935  0.64446802  1
  H  H67  1  0.85107134  0.94667065  0.14446802  1
  C  C68  1  0.22043649  0.18913264  0.77283593  1
  C  C69  1  0.27956351  0.81086736  0.27283593  1
  C  C70  1  0.72043649  0.31086736  0.22716407  1
  C  C71  1  0.77956351  0.68913264  0.72716407  1
  C  C72  1  0.20154335  0.10535018  0.67605675  1
  C  C73  1  0.29845665  0.89464982  0.17605675  1
  C  C74  1  0.70154335  0.39464982  0.32394325  1
  C  C75  1  0.79845665  0.60535018  0.82394325  1
  C  C76  1  0.85335189  0.12469594  0.48546719  1
  C  C77  1  0.64664811  0.87530406  0.98546719  1
  C  C78  1  0.35335189  0.37530406  0.51453281  1
  C  C79  1  0.14664811  0.62469594  0.01453281  1
  C  C80  1  0.85926813  0.13107497  0.67803613  1
  C  C81  1  0.64073187  0.86892503  0.17803613  1
  C  C82  1  0.35926813  0.36892503  0.32196387  1
  C  C83  1  0.14073187  0.63107497  0.82196387  1
  N  N84  1  0.17979644  0.40399468  0.92519850  1
  N  N85  1  0.32020356  0.59600532  0.42519850  1
  N  N86  1  0.67979644  0.09600532  0.07480150  1
  N  N87  1  0.82020356  0.90399468  0.57480150  1
  N  N88  1  0.26823804  0.13539395  0.21524479  1
  N  N89  1  0.23176196  0.86460605  0.71524479  1
  N  N90  1  0.76823804  0.36460605  0.78475521  1
  N  N91  1  0.73176196  0.63539395  0.28475521  1
  N  N92  1  0.06259705  0.46139667  0.37261536  1
  N  N93  1  0.43740295  0.53860333  0.87261536  1
  N  N94  1  0.56259705  0.03860333  0.62738464  1
  N  N95  1  0.93740295  0.96139667  0.12738464  1
  O  O96  1  0.97410621  0.33333026  0.56737983  1
  O  O97  1  0.52589379  0.66666974  0.06737983  1
  O  O98  1  0.47410621  0.16666974  0.43262017  1
  O  O99  1  0.02589379  0.83333026  0.93262017  1
  O  O100  1  0.15545208  0.25197896  0.72595132  1
  O  O101  1  0.34454792  0.74802104  0.22595132  1
  O  O102  1  0.65545208  0.24802104  0.27404868  1
  O  O103  1  0.84454792  0.75197896  0.77404868  1
  O  O104  1  0.11936738  0.10872651  0.56916067  1
  O  O105  1  0.38063262  0.89127349  0.06916067  1
  O  O106  1  0.61936738  0.39127349  0.43083933  1
  O  O107  1  0.88063262  0.60872651  0.93083933  1
  O  O108  1  0.29201170  0.19380644  0.88710709  1
  O  O109  1  0.20798830  0.80619356  0.38710709  1
  O  O110  1  0.79201170  0.30619356  0.11289291  1
  O  O111  1  0.70798830  0.69380644  0.61289291  1
  O  O112  1  0.26472286  0.04343232  0.70935080  1
  O  O113  1  0.23527714  0.95656768  0.20935080  1
  O  O114  1  0.76472286  0.45656768  0.29064920  1
  O  O115  1  0.73527714  0.54343232  0.79064920  1
  O  O116  1  0.12923847  0.25415603  0.37554688  1
  O  O117  1  0.37076153  0.74584397  0.87554688  1
  O  O118  1  0.62923847  0.24584397  0.62445312  1
  O  O119  1  0.87076153  0.75415603  0.12445312  1
  O  O120  1  0.92567456  0.17449595  0.40781099  1
  O  O121  1  0.57432544  0.82550405  0.90781099  1
  O  O122  1  0.42567456  0.32550405  0.59218901  1
  O  O123  1  0.07432544  0.67449595  0.09218901  1
  O  O124  1  0.93409332  0.18351998  0.73314651  1
  O  O125  1  0.56590668  0.81648002  0.23314651  1
  O  O126  1  0.43409332  0.31648002  0.26685349  1
  O  O127  1  0.06590668  0.68351998  0.76685349  1
  O  O128  1  0.78578240  0.07550277  0.41679489  1
  O  O129  1  0.71421760  0.92449723  0.91679489  1
  O  O130  1  0.28578240  0.42449723  0.58320511  1
  O  O131  1  0.21421760  0.57550277  0.08320511  1
  O  O132  1  0.79321684  0.08535392  0.76319807  1
  O  O133  1  0.70678316  0.91464608  0.26319807  1
  O  O134  1  0.29321684  0.41464608  0.23680193  1
  O  O135  1  0.20678316  0.58535392  0.73680193  1
  O  O136  1  0.04105150  0.95642749  0.44948180  1
  O  O137  1  0.45894850  0.04357251  0.94948180  1
  O  O138  1  0.54105150  0.54357251  0.55051820  1
  O  O139  1  0.95894850  0.45642749  0.05051820  1
  O  O140  1  0.98707834  0.13465762  0.06332904  1
  O  O141  1  0.51292166  0.86534238  0.56332904  1
  O  O142  1  0.48707834  0.36534238  0.93667096  1
  O  O143  1  0.01292166  0.63465762  0.43667096  1
