# generated using pymatgen
data_SrMg6Zn
_symmetry_space_group_name_H-M   'P 1'
_cell_length_a   6.74936716
_cell_length_b   6.74936656
_cell_length_c   5.12336917
_cell_angle_alpha   90.00000000
_cell_angle_beta   90.00000000
_cell_angle_gamma   119.89407739
_symmetry_Int_Tables_number   1
_chemical_formula_structural   SrMg6Zn
_chemical_formula_sum   'Sr1 Mg6 Zn1'
_cell_volume   202.33681335
_cell_formula_units_Z   1
loop_
 _symmetry_equiv_pos_site_id
 _symmetry_equiv_pos_as_xyz
  1  'x, y, z'
loop_
 _atom_site_type_symbol
 _atom_site_label
 _atom_site_symmetry_multiplicity
 _atom_site_fract_x
 _atom_site_fract_y
 _atom_site_fract_z
 _atom_site_occupancy
  Sr  Sr0  1  0.32557608  0.17442392  0.75000000  1
  Mg  Mg1  1  0.15824114  0.80238690  0.25000000  1
  Mg  Mg2  1  0.69761310  0.34175886  0.25000000  1
  Mg  Mg3  1  0.66921932  0.83078068  0.25000000  1
  Mg  Mg4  1  0.31904617  0.66074211  0.75000000  1
  Mg  Mg5  1  0.83925789  0.18095383  0.75000000  1
  Mg  Mg6  1  0.83751004  0.66248996  0.75000000  1
  Zn  Zn7  1  0.15353626  0.34646374  0.25000000  1
