# generated using pymatgen
data_La5Re3NiO16
_symmetry_space_group_name_H-M   'P 1'
_cell_length_a   5.68695613
_cell_length_b   5.67777889
_cell_length_c   10.21036520
_cell_angle_alpha   86.50068712
_cell_angle_beta   93.53968531
_cell_angle_gamma   89.36499640
_symmetry_Int_Tables_number   1
_chemical_formula_structural   La5Re3NiO16
_chemical_formula_sum   'La5 Re3 Ni1 O16'
_cell_volume   328.40637446
_cell_formula_units_Z   1
loop_
 _symmetry_equiv_pos_site_id
 _symmetry_equiv_pos_as_xyz
  1  'x, y, z'
loop_
 _atom_site_type_symbol
 _atom_site_label
 _atom_site_symmetry_multiplicity
 _atom_site_fract_x
 _atom_site_fract_y
 _atom_site_fract_z
 _atom_site_occupancy
  La  La0  1  0.02624945  0.48595733  0.19682011  1
  La  La1  1  0.97375055  0.51404267  0.80317989  1
  La  La2  1  0.50731144  0.96574418  0.20495371  1
  La  La3  1  0.49268856  0.03425582  0.79504629  1
  La  La4  1  0.00000000  0.00000000  0.50000000  1
  Re  Re5  1  0.44454614  0.55641977  0.60579319  1
  Re  Re6  1  0.55545386  0.44358023  0.39420681  1
  Re  Re7  1  0.00000000  0.00000000  0.00000000  1
  Ni  Ni8  1  0.50000000  0.50000000  0.00000000  1
  O  O9  1  0.30386027  0.68964845  0.43484499  1
  O  O10  1  0.69613973  0.31035155  0.56515501  1
  O  O11  1  0.21879498  0.77717209  0.67625747  1
  O  O12  1  0.78120502  0.22282791  0.32374253  1
  O  O13  1  0.54929529  0.45474079  0.80305663  1
  O  O14  1  0.45070471  0.54525921  0.19694337  1
  O  O15  1  0.92228034  0.07060174  0.81759059  1
  O  O16  1  0.07771966  0.92939826  0.18240941  1
  O  O17  1  0.23144979  0.29616762  0.63753379  1
  O  O18  1  0.76855021  0.70383238  0.36246621  1
  O  O19  1  0.69656381  0.77760178  0.63462188  1
  O  O20  1  0.30343619  0.22239822  0.36537812  1
  O  O21  1  0.81212007  0.69680209  -0.00001218  1
  O  O22  1  0.18787993  0.30319791  0.00001218  1
  O  O23  1  0.71204915  0.18281636  0.03732183  1
  O  O24  1  0.28795085  0.81718364  0.96267817  1
