# generated using pymatgen
data_LiCuPO4
_symmetry_space_group_name_H-M   'P 1'
_cell_length_a   7.65980821
_cell_length_b   8.99804805
_cell_length_c   4.86136845
_cell_angle_alpha   90.00000000
_cell_angle_beta   90.00000000
_cell_angle_gamma   90.00000000
_symmetry_Int_Tables_number   1
_chemical_formula_structural   LiCuPO4
_chemical_formula_sum   'Li4 Cu4 P4 O16'
_cell_volume   335.06166463
_cell_formula_units_Z   4
loop_
 _symmetry_equiv_pos_site_id
 _symmetry_equiv_pos_as_xyz
  1  'x, y, z'
loop_
 _atom_site_type_symbol
 _atom_site_label
 _atom_site_symmetry_multiplicity
 _atom_site_fract_x
 _atom_site_fract_y
 _atom_site_fract_z
 _atom_site_occupancy
  Li  Li0  1  0.04142683  0.63021964  0.96242304  1
  Li  Li1  1  0.45857317  0.13021964  0.46242304  1
  Li  Li2  1  0.54142683  0.86978036  0.96242304  1
  Li  Li3  1  0.95857317  0.36978036  0.46242304  1
  Cu  Cu4  1  0.16528196  0.04240961  0.96543472  1
  Cu  Cu5  1  0.33471804  0.54240961  0.46543472  1
  Cu  Cu6  1  0.66528196  0.45759039  0.96543472  1
  Cu  Cu7  1  0.83471804  0.95759039  0.46543472  1
  P  P8  1  0.22866280  0.85458985  0.55834445  1
  P  P9  1  0.27133720  0.35458985  0.05834445  1
  P  P10  1  0.72866280  0.64541015  0.55834445  1
  P  P11  1  0.77133720  0.14541015  0.05834445  1
  O  O12  1  0.05359242  0.93217963  0.66536140  1
  O  O13  1  0.13550055  0.46051577  0.20484835  1
  O  O14  1  0.25091323  0.84894605  0.24845236  1
  O  O15  1  0.22550075  0.69638856  0.68713668  1
  O  O16  1  0.27449925  0.19638856  0.18713668  1
  O  O17  1  0.24908677  0.34894605  0.74845236  1
  O  O18  1  0.36449945  0.96051577  0.70484835  1
  O  O19  1  0.44640758  0.43217963  0.16536140  1
  O  O20  1  0.55359242  0.56782037  0.66536140  1
  O  O21  1  0.63550055  0.03948423  0.20484835  1
  O  O22  1  0.75091323  0.65105395  0.24845236  1
  O  O23  1  0.72550075  0.80361144  0.68713668  1
  O  O24  1  0.77449925  0.30361144  0.18713668  1
  O  O25  1  0.74908677  0.15105395  0.74845236  1
  O  O26  1  0.86449945  0.53948423  0.70484835  1
  O  O27  1  0.94640758  0.06782037  0.16536140  1
