# generated using pymatgen
data_Li2CuSiO4
_symmetry_space_group_name_H-M   'P 1'
_cell_length_a   6.27267495
_cell_length_b   5.32572622
_cell_length_c   4.97345864
_cell_angle_alpha   89.98632455
_cell_angle_beta   90.00003065
_cell_angle_gamma   90.00002032
_symmetry_Int_Tables_number   1
_chemical_formula_structural   Li2CuSiO4
_chemical_formula_sum   'Li4 Cu2 Si2 O8'
_cell_volume   166.14608705
_cell_formula_units_Z   2
loop_
 _symmetry_equiv_pos_site_id
 _symmetry_equiv_pos_as_xyz
  1  'x, y, z'
loop_
 _atom_site_type_symbol
 _atom_site_label
 _atom_site_symmetry_multiplicity
 _atom_site_fract_x
 _atom_site_fract_y
 _atom_site_fract_z
 _atom_site_occupancy
  Li  Li0  1  0.24872595  0.33126320  0.99568682  1
  Li  Li1  1  0.25124137  0.66873565  0.49569451  1
  Li  Li2  1  0.75127370  0.33126321  0.99568670  1
  Li  Li3  1  0.74875846  0.66873582  0.49569517  1
  Cu  Cu4  1  0.00000319  0.81923155  0.98638496  1
  Cu  Cu5  1  0.49999990  0.18073459  0.48632598  1
  Si  Si6  1  0.99999958  0.15883358  0.50136629  1
  Si  Si7  1  0.49999946  0.84175342  0.00189801  1
  O  O8  1  0.99999995  0.16529028  0.83394124  1
  O  O9  1  0.99999898  0.86382255  0.39667680  1
  O  O10  1  0.28443357  0.69207626  0.89504894  1
  O  O11  1  0.21540566  0.30777310  0.39514975  1
  O  O12  1  0.49999956  0.13593148  0.89669527  1
  O  O13  1  0.49999985  0.83470653  0.33354812  1
  O  O14  1  0.78459431  0.30777367  0.39514915  1
  O  O15  1  0.71556652  0.69207509  0.89504829  1
