# generated using pymatgen
data_Li2AgF5
_symmetry_space_group_name_H-M   'P 1'
_cell_length_a   3.65803999
_cell_length_b   5.01333251
_cell_length_c   5.96144168
_cell_angle_alpha   87.28669763
_cell_angle_beta   95.63114702
_cell_angle_gamma   100.60245495
_symmetry_Int_Tables_number   1
_chemical_formula_structural   Li2AgF5
_chemical_formula_sum   'Li2 Ag1 F5'
_cell_volume   106.89370658
_cell_formula_units_Z   1
loop_
 _symmetry_equiv_pos_site_id
 _symmetry_equiv_pos_as_xyz
  1  'x, y, z'
loop_
 _atom_site_type_symbol
 _atom_site_label
 _atom_site_symmetry_multiplicity
 _atom_site_fract_x
 _atom_site_fract_y
 _atom_site_fract_z
 _atom_site_occupancy
  Li  Li0  1  0.36495012  0.78843610  0.56652651  1
  Li  Li1  1  0.83016742  0.36691272  0.41103126  1
  Ag  Ag2  1  0.92525668  0.96326496  0.99359580  1
  F  F3  1  0.00297922  0.83359691  0.30944998  1
  F  F4  1  0.20493425  0.70643774  0.87936852  1
  F  F5  1  0.36462863  0.44365187  0.47519407  1
  F  F6  1  0.64846604  0.22466619  0.10550362  1
  F  F7  1  0.78861764  0.05833450  0.67398124  1
