# generated using pymatgen
data_LiBiF5
_symmetry_space_group_name_H-M   'P 1'
_cell_length_a   4.43809037
_cell_length_b   5.43982293
_cell_length_c   5.43678074
_cell_angle_alpha   80.36667437
_cell_angle_beta   114.09688874
_cell_angle_gamma   114.11578837
_symmetry_Int_Tables_number   1
_chemical_formula_structural   LiBiF5
_chemical_formula_sum   'Li1 Bi1 F5'
_cell_volume   109.36123780
_cell_formula_units_Z   1
loop_
 _symmetry_equiv_pos_site_id
 _symmetry_equiv_pos_as_xyz
  1  'x, y, z'
loop_
 _atom_site_type_symbol
 _atom_site_label
 _atom_site_symmetry_multiplicity
 _atom_site_fract_x
 _atom_site_fract_y
 _atom_site_fract_z
 _atom_site_occupancy
  Li  Li0  1  0.74982207  0.50009599  0.50013854  1
  Bi  Bi1  1  0.00001034  0.00005752  -0.00019670  1
  F  F2  1  0.49999466  0.00002510  0.99989614  1
  F  F3  1  0.88701066  0.61574818  0.19624281  1
  F  F4  1  0.30940155  0.19583295  0.38450153  1
  F  F5  1  0.72829290  0.80374766  0.61552049  1
  F  F6  1  0.07546582  0.38449061  0.80389420  1
