# generated using pymatgen
data_Fe5P4(H3O10)2
_symmetry_space_group_name_H-M   'P 1'
_cell_length_a   9.91548466
_cell_length_b   9.91548466
_cell_length_c   9.24728720
_cell_angle_alpha   83.98813182
_cell_angle_beta   96.01186818
_cell_angle_gamma   126.81841756
_symmetry_Int_Tables_number   1
_chemical_formula_structural   Fe5P4(H3O10)2
_chemical_formula_sum   'Fe10 P8 H12 O40'
_cell_volume   722.81176061
_cell_formula_units_Z   2
loop_
 _symmetry_equiv_pos_site_id
 _symmetry_equiv_pos_as_xyz
  1  'x, y, z'
loop_
 _atom_site_type_symbol
 _atom_site_label
 _atom_site_symmetry_multiplicity
 _atom_site_fract_x
 _atom_site_fract_y
 _atom_site_fract_z
 _atom_site_occupancy
  Fe  Fe0  1  0.89627612  0.89627612  0.75000000  1
  Fe  Fe1  1  0.10372388  0.10372388  0.25000000  1
  Fe  Fe2  1  0.23784568  0.61296375  0.68282922  1
  Fe  Fe3  1  0.61296375  0.23784568  0.81717078  1
  Fe  Fe4  1  0.76215432  0.38703625  0.31717078  1
  Fe  Fe5  1  0.38703625  0.76215432  0.18282922  1
  Fe  Fe6  1  0.84804586  0.17934495  0.61419897  1
  Fe  Fe7  1  0.17934495  0.84804586  0.88580103  1
  Fe  Fe8  1  0.15195414  0.82065505  0.38580103  1
  Fe  Fe9  1  0.82065505  0.15195414  0.11419897  1
  P  P10  1  0.11585450  0.27843766  0.88961950  1
  P  P11  1  0.27843766  0.11585450  0.61038050  1
  P  P12  1  0.88414550  0.72156234  0.11038050  1
  P  P13  1  0.72156234  0.88414550  0.38961950  1
  P  P14  1  0.58803561  0.89916202  0.85813075  1
  P  P15  1  0.89916202  0.58803561  0.64186925  1
  P  P16  1  0.41196439  0.10083798  0.14186925  1
  P  P17  1  0.10083798  0.41196439  0.35813075  1
  H  H18  1  0.37426130  0.45776464  0.62763411  1
  H  H19  1  0.45776464  0.37426130  0.87236589  1
  H  H20  1  0.62573870  0.54223536  0.37236589  1
  H  H21  1  0.54223536  0.62573870  0.12763411  1
  H  H22  1  0.51230998  0.64476576  0.70564034  1
  H  H23  1  0.64476576  0.51230998  0.79435966  1
  H  H24  1  0.48769002  0.35523424  0.29435966  1
  H  H25  1  0.35523424  0.48769002  0.20564034  1
  H  H26  1  0.59823895  0.16979350  0.52104776  1
  H  H27  1  0.16979350  0.59823895  0.97895224  1
  H  H28  1  0.40176105  0.83020650  0.47895224  1
  H  H29  1  0.83020650  0.40176105  0.02104776  1
  O  O30  1  0.66386425  0.81286727  0.82019731  1
  O  O31  1  0.81286727  0.66386425  0.67980269  1
  O  O32  1  0.33613575  0.18713273  0.17980269  1
  O  O33  1  0.18713273  0.33613575  0.32019731  1
  O  O34  1  0.98742532  0.14992805  0.77071426  1
  O  O35  1  0.14992805  0.98742532  0.72928574  1
  O  O36  1  0.01257468  0.85007195  0.22928574  1
  O  O37  1  0.85007195  0.01257468  0.27071426  1
  O  O38  1  0.27882907  0.30115677  0.90626821  1
  O  O39  1  0.30115677  0.27882907  0.59373179  1
  O  O40  1  0.72117093  0.69884323  0.09373179  1
  O  O41  1  0.69884323  0.72117093  0.40626821  1
  O  O42  1  0.02198778  0.19982959  0.03825760  1
  O  O43  1  0.19982959  0.02198778  0.46174240  1
  O  O44  1  0.97801222  0.80017041  0.96174240  1
  O  O45  1  0.80017041  0.97801222  0.53825760  1
  O  O46  1  0.13012415  0.44278001  0.84457840  1
  O  O47  1  0.44278001  0.13012415  0.65542160  1
  O  O48  1  0.86987585  0.55721999  0.15542160  1
  O  O49  1  0.55721999  0.86987585  0.34457840  1
  O  O50  1  0.60965748  0.93749311  0.02440082  1
  O  O51  1  0.93749311  0.60965748  0.47559918  1
  O  O52  1  0.39034252  0.06250689  0.97559918  1
  O  O53  1  0.06250689  0.39034252  0.52440082  1
  O  O54  1  0.40714718  0.57593733  0.64332226  1
  O  O55  1  0.57593733  0.40714718  0.85667774  1
  O  O56  1  0.59285282  0.42406267  0.35667774  1
  O  O57  1  0.42406267  0.59285282  0.14332226  1
  O  O58  1  0.67253781  0.07553985  0.77083616  1
  O  O59  1  0.07553985  0.67253781  0.72916384  1
  O  O60  1  0.32746219  0.92446015  0.22916384  1
  O  O61  1  0.92446015  0.32746219  0.27083616  1
  O  O62  1  0.70060942  0.20601166  0.47376518  1
  O  O63  1  0.20601166  0.70060942  0.02623482  1
  O  O64  1  0.29939058  0.79398834  0.52623482  1
  O  O65  1  0.79398834  0.29939058  0.97376518  1
  O  O66  1  0.39844955  0.79317213  0.81546944  1
  O  O67  1  0.79317213  0.39844955  0.68453056  1
  O  O68  1  0.60155045  0.20682787  0.18453056  1
  O  O69  1  0.20682787  0.60155045  0.31546944  1
