# generated using pymatgen
data_Li2CuSbO5
_symmetry_space_group_name_H-M   'P 1'
_cell_length_a   5.14207856
_cell_length_b   5.57080833
_cell_length_c   7.85229371
_cell_angle_alpha   103.68135012
_cell_angle_beta   100.97711328
_cell_angle_gamma   106.23197063
_symmetry_Int_Tables_number   1
_chemical_formula_structural   Li2CuSbO5
_chemical_formula_sum   'Li4 Cu2 Sb2 O10'
_cell_volume   201.74948392
_cell_formula_units_Z   2
loop_
 _symmetry_equiv_pos_site_id
 _symmetry_equiv_pos_as_xyz
  1  'x, y, z'
loop_
 _atom_site_type_symbol
 _atom_site_label
 _atom_site_symmetry_multiplicity
 _atom_site_fract_x
 _atom_site_fract_y
 _atom_site_fract_z
 _atom_site_occupancy
  Li  Li0  1  0.21084602  0.89952922  0.35266040  1
  Li  Li1  1  0.41160227  0.29766967  0.80985118  1
  Li  Li2  1  0.59352689  0.70689671  0.21713772  1
  Li  Li3  1  0.77076021  0.09582565  0.60554582  1
  Cu  Cu4  1  0.01648554  0.51178229  0.00617702  1
  Cu  Cu5  1  0.69753583  0.90744584  0.90981818  1
  Sb  Sb6  1  0.08984724  0.68595854  0.69201715  1
  Sb  Sb7  1  0.89045074  0.29740739  0.29926516  1
  O  O8  1  0.00845266  0.00993926  0.81187962  1
  O  O9  1  0.33562593  0.65508095  0.92021843  1
  O  O10  1  0.13518695  0.34512689  0.54898043  1
  O  O11  1  0.21204476  0.52369567  0.22925794  1
  O  O12  1  0.46292523  0.92423158  0.70227740  1
  O  O13  1  0.57997051  0.08125773  0.35783473  1
  O  O14  1  0.79534943  0.47499832  0.77879259  1
  O  O15  1  0.88915630  0.66895778  0.44512337  1
  O  O16  1  0.69608605  0.35157291  0.06858873  1
  O  O17  1  0.90728642  0.95289359  0.14571316  1
