# generated using pymatgen
data_La4Bi2O9
_symmetry_space_group_name_H-M   'P 1'
_cell_length_a   5.85465823
_cell_length_b   9.23622492
_cell_length_c   5.84895706
_cell_angle_alpha   86.47784056
_cell_angle_beta   91.30188864
_cell_angle_gamma   72.06799787
_symmetry_Int_Tables_number   1
_chemical_formula_structural   La4Bi2O9
_chemical_formula_sum   'La4 Bi2 O9'
_cell_volume   300.06062374
_cell_formula_units_Z   1
loop_
 _symmetry_equiv_pos_site_id
 _symmetry_equiv_pos_as_xyz
  1  'x, y, z'
loop_
 _atom_site_type_symbol
 _atom_site_label
 _atom_site_symmetry_multiplicity
 _atom_site_fract_x
 _atom_site_fract_y
 _atom_site_fract_z
 _atom_site_occupancy
  La  La0  1  0.48986950  0.00143992  0.52013384  1
  La  La1  1  0.34760091  0.29494473  0.98446937  1
  La  La2  1  0.17398600  0.63818164  0.49467950  1
  La  La3  1  0.85088857  0.28301582  0.54246991  1
  Bi  Bi4  1  0.00351302  0.01708668  0.07212646  1
  Bi  Bi5  1  0.75680344  0.60740720  0.92411071  1
  O  O6  1  0.14773632  0.16770533  0.25992200  1
  O  O7  1  0.66187412  0.14700035  0.76662054  1
  O  O8  1  0.06736176  0.51956517  0.19702022  1
  O  O9  1  0.66553809  0.15246917  0.27143076  1
  O  O10  1  0.51714898  0.49122711  0.72617060  1
  O  O11  1  0.18417416  0.11232877  0.78114568  1
  O  O12  1  0.02122185  0.45380474  0.73210844  1
  O  O13  1  0.28910425  0.83755363  0.31728097  1
  O  O14  1  0.81584405  0.78093574  0.68131300  1
