# generated using pymatgen
data_Li5SbS
_symmetry_space_group_name_H-M   'P 1'
_cell_length_a   4.85752535
_cell_length_b   8.69489766
_cell_length_c   6.20142812
_cell_angle_alpha   89.52880778
_cell_angle_beta   91.68709049
_cell_angle_gamma   106.22033722
_symmetry_Int_Tables_number   1
_chemical_formula_structural   Li5SbS
_chemical_formula_sum   'Li10 Sb2 S2'
_cell_volume   251.38665765
_cell_formula_units_Z   2
loop_
 _symmetry_equiv_pos_site_id
 _symmetry_equiv_pos_as_xyz
  1  'x, y, z'
loop_
 _atom_site_type_symbol
 _atom_site_label
 _atom_site_symmetry_multiplicity
 _atom_site_fract_x
 _atom_site_fract_y
 _atom_site_fract_z
 _atom_site_occupancy
  Li  Li0  1  0.17830971  0.92475798  0.08936966  1
  Li  Li1  1  0.19764923  0.38205415  0.99479744  1
  Li  Li2  1  0.36423547  0.72846994  0.75000000  1
  Li  Li3  1  0.18440492  0.38205415  0.50520256  1
  Li  Li4  1  0.25355073  0.07524202  0.58936966  1
  Li  Li5  1  0.74644927  0.92475798  0.41063034  1
  Li  Li6  1  0.81559508  0.61794585  0.49479744  1
  Li  Li7  1  0.63576453  0.27153006  0.25000000  1
  Li  Li8  1  0.80235077  0.61794585  0.00520256  1
  Li  Li9  1  0.82169029  0.07524202  0.91063034  1
  Sb  Sb10  1  0.33308927  0.66617954  0.25000000  1
  Sb  Sb11  1  0.66691073  0.33382046  0.75000000  1
  S  S12  1  0.07495915  0.14991930  0.25000000  1
  S  S13  1  0.92504085  0.85008070  0.75000000  1
