# generated using pymatgen
data_BaNb3NO7
_symmetry_space_group_name_H-M   'P 1'
_cell_length_a   9.11880239
_cell_length_b   10.77421949
_cell_length_c   3.87588170
_cell_angle_alpha   79.71673087
_cell_angle_beta   89.97447557
_cell_angle_gamma   91.45624705
_symmetry_Int_Tables_number   1
_chemical_formula_structural   BaNb3NO7
_chemical_formula_sum   'Ba2 Nb6 N2 O14'
_cell_volume   374.55505209
_cell_formula_units_Z   2
loop_
 _symmetry_equiv_pos_site_id
 _symmetry_equiv_pos_as_xyz
  1  'x, y, z'
loop_
 _atom_site_type_symbol
 _atom_site_label
 _atom_site_symmetry_multiplicity
 _atom_site_fract_x
 _atom_site_fract_y
 _atom_site_fract_z
 _atom_site_occupancy
  Ba  Ba0  1  0.25130252  0.96461666  0.01734848  1
  Ba  Ba1  1  0.75200564  0.03378977  0.97849184  1
  Nb  Nb2  1  0.07175536  0.25421914  0.36452601  1
  Nb  Nb3  1  0.24658005  0.48178870  0.75435145  1
  Nb  Nb4  1  0.44278913  0.26328813  0.36829628  1
  Nb  Nb5  1  0.56168772  0.73609346  0.63061010  1
  Nb  Nb6  1  0.76310306  0.51778855  0.24225623  1
  Nb  Nb7  1  0.94067797  0.73564812  0.63119092  1
  N  N8  1  0.25019146  0.16012237  0.41139183  1
  N  N9  1  0.90544749  0.68810900  0.15487351  1
  O  O10  1  0.07053933  0.87151903  0.56238139  1
  O  O11  1  0.09214331  0.31066820  0.83821579  1
  O  O12  1  0.09923920  0.59522869  0.69773537  1
  O  O13  1  0.24833077  0.42675775  0.28216114  1
  O  O14  1  0.40587534  0.59325924  0.70225158  1
  O  O15  1  0.40805325  0.30927132  0.84178791  1
  O  O16  1  0.43517388  0.86654712  0.56730485  1
  O  O17  1  0.57105975  0.13216006  0.43879881  1
  O  O18  1  0.58859077  0.69608100  0.15110079  1
  O  O19  1  0.59215820  0.41054188  0.28901467  1
  O  O20  1  0.74191972  0.57284331  0.71375170  1
  O  O21  1  0.74783297  0.84117291  0.57986094  1
  O  O22  1  0.90730362  0.40383442  0.29884238  1
  O  O23  1  0.92814549  0.12815817  0.42645303  1
