# generated using pymatgen
data_Mg6ZrCu
_symmetry_space_group_name_H-M   'P 1'
_cell_length_a   6.36961232
_cell_length_b   6.36961183
_cell_length_c   4.90299954
_cell_angle_alpha   90.00000000
_cell_angle_beta   90.00000000
_cell_angle_gamma   122.91712317
_symmetry_Int_Tables_number   1
_chemical_formula_structural   Mg6ZrCu
_chemical_formula_sum   'Mg6 Zr1 Cu1'
_cell_volume   166.98848759
_cell_formula_units_Z   1
loop_
 _symmetry_equiv_pos_site_id
 _symmetry_equiv_pos_as_xyz
  1  'x, y, z'
loop_
 _atom_site_type_symbol
 _atom_site_label
 _atom_site_symmetry_multiplicity
 _atom_site_fract_x
 _atom_site_fract_y
 _atom_site_fract_z
 _atom_site_occupancy
  Mg  Mg0  1  0.17934309  0.82935079  0.25000000  1
  Mg  Mg1  1  0.67064921  0.32065691  0.25000000  1
  Mg  Mg2  1  0.66678300  0.83321700  0.25000000  1
  Mg  Mg3  1  0.32368095  0.66511361  0.75000000  1
  Mg  Mg4  1  0.83488639  0.17631905  0.75000000  1
  Mg  Mg5  1  0.82374909  0.67625091  0.75000000  1
  Zr  Zr6  1  0.18634942  0.31365058  0.25000000  1
  Cu  Cu7  1  0.31455884  0.18544116  0.75000000  1
