# generated using pymatgen
data_Li2CuPO4
_symmetry_space_group_name_H-M   'P 1'
_cell_length_a   6.15712397
_cell_length_b   5.45130039
_cell_length_c   5.05224385
_cell_angle_alpha   89.64666723
_cell_angle_beta   90.00000000
_cell_angle_gamma   90.00000000
_symmetry_Int_Tables_number   1
_chemical_formula_structural   Li2CuPO4
_chemical_formula_sum   'Li4 Cu2 P2 O8'
_cell_volume   169.57196673
_cell_formula_units_Z   2
loop_
 _symmetry_equiv_pos_site_id
 _symmetry_equiv_pos_as_xyz
  1  'x, y, z'
loop_
 _atom_site_type_symbol
 _atom_site_label
 _atom_site_symmetry_multiplicity
 _atom_site_fract_x
 _atom_site_fract_y
 _atom_site_fract_z
 _atom_site_occupancy
  Li  Li0  1  0.00000000  0.15385974  0.49072384  1
  Li  Li1  1  0.25287172  0.67326288  0.49053940  1
  Li  Li2  1  0.50000000  0.84502699  0.99504356  1
  Li  Li3  1  0.74712828  0.67326288  0.49053940  1
  Cu  Cu4  1  0.24137907  0.34118402  0.00393651  1
  Cu  Cu5  1  0.75862093  0.34118402  0.00393651  1
  P  P6  1  0.00000000  0.82455972  0.99502943  1
  P  P7  1  0.50000000  0.16625356  0.49977283  1
  O  O8  1  0.00000000  0.09060714  0.88082800  1
  O  O9  1  0.00000000  0.82201804  0.30326381  1
  O  O10  1  0.20950111  0.69715881  0.88647146  1
  O  O11  1  0.29229932  0.31060139  0.41036535  1
  O  O12  1  0.50000000  0.15254212  0.80771298  1
  O  O13  1  0.50000000  0.90071751  0.38759211  1
  O  O14  1  0.70770068  0.31060139  0.41036535  1
  O  O15  1  0.79049889  0.69715881  0.88647146  1
