# generated using pymatgen
data_Li4Bi2S7
_symmetry_space_group_name_H-M   'P 1'
_cell_length_a   6.17140847
_cell_length_b   12.55870218
_cell_length_c   7.47245976
_cell_angle_alpha   90.00000000
_cell_angle_beta   99.90087473
_cell_angle_gamma   90.00000000
_symmetry_Int_Tables_number   1
_chemical_formula_structural   Li4Bi2S7
_chemical_formula_sum   'Li8 Bi4 S14'
_cell_volume   570.52661891
_cell_formula_units_Z   2
loop_
 _symmetry_equiv_pos_site_id
 _symmetry_equiv_pos_as_xyz
  1  'x, y, z'
loop_
 _atom_site_type_symbol
 _atom_site_label
 _atom_site_symmetry_multiplicity
 _atom_site_fract_x
 _atom_site_fract_y
 _atom_site_fract_z
 _atom_site_occupancy
  Li  Li0  1  0.16583124  0.61211804  0.52425262  1
  Li  Li1  1  0.16835533  0.83322706  0.87975114  1
  Li  Li2  1  0.33164467  0.33322706  0.62024886  1
  Li  Li3  1  0.33416876  0.11211804  0.97574738  1
  Li  Li4  1  0.66583124  0.88788196  0.02425262  1
  Li  Li5  1  0.66835533  0.66677294  0.37975114  1
  Li  Li6  1  0.83164467  0.16677294  0.12024886  1
  Li  Li7  1  0.83416876  0.38788196  0.47574738  1
  Bi  Bi8  1  0.21001590  0.97335332  0.35981154  1
  Bi  Bi9  1  0.28998410  0.47335332  0.14018846  1
  Bi  Bi10  1  0.71001590  0.52664668  0.85981154  1
  Bi  Bi11  1  0.78998410  0.02664668  0.64018846  1
  S  S12  1  0.80256810  0.23589736  0.70526143  1
  S  S13  1  0.08872720  0.22894276  0.38504975  1
  S  S14  1  0.00000000  0.00000000  0.00000000  1
  S  S15  1  0.07442470  0.48579261  0.76156028  1
  S  S16  1  0.42557530  0.98579261  0.73843972  1
  S  S17  1  0.69743190  0.73589736  0.79473857  1
  S  S18  1  0.58872720  0.27105724  0.88504975  1
  S  S19  1  0.50000000  0.50000000  0.50000000  1
  S  S20  1  0.41127280  0.72894276  0.11495025  1
  S  S21  1  0.30256810  0.26410264  0.20526143  1
  S  S22  1  0.57442470  0.01420739  0.26156028  1
  S  S23  1  0.92557530  0.51420739  0.23843972  1
  S  S24  1  0.91127280  0.77105724  0.61495025  1
  S  S25  1  0.19743190  0.76410264  0.29473857  1
