# generated using pymatgen
data_YIO
_symmetry_space_group_name_H-M   'P 1'
_cell_length_a   11.06656684
_cell_length_b   11.06656684
_cell_length_c   11.06656677
_cell_angle_alpha   20.54238946
_cell_angle_beta   20.54238946
_cell_angle_gamma   20.54239248
_symmetry_Int_Tables_number   1
_chemical_formula_structural   YIO
_chemical_formula_sum   'Y2 I2 O2'
_cell_volume   146.07061526
_cell_formula_units_Z   2
loop_
 _symmetry_equiv_pos_site_id
 _symmetry_equiv_pos_as_xyz
  1  'x, y, z'
loop_
 _atom_site_type_symbol
 _atom_site_label
 _atom_site_symmetry_multiplicity
 _atom_site_fract_x
 _atom_site_fract_y
 _atom_site_fract_z
 _atom_site_occupancy
  Y  Y0  1  0.28979316  0.28979316  0.28979316  1
  Y  Y1  1  0.71020684  0.71020684  0.71020684  1
  I  I2  1  0.11095820  0.11095820  0.11095820  1
  I  I3  1  0.88904180  0.88904180  0.88904180  1
  O  O4  1  0.36001314  0.36001314  0.36001314  1
  O  O5  1  0.63998686  0.63998686  0.63998686  1
