# generated using pymatgen
data_Li2Ti2S5
_symmetry_space_group_name_H-M   'P 1'
_cell_length_a   6.12541727
_cell_length_b   6.12541727
_cell_length_c   11.91771951
_cell_angle_alpha   68.75103973
_cell_angle_beta   111.24896027
_cell_angle_gamma   118.90489053
_symmetry_Int_Tables_number   1
_chemical_formula_structural   Li2Ti2S5
_chemical_formula_sum   'Li4 Ti4 S10'
_cell_volume   355.10510800
_cell_formula_units_Z   2
loop_
 _symmetry_equiv_pos_site_id
 _symmetry_equiv_pos_as_xyz
  1  'x, y, z'
loop_
 _atom_site_type_symbol
 _atom_site_label
 _atom_site_symmetry_multiplicity
 _atom_site_fract_x
 _atom_site_fract_y
 _atom_site_fract_z
 _atom_site_occupancy
  Li  Li0  1  0.17545910  0.55614784  0.67551566  1
  Li  Li1  1  0.44385216  0.82454090  0.17551566  1
  Li  Li2  1  0.55614784  0.17545910  0.82448434  1
  Li  Li3  1  0.82454090  0.44385216  0.32448434  1
  Ti  Ti4  1  0.75087459  0.92736234  0.55782512  1
  Ti  Ti5  1  0.92736234  0.75087459  0.94217488  1
  Ti  Ti6  1  0.07263766  0.24912541  0.05782512  1
  Ti  Ti7  1  0.24912541  0.07263766  0.44217488  1
  S  S8  1  0.28569539  0.71218006  0.96096697  1
  S  S9  1  0.28781994  0.71430461  0.46096697  1
  S  S10  1  0.02087389  0.18745296  0.86243673  1
  S  S11  1  0.64390832  0.64390832  0.75000000  1
  S  S12  1  0.18745296  0.02087389  0.63756327  1
  S  S13  1  0.81254704  0.97912611  0.36243673  1
  S  S14  1  0.35609168  0.35609168  0.25000000  1
  S  S15  1  0.97912611  0.81254704  0.13756327  1
  S  S16  1  0.71218006  0.28569539  0.53903303  1
  S  S17  1  0.71430461  0.28781994  0.03903303  1
