# generated using pymatgen
data_LiSnPO4
_symmetry_space_group_name_H-M   'P 1'
_cell_length_a   7.72109786
_cell_length_b   13.56622696
_cell_length_c   7.39081994
_cell_angle_alpha   90.00000000
_cell_angle_beta   90.00000000
_cell_angle_gamma   90.00000000
_symmetry_Int_Tables_number   1
_chemical_formula_structural   LiSnPO4
_chemical_formula_sum   'Li8 Sn8 P8 O32'
_cell_volume   774.16005194
_cell_formula_units_Z   8
loop_
 _symmetry_equiv_pos_site_id
 _symmetry_equiv_pos_as_xyz
  1  'x, y, z'
loop_
 _atom_site_type_symbol
 _atom_site_label
 _atom_site_symmetry_multiplicity
 _atom_site_fract_x
 _atom_site_fract_y
 _atom_site_fract_z
 _atom_site_occupancy
  Li  Li0  1  0.16245592  0.23064731  0.16482648  1
  Li  Li1  1  0.16245592  0.26935269  0.66482648  1
  Li  Li2  1  0.33754408  0.73064731  0.16482648  1
  Li  Li3  1  0.33754408  0.76935269  0.66482648  1
  Li  Li4  1  0.66245592  0.23064731  0.33517352  1
  Li  Li5  1  0.66245592  0.26935269  0.83517352  1
  Li  Li6  1  0.83754408  0.73064731  0.33517352  1
  Li  Li7  1  0.83754408  0.76935269  0.83517352  1
  Sn  Sn8  1  0.19056799  0.54975627  0.43547800  1
  Sn  Sn9  1  0.19056799  0.95024373  0.93547800  1
  Sn  Sn10  1  0.30943201  0.04975627  0.43547800  1
  Sn  Sn11  1  0.30943201  0.45024373  0.93547800  1
  Sn  Sn12  1  0.69056799  0.54975627  0.06452200  1
  Sn  Sn13  1  0.69056799  0.95024373  0.56452200  1
  Sn  Sn14  1  0.80943201  0.04975627  0.06452200  1
  Sn  Sn15  1  0.80943201  0.45024373  0.56452200  1
  P  P16  1  0.09922394  0.63737303  0.90382198  1
  P  P17  1  0.09922394  0.86262697  0.40382198  1
  P  P18  1  0.40077606  0.13737303  0.90382198  1
  P  P19  1  0.40077606  0.36262697  0.40382198  1
  P  P20  1  0.59922394  0.63737303  0.59617802  1
  P  P21  1  0.59922394  0.86262697  0.09617802  1
  P  P22  1  0.90077606  0.13737303  0.59617802  1
  P  P23  1  0.90077606  0.36262697  0.09617802  1
  O  O24  1  0.88429285  0.04860788  0.73263510  1
  O  O25  1  0.88429285  0.45139212  0.23263510  1
  O  O26  1  0.13305286  0.76260624  0.31517701  1
  O  O27  1  0.13305286  0.73739376  0.81517701  1
  O  O28  1  0.09046701  0.14278250  0.52018207  1
  O  O29  1  0.09046701  0.35721750  0.02018207  1
  O  O30  1  0.23370812  0.60970631  0.05456646  1
  O  O31  1  0.23370812  0.89029369  0.55456646  1
  O  O32  1  0.26629188  0.10970631  0.05456646  1
  O  O33  1  0.26629188  0.39029369  0.55456646  1
  O  O34  1  0.40953299  0.64278250  0.52018207  1
  O  O35  1  0.40953299  0.85721750  0.02018207  1
  O  O36  1  0.36694714  0.23739376  0.81517701  1
  O  O37  1  0.36694714  0.26260624  0.31517701  1
  O  O38  1  0.61570715  0.54860788  0.73263510  1
  O  O39  1  0.61570715  0.95139212  0.23263510  1
  O  O40  1  0.38429285  0.45139212  0.26736490  1
  O  O41  1  0.38429285  0.04860788  0.76736490  1
  O  O42  1  0.63305286  0.73739376  0.68482299  1
  O  O43  1  0.63305286  0.76260624  0.18482299  1
  O  O44  1  0.59046701  0.14278250  0.97981793  1
  O  O45  1  0.59046701  0.35721750  0.47981793  1
  O  O46  1  0.73370812  0.60970631  0.44543354  1
  O  O47  1  0.73370812  0.89029369  0.94543354  1
  O  O48  1  0.76629188  0.10970631  0.44543354  1
  O  O49  1  0.76629188  0.39029369  0.94543354  1
  O  O50  1  0.90953299  0.64278250  0.97981793  1
  O  O51  1  0.90953299  0.85721750  0.47981793  1
  O  O52  1  0.86694714  0.23739376  0.68482299  1
  O  O53  1  0.86694714  0.26260624  0.18482299  1
  O  O54  1  0.11570715  0.54860788  0.76736490  1
  O  O55  1  0.11570715  0.95139212  0.26736490  1
