# generated using pymatgen
data_Ba4HfO6
_symmetry_space_group_name_H-M   'P 1'
_cell_length_a   7.47476694
_cell_length_b   7.47476694
_cell_length_c   7.47476629
_cell_angle_alpha   89.51860922
_cell_angle_beta   89.51860922
_cell_angle_gamma   89.51860986
_symmetry_Int_Tables_number   1
_chemical_formula_structural   Ba4HfO6
_chemical_formula_sum   'Ba8 Hf2 O12'
_cell_volume   417.58721927
_cell_formula_units_Z   2
loop_
 _symmetry_equiv_pos_site_id
 _symmetry_equiv_pos_as_xyz
  1  'x, y, z'
loop_
 _atom_site_type_symbol
 _atom_site_label
 _atom_site_symmetry_multiplicity
 _atom_site_fract_x
 _atom_site_fract_y
 _atom_site_fract_z
 _atom_site_occupancy
  Ba  Ba0  1  0.11436284  0.75000000  0.38563716  1
  Ba  Ba1  1  0.25000000  0.61436284  0.88563716  1
  Ba  Ba2  1  0.61436284  0.88563716  0.25000000  1
  Ba  Ba3  1  0.25000000  0.25000000  0.25000000  1
  Ba  Ba4  1  0.75000000  0.75000000  0.75000000  1
  Ba  Ba5  1  0.38563716  0.11436284  0.75000000  1
  Ba  Ba6  1  0.75000000  0.38563716  0.11436284  1
  Ba  Ba7  1  0.88563716  0.25000000  0.61436284  1
  Hf  Hf8  1  0.50000000  0.50000000  0.50000000  1
  Hf  Hf9  1  0.00000000  0.00000000  0.00000000  1
  O  O10  1  0.05759345  0.92673714  0.72997333  1
  O  O11  1  0.27002667  0.94240655  0.07326286  1
  O  O12  1  0.44240655  0.77002667  0.57326286  1
  O  O13  1  0.07326286  0.27002667  0.94240655  1
  O  O14  1  0.22997333  0.42673714  0.55759345  1
  O  O15  1  0.42673714  0.55759345  0.22997333  1
  O  O16  1  0.57326286  0.44240655  0.77002667  1
  O  O17  1  0.77002667  0.57326286  0.44240655  1
  O  O18  1  0.92673714  0.72997333  0.05759345  1
  O  O19  1  0.55759345  0.22997333  0.42673714  1
  O  O20  1  0.72997333  0.05759345  0.92673714  1
  O  O21  1  0.94240655  0.07326286  0.27002667  1
