# generated using pymatgen
data_Ba2LaI7
_symmetry_space_group_name_H-M   'P 1'
_cell_length_a   9.29315816
_cell_length_b   10.34785316
_cell_length_c   11.23072188
_cell_angle_alpha   114.26521208
_cell_angle_beta   114.43988241
_cell_angle_gamma   63.31802151
_symmetry_Int_Tables_number   1
_chemical_formula_structural   Ba2LaI7
_chemical_formula_sum   'Ba4 La2 I14'
_cell_volume   844.19099244
_cell_formula_units_Z   2
loop_
 _symmetry_equiv_pos_site_id
 _symmetry_equiv_pos_as_xyz
  1  'x, y, z'
loop_
 _atom_site_type_symbol
 _atom_site_label
 _atom_site_symmetry_multiplicity
 _atom_site_fract_x
 _atom_site_fract_y
 _atom_site_fract_z
 _atom_site_occupancy
  Ba  Ba0  1  0.70456187  0.90915632  0.30665753  1
  Ba  Ba1  1  0.30706067  0.59084368  0.19334247  1
  Ba  Ba2  1  0.69293933  0.40915632  0.80665753  1
  Ba  Ba3  1  0.29543813  0.09084368  0.69334247  1
  La  La4  1  0.98661044  0.75000000  0.75000000  1
  La  La5  1  0.01338956  0.25000000  0.25000000  1
  I  I6  1  0.93141711  0.90303306  0.07895256  1
  I  I7  1  0.31919835  0.95904215  0.35248940  1
  I  I8  1  0.11781864  0.79730588  0.53813411  1
  I  I9  1  0.61919939  0.75000000  0.75000000  1
  I  I10  1  0.92575109  0.54095785  0.14751060  1
  I  I11  1  0.75549761  0.59696694  0.42104744  1
  I  I12  1  0.37699041  0.70269412  0.96186589  1
  I  I13  1  0.62300959  0.29730588  0.03813411  1
  I  I14  1  0.24450239  0.40303306  0.57895256  1
  I  I15  1  0.07424891  0.45904215  0.85248940  1
  I  I16  1  0.38080061  0.25000000  0.25000000  1
  I  I17  1  0.88218136  0.20269412  0.46186589  1
  I  I18  1  0.68080165  0.04095785  0.64751060  1
  I  I19  1  0.06858289  0.09696694  0.92104744  1
