# generated using pymatgen
data_LiTi(PO3)4
_symmetry_space_group_name_H-M   'P 1'
_cell_length_a   5.27033863
_cell_length_b   10.51518474
_cell_length_c   10.51518474
_cell_angle_alpha   70.20668352
_cell_angle_beta   99.05130699
_cell_angle_gamma   99.05130699
_symmetry_Int_Tables_number   1
_chemical_formula_structural   LiTi(PO3)4
_chemical_formula_sum   'Li2 Ti2 P8 O24'
_cell_volume   538.07584186
_cell_formula_units_Z   2
loop_
 _symmetry_equiv_pos_site_id
 _symmetry_equiv_pos_as_xyz
  1  'x, y, z'
loop_
 _atom_site_type_symbol
 _atom_site_label
 _atom_site_symmetry_multiplicity
 _atom_site_fract_x
 _atom_site_fract_y
 _atom_site_fract_z
 _atom_site_occupancy
  Li  Li0  1  0.36453329  0.43453536  0.43453536  1
  Li  Li1  1  0.63546671  0.56546464  0.56546464  1
  Ti  Ti2  1  0.00000000  0.50000000  0.00000000  1
  Ti  Ti3  1  0.00000000  0.00000000  0.50000000  1
  P  P4  1  0.17257077  0.36629053  0.78454262  1
  P  P5  1  0.17257077  0.78454262  0.36629053  1
  P  P6  1  0.53741901  0.93693544  0.69526342  1
  P  P7  1  0.53741901  0.69526342  0.93693544  1
  P  P8  1  0.46258099  0.06306456  0.30473658  1
  P  P9  1  0.46258099  0.30473658  0.06306456  1
  P  P10  1  0.82742923  0.21545738  0.63370947  1
  P  P11  1  0.82742923  0.63370947  0.21545738  1
  O  O12  1  0.00000000  0.22783634  0.77216366  1
  O  O13  1  0.00000000  0.77216366  0.22783634  1
  O  O14  1  0.24751597  0.66431331  0.91736742  1
  O  O15  1  0.24751597  0.91736742  0.66431331  1
  O  O16  1  0.99838609  0.17094289  0.55711317  1
  O  O17  1  0.99838609  0.55711317  0.17094289  1
  O  O18  1  0.31375799  0.43632646  0.66328306  1
  O  O19  1  0.31375799  0.66328306  0.43632646  1
  O  O20  1  0.37653881  0.91391688  0.29678263  1
  O  O21  1  0.37653881  0.29678263  0.91391688  1
  O  O22  1  0.61488328  0.85101562  0.85101562  1
  O  O23  1  0.30811900  0.09916578  0.39398923  1
  O  O24  1  0.30811900  0.39398923  0.09916578  1
  O  O25  1  0.69188100  0.60601077  0.90083422  1
  O  O26  1  0.69188100  0.90083422  0.60601077  1
  O  O27  1  0.38511672  0.14898438  0.14898438  1
  O  O28  1  0.62346119  0.08608312  0.70321737  1
  O  O29  1  0.62346119  0.70321737  0.08608312  1
  O  O30  1  0.68624201  0.33671694  0.56367354  1
  O  O31  1  0.68624201  0.56367354  0.33671694  1
  O  O32  1  0.00161391  0.44288683  0.82905711  1
  O  O33  1  0.00161391  0.82905711  0.44288683  1
  O  O34  1  0.75248403  0.08263258  0.33568669  1
  O  O35  1  0.75248403  0.33568669  0.08263258  1
