# generated using pymatgen
data_Ga2HgO4
_symmetry_space_group_name_H-M   'P 1'
_cell_length_a   9.80408694
_cell_length_b   12.61596894
_cell_length_c   2.95547606
_cell_angle_alpha   90.00000000
_cell_angle_beta   90.00000000
_cell_angle_gamma   90.00000000
_symmetry_Int_Tables_number   1
_chemical_formula_structural   Ga2HgO4
_chemical_formula_sum   'Ga8 Hg4 O16'
_cell_volume   365.55708936
_cell_formula_units_Z   4
loop_
 _symmetry_equiv_pos_site_id
 _symmetry_equiv_pos_as_xyz
  1  'x, y, z'
loop_
 _atom_site_type_symbol
 _atom_site_label
 _atom_site_symmetry_multiplicity
 _atom_site_fract_x
 _atom_site_fract_y
 _atom_site_fract_z
 _atom_site_occupancy
  Ga  Ga0  1  0.12217146  0.71373828  0.75000000  1
  Ga  Ga1  1  0.10859644  0.12910023  0.75000000  1
  Ga  Ga2  1  0.39140356  0.62910023  0.25000000  1
  Ga  Ga3  1  0.37782854  0.21373828  0.25000000  1
  Ga  Ga4  1  0.62217146  0.78626172  0.75000000  1
  Ga  Ga5  1  0.60859644  0.37089977  0.75000000  1
  Ga  Ga6  1  0.89140356  0.87089977  0.25000000  1
  Ga  Ga7  1  0.87782854  0.28626172  0.25000000  1
  Hg  Hg8  1  0.15437532  0.43843237  0.75000000  1
  Hg  Hg9  1  0.34562468  0.93843237  0.25000000  1
  Hg  Hg10  1  0.65437532  0.06156763  0.75000000  1
  Hg  Hg11  1  0.84562468  0.56156763  0.25000000  1
  O  O12  1  0.00969136  0.83408266  0.75000000  1
  O  O13  1  0.96147541  0.37037762  0.75000000  1
  O  O14  1  0.25144280  0.73963595  0.25000000  1
  O  O15  1  0.31458065  0.54401828  0.75000000  1
  O  O16  1  0.18541935  0.04401828  0.25000000  1
  O  O17  1  0.24855720  0.23963595  0.75000000  1
  O  O18  1  0.53852459  0.87037762  0.25000000  1
  O  O19  1  0.49030864  0.33408266  0.25000000  1
  O  O20  1  0.50969136  0.66591734  0.75000000  1
  O  O21  1  0.46147541  0.12962238  0.75000000  1
  O  O22  1  0.75144280  0.76036405  0.25000000  1
  O  O23  1  0.81458165  0.95598172  0.75000000  1
  O  O24  1  0.68541835  0.45598172  0.25000000  1
  O  O25  1  0.74855720  0.26036405  0.75000000  1
  O  O26  1  0.03852459  0.62962238  0.25000000  1
  O  O27  1  0.99030864  0.16591734  0.25000000  1
