# generated using pymatgen
data_DyTe3O8
_symmetry_space_group_name_H-M   'P 1'
_cell_length_a   6.87175239
_cell_length_b   6.87175239
_cell_length_c   10.53490717
_cell_angle_alpha   66.12323506
_cell_angle_beta   113.87676494
_cell_angle_gamma   131.71963808
_symmetry_Int_Tables_number   1
_chemical_formula_structural   DyTe3O8
_chemical_formula_sum   'Dy2 Te6 O16'
_cell_volume   332.78942905
_cell_formula_units_Z   2
loop_
 _symmetry_equiv_pos_site_id
 _symmetry_equiv_pos_as_xyz
  1  'x, y, z'
loop_
 _atom_site_type_symbol
 _atom_site_label
 _atom_site_symmetry_multiplicity
 _atom_site_fract_x
 _atom_site_fract_y
 _atom_site_fract_z
 _atom_site_occupancy
  Dy  Dy0  1  0.56080397  0.56080397  0.75000000  1
  Dy  Dy1  1  0.43919603  0.43919603  0.25000000  1
  Te  Te2  1  0.30745387  0.86641212  0.85728018  1
  Te  Te3  1  0.13358788  0.69254613  0.35728018  1
  Te  Te4  1  0.00000000  0.00000000  0.50000000  1
  Te  Te5  1  0.00000000  0.00000000  0.00000000  1
  Te  Te6  1  0.86641212  0.30745387  0.64271982  1
  Te  Te7  1  0.69254613  0.13358788  0.14271982  1
  O  O8  1  0.99462310  0.78369461  0.90528545  1
  O  O9  1  0.21630539  0.00537690  0.40528545  1
  O  O10  1  0.63469469  0.86033338  0.86794553  1
  O  O11  1  0.21476884  0.57016298  0.58516144  1
  O  O12  1  0.15308290  0.32162458  0.82978915  1
  O  O13  1  0.13966662  0.36530531  0.36794553  1
  O  O14  1  0.42983702  0.78523116  0.08516144  1
  O  O15  1  0.67837542  0.84691710  0.32978915  1
  O  O16  1  0.32162458  0.15308290  0.67021085  1
  O  O17  1  0.57016298  0.21476884  0.91483856  1
  O  O18  1  0.86033338  0.63469469  0.63205447  1
  O  O19  1  0.84691710  0.67837542  0.17021085  1
  O  O20  1  0.78523116  0.42983702  0.41483856  1
  O  O21  1  0.36530531  0.13966662  0.13205447  1
  O  O22  1  0.78369461  0.99462310  0.59471455  1
  O  O23  1  0.00537690  0.21630539  0.09471455  1
