# generated using pymatgen
data_Li3Sn3(PO4)4
_symmetry_space_group_name_H-M   'P 1'
_cell_length_a   13.40109803
_cell_length_b   8.63413594
_cell_length_c   9.23073243
_cell_angle_alpha   89.02341444
_cell_angle_beta   87.43295606
_cell_angle_gamma   90.76337495
_symmetry_Int_Tables_number   1
_chemical_formula_structural   Li3Sn3(PO4)4
_chemical_formula_sum   'Li9 Sn9 P12 O48'
_cell_volume   1066.72657365
_cell_formula_units_Z   3
loop_
 _symmetry_equiv_pos_site_id
 _symmetry_equiv_pos_as_xyz
  1  'x, y, z'
loop_
 _atom_site_type_symbol
 _atom_site_label
 _atom_site_symmetry_multiplicity
 _atom_site_fract_x
 _atom_site_fract_y
 _atom_site_fract_z
 _atom_site_occupancy
  Li  Li0  1  0.15942986  0.85711631  0.23585929  1
  Li  Li1  1  0.51203588  0.14343143  0.10248112  1
  Li  Li2  1  0.15936996  0.61529943  0.73801506  1
  Li  Li3  1  0.49715905  0.61926198  0.40591240  1
  Li  Li4  1  0.82617616  0.64096422  0.05242422  1
  Li  Li5  1  0.16794041  0.37480548  0.92564802  1
  Li  Li6  1  0.50674252  0.37697665  0.59554533  1
  Li  Li7  1  0.82159288  0.87815712  0.57518067  1
  Li  Li8  1  0.84149172  0.12316909  0.76103484  1
  Sn  Sn9  1  0.16234012  0.51814544  0.34404424  1
  Sn  Sn10  1  0.50424314  0.48853060  0.99315845  1
  Sn  Sn11  1  0.19145465  0.12937749  0.44945311  1
  Sn  Sn12  1  0.16264362  0.99612309  0.82730627  1
  Sn  Sn13  1  0.50419590  0.99757769  0.50083199  1
  Sn  Sn14  1  0.82812595  0.99192304  0.16600514  1
  Sn  Sn15  1  0.87718535  0.37544839  0.28303003  1
  Sn  Sn16  1  0.47407723  0.87537865  0.88154957  1
  Sn  Sn17  1  0.83256070  0.50118482  0.67140923  1
  P  P18  1  0.06296414  0.17239724  0.13617736  1
  P  P19  1  0.26748544  0.69716118  0.01617637  1
  P  P20  1  0.04190142  0.30018443  0.66256268  1
  P  P21  1  0.40322642  0.29799147  0.31141074  1
  P  P22  1  0.28405442  0.80120980  0.53188743  1
  P  P23  1  0.60292056  0.81559440  0.18893240  1
  P  P24  1  0.38457429  0.19932850  0.80358293  1
  P  P25  1  0.72198534  0.18776226  0.48620956  1
  P  P26  1  0.62015353  0.69138983  0.67241213  1
  P  P27  1  0.93603640  0.71947659  0.35578503  1
  P  P28  1  0.73238935  0.30656782  0.98327554  1
  P  P29  1  0.93833363  0.81022776  0.85156268  1
  O  O30  1  0.24106242  0.87199543  0.98077627  1
  O  O31  1  0.08296224  0.34662929  0.14358093  1
  O  O32  1  0.11803583  0.07262461  0.24611295  1
  O  O33  1  0.04863249  0.74046548  0.33449006  1
  O  O34  1  0.23704479  0.67435467  0.17761317  1
  O  O35  1  0.05625798  0.32260636  0.49674489  1
  O  O36  1  0.43500936  0.33434107  0.15003208  1
  O  O37  1  0.28727675  0.29786139  0.31884536  1
  O  O38  1  0.24204530  0.88522289  0.40049997  1
  O  O39  1  0.61853453  0.29723480  0.01938443  1
  O  O40  1  0.55161065  0.92688548  0.08356559  1
  O  O41  1  0.24944489  0.63187619  0.54635578  1
  O  O42  1  0.06774261  0.12606738  0.69707445  1
  O  O43  1  0.56692897  0.64596742  0.18008342  1
  O  O44  1  0.43892858  0.12462235  0.33593821  1
  O  O45  1  0.09867860  0.41452846  0.75078867  1
  O  O46  1  0.05573314  0.81071439  0.82889051  1
  O  O47  1  0.44771578  0.41081598  0.41436109  1
  O  O48  1  0.40220001  0.81207287  0.51570980  1
  O  O49  1  0.78644508  0.41860318  0.08355672  1
  O  O50  1  0.24988080  0.88370812  0.67558094  1
  O  O51  1  0.71957446  0.82298451  0.15277174  1
  O  O52  1  0.58390657  0.86835699  0.34754615  1
  O  O53  1  0.90868618  0.85016369  0.01435063  1
  O  O54  1  0.08889509  0.12047583  0.98085588  1
  O  O55  1  0.41950486  0.12060951  0.65754561  1
  O  O56  1  0.26743333  0.18769457  0.81925467  1
  O  O57  1  0.74841540  0.14879090  0.32020002  1
  O  O58  1  0.22022416  0.58244487  0.91799815  1
  O  O59  1  0.60511158  0.18292540  0.51184633  1
  O  O60  1  0.56561902  0.57841485  0.58096317  1
  O  O61  1  0.94591217  0.14608025  0.16286661  1
  O  O62  1  0.89122383  0.62470891  0.23346223  1
  O  O63  1  0.59494057  0.86600784  0.63993661  1
  O  O64  1  0.42275439  0.36974860  0.79566230  1
  O  O65  1  0.88100849  0.88087026  0.35513005  1
  O  O66  1  0.75486289  0.36337695  0.50661291  1
  O  O67  1  0.42915447  0.11649612  0.93446335  1
  O  O68  1  0.38570661  0.68510034  0.00365359  1
  O  O69  1  0.77224982  0.08082510  0.58839196  1
  O  O70  1  0.73692345  0.68232347  0.64137176  1
  O  O71  1  0.60047565  0.66314117  0.83955892  1
  O  O72  1  0.91232799  0.63496120  0.50609217  1
  O  O73  1  0.74652235  0.36368936  0.82202429  1
  O  O74  1  0.92511512  0.31543866  0.70003383  1
  O  O75  1  0.89052987  0.91846558  0.74713777  1
  O  O76  1  0.89929830  0.63653407  0.83693217  1
  O  O77  1  0.77666352  0.13800702  0.99449202  1
