# generated using pymatgen
data_LiCu2(CO3)2
_symmetry_space_group_name_H-M   'P 1'
_cell_length_a   6.53184214
_cell_length_b   5.03984889
_cell_length_c   5.03109845
_cell_angle_alpha   59.88778601
_cell_angle_beta   111.48328039
_cell_angle_gamma   89.77132883
_symmetry_Int_Tables_number   1
_chemical_formula_structural   LiCu2(CO3)2
_chemical_formula_sum   'Li1 Cu2 C2 O6'
_cell_volume   129.63977475
_cell_formula_units_Z   1
loop_
 _symmetry_equiv_pos_site_id
 _symmetry_equiv_pos_as_xyz
  1  'x, y, z'
loop_
 _atom_site_type_symbol
 _atom_site_label
 _atom_site_symmetry_multiplicity
 _atom_site_fract_x
 _atom_site_fract_y
 _atom_site_fract_z
 _atom_site_occupancy
  Li  Li0  1  0.65007325  0.63552348  0.42398950  1
  Cu  Cu1  1  0.22706878  0.74887994  0.84238152  1
  Cu  Cu2  1  0.77931711  0.25715085  0.16668593  1
  C  C3  1  0.25444714  0.07300088  0.18273599  1
  C  C4  1  0.74743343  0.92909688  0.81444034  1
  O  O5  1  0.26644494  0.32782032  0.93737696  1
  O  O6  1  0.18444142  0.07972927  0.38985456  1
  O  O7  1  0.31634594  0.80372528  0.22386315  1
  O  O8  1  0.73670661  0.19807604  0.78485179  1
  O  O9  1  0.78728376  0.89172880  0.59740889  1
  O  O10  1  0.72095163  0.69073825  0.06067435  1
