# generated using pymatgen
data_LiCuPO4
_symmetry_space_group_name_H-M   'P 1'
_cell_length_a   10.30721151
_cell_length_b   6.17298031
_cell_length_c   4.79814705
_cell_angle_alpha   90.00000000
_cell_angle_beta   90.00000000
_cell_angle_gamma   90.00000000
_symmetry_Int_Tables_number   1
_chemical_formula_structural   LiCuPO4
_chemical_formula_sum   'Li4 Cu4 P4 O16'
_cell_volume   305.28792958
_cell_formula_units_Z   4
loop_
 _symmetry_equiv_pos_site_id
 _symmetry_equiv_pos_as_xyz
  1  'x, y, z'
loop_
 _atom_site_type_symbol
 _atom_site_label
 _atom_site_symmetry_multiplicity
 _atom_site_fract_x
 _atom_site_fract_y
 _atom_site_fract_z
 _atom_site_occupancy
  Li  Li0  1  0.21821961  0.75000000  0.46466074  1
  Li  Li1  1  0.28178039  0.25000000  0.96466074  1
  Li  Li2  1  0.71821961  0.75000000  0.03533926  1
  Li  Li3  1  0.78178039  0.25000000  0.53533926  1
  Cu  Cu4  1  0.00000000  0.00000000  0.00000000  1
  Cu  Cu5  1  0.00000000  0.50000000  0.00000000  1
  Cu  Cu6  1  0.50000000  0.00000000  0.50000000  1
  Cu  Cu7  1  0.50000000  0.50000000  0.50000000  1
  P  P8  1  0.09584002  0.25000000  0.39373569  1
  P  P9  1  0.40415998  0.75000000  0.89373569  1
  P  P10  1  0.59584002  0.25000000  0.10626431  1
  P  P11  1  0.90415998  0.75000000  0.60626431  1
  O  O12  1  0.04802287  0.75000000  0.73550609  1
  O  O13  1  0.10043693  0.25000000  0.71128629  1
  O  O14  1  0.15509460  0.04201459  0.26073864  1
  O  O15  1  0.15509460  0.45798541  0.26073864  1
  O  O16  1  0.34490540  0.54201459  0.76073864  1
  O  O17  1  0.34490540  0.95798541  0.76073864  1
  O  O18  1  0.39956307  0.75000000  0.21128629  1
  O  O19  1  0.45197713  0.25000000  0.23550609  1
  O  O20  1  0.54802287  0.75000000  0.76449391  1
  O  O21  1  0.60043693  0.25000000  0.78871371  1
  O  O22  1  0.65509460  0.04201459  0.23926136  1
  O  O23  1  0.65509460  0.45798541  0.23926136  1
  O  O24  1  0.84490540  0.54201459  0.73926136  1
  O  O25  1  0.84490540  0.95798541  0.73926136  1
  O  O26  1  0.89956307  0.75000000  0.28871371  1
  O  O27  1  0.95197713  0.25000000  0.26449391  1
