# generated using pymatgen
data_Li2Ti7Nb6O30
_symmetry_space_group_name_H-M   'P 1'
_cell_length_a   5.19335228
_cell_length_b   5.19334887
_cell_length_c   23.75020894
_cell_angle_alpha   90.00064149
_cell_angle_beta   90.00106204
_cell_angle_gamma   60.00012051
_symmetry_Int_Tables_number   1
_chemical_formula_structural   Li2Ti7Nb6O30
_chemical_formula_sum   'Li2 Ti7 Nb6 O30'
_cell_volume   554.74561023
_cell_formula_units_Z   1
loop_
 _symmetry_equiv_pos_site_id
 _symmetry_equiv_pos_as_xyz
  1  'x, y, z'
loop_
 _atom_site_type_symbol
 _atom_site_label
 _atom_site_symmetry_multiplicity
 _atom_site_fract_x
 _atom_site_fract_y
 _atom_site_fract_z
 _atom_site_occupancy
  Li  Li0  1  0.99998771  0.99998128  0.92438656  1
  Li  Li1  1  0.66667878  0.66668449  0.53098210  1
  Ti  Ti2  1  0.33330357  0.33331475  0.98317286  1
  Ti  Ti3  1  0.33333446  0.33332517  0.30680918  1
  Ti  Ti4  1  0.33333925  0.33336255  0.71605676  1
  Ti  Ti5  1  0.66666098  0.66671241  0.69330186  1
  Ti  Ti6  1  0.66668055  0.66665043  0.28312591  1
  Ti  Ti7  1  0.66664158  0.66663567  0.01226622  1
  Ti  Ti8  1  0.66668753  0.66668038  0.88660856  1
  Nb  Nb9  1  0.99999765  0.00000036  0.19956051  1
  Nb  Nb10  1  0.99999433  0.00004721  0.80005731  1
  Nb  Nb11  1  0.00000304  0.00002081  0.49906487  1
  Nb  Nb12  1  0.33333863  0.33331857  0.10938130  1
  Nb  Nb13  1  0.33333919  0.33336366  0.59183733  1
  Nb  Nb14  1  0.66666400  0.66667175  0.40666354  1
  O  O15  1  0.03020539  0.30063070  0.55014576  1
  O  O16  1  0.05042236  0.27854817  0.15331583  1
  O  O17  1  0.01476387  0.57687382  0.65407105  1
  O  O18  1  0.02101243  0.58630158  0.04737581  1
  O  O19  1  0.32810564  0.00122943  0.25285633  1
  O  O20  1  0.00125093  0.67063000  0.25285507  1
  O  O21  1  0.40836980  0.01479267  0.65406876  1
  O  O22  1  0.39262341  0.02099306  0.04737204  1
  O  O23  1  0.27857436  0.67097128  0.15331877  1
  O  O24  1  0.30062161  0.66922214  0.55015027  1
  O  O25  1  0.33023155  0.67073782  0.74694272  1
  O  O26  1  0.66921403  0.03022009  0.55015260  1
  O  O27  1  0.41983595  0.59512311  0.34520284  1
  O  O28  1  0.39224761  0.62942797  0.95000218  1
  O  O29  1  0.67100364  0.05038952  0.15331745  1
  O  O30  1  0.32648332  0.93744979  0.84853057  1
  O  O31  1  0.58633729  0.39259041  0.04737728  1
  O  O32  1  0.57685373  0.40839598  0.65407281  1
  O  O33  1  0.33729045  0.94455372  0.45262001  1
  O  O34  1  0.67066218  0.32808032  0.25285539  1
  O  O35  1  0.71814742  0.33731674  0.45262329  1
  O  O36  1  0.73604422  0.32650554  0.84852605  1
  O  O37  1  0.62944040  0.97825464  0.94999604  1
  O  O38  1  0.59514758  0.98500953  0.34520161  1
  O  O39  1  0.99906371  0.33024204  0.74694603  1
  O  O40  1  0.67073220  0.99906118  0.74694184  1
  O  O41  1  0.97823600  0.39226414  0.94999421  1
  O  O42  1  0.98503298  0.41982277  0.34520329  1
  O  O43  1  0.93742920  0.73607185  0.84852359  1
  O  O44  1  0.94452349  0.71817150  0.45262664  1
