# generated using pymatgen
data_LiCu(PO3)3
_symmetry_space_group_name_H-M   'P 1'
_cell_length_a   7.97869415
_cell_length_b   8.79089279
_cell_length_c   12.39129337
_cell_angle_alpha   90.00000000
_cell_angle_beta   90.00000000
_cell_angle_gamma   90.00000000
_symmetry_Int_Tables_number   1
_chemical_formula_structural   LiCu(PO3)3
_chemical_formula_sum   'Li4 Cu4 P12 O36'
_cell_volume   869.12339480
_cell_formula_units_Z   4
loop_
 _symmetry_equiv_pos_site_id
 _symmetry_equiv_pos_as_xyz
  1  'x, y, z'
loop_
 _atom_site_type_symbol
 _atom_site_label
 _atom_site_symmetry_multiplicity
 _atom_site_fract_x
 _atom_site_fract_y
 _atom_site_fract_z
 _atom_site_occupancy
  Li  Li0  1  0.00421520  0.36383226  0.99470852  1
  Li  Li1  1  0.49578480  0.63616774  0.49470852  1
  Li  Li2  1  0.50421520  0.13616774  0.00529148  1
  Li  Li3  1  0.99578480  0.86383226  0.50529148  1
  Cu  Cu4  1  0.16326566  0.20767954  0.62447242  1
  Cu  Cu5  1  0.33673434  0.79232046  0.12447242  1
  Cu  Cu6  1  0.66326566  0.29232046  0.37552758  1
  Cu  Cu7  1  0.83673434  0.70767954  0.87552758  1
  P  P8  1  0.19245666  0.00264194  0.32234243  1
  P  P9  1  0.17065868  0.49110471  0.18951517  1
  P  P10  1  0.22660227  0.68173162  0.88652477  1
  P  P11  1  0.27339773  0.31826838  0.38652477  1
  P  P12  1  0.32934132  0.50889529  0.68951517  1
  P  P13  1  0.30754334  0.99735806  0.82234243  1
  P  P14  1  0.69245666  0.49735806  0.67765757  1
  P  P15  1  0.67065868  0.00889429  0.81048483  1
  P  P16  1  0.72660227  0.81826838  0.11347523  1
  P  P17  1  0.77339773  0.18173162  0.61347523  1
  P  P18  1  0.82934132  0.99110471  0.31048483  1
  P  P19  1  0.80754334  0.50264194  0.17765757  1
  O  O20  1  0.99197195  0.57821144  0.18904889  1
  O  O21  1  0.06090858  0.59922584  0.89382607  1
  O  O22  1  0.15295333  0.39960707  0.30158311  1
  O  O23  1  0.20012412  0.38643348  0.70890712  1
  O  O24  1  0.19295134  0.84539833  0.83213892  1
  O  O25  1  0.23559447  0.93820602  0.21326483  1
  O  O26  1  0.20099844  0.90805983  0.42247637  1
  O  O27  1  0.18432129  0.38423214  0.09623923  1
  O  O28  1  0.16557732  0.30013090  0.48542330  1
  O  O29  1  0.33442268  0.69986910  0.98542330  1
  O  O30  1  0.31567871  0.61576786  0.59623923  1
  O  O31  1  0.29900156  0.09194017  0.92247637  1
  O  O32  1  0.26440553  0.06179398  0.71326483  1
  O  O33  1  0.30704866  0.15460167  0.33213892  1
  O  O34  1  0.29987588  0.61356652  0.20890712  1
  O  O35  1  0.34704667  0.60039293  0.80158311  1
  O  O36  1  0.43909142  0.40077416  0.39382607  1
  O  O37  1  0.50802805  0.42178856  0.68904889  1
  O  O38  1  0.49197195  0.92178856  0.81095111  1
  O  O39  1  0.56090858  0.90077416  0.10617393  1
  O  O40  1  0.65295333  0.10039293  0.69841689  1
  O  O41  1  0.70012412  0.11356652  0.29109188  1
  O  O42  1  0.69295134  0.65460167  0.16786108  1
  O  O43  1  0.73559447  0.56179398  0.78673517  1
  O  O44  1  0.70099844  0.59194017  0.57752363  1
  O  O45  1  0.68432129  0.11576786  0.90376077  1
  O  O46  1  0.66557732  0.19986910  0.51457670  1
  O  O47  1  0.83442268  0.80013090  0.01457670  1
  O  O48  1  0.81567871  0.88423214  0.40376077  1
  O  O49  1  0.79900156  0.40805983  0.07752363  1
  O  O50  1  0.76440553  0.43820602  0.28673517  1
  O  O51  1  0.80704866  0.34539833  0.66786108  1
  O  O52  1  0.79987588  0.88643348  0.79109288  1
  O  O53  1  0.84704667  0.89960707  0.19841689  1
  O  O54  1  0.93909142  0.09922584  0.60617393  1
  O  O55  1  0.00802805  0.07821144  0.31095111  1
