# generated using pymatgen
data_Ag2Hg5
_symmetry_space_group_name_H-M   'P 1'
_cell_length_a   10.26305470
_cell_length_b   10.26306196
_cell_length_c   3.09041858
_cell_angle_alpha   90.00000000
_cell_angle_beta   90.00000000
_cell_angle_gamma   90.00000000
_symmetry_Int_Tables_number   1
_chemical_formula_structural   Ag2Hg5
_chemical_formula_sum   'Ag4 Hg10'
_cell_volume   325.51492101
_cell_formula_units_Z   2
loop_
 _symmetry_equiv_pos_site_id
 _symmetry_equiv_pos_as_xyz
  1  'x, y, z'
loop_
 _atom_site_type_symbol
 _atom_site_label
 _atom_site_symmetry_multiplicity
 _atom_site_fract_x
 _atom_site_fract_y
 _atom_site_fract_z
 _atom_site_occupancy
  Ag  Ag0  1  0.18086767  0.68086767  0.50000000  1
  Ag  Ag1  1  0.31913233  0.18086767  0.50000000  1
  Ag  Ag2  1  0.68086767  0.81913233  0.50000000  1
  Ag  Ag3  1  0.81913233  0.31913233  0.50000000  1
  Hg  Hg4  1  0.00000000  0.50000000  0.00000000  1
  Hg  Hg5  1  0.06291444  0.20130086  0.00000000  1
  Hg  Hg6  1  0.20129986  0.93708556  0.00000000  1
  Hg  Hg7  1  0.29870014  0.43708556  0.00000000  1
  Hg  Hg8  1  0.43708556  0.70130086  0.00000000  1
  Hg  Hg9  1  0.50000000  0.00000000  0.00000000  1
  Hg  Hg10  1  0.56291444  0.29869914  0.00000000  1
  Hg  Hg11  1  0.70129986  0.56291444  0.00000000  1
  Hg  Hg12  1  0.79870014  0.06291444  0.00000000  1
  Hg  Hg13  1  0.93708556  0.79869914  0.00000000  1
