# generated using pymatgen
data_LiSb3(PO5)2
_symmetry_space_group_name_H-M   'P 1'
_cell_length_a   6.70651031
_cell_length_b   6.99527992
_cell_length_c   5.29698005
_cell_angle_alpha   70.17087328
_cell_angle_beta   94.58006171
_cell_angle_gamma   112.07276694
_symmetry_Int_Tables_number   1
_chemical_formula_structural   LiSb3(PO5)2
_chemical_formula_sum   'Li1 Sb3 P2 O10'
_cell_volume   216.31108297
_cell_formula_units_Z   1
loop_
 _symmetry_equiv_pos_site_id
 _symmetry_equiv_pos_as_xyz
  1  'x, y, z'
loop_
 _atom_site_type_symbol
 _atom_site_label
 _atom_site_symmetry_multiplicity
 _atom_site_fract_x
 _atom_site_fract_y
 _atom_site_fract_z
 _atom_site_occupancy
  Li  Li0  1  0.51347162  0.00161861  0.88939742  1
  Sb  Sb1  1  0.58500123  0.66261487  0.55973140  1
  Sb  Sb2  1  0.98680283  0.96521647  0.01513697  1
  Sb  Sb3  1  0.83489262  0.23444383  0.38449605  1
  P  P4  1  0.06967098  0.61917837  0.64997755  1
  P  P5  1  0.38047340  0.29149315  0.28896135  1
  O  O6  1  0.00140859  0.36508051  0.72222044  1
  O  O7  1  0.13197713  0.15671628  0.36048906  1
  O  O8  1  0.31639876  0.74308476  0.58684353  1
  O  O9  1  0.42531033  0.53875880  0.24423235  1
  O  O10  1  0.44714477  0.25806447  0.04439929  1
  O  O11  1  0.71451434  0.94766327  0.22053440  1
  O  O12  1  0.75028105  0.95870273  0.71941419  1
  O  O13  1  0.51075339  0.21305259  0.53596554  1
  O  O14  1  0.99641727  0.67272079  0.87558793  1
  O  O15  1  0.94590067  0.68369050  0.38691152  1
