# generated using pymatgen
data_Mg7Cu2O9
_symmetry_space_group_name_H-M   'P 1'
_cell_length_a   3.01345917
_cell_length_b   7.95351710
_cell_length_c   7.35498341
_cell_angle_alpha   89.90831757
_cell_angle_beta   90.02663109
_cell_angle_gamma   79.06109478
_symmetry_Int_Tables_number   1
_chemical_formula_structural   Mg7Cu2O9
_chemical_formula_sum   'Mg7 Cu2 O9'
_cell_volume   173.07800285
_cell_formula_units_Z   1
loop_
 _symmetry_equiv_pos_site_id
 _symmetry_equiv_pos_as_xyz
  1  'x, y, z'
loop_
 _atom_site_type_symbol
 _atom_site_label
 _atom_site_symmetry_multiplicity
 _atom_site_fract_x
 _atom_site_fract_y
 _atom_site_fract_z
 _atom_site_occupancy
  Mg  Mg0  1  0.55709437  0.88586008  0.66901038  1
  Mg  Mg1  1  0.10987379  0.78037640  0.33091625  1
  Mg  Mg2  1  0.88868026  0.22252617  0.66580120  1
  Mg  Mg3  1  0.66756807  0.66489823  0.99702490  1
  Mg  Mg4  1  0.77769910  0.44463258  0.33452168  1
  Mg  Mg5  1  0.33315921  0.33351103  0.99979995  1
  Mg  Mg6  1  0.99921196  0.00151572  0.00299217  1
  Cu  Cu7  1  0.22204793  0.55573231  0.66584296  1
  Cu  Cu8  1  0.44465188  0.11089193  0.33408392  1
  O  O9  1  0.10962718  0.78098908  0.83583831  1
  O  O10  1  0.66619598  0.66915479  0.49628075  1
  O  O11  1  0.77860929  0.44104514  0.83670739  1
  O  O12  1  0.55719891  0.88531869  0.16373598  1
  O  O13  1  0.44403109  0.11176601  0.83348811  1
  O  O14  1  0.33307967  0.33371700  0.50029174  1
  O  O15  1  0.22272771  0.55472655  0.16644574  1
  O  O16  1  0.00063773  0.99832903  0.50287761  1
  O  O17  1  0.88790487  0.22501026  0.16433997  1
