# generated using pymatgen
data_Li2Sn(PO3)5
_symmetry_space_group_name_H-M   'P 1'
_cell_length_a   5.41733213
_cell_length_b   13.76055813
_cell_length_c   8.98490530
_cell_angle_alpha   90.00000000
_cell_angle_beta   102.44829049
_cell_angle_gamma   90.00000000
_symmetry_Int_Tables_number   1
_chemical_formula_structural   Li2Sn(PO3)5
_chemical_formula_sum   'Li4 Sn2 P10 O30'
_cell_volume   654.03838448
_cell_formula_units_Z   2
loop_
 _symmetry_equiv_pos_site_id
 _symmetry_equiv_pos_as_xyz
  1  'x, y, z'
loop_
 _atom_site_type_symbol
 _atom_site_label
 _atom_site_symmetry_multiplicity
 _atom_site_fract_x
 _atom_site_fract_y
 _atom_site_fract_z
 _atom_site_occupancy
  Li  Li0  1  0.05754735  0.12812899  0.07873647  1
  Li  Li1  1  0.05754735  0.37187101  0.07873647  1
  Li  Li2  1  0.94245265  0.62812899  0.92126353  1
  Li  Li3  1  0.94245265  0.87187101  0.92126353  1
  Sn  Sn4  1  0.50000000  0.00000000  0.50000000  1
  Sn  Sn5  1  0.50000000  0.50000000  0.50000000  1
  P  P6  1  0.99297740  0.64415510  0.48398958  1
  P  P7  1  0.99297740  0.85584490  0.48398958  1
  P  P8  1  0.33409241  0.07891057  0.82105848  1
  P  P9  1  0.33409241  0.42108943  0.82105848  1
  P  P10  1  0.45869702  0.75000000  0.98581621  1
  P  P11  1  0.54130298  0.25000000  0.01418379  1
  P  P12  1  0.66590759  0.57891057  0.17894152  1
  P  P13  1  0.66590759  0.92108943  0.17894152  1
  P  P14  1  0.00702260  0.35584490  0.51601042  1
  P  P15  1  0.00702260  0.14415510  0.51601042  1
  O  O16  1  0.07466100  0.25000000  0.46251089  1
  O  O17  1  0.18009039  0.04340832  0.92913715  1
  O  O18  1  0.18009039  0.45659168  0.92913715  1
  O  O19  1  0.19743330  0.75000000  0.88691232  1
  O  O20  1  0.15495029  0.14408511  0.68997234  1
  O  O21  1  0.15495029  0.35591489  0.68997234  1
  O  O22  1  0.12342565  0.07461572  0.41943153  1
  O  O23  1  0.12342565  0.42538428  0.41943153  1
  O  O24  1  0.27244755  0.63750574  0.49034092  1
  O  O25  1  0.27244755  0.86249426  0.49034092  1
  O  O26  1  0.53977621  0.15858497  0.89776752  1
  O  O27  1  0.53977621  0.34141503  0.89776752  1
  O  O28  1  0.47555606  0.00575998  0.74487865  1
  O  O29  1  0.47555606  0.49424002  0.74487865  1
  O  O30  1  0.30336238  0.25000000  0.07475804  1
  O  O31  1  0.69663762  0.75000000  0.92524196  1
  O  O32  1  0.52444394  0.99424002  0.25512135  1
  O  O33  1  0.52444394  0.50575998  0.25512135  1
  O  O34  1  0.46022379  0.65858497  0.10223248  1
  O  O35  1  0.46022379  0.84141503  0.10223248  1
  O  O36  1  0.72755245  0.13750574  0.50965908  1
  O  O37  1  0.72755245  0.36249426  0.50965908  1
  O  O38  1  0.87657435  0.57461572  0.58056747  1
  O  O39  1  0.87657435  0.92538428  0.58056747  1
  O  O40  1  0.84504971  0.64408511  0.31002766  1
  O  O41  1  0.84504971  0.85591489  0.31002766  1
  O  O42  1  0.80256670  0.25000000  0.11308768  1
  O  O43  1  0.81990961  0.54340832  0.07086285  1
  O  O44  1  0.81990961  0.95659168  0.07086285  1
  O  O45  1  0.92533900  0.75000000  0.53748911  1
