# generated using pymatgen
data_Sn2N2O
_symmetry_space_group_name_H-M   'P 1'
_cell_length_a   8.86847893
_cell_length_b   8.82317678
_cell_length_c   8.87474883
_cell_angle_alpha   109.42593965
_cell_angle_beta   109.48463393
_cell_angle_gamma   109.47578687
_symmetry_Int_Tables_number   1
_chemical_formula_structural   Sn2N2O
_chemical_formula_sum   'Sn16 N16 O8'
_cell_volume   534.75449469
_cell_formula_units_Z   8
loop_
 _symmetry_equiv_pos_site_id
 _symmetry_equiv_pos_as_xyz
  1  'x, y, z'
loop_
 _atom_site_type_symbol
 _atom_site_label
 _atom_site_symmetry_multiplicity
 _atom_site_fract_x
 _atom_site_fract_y
 _atom_site_fract_z
 _atom_site_occupancy
  Sn  Sn0  1  0.96661717  0.25032711  0.21486941  1
  Sn  Sn1  1  0.50572494  0.99902842  0.99894016  1
  Sn  Sn2  1  0.79146142  0.02603331  0.75965751  1
  Sn  Sn3  1  0.71067034  0.46062773  0.24008209  1
  Sn  Sn4  1  0.75502715  0.28619157  0.53149491  1
  Sn  Sn5  1  0.74215911  0.77424686  0.02834247  1
  Sn  Sn6  1  0.01174548  0.50583982  0.99835850  1
  Sn  Sn7  1  0.49632409  0.50622298  0.50632063  1
  Sn  Sn8  1  0.45824716  0.25113268  0.72064155  1
  Sn  Sn9  1  0.00608012  0.99072710  0.50488229  1
  Sn  Sn10  1  0.53508766  0.75254585  0.28384448  1
  Sn  Sn11  1  0.26614944  0.72622021  0.47593516  1
  Sn  Sn12  1  0.24331893  0.21799772  0.95602511  1
  Sn  Sn13  1  0.27814345  0.53279560  0.74588432  1
  Sn  Sn14  1  0.21659146  0.95491611  0.25066337  1
  Sn  Sn15  1  0.03475342  0.75021030  0.78657297  1
  N  N16  1  0.73909649  0.23893432  0.27778151  1
  N  N17  1  0.77004447  0.72662614  0.27323062  1
  N  N18  1  0.04141164  0.27574974  0.00156102  1
  N  N19  1  0.49409216  0.76527079  0.04042551  1
  N  N20  1  0.27438342  0.72910162  0.23007149  1
  N  N21  1  0.22224283  0.45639686  0.45229790  1
  N  N22  1  0.99751960  0.95175327  0.73305671  1
  N  N23  1  0.50055998  0.23519653  0.96411714  1
  N  N24  1  0.54071306  0.52890293  0.76504080  1
  N  N25  1  0.95941905  0.73478557  0.00047508  1
  N  N26  1  0.54923955  0.77701144  0.54347594  1
  N  N27  1  0.21664253  0.26982355  0.72680034  1
  N  N28  1  0.02513994  0.49219712  0.75598302  1
  N  N29  1  0.73694041  0.99518330  0.96506002  1
  N  N30  1  0.24192514  0.96793727  0.50484971  1
  N  N31  1  0.26698497  0.77653166  0.73168939  1
  O  O32  1  0.77108668  0.04493986  0.49769648  1
  O  O33  1  0.27812047  0.01490205  0.05936452  1
  O  O34  1  0.95265336  0.50559463  0.22070673  1
  O  O35  1  0.46833477  0.22622193  0.44662488  1
  O  O36  1  0.45002840  0.45220255  0.23091750  1
  O  O37  1  0.71513025  0.25591897  0.75842456  1
  O  O38  1  0.01019333  0.04871147  0.28261047  1
  O  O39  1  0.75999518  0.54504407  0.53522475  1
