# generated using pymatgen
data_LiBi3(P3O10)2
_symmetry_space_group_name_H-M   'P 1'
_cell_length_a   8.99517351
_cell_length_b   8.99517351
_cell_length_c   13.38354690
_cell_angle_alpha   90.00000000
_cell_angle_beta   90.00000000
_cell_angle_gamma   70.14757759
_symmetry_Int_Tables_number   1
_chemical_formula_structural   LiBi3(P3O10)2
_chemical_formula_sum   'Li2 Bi6 P12 O40'
_cell_volume   1018.54833826
_cell_formula_units_Z   2
loop_
 _symmetry_equiv_pos_site_id
 _symmetry_equiv_pos_as_xyz
  1  'x, y, z'
loop_
 _atom_site_type_symbol
 _atom_site_label
 _atom_site_symmetry_multiplicity
 _atom_site_fract_x
 _atom_site_fract_y
 _atom_site_fract_z
 _atom_site_occupancy
  Li  Li0  1  0.08479370  0.91520630  0.00000000  1
  Li  Li1  1  0.58479370  0.41520630  0.50000000  1
  Bi  Bi2  1  0.38331800  0.61668200  0.00000000  1
  Bi  Bi3  1  0.32438648  0.24386086  0.22721334  1
  Bi  Bi4  1  0.75613914  0.67561352  0.77278666  1
  Bi  Bi5  1  0.25613914  0.17561352  0.72721334  1
  Bi  Bi6  1  0.82438648  0.74386086  0.27278666  1
  Bi  Bi7  1  0.88331800  0.11668200  0.50000000  1
  P  P8  1  0.39153714  0.85986495  0.31202210  1
  P  P9  1  0.14013505  0.60846286  0.68797790  1
  P  P10  1  0.32465564  0.77846673  0.79486512  1
  P  P11  1  0.22153327  0.67534436  0.20513488  1
  P  P12  1  0.78132915  0.60909084  0.03573850  1
  P  P13  1  0.28132915  0.10909084  0.46426150  1
  P  P14  1  0.39090916  0.21867085  0.96426150  1
  P  P15  1  0.89090916  0.71867085  0.53573850  1
  P  P16  1  0.64013505  0.10846286  0.81202210  1
  P  P17  1  0.89153714  0.35986495  0.18797790  1
  P  P18  1  0.72153327  0.17534436  0.29486512  1
  P  P19  1  0.82465564  0.27846673  0.70513488  1
  O  O20  1  0.33860561  0.99344290  0.23649248  1
  O  O21  1  0.00655710  0.66139439  0.76350752  1
  O  O22  1  0.09179959  0.62156549  0.24852731  1
  O  O23  1  0.37843451  0.90820041  0.75147269  1
  O  O24  1  0.35458473  0.92504779  0.42379691  1
  O  O25  1  0.07495321  0.64541527  0.57620309  1
  O  O26  1  0.17414069  0.79124426  0.11571724  1
  O  O27  1  0.20875574  0.82585931  0.88428276  1
  O  O28  1  0.27284135  0.76097642  0.30027274  1
  O  O29  1  0.23902358  0.72715865  0.69972726  1
  O  O30  1  0.05948497  0.24749016  0.19088749  1
  O  O31  1  0.75250984  0.94051503  0.80911251  1
  O  O32  1  0.55948497  0.74749016  0.30911251  1
  O  O33  1  0.25250984  0.44051503  0.69088749  1
  O  O34  1  0.46875375  0.63560349  0.82781997  1
  O  O35  1  0.86439651  0.03124625  0.32781997  1
  O  O36  1  0.36439651  0.53124625  0.17218003  1
  O  O37  1  0.96875375  0.13560349  0.67218003  1
  O  O38  1  0.84553459  0.89851265  0.54817452  1
  O  O39  1  0.60148735  0.65446541  0.04817452  1
  O  O40  1  0.10148735  0.15446541  0.45182548  1
  O  O41  1  0.34553459  0.39851265  0.95182548  1
  O  O42  1  0.78457908  0.65714327  0.59981809  1
  O  O43  1  0.84285673  0.71542092  0.09981809  1
  O  O44  1  0.34285673  0.21542092  0.40018191  1
  O  O45  1  0.28457908  0.15714327  0.90018191  1
  O  O46  1  0.40360775  0.15898240  0.07091869  1
  O  O47  1  0.90360775  0.65898240  0.42908131  1
  O  O48  1  0.34101760  0.09639225  0.57091869  1
  O  O49  1  0.84101760  0.59639225  0.92908131  1
  O  O50  1  0.50655710  0.16139439  0.73649248  1
  O  O51  1  0.83860561  0.49344290  0.26350752  1
  O  O52  1  0.87843451  0.40820041  0.74852731  1
  O  O53  1  0.59179959  0.12156549  0.25147269  1
  O  O54  1  0.57495221  0.14541527  0.92379691  1
  O  O55  1  0.85458473  0.42504679  0.07620309  1
  O  O56  1  0.70875574  0.32585931  0.61571724  1
  O  O57  1  0.67414069  0.29124426  0.38428276  1
  O  O58  1  0.73902358  0.22715865  0.80027274  1
  O  O59  1  0.77284135  0.26097642  0.19972726  1
