# generated using pymatgen
data_TiSn(PO4)2
_symmetry_space_group_name_H-M   'P 1'
_cell_length_a   10.93358721
_cell_length_b   6.23760957
_cell_length_c   5.07113933
_cell_angle_alpha   90.00000000
_cell_angle_beta   88.31572842
_cell_angle_gamma   90.00000000
_symmetry_Int_Tables_number   1
_chemical_formula_structural   TiSn(PO4)2
_chemical_formula_sum   'Ti2 Sn2 P4 O16'
_cell_volume   345.69948593
_cell_formula_units_Z   2
loop_
 _symmetry_equiv_pos_site_id
 _symmetry_equiv_pos_as_xyz
  1  'x, y, z'
loop_
 _atom_site_type_symbol
 _atom_site_label
 _atom_site_symmetry_multiplicity
 _atom_site_fract_x
 _atom_site_fract_y
 _atom_site_fract_z
 _atom_site_occupancy
  Ti  Ti0  1  0.20472530  0.75000000  0.43282094  1
  Ti  Ti1  1  0.79527470  0.25000000  0.56717906  1
  Sn  Sn2  1  0.27527448  0.25000000  0.96381786  1
  Sn  Sn3  1  0.72472552  0.75000000  0.03618214  1
  P  P4  1  0.08802683  0.25000000  0.44865041  1
  P  P5  1  0.36823870  0.75000000  0.83666858  1
  P  P6  1  0.63176130  0.25000000  0.16333142  1
  P  P7  1  0.91197317  0.75000000  0.55134959  1
  O  O8  1  0.05027634  0.75000000  0.62071779  1
  O  O9  1  0.10175206  0.25000000  0.74585032  1
  O  O10  1  0.15114411  0.05106936  0.30853863  1
  O  O11  1  0.15114411  0.44893064  0.30853863  1
  O  O12  1  0.30472669  0.93639777  0.67562534  1
  O  O13  1  0.30472669  0.56360223  0.67562534  1
  O  O14  1  0.31018277  0.75000000  0.12475864  1
  O  O15  1  0.49588634  0.25000000  0.16740144  1
  O  O16  1  0.50411366  0.75000000  0.83259856  1
  O  O17  1  0.68981723  0.25000000  0.87524136  1
  O  O18  1  0.69527331  0.06360223  0.32437466  1
  O  O19  1  0.69527331  0.43639777  0.32437466  1
  O  O20  1  0.84885589  0.55106936  0.69146137  1
  O  O21  1  0.84885589  0.94893064  0.69146137  1
  O  O22  1  0.89824794  0.75000000  0.25414968  1
  O  O23  1  0.94972366  0.25000000  0.37928221  1
