# generated using pymatgen
data_LiCrPO4
_symmetry_space_group_name_H-M   'P 1'
_cell_length_a   8.70664701
_cell_length_b   8.70664654
_cell_length_c   8.70664664
_cell_angle_alpha   107.56170814
_cell_angle_beta   107.56171366
_cell_angle_gamma   107.56171256
_symmetry_Int_Tables_number   1
_chemical_formula_structural   LiCrPO4
_chemical_formula_sum   'Li6 Cr6 P6 O24'
_cell_volume   541.02211740
_cell_formula_units_Z   6
loop_
 _symmetry_equiv_pos_site_id
 _symmetry_equiv_pos_as_xyz
  1  'x, y, z'
loop_
 _atom_site_type_symbol
 _atom_site_label
 _atom_site_symmetry_multiplicity
 _atom_site_fract_x
 _atom_site_fract_y
 _atom_site_fract_z
 _atom_site_occupancy
  Li  Li0  1  0.14660278  0.92720372  0.33394905  1
  Li  Li1  1  0.61710136  0.85435119  0.44937003  1
  Li  Li2  1  0.44937003  0.61710136  0.85435119  1
  Li  Li3  1  0.33394905  0.14660278  0.92720372  1
  Li  Li4  1  0.85435119  0.44937003  0.61710136  1
  Li  Li5  1  0.92720372  0.33394905  0.14660278  1
  Cr  Cr6  1  0.18433162  0.76972786  0.95251440  1
  Cr  Cr7  1  0.26328814  0.65811473  0.49682114  1
  Cr  Cr8  1  0.76972786  0.95251440  0.18433162  1
  Cr  Cr9  1  0.65811473  0.49682114  0.26328814  1
  Cr  Cr10  1  0.49682114  0.26328814  0.65811473  1
  Cr  Cr11  1  0.95251440  0.18433162  0.76972786  1
  P  P12  1  0.00430522  0.82518269  0.59728466  1
  P  P13  1  0.29843451  0.51071825  0.11368650  1
  P  P14  1  0.11368650  0.29843451  0.51071825  1
  P  P15  1  0.82518269  0.59728466  0.00430522  1
  P  P16  1  0.51071825  0.11368650  0.29843451  1
  P  P17  1  0.59728466  0.00430522  0.82518269  1
  O  O18  1  0.02132082  0.73581045  0.07954162  1
  O  O19  1  0.12367123  0.80866180  0.49701170  1
  O  O20  1  0.00683985  0.70492270  0.69810652  1
  O  O21  1  0.63771752  0.02048947  0.32837219  1
  O  O22  1  0.45897242  0.80874640  0.75988884  1
  O  O23  1  0.32837219  0.63771752  0.02048947  1
  O  O24  1  0.07148065  0.39832452  0.39323389  1
  O  O25  1  0.38707084  0.62904518  0.32036031  1
  O  O26  1  0.09731377  0.38998573  0.04243773  1
  O  O27  1  0.04243773  0.09731377  0.38998573  1
  O  O28  1  0.32036031  0.38707084  0.62904518  1
  O  O29  1  0.70492270  0.69810652  0.00683985  1
  O  O30  1  0.39832452  0.39323389  0.07148065  1
  O  O31  1  0.80874640  0.75988884  0.45897242  1
  O  O32  1  0.07954162  0.02132082  0.73581045  1
  O  O33  1  0.75988884  0.45897242  0.80874640  1
  O  O34  1  0.39323389  0.07148065  0.39832452  1
  O  O35  1  0.80866180  0.49701170  0.12367123  1
  O  O36  1  0.38998573  0.04243773  0.09731377  1
  O  O37  1  0.62904518  0.32036031  0.38707084  1
  O  O38  1  0.49701170  0.12367123  0.80866180  1
  O  O39  1  0.73581045  0.07954162  0.02132082  1
  O  O40  1  0.02048947  0.32837219  0.63771752  1
  O  O41  1  0.69810652  0.00683985  0.70492270  1
