# generated using pymatgen
data_Li3Bi(PO4)2
_symmetry_space_group_name_H-M   'P 1'
_cell_length_a   8.36194465
_cell_length_b   5.74160642
_cell_length_c   6.38103870
_cell_angle_alpha   90.00000000
_cell_angle_beta   38.49366022
_cell_angle_gamma   69.92086354
_symmetry_Int_Tables_number   1
_chemical_formula_structural   Li3Bi(PO4)2
_chemical_formula_sum   'Li3 Bi1 P2 O8'
_cell_volume   159.05650661
_cell_formula_units_Z   1
loop_
 _symmetry_equiv_pos_site_id
 _symmetry_equiv_pos_as_xyz
  1  'x, y, z'
loop_
 _atom_site_type_symbol
 _atom_site_label
 _atom_site_symmetry_multiplicity
 _atom_site_fract_x
 _atom_site_fract_y
 _atom_site_fract_z
 _atom_site_occupancy
  Li  Li0  1  0.18019524  0.65990188  0.11759431  1
  Li  Li1  1  0.50228155  0.99885923  0.99918595  1
  Li  Li2  1  0.82154435  0.33922833  0.88793173  1
  Bi  Bi3  1  0.49888824  0.00055588  0.50369497  1
  P  P4  1  0.21155523  0.64422239  0.54623036  1
  P  P5  1  0.78919937  0.35540082  0.45634515  1
  O  O6  1  0.02653468  0.23673266  0.38905614  1
  O  O7  1  0.94466076  0.27766962  0.07635158  1
  O  O8  1  0.43453475  0.31629092  0.30140445  1
  O  O9  1  0.43453475  0.74917433  0.30140445  1
  O  O10  1  0.56682901  0.24960336  0.70125713  1
  O  O11  1  0.56682901  0.68356762  0.70125713  1
  O  O12  1  0.05046896  0.72476552  0.93025214  1
  O  O13  1  0.97717511  0.76141245  0.60809052  1
