# generated using pymatgen
data_LiVPO4
_symmetry_space_group_name_H-M   'P 1'
_cell_length_a   7.51664818
_cell_length_b   7.51541512
_cell_length_c   9.77954063
_cell_angle_alpha   90.00898719
_cell_angle_beta   89.99550831
_cell_angle_gamma   119.99457181
_symmetry_Int_Tables_number   1
_chemical_formula_structural   LiVPO4
_chemical_formula_sum   'Li6 V6 P6 O24'
_cell_volume   478.46484269
_cell_formula_units_Z   6
loop_
 _symmetry_equiv_pos_site_id
 _symmetry_equiv_pos_as_xyz
  1  'x, y, z'
loop_
 _atom_site_type_symbol
 _atom_site_label
 _atom_site_symmetry_multiplicity
 _atom_site_fract_x
 _atom_site_fract_y
 _atom_site_fract_z
 _atom_site_occupancy
  Li  Li0  1  0.20204725  0.94956970  0.25378837  1
  Li  Li1  1  0.05046469  0.25250933  0.25378454  1
  Li  Li2  1  0.25251056  0.05046041  0.75377479  1
  Li  Li3  1  0.74748944  0.79794985  0.25377479  1
  Li  Li4  1  0.79795275  0.74752245  0.75378837  1
  Li  Li5  1  0.94953531  0.20204464  0.75378454  1
  V  V6  1  0.05472942  0.57474722  0.47610206  1
  V  V7  1  0.52006633  0.94529878  0.47611055  1
  V  V8  1  0.42522221  0.47991941  0.47608315  1
  V  V9  1  0.47993367  0.42523245  0.97611055  1
  V  V10  1  0.57477779  0.05469720  0.97608315  1
  V  V11  1  0.94527058  0.52001680  0.97610206  1
  P  P12  1  0.33335610  0.66659261  0.17658578  1
  P  P13  1  -0.00001514  0.99999543  0.00206729  1
  P  P14  1  0.00001514  0.00001057  0.50206729  1
  P  P15  1  0.33338081  0.66689482  0.76826982  1
  P  P16  1  0.66664390  0.33323751  0.67658578  1
  P  P17  1  0.66661919  0.33351301  0.26826982  1
  O  O18  1  0.10260693  0.87768549  0.44592716  1
  O  O19  1  0.17040728  0.71951824  0.12749893  1
  O  O20  1  0.37701088  0.87976045  0.81537627  1
  O  O21  1  0.12000483  0.49704148  0.81542085  1
  O  O22  1  0.28052263  0.45104429  0.12751011  1
  O  O23  1  0.33334176  0.66669993  0.34084891  1
  O  O24  1  0.99999269  0.00000036  0.16035436  1
  O  O25  1  0.00000731  0.00000767  0.66035436  1
  O  O26  1  0.33332114  0.66662425  0.60561790  1
  O  O27  1  0.12230037  0.22491139  0.44593470  1
  O  O28  1  0.54903636  0.82957817  0.12749470  1
  O  O29  1  0.22491052  0.12231715  0.94592768  1
  O  O30  1  0.50290793  0.62289588  0.81541308  1
  O  O31  1  0.77508948  0.89740663  0.44592768  1
  O  O32  1  0.45096364  0.28054181  0.62749470  1
  O  O33  1  0.49709207  0.11998795  0.31541308  1
  O  O34  1  0.62298912  0.50274857  0.31537627  1
  O  O35  1  0.82959272  0.54911096  0.62749893  1
  O  O36  1  0.66665824  0.33335717  0.84084891  1
  O  O37  1  0.66667886  0.33330410  0.10561790  1
  O  O38  1  0.89739307  0.77507857  0.94592716  1
  O  O39  1  0.71947737  0.17052166  0.62751011  1
  O  O40  1  0.87999517  0.37703665  0.31542085  1
  O  O41  1  0.87769963  0.10261102  0.94593470  1
