# generated using pymatgen
data_Li3Fe(PO4)2
_symmetry_space_group_name_H-M   'P 1'
_cell_length_a   8.58348755
_cell_length_b   9.92432676
_cell_length_c   14.94673388
_cell_angle_alpha   90.00000000
_cell_angle_beta   84.31950046
_cell_angle_gamma   90.00000000
_symmetry_Int_Tables_number   1
_chemical_formula_structural   Li3Fe(PO4)2
_chemical_formula_sum   'Li24 Fe8 P16 O64'
_cell_volume   1266.99004381
_cell_formula_units_Z   8
loop_
 _symmetry_equiv_pos_site_id
 _symmetry_equiv_pos_as_xyz
  1  'x, y, z'
loop_
 _atom_site_type_symbol
 _atom_site_label
 _atom_site_symmetry_multiplicity
 _atom_site_fract_x
 _atom_site_fract_y
 _atom_site_fract_z
 _atom_site_occupancy
  Li  Li0  1  0.07311829  0.09477489  0.94968252  1
  Li  Li1  1  0.08623997  0.61091627  0.29203395  1
  Li  Li2  1  0.17331148  0.88290376  0.22191718  1
  Li  Li3  1  0.20932557  0.41604312  0.51024845  1
  Li  Li4  1  0.22207599  0.37523177  0.74870406  1
  Li  Li5  1  0.25179669  0.91850286  0.49982283  1
  Li  Li6  1  0.24820331  0.41850286  0.00017717  1
  Li  Li7  1  0.27792401  0.87523177  0.75129594  1
  Li  Li8  1  0.29067443  0.91604312  0.98975155  1
  Li  Li9  1  0.32668852  0.38290376  0.27808282  1
  Li  Li10  1  0.41376003  0.11091627  0.20796605  1
  Li  Li11  1  0.42688171  0.59477489  0.55031748  1
  Li  Li12  1  0.57311829  0.40522511  0.44968252  1
  Li  Li13  1  0.58623997  0.88908373  0.79203395  1
  Li  Li14  1  0.67331148  0.61709624  0.72191718  1
  Li  Li15  1  0.70932557  0.08395688  0.01024845  1
  Li  Li16  1  0.72207599  0.12476823  0.24870406  1
  Li  Li17  1  0.75179669  0.58149714  0.99982283  1
  Li  Li18  1  0.74820331  0.08149714  0.50017717  1
  Li  Li19  1  0.77792401  0.62476823  0.25129594  1
  Li  Li20  1  0.79067443  0.58395688  0.48975155  1
  Li  Li21  1  0.82668852  0.11709624  0.77808282  1
  Li  Li22  1  0.91376003  0.38908373  0.70796605  1
  Li  Li23  1  0.92688171  0.90522511  0.05031748  1
  Fe  Fe24  1  0.08799550  0.63250411  0.87896320  1
  Fe  Fe25  1  0.07231775  0.12139487  0.36175982  1
  Fe  Fe26  1  0.42768225  0.62139487  0.13824018  1
  Fe  Fe27  1  0.41200450  0.13250411  0.62103680  1
  Fe  Fe28  1  0.58799550  0.86749589  0.37896320  1
  Fe  Fe29  1  0.57231775  0.37860513  0.86175982  1
  Fe  Fe30  1  0.92768225  0.87860513  0.63824018  1
  Fe  Fe31  1  0.91200450  0.36749589  0.12103680  1
  P  P32  1  0.08853997  0.64513526  0.65798439  1
  P  P33  1  0.08227068  0.14695934  0.13885680  1
  P  P34  1  0.07047518  0.66225738  0.10030976  1
  P  P35  1  0.04319009  0.16417484  0.58543783  1
  P  P36  1  0.45680991  0.66417484  0.91456217  1
  P  P37  1  0.42952482  0.16225738  0.39969024  1
  P  P38  1  0.41772932  0.64695934  0.36114320  1
  P  P39  1  0.41146003  0.14513526  0.84201561  1
  P  P40  1  0.58853997  0.85486474  0.15798439  1
  P  P41  1  0.58227068  0.35304066  0.63885680  1
  P  P42  1  0.57047518  0.83774262  0.60030976  1
  P  P43  1  0.54319009  0.33582516  0.08543783  1
  P  P44  1  0.95680991  0.83582516  0.41456217  1
  P  P45  1  0.92952482  0.33774262  0.89969024  1
  P  P46  1  0.91772932  0.85304066  0.86114320  1
  P  P47  1  0.91146003  0.35486474  0.34201561  1
  O  O48  1  0.05972202  0.44169398  0.91744218  1
  O  O49  1  0.05831441  0.92056167  0.34227540  1
  O  O50  1  0.03073983  0.73092106  0.19234153  1
  O  O51  1  0.04886001  0.31336016  0.60936266  1
  O  O52  1  0.97815408  0.14119424  0.49272816  1
  O  O53  1  0.10062418  0.56571497  0.74932712  1
  O  O54  1  0.08631290  0.76302197  0.02195173  1
  O  O55  1  0.09873611  0.83132632  0.83964961  1
  O  O56  1  0.08998239  0.34819370  0.35819839  1
  O  O57  1  0.16810506  0.11341636  0.22429822  1
  O  O58  1  0.19795452  0.57749083  0.58538376  1
  O  O59  1  0.13356859  0.79785606  0.66631388  1
  O  O60  1  0.11095187  0.02987371  0.07271731  1
  O  O61  1  0.13472282  0.28992305  0.10218594  1
  O  O62  1  0.22305740  0.57844836  0.10294057  1
  O  O63  1  0.20801382  0.09843674  0.58388558  1
  O  O64  1  0.29198618  0.59843674  0.91611442  1
  O  O65  1  0.27694260  0.07844836  0.39705943  1
  O  O66  1  0.36527718  0.78992305  0.39781406  1
  O  O67  1  0.36643141  0.29785606  0.83368612  1
  O  O68  1  0.38904813  0.52987371  0.42728269  1
  O  O69  1  0.30204548  0.07749083  0.91461624  1
  O  O70  1  0.33189494  0.61341636  0.27570178  1
  O  O71  1  0.41001761  0.84819370  0.14180161  1
  O  O72  1  0.40126389  0.33132632  0.66035039  1
  O  O73  1  0.41368710  0.26302197  0.47804827  1
  O  O74  1  0.39937582  0.06571497  0.75067288  1
  O  O75  1  0.45113999  0.81336016  0.89063734  1
  O  O76  1  0.52184592  0.64119424  0.00727184  1
  O  O77  1  0.46926017  0.23092106  0.30765847  1
  O  O78  1  0.44027798  0.94169398  0.58255782  1
  O  O79  1  0.44168559  0.42056167  0.15772460  1
  O  O80  1  0.55831441  0.57943833  0.84227540  1
  O  O81  1  0.55972202  0.05830602  0.41744218  1
  O  O82  1  0.53073983  0.76907894  0.69234153  1
  O  O83  1  0.47815408  0.35880576  0.99272816  1
  O  O84  1  0.54886001  0.18663984  0.10936266  1
  O  O85  1  0.60062418  0.93428503  0.24932712  1
  O  O86  1  0.58631290  0.73697803  0.52195173  1
  O  O87  1  0.59873611  0.66867368  0.33964961  1
  O  O88  1  0.58998239  0.15180630  0.85819839  1
  O  O89  1  0.66810506  0.38658364  0.72429822  1
  O  O90  1  0.69795452  0.92250917  0.08538376  1
  O  O91  1  0.61095187  0.47012629  0.57271731  1
  O  O92  1  0.63356859  0.70214394  0.16631388  1
  O  O93  1  0.63472282  0.21007695  0.60218594  1
  O  O94  1  0.72305740  0.92155164  0.60294057  1
  O  O95  1  0.70801382  0.40156326  0.08388558  1
  O  O96  1  0.79198618  0.90156326  0.41611442  1
  O  O97  1  0.77694260  0.42155164  0.89705943  1
  O  O98  1  0.86527718  0.71007695  0.89781406  1
  O  O99  1  0.88904813  0.97012629  0.92728269  1
  O  O100  1  0.86643141  0.20214394  0.33368612  1
  O  O101  1  0.80204548  0.42250917  0.41461624  1
  O  O102  1  0.83189494  0.88658364  0.77570178  1
  O  O103  1  0.91001761  0.65180630  0.64180161  1
  O  O104  1  0.90126389  0.16867368  0.16035039  1
  O  O105  1  0.91368710  0.23697803  0.97804827  1
  O  O106  1  0.89937582  0.43428503  0.25067288  1
  O  O107  1  0.02184592  0.85880576  0.50727184  1
  O  O108  1  0.95113999  0.68663984  0.39063734  1
  O  O109  1  0.96926017  0.26907894  0.80765847  1
  O  O110  1  0.94168559  0.07943833  0.65772460  1
  O  O111  1  0.94027798  0.55830602  0.08255782  1
