# generated using pymatgen
data_Li2CrSn(PO4)2
_symmetry_space_group_name_H-M   'P 1'
_cell_length_a   10.73206472
_cell_length_b   6.69136998
_cell_length_c   4.84100802
_cell_angle_alpha   90.00000000
_cell_angle_beta   86.48368048
_cell_angle_gamma   90.00000000
_symmetry_Int_Tables_number   1
_chemical_formula_structural   Li2CrSn(PO4)2
_chemical_formula_sum   'Li4 Cr2 Sn2 P4 O16'
_cell_volume   346.98902770
_cell_formula_units_Z   2
loop_
 _symmetry_equiv_pos_site_id
 _symmetry_equiv_pos_as_xyz
  1  'x, y, z'
loop_
 _atom_site_type_symbol
 _atom_site_label
 _atom_site_symmetry_multiplicity
 _atom_site_fract_x
 _atom_site_fract_y
 _atom_site_fract_z
 _atom_site_occupancy
  Li  Li0  1  0.00000000  0.00000000  0.00000000  1
  Li  Li1  1  0.00000000  0.50000000  0.00000000  1
  Li  Li2  1  0.50000000  0.00000000  0.50000000  1
  Li  Li3  1  0.50000000  0.50000000  0.50000000  1
  Cr  Cr4  1  0.21281583  0.75000000  0.44503270  1
  Cr  Cr5  1  0.78718417  0.25000000  0.55496730  1
  Sn  Sn6  1  0.28229537  0.25000000  0.95931050  1
  Sn  Sn7  1  0.71770463  0.75000000  0.04068950  1
  P  P8  1  0.07608015  0.25000000  0.42792066  1
  P  P9  1  0.40277981  0.75000000  0.88328814  1
  P  P10  1  0.59722019  0.25000000  0.11671186  1
  P  P11  1  0.92391985  0.75000000  0.57207934  1
  O  O12  1  0.05424583  0.75000000  0.70454209  1
  O  O13  1  0.06021327  0.25000000  0.74631484  1
  O  O14  1  0.14962221  0.06216975  0.30724823  1
  O  O15  1  0.14962221  0.43783025  0.30724823  1
  O  O16  1  0.34177467  0.56475836  0.75110421  1
  O  O17  1  0.34177467  0.93524164  0.75110421  1
  O  O18  1  0.38643218  0.75000000  0.20473358  1
  O  O19  1  0.45723821  0.25000000  0.22993896  1
  O  O20  1  0.54276179  0.75000000  0.77006104  1
  O  O21  1  0.61356782  0.25000000  0.79526642  1
  O  O22  1  0.65822533  0.06475836  0.24889579  1
  O  O23  1  0.65822533  0.43524164  0.24889579  1
  O  O24  1  0.85037779  0.56216975  0.69275177  1
  O  O25  1  0.85037779  0.93783025  0.69275177  1
  O  O26  1  0.93978673  0.75000000  0.25368516  1
  O  O27  1  0.94575417  0.25000000  0.29545791  1
