# generated using pymatgen
data_Li4Co3Sn(PO4)4
_symmetry_space_group_name_H-M   'P 1'
_cell_length_a   4.82507677
_cell_length_b   10.72727969
_cell_length_c   6.06476558
_cell_angle_alpha   90.00000000
_cell_angle_beta   90.00000000
_cell_angle_gamma   91.22796975
_symmetry_Int_Tables_number   1
_chemical_formula_structural   Li4Co3Sn(PO4)4
_chemical_formula_sum   'Li4 Co3 Sn1 P4 O16'
_cell_volume   313.83985864
_cell_formula_units_Z   1
loop_
 _symmetry_equiv_pos_site_id
 _symmetry_equiv_pos_as_xyz
  1  'x, y, z'
loop_
 _atom_site_type_symbol
 _atom_site_label
 _atom_site_symmetry_multiplicity
 _atom_site_fract_x
 _atom_site_fract_y
 _atom_site_fract_z
 _atom_site_occupancy
  Li  Li0  1  0.00385377  0.98678081  0.00186550  1
  Li  Li1  1  0.00385377  0.98678081  0.49813450  1
  Li  Li2  1  0.50202284  0.51486172  0.49579452  1
  Li  Li3  1  0.50202284  0.51486172  0.00420548  1
  Co  Co4  1  0.02132601  0.72514575  0.75000000  1
  Co  Co5  1  0.48421422  0.21104828  0.75000000  1
  Co  Co6  1  0.53127400  0.78555033  0.25000000  1
  Sn  Sn7  1  0.99216844  0.28353332  0.25000000  1
  P  P8  1  0.08886119  0.61167021  0.25000000  1
  P  P9  1  0.43461665  0.07363818  0.25000000  1
  P  P10  1  0.58644190  0.90215080  0.75000000  1
  P  P11  1  0.87975228  0.41407587  0.75000000  1
  O  O12  1  0.22095686  0.48005745  0.25000000  1
  O  O13  1  0.22115709  0.67983260  0.04462938  1
  O  O14  1  0.22115709  0.67983260  0.45537062  1
  O  O15  1  0.19393069  0.39540934  0.75000000  1
  O  O16  1  0.26741099  0.89894785  0.75000000  1
  O  O17  1  0.32161170  0.14495125  0.04228297  1
  O  O18  1  0.32161170  0.14495125  0.45771703  1
  O  O19  1  0.28640085  0.94378397  0.25000000  1
  O  O20  1  0.71558326  0.03628636  0.75000000  1
  O  O21  1  0.71895866  0.83146123  0.54840687  1
  O  O22  1  0.71895866  0.83146123  0.95159313  1
  O  O23  1  0.75159984  0.06468482  0.25000000  1
  O  O24  1  0.77123492  0.60774988  0.25000000  1
  O  O25  1  0.72317295  0.34899391  0.55115380  1
  O  O26  1  0.72317295  0.34899391  0.94884620  1
  O  O27  1  0.79267389  0.55250455  0.75000000  1
