# generated using pymatgen
data_Co5SbO12
_symmetry_space_group_name_H-M   'P 1'
_cell_length_a   5.00904456
_cell_length_b   5.00975002
_cell_length_c   9.61888697
_cell_angle_alpha   90.03339089
_cell_angle_beta   90.06679261
_cell_angle_gamma   60.00465898
_symmetry_Int_Tables_number   1
_chemical_formula_structural   Co5SbO12
_chemical_formula_sum   'Co5 Sb1 O12'
_cell_volume   209.04823040
_cell_formula_units_Z   1
loop_
 _symmetry_equiv_pos_site_id
 _symmetry_equiv_pos_as_xyz
  1  'x, y, z'
loop_
 _atom_site_type_symbol
 _atom_site_label
 _atom_site_symmetry_multiplicity
 _atom_site_fract_x
 _atom_site_fract_y
 _atom_site_fract_z
 _atom_site_occupancy
  Co  Co0  1  0.16664986  0.66670028  0.50000000  1
  Co  Co1  1  0.66665546  0.66668909  0.00000000  1
  Co  Co2  1  0.33334454  0.33331091  1.00000000  1
  Co  Co3  1  0.83335014  0.33329972  0.50000000  1
  Co  Co4  1  0.50000000  0.00000000  0.50000000  1
  Sb  Sb5  1  0.00000000  0.00000000  0.00000000  1
  O  O6  1  0.00027260  0.65006008  0.10173969  1
  O  O7  1  0.34966832  0.65006008  0.89826031  1
  O  O8  1  0.16668001  0.33279818  0.40541283  1
  O  O9  1  0.49947819  0.66720182  0.40541283  1
  O  O10  1  0.50052181  0.33279818  0.59458717  1
  O  O11  1  0.16608864  0.00000000  0.59510167  1
  O  O12  1  0.83331999  0.66720182  0.59458717  1
  O  O13  1  0.65033168  0.34993992  0.10173969  1
  O  O14  1  0.35026383  0.00000000  0.10184497  1
  O  O15  1  0.99972740  0.34993992  0.89826031  1
  O  O16  1  0.64973617  1.00000000  0.89815503  1
  O  O17  1  0.83391136  1.00000000  0.40489833  1
