# generated using pymatgen
data_Li4Mn5Cu3O16
_symmetry_space_group_name_H-M   'P 1'
_cell_length_a   5.85468439
_cell_length_b   5.76979830
_cell_length_c   9.43787700
_cell_angle_alpha   89.99159918
_cell_angle_beta   87.80240073
_cell_angle_gamma   119.51279330
_symmetry_Int_Tables_number   1
_chemical_formula_structural   Li4Mn5Cu3O16
_chemical_formula_sum   'Li4 Mn5 Cu3 O16'
_cell_volume   277.17669701
_cell_formula_units_Z   1
loop_
 _symmetry_equiv_pos_site_id
 _symmetry_equiv_pos_as_xyz
  1  'x, y, z'
loop_
 _atom_site_type_symbol
 _atom_site_label
 _atom_site_symmetry_multiplicity
 _atom_site_fract_x
 _atom_site_fract_y
 _atom_site_fract_z
 _atom_site_occupancy
  Li  Li0  1  0.33447313  0.66693022  0.89965576  1
  Li  Li1  1  0.00106252  0.00088281  0.99668220  1
  Li  Li2  1  0.00566531  0.00268937  0.48948827  1
  Li  Li3  1  0.67287125  0.33678351  0.39858001  1
  Mn  Mn4  1  0.32781344  0.66400599  0.48481069  1
  Mn  Mn5  1  0.65432327  0.82716466  0.21512440  1
  Mn  Mn6  1  0.65796115  0.32905560  0.98636392  1
  Mn  Mn7  1  0.82994910  0.66178721  0.71363792  1
  Mn  Mn8  1  0.82982732  0.16766345  0.71364740  1
  Cu  Cu9  1  0.16589024  0.82714853  0.21016093  1
  Cu  Cu10  1  0.16515223  0.33912585  0.21042701  1
  Cu  Cu11  1  0.33893279  0.16918952  0.71204491  1
  O  O12  1  0.15471664  0.82575743  0.59507807  1
  O  O13  1  0.04825541  0.52500738  0.35102048  1
  O  O14  1  0.33747939  0.66940896  0.11106577  1
  O  O15  1  0.99473729  0.99715875  0.29648377  1
  O  O16  1  0.99307448  0.99643735  0.80642403  1
  O  O17  1  0.15450981  0.32892701  0.59500801  1
  O  O18  1  0.50146005  0.96622386  0.35020703  1
  O  O19  1  0.49880814  0.53339109  0.34942710  1
  O  O20  1  0.32777153  0.16370776  0.09293817  1
  O  O21  1  0.67522889  0.83723708  0.60515444  1
  O  O22  1  0.53143235  0.49206420  0.84539712  1
  O  O23  1  0.53166247  0.03890313  0.84545286  1
  O  O24  1  0.67917275  0.33930839  0.60837801  1
  O  O25  1  0.81063487  0.65814643  0.09493117  1
  O  O26  1  0.96483550  0.48232806  0.83467212  1
  O  O27  1  0.81229867  0.15386938  0.09557741  1
