# generated using pymatgen
data_LiMg6Mn
_symmetry_space_group_name_H-M   'P 1'
_cell_length_a   6.22714848
_cell_length_b   6.32177266
_cell_length_c   4.96566703
_cell_angle_alpha   90.00000000
_cell_angle_beta   90.00000000
_cell_angle_gamma   120.50395180
_symmetry_Int_Tables_number   1
_chemical_formula_structural   LiMg6Mn
_chemical_formula_sum   'Li1 Mg6 Mn1'
_cell_volume   168.42572780
_cell_formula_units_Z   1
loop_
 _symmetry_equiv_pos_site_id
 _symmetry_equiv_pos_as_xyz
  1  'x, y, z'
loop_
 _atom_site_type_symbol
 _atom_site_label
 _atom_site_symmetry_multiplicity
 _atom_site_fract_x
 _atom_site_fract_y
 _atom_site_fract_z
 _atom_site_occupancy
  Li  Li0  1  0.16840368  0.83420134  0.25000000  1
  Mg  Mg1  1  0.66591806  0.33186114  0.25000000  1
  Mg  Mg2  1  0.66591806  0.83405592  0.25000000  1
  Mg  Mg3  1  0.32691024  0.16684664  0.75000000  1
  Mg  Mg4  1  0.32691024  0.66006460  0.75000000  1
  Mg  Mg5  1  0.84113534  0.17056817  0.75000000  1
  Mg  Mg6  1  0.83668247  0.66834174  0.75000000  1
  Mn  Mn7  1  0.16812191  0.33406046  0.25000000  1
