# generated using pymatgen
data_Li2MnP2O7
_symmetry_space_group_name_H-M   'P 1'
_cell_length_a   5.66775550
_cell_length_b   7.74509034
_cell_length_c   8.00886616
_cell_angle_alpha   64.94633033
_cell_angle_beta   90.00000000
_cell_angle_gamma   68.53742312
_symmetry_Int_Tables_number   1
_chemical_formula_structural   Li2MnP2O7
_chemical_formula_sum   'Li4 Mn2 P4 O14'
_cell_volume   291.35537665
_cell_formula_units_Z   2
loop_
 _symmetry_equiv_pos_site_id
 _symmetry_equiv_pos_as_xyz
  1  'x, y, z'
loop_
 _atom_site_type_symbol
 _atom_site_label
 _atom_site_symmetry_multiplicity
 _atom_site_fract_x
 _atom_site_fract_y
 _atom_site_fract_z
 _atom_site_occupancy
  Li  Li0  1  0.07411790  0.54679770  0.80739060  1
  Li  Li1  1  0.62091560  0.45320230  0.69260940  1
  Li  Li2  1  0.37908440  0.54679770  0.30739060  1
  Li  Li3  1  0.92588210  0.45320230  0.19260940  1
  Mn  Mn4  1  0.00000000  0.00000000  0.50000000  1
  Mn  Mn5  1  0.00000000  0.00000000  0.00000000  1
  P  P6  1  0.47628429  0.77119073  0.85751107  1
  P  P7  1  0.75252499  0.77119073  0.35751107  1
  P  P8  1  0.24747501  0.22880927  0.64248893  1
  P  P9  1  0.52371571  0.22880927  0.14248893  1
  O  O10  1  0.30702078  0.75403043  0.71799348  1
  O  O11  1  0.75174753  0.61252832  0.91350233  1
  O  O12  1  0.88196299  0.77070493  0.52687195  1
  O  O13  1  0.93894880  0.75403043  0.21799348  1
  O  O14  1  0.63572415  0.61252832  0.41350233  1
  O  O15  1  0.34733208  0.77070493  0.02687195  1
  O  O16  1  0.65266792  0.22929507  0.97312805  1
  O  O17  1  0.36427585  0.38747168  0.58649767  1
  O  O18  1  0.06105120  0.24596957  0.78200652  1
  O  O19  1  0.11803701  0.22929507  0.47312805  1
  O  O20  1  0.24825247  0.38747168  0.08649767  1
  O  O21  1  0.69297922  0.24596957  0.28200652  1
  O  O22  1  0.49050749  0.00000000  0.75000000  1
  O  O23  1  0.50949251  0.00000000  0.25000000  1
