# generated using pymatgen
data_Li4Mn(PO4)2
_symmetry_space_group_name_H-M   'P 1'
_cell_length_a   4.93464506
_cell_length_b   5.28321253
_cell_length_c   6.21104045
_cell_angle_alpha   95.38501078
_cell_angle_beta   94.27071697
_cell_angle_gamma   98.91096602
_symmetry_Int_Tables_number   1
_chemical_formula_structural   Li4Mn(PO4)2
_chemical_formula_sum   'Li4 Mn1 P2 O8'
_cell_volume   158.61276223
_cell_formula_units_Z   1
loop_
 _symmetry_equiv_pos_site_id
 _symmetry_equiv_pos_as_xyz
  1  'x, y, z'
loop_
 _atom_site_type_symbol
 _atom_site_label
 _atom_site_symmetry_multiplicity
 _atom_site_fract_x
 _atom_site_fract_y
 _atom_site_fract_z
 _atom_site_occupancy
  Li  Li0  1  0.15803443  0.29763347  0.53518854  1
  Li  Li1  1  0.32757571  0.58941585  0.19018927  1
  Li  Li2  1  0.67242429  0.41058415  0.80981073  1
  Li  Li3  1  0.84196557  0.70236653  0.46481146  1
  Mn  Mn4  1  0.00000000  0.00000000  0.00000000  1
  P  P5  1  0.36537422  0.81361576  0.72006346  1
  P  P6  1  0.63462578  0.18638424  0.27993654  1
  O  O7  1  0.22075122  0.66587870  0.89894445  1
  O  O8  1  0.24306659  0.67981928  0.49442121  1
  O  O9  1  0.31938765  0.19518101  0.25376999  1
  O  O10  1  0.29815352  0.09405451  0.75415023  1
  O  O11  1  0.70184648  0.90594549  0.24584977  1
  O  O12  1  0.68061235  0.80481899  0.74623001  1
  O  O13  1  0.75693341  0.32018072  0.50557879  1
  O  O14  1  0.77924878  0.33412130  0.10105555  1
