# generated using pymatgen
data_Mn3Co2Ni(PO4)6
_symmetry_space_group_name_H-M   'P 1'
_cell_length_a   8.43250035
_cell_length_b   8.57369013
_cell_length_c   8.57369043
_cell_angle_alpha   60.00000267
_cell_angle_beta   59.44456791
_cell_angle_gamma   59.44456896
_symmetry_Int_Tables_number   1
_chemical_formula_structural   Mn3Co2Ni(PO4)6
_chemical_formula_sum   'Mn3 Co2 Ni1 P6 O24'
_cell_volume   434.58969857
_cell_formula_units_Z   1
loop_
 _symmetry_equiv_pos_site_id
 _symmetry_equiv_pos_as_xyz
  1  'x, y, z'
loop_
 _atom_site_type_symbol
 _atom_site_label
 _atom_site_symmetry_multiplicity
 _atom_site_fract_x
 _atom_site_fract_y
 _atom_site_fract_z
 _atom_site_occupancy
  Mn  Mn0  1  0.07546613  0.64151129  0.64151129  1
  Mn  Mn1  1  0.42421051  0.85859650  0.85859650  1
  Mn  Mn2  1  0.92740455  0.35753215  0.35753215  1
  Co  Co3  1  0.98937623  0.00354092  0.00354092  1
  Co  Co4  1  0.50041762  0.49986079  0.49986079  1
  Ni  Ni5  1  0.57368177  0.14210574  0.14210574  1
  P  P6  1  0.24990250  0.24934165  0.54359942  1
  P  P7  1  0.24990250  0.95715643  0.24934165  1
  P  P8  1  0.24990250  0.54359942  0.95715643  1
  P  P9  1  0.75378023  0.45808642  0.03958289  1
  P  P10  1  0.75378023  0.03958289  0.74855046  1
  P  P11  1  0.75378023  0.74855046  0.45808642  1
  O  O12  1  0.06029555  0.11777989  0.31033876  1
  O  O13  1  0.06029555  0.51158480  0.11777989  1
  O  O14  1  0.06029555  0.31033876  0.51158480  1
  O  O15  1  0.21983640  0.09115403  0.74906666  1
  O  O16  1  0.43765240  0.18592667  0.39157080  1
  O  O17  1  0.26819537  0.41374722  0.56219518  1
  O  O18  1  0.21983640  0.93994191  0.09115403  1
  O  O19  1  0.26819537  0.75586323  0.41374722  1
  O  O20  1  0.56340088  0.61633634  0.00789148  1
  O  O21  1  0.26819537  0.56219518  0.75586323  1
  O  O22  1  0.78324709  0.25738125  0.05534495  1
  O  O23  1  0.56340088  0.00789148  0.81237230  1
  O  O24  1  0.43765240  0.98485012  0.18592667  1
  O  O25  1  0.21983640  0.74906666  0.93994191  1
  O  O26  1  0.72776102  0.44743730  0.23967751  1
  O  O27  1  0.43765240  0.39157080  0.98485012  1
  O  O28  1  0.72776102  0.23967751  0.58512517  1
  O  O29  1  0.78324709  0.05534495  0.90402671  1
  O  O30  1  0.72776102  0.58512517  0.44743730  1
  O  O31  1  0.56340088  0.81237230  0.61633634  1
  O  O32  1  0.78324709  0.90402671  0.25738125  1
  O  O33  1  0.93907696  0.68000419  0.49978325  1
  O  O34  1  0.93907696  0.49978325  0.88113561  1
  O  O35  1  0.93907696  0.88113561  0.68000419  1
