# generated using pymatgen
data_Li5Fe3Co2(PO4)6
_symmetry_space_group_name_H-M   'P 1'
_cell_length_a   8.44224932
_cell_length_b   8.79503123
_cell_length_c   8.80789090
_cell_angle_alpha   60.03139022
_cell_angle_beta   59.31206913
_cell_angle_gamma   59.44696795
_symmetry_Int_Tables_number   1
_chemical_formula_structural   Li5Fe3Co2(PO4)6
_chemical_formula_sum   'Li5 Fe3 Co2 P6 O24'
_cell_volume   458.15755098
_cell_formula_units_Z   1
loop_
 _symmetry_equiv_pos_site_id
 _symmetry_equiv_pos_as_xyz
  1  'x, y, z'
loop_
 _atom_site_type_symbol
 _atom_site_label
 _atom_site_symmetry_multiplicity
 _atom_site_fract_x
 _atom_site_fract_y
 _atom_site_fract_z
 _atom_site_occupancy
  Li  Li0  1  0.52251655  0.16101835  0.15832781  1
  Li  Li1  1  0.25122537  0.85860189  0.64444136  1
  Li  Li2  1  0.71392430  0.14756370  0.32886403  1
  Li  Li3  1  0.71203609  0.81317594  0.14372530  1
  Li  Li4  1  0.71201864  0.33308827  0.81186280  1
  Fe  Fe5  1  0.06548559  0.64283924  0.64554865  1
  Fe  Fe6  1  0.43510389  0.85375193  0.85757659  1
  Fe  Fe7  1  0.95281569  0.34882841  0.34646634  1
  Co  Co8  1  0.00185351  0.00288437  0.00307166  1
  Co  Co9  1  0.49574775  0.49582811  0.49960570  1
  P  P10  1  0.25829705  0.24974733  0.54789199  1
  P  P11  1  0.25732075  0.94654804  0.24309596  1
  P  P12  1  0.25965942  0.54744017  0.94578502  1
  P  P13  1  0.75388570  0.45796854  0.04341154  1
  P  P14  1  0.76949277  0.03940026  0.74346927  1
  P  P15  1  0.73916573  0.74749697  0.46127477  1
  O  O16  1  0.07540164  0.10919614  0.30602320  1
  O  O17  1  0.07645395  0.50446774  0.10810519  1
  O  O18  1  0.07475285  0.31671678  0.50113847  1
  O  O19  1  0.22560712  0.08717958  0.73991789  1
  O  O20  1  0.44638849  0.18653227  0.39781366  1
  O  O21  1  0.27041549  0.40617335  0.57561021  1
  O  O22  1  0.22490276  0.93486533  0.08907657  1
  O  O23  1  0.26870162  0.75548651  0.40771965  1
  O  O24  1  0.56844676  0.61263680  0.00413146  1
  O  O25  1  0.27597906  0.57878486  0.74524900  1
  O  O26  1  0.78647619  0.26672378  0.04358900  1
  O  O27  1  0.59829443  0.98387360  0.79715994  1
  O  O28  1  0.44726452  0.97470436  0.17696516  1
  O  O29  1  0.22384419  0.75043883  0.92687418  1
  O  O30  1  0.72574943  0.42428132  0.24889623  1
  O  O31  1  0.44698303  0.39795361  0.97288071  1
  O  O32  1  0.73570304  0.24235146  0.59640071  1
  O  O33  1  0.78197358  0.05018618  0.90859856  1
  O  O34  1  0.72602623  0.59726595  0.42247422  1
  O  O35  1  0.53965400  0.81025130  0.61003935  1
  O  O36  1  0.77983648  0.90519008  0.27118678  1
  O  O37  1  0.90293933  0.66916933  0.53604233  1
  O  O38  1  0.93194228  0.51618909  0.89857195  1
  O  O39  1  0.96571671  0.89620123  0.66812080  1
