# generated using pymatgen
data_Li6Cr3Sb(PO4)6
_symmetry_space_group_name_H-M   'P 1'
_cell_length_a   8.47321602
_cell_length_b   8.52242759
_cell_length_c   8.52489370
_cell_angle_alpha   63.33039921
_cell_angle_beta   63.48068342
_cell_angle_gamma   63.21577214
_symmetry_Int_Tables_number   1
_chemical_formula_structural   Li6Cr3Sb(PO4)6
_chemical_formula_sum   'Li6 Cr3 Sb1 P6 O24'
_cell_volume   467.50512419
_cell_formula_units_Z   1
loop_
 _symmetry_equiv_pos_site_id
 _symmetry_equiv_pos_as_xyz
  1  'x, y, z'
loop_
 _atom_site_type_symbol
 _atom_site_label
 _atom_site_symmetry_multiplicity
 _atom_site_fract_x
 _atom_site_fract_y
 _atom_site_fract_z
 _atom_site_occupancy
  Li  Li0  1  0.02215955  0.99709297  0.99436403  1
  Li  Li1  1  0.75620176  0.13246330  0.34295068  1
  Li  Li2  1  0.46435496  0.50374575  0.50058101  1
  Li  Li3  1  0.27680649  0.83173877  0.63845326  1
  Li  Li4  1  0.63682750  0.28092582  0.82329395  1
  Li  Li5  1  0.82626217  0.63601498  0.28102240  1
  Cr  Cr6  1  0.13709165  0.14506384  0.13773400  1
  Cr  Cr7  1  0.35906303  0.35444585  0.35049483  1
  Cr  Cr8  1  0.64689591  0.65245006  0.65001005  1
  Sb  Sb9  1  0.84779813  0.84442031  0.84605142  1
  P  P10  1  0.06674002  0.75454988  0.43485430  1
  P  P11  1  0.43366770  0.06925620  0.75464860  1
  P  P12  1  0.75217082  0.44046690  0.06208252  1
  P  P13  1  0.25778481  0.53619898  0.95267346  1
  P  P14  1  0.54116918  0.95729855  0.25729951  1
  P  P15  1  0.95005782  0.25562049  0.53277411  1
  O  O16  1  0.12531137  0.29706968  0.47957210  1
  O  O17  1  0.32429731  0.49636671  0.10765745  1
  O  O18  1  0.05542471  0.91743077  0.25287202  1
  O  O19  1  0.53591565  0.11144140  0.30756020  1
  O  O20  1  0.24255323  0.59013428  0.40673495  1
  O  O21  1  0.08246128  0.81067057  0.57562152  1
  O  O22  1  0.24635531  0.07310734  0.90833903  1
  O  O23  1  0.42062839  0.24464618  0.58507618  1
  O  O24  1  0.59441513  0.41325889  0.24779377  1
  O  O25  1  0.18673748  0.38699444  0.98296814  1
  O  O26  1  0.11090521  0.73798242  0.92052915  1
  O  O27  1  0.37534206  0.00674869  0.20034091  1
  O  O28  1  0.57733623  0.07495955  0.81627561  1
  O  O29  1  0.90107451  0.24625976  0.07254840  1
  O  O30  1  0.81652755  0.57990560  0.06840915  1
  O  O31  1  0.42425925  0.54872772  0.76450687  1
  O  O32  1  0.54381519  0.77396386  0.42757785  1
  O  O33  1  0.73846122  0.90978824  0.11019481  1
  O  O34  1  0.95455006  0.19331061  0.38630519  1
  O  O35  1  0.77098262  0.43111884  0.54625815  1
  O  O36  1  0.49306020  0.89092327  0.70620114  1
  O  O37  1  0.91852772  0.11214872  0.73337041  1
  O  O38  1  0.70288685  0.49805901  0.88666057  1
  O  O39  1  0.88311899  0.71223082  0.49833833  1
