# generated using pymatgen
data_Mg6MnSn
_symmetry_space_group_name_H-M   'P 1'
_cell_length_a   6.29033638
_cell_length_b   6.29033588
_cell_length_c   4.96477312
_cell_angle_alpha   90.00000000
_cell_angle_beta   90.00000000
_cell_angle_gamma   119.40701134
_symmetry_Int_Tables_number   1
_chemical_formula_structural   Mg6MnSn
_chemical_formula_sum   'Mg6 Mn1 Sn1'
_cell_volume   171.13621202
_cell_formula_units_Z   1
loop_
 _symmetry_equiv_pos_site_id
 _symmetry_equiv_pos_as_xyz
  1  'x, y, z'
loop_
 _atom_site_type_symbol
 _atom_site_label
 _atom_site_symmetry_multiplicity
 _atom_site_fract_x
 _atom_site_fract_y
 _atom_site_fract_z
 _atom_site_occupancy
  Mg  Mg0  1  0.16284767  0.82655892  0.25000000  1
  Mg  Mg1  1  0.67344108  0.33715233  0.25000000  1
  Mg  Mg2  1  0.66648120  0.83351880  0.25000000  1
  Mg  Mg3  1  0.33040468  0.65894026  0.75000000  1
  Mg  Mg4  1  0.84105974  0.16959532  0.75000000  1
  Mg  Mg5  1  0.83214224  0.66785776  0.75000000  1
  Mn  Mn6  1  0.16607156  0.33392844  0.25000000  1
  Sn  Sn7  1  0.32755184  0.17244816  0.75000000  1
