# generated using pymatgen
data_Li2CrSiO4
_symmetry_space_group_name_H-M   'P 1'
_cell_length_a   6.11809641
_cell_length_b   11.31630012
_cell_length_c   5.22720994
_cell_angle_alpha   90.00000000
_cell_angle_beta   92.98752335
_cell_angle_gamma   90.00000000
_symmetry_Int_Tables_number   1
_chemical_formula_structural   Li2CrSiO4
_chemical_formula_sum   'Li8 Cr4 Si4 O16'
_cell_volume   361.40991986
_cell_formula_units_Z   4
loop_
 _symmetry_equiv_pos_site_id
 _symmetry_equiv_pos_as_xyz
  1  'x, y, z'
loop_
 _atom_site_type_symbol
 _atom_site_label
 _atom_site_symmetry_multiplicity
 _atom_site_fract_x
 _atom_site_fract_y
 _atom_site_fract_z
 _atom_site_occupancy
  Li  Li0  1  0.00107433  0.84248249  0.68596159  1
  Li  Li1  1  0.24691263  0.06764499  0.70671906  1
  Li  Li2  1  0.25308737  0.56764499  0.79328094  1
  Li  Li3  1  0.49892567  0.34248249  0.81403841  1
  Li  Li4  1  0.50107433  0.65751751  0.18596159  1
  Li  Li5  1  0.74691263  0.43235501  0.20671906  1
  Li  Li6  1  0.75308737  0.93235501  0.29328094  1
  Li  Li7  1  0.99892567  0.15751751  0.31403841  1
  Cr  Cr8  1  0.00793841  0.66895469  0.19007718  1
  Cr  Cr9  1  0.49206159  0.16895469  0.30992282  1
  Cr  Cr10  1  0.50793841  0.83104531  0.69007718  1
  Cr  Cr11  1  0.99206159  0.33104531  0.80992282  1
  Si  Si12  1  0.24783652  0.40790865  0.30557967  1
  Si  Si13  1  0.25216348  0.90790865  0.19442033  1
  Si  Si14  1  0.74783652  0.09209135  0.80557967  1
  Si  Si15  1  0.75216348  0.59209135  0.69442033  1
  O  O16  1  0.02725343  0.32925908  0.21007219  1
  O  O17  1  0.02698751  0.84417732  0.29301306  1
  O  O18  1  0.26060312  0.04109763  0.32228244  1
  O  O19  1  0.24940873  0.41348963  0.61943914  1
  O  O20  1  0.25059127  0.91348963  0.88056086  1
  O  O21  1  0.23939688  0.54109763  0.17771756  1
  O  O22  1  0.47301249  0.34417732  0.20698694  1
  O  O23  1  0.47274657  0.82925908  0.28992781  1
  O  O24  1  0.52725343  0.17074092  0.71007219  1
  O  O25  1  0.52698751  0.65582268  0.79301306  1
  O  O26  1  0.76060312  0.45890237  0.82228244  1
  O  O27  1  0.74940873  0.08651037  0.11943914  1
  O  O28  1  0.75059127  0.58651037  0.38056086  1
  O  O29  1  0.73939688  0.95890237  0.67771756  1
  O  O30  1  0.97301249  0.15582268  0.70698694  1
  O  O31  1  0.97274657  0.67074092  0.78992781  1
