# generated using pymatgen
data_LiFePO4
_symmetry_space_group_name_H-M   'P 1'
_cell_length_a   10.02581850
_cell_length_b   10.02581839
_cell_length_c   24.09161781
_cell_angle_alpha   90.00000000
_cell_angle_beta   90.00000000
_cell_angle_gamma   120.00000149
_symmetry_Int_Tables_number   1
_chemical_formula_structural   LiFePO4
_chemical_formula_sum   'Li24 Fe24 P24 O96'
_cell_volume   2097.18267592
_cell_formula_units_Z   24
loop_
 _symmetry_equiv_pos_site_id
 _symmetry_equiv_pos_as_xyz
  1  'x, y, z'
loop_
 _atom_site_type_symbol
 _atom_site_label
 _atom_site_symmetry_multiplicity
 _atom_site_fract_x
 _atom_site_fract_y
 _atom_site_fract_z
 _atom_site_occupancy
  Li  Li0  1  0.02182452  0.97085136  0.69490243  1
  Li  Li1  1  0.03050794  0.58160153  0.03464889  1
  Li  Li2  1  0.06138739  0.46438917  0.19399395  1
  Li  Li3  1  0.03995978  0.47684802  0.84879520  1
  Li  Li4  1  0.40300177  0.93861261  0.86065995  1
  Li  Li5  1  0.43688824  0.96004022  0.51546220  1
  Li  Li6  1  0.02914864  0.05097316  0.02823543  1
  Li  Li7  1  0.05097316  0.02182452  0.86156943  1
  Li  Li8  1  0.55109359  0.96949206  0.70131589  1
  Li  Li9  1  0.41839847  0.44890641  0.36798289  1
  Li  Li10  1  0.52315198  0.56311176  0.18212820  1
  Li  Li11  1  0.53561083  0.59699823  0.52732695  1
  Li  Li12  1  0.46438917  0.40300177  0.02732695  1
  Li  Li13  1  0.47684802  0.43688824  0.68212820  1
  Li  Li14  1  0.58160153  0.55109359  0.86798289  1
  Li  Li15  1  0.44890641  0.03050794  0.20131589  1
  Li  Li16  1  0.94902684  0.97817548  0.36156943  1
  Li  Li17  1  0.97085136  0.94902684  0.52823543  1
  Li  Li18  1  0.56311176  0.03995978  0.01546220  1
  Li  Li19  1  0.59699823  0.06138739  0.36065995  1
  Li  Li20  1  0.96004022  0.52315198  0.34879520  1
  Li  Li21  1  0.93861261  0.53561083  0.69399395  1
  Li  Li22  1  0.96949206  0.41839847  0.53464889  1
  Li  Li23  1  0.97817548  0.02914864  0.19490243  1
  Fe  Fe24  1  0.10593764  0.82328611  0.27258055  1
  Fe  Fe25  1  0.08190178  0.75935045  0.91981485  1
  Fe  Fe26  1  0.12435960  0.75643868  0.59529351  1
  Fe  Fe27  1  0.31032701  0.66386700  0.75474484  1
  Fe  Fe28  1  0.33613300  0.64646001  0.08807784  1
  Fe  Fe29  1  0.35353999  0.68967299  0.42141084  1
  Fe  Fe30  1  0.17671389  0.28265153  0.60591355  1
  Fe  Fe31  1  0.24356132  0.36792092  0.92862751  1
  Fe  Fe32  1  0.24064955  0.32255234  0.25314785  1
  Fe  Fe33  1  0.63207908  0.87564040  0.26196051  1
  Fe  Fe34  1  0.67744766  0.91809822  0.58648085  1
  Fe  Fe35  1  0.28265153  0.10593764  0.43924655  1
  Fe  Fe36  1  0.71734847  0.89406236  0.93924655  1
  Fe  Fe37  1  0.32255234  0.08190178  0.08648085  1
  Fe  Fe38  1  0.36792092  0.12435960  0.76196051  1
  Fe  Fe39  1  0.75935045  0.67744766  0.75314785  1
  Fe  Fe40  1  0.75643868  0.63207908  0.42862751  1
  Fe  Fe41  1  0.82328611  0.71734847  0.10591355  1
  Fe  Fe42  1  0.64646001  0.31032701  0.92141084  1
  Fe  Fe43  1  0.66386700  0.35353999  0.58807784  1
  Fe  Fe44  1  0.68967299  0.33613300  0.25474484  1
  Fe  Fe45  1  0.87564040  0.24356132  0.09529351  1
  Fe  Fe46  1  0.91809822  0.24064955  0.41981485  1
  Fe  Fe47  1  0.89406236  0.17671389  0.77258055  1
  P  P48  1  0.09182109  0.78532885  0.78943037  1
  P  P49  1  0.08157741  0.75318193  0.46785792  1
  P  P50  1  0.13208002  0.77120773  0.14060330  1
  P  P51  1  0.28331204  0.64466462  0.29424909  1
  P  P52  1  0.36135258  0.71668796  0.96091609  1
  P  P53  1  0.35533538  0.63864742  0.62758209  1
  P  P54  1  0.22879227  0.36087229  0.47393630  1
  P  P55  1  0.21467115  0.30649224  0.12276437  1
  P  P56  1  0.24681807  0.32839548  0.80119092  1
  P  P57  1  0.63912771  0.86791998  0.80726930  1
  P  P58  1  0.67160452  0.91842259  0.13452392  1
  P  P59  1  0.69350776  0.90817891  0.45609737  1
  P  P60  1  0.30649224  0.09182109  0.95609737  1
  P  P61  1  0.32839548  0.08157741  0.63452392  1
  P  P62  1  0.36087229  0.13208002  0.30726930  1
  P  P63  1  0.75318193  0.67160452  0.30119092  1
  P  P64  1  0.78532885  0.69350776  0.62276437  1
  P  P65  1  0.77120773  0.63912771  0.97393630  1
  P  P66  1  0.64466462  0.36135258  0.12758209  1
  P  P67  1  0.63864742  0.28331204  0.46091609  1
  P  P68  1  0.71668796  0.35533538  0.79424909  1
  P  P69  1  0.86791998  0.22879227  0.64060330  1
  P  P70  1  0.91842259  0.24681807  0.96785792  1
  P  P71  1  0.90817891  0.21467115  0.28943037  1
  O  O72  1  0.04319854  0.77318127  0.08769013  1
  O  O73  1  0.08820102  0.91231079  0.47250100  1
  O  O74  1  0.01806884  0.68285772  0.84130240  1
  O  O75  1  0.14385492  0.98541928  0.93017521  1
  O  O76  1  0.03419362  0.75850300  0.19176118  1
  O  O77  1  0.01451116  0.66192201  0.52228344  1
  O  O78  1  0.23993460  0.93426324  0.80859685  1
  O  O79  1  0.13583751  0.65584942  0.30461566  1
  O  O80  1  0.12036891  0.68824446  0.74615192  1
  O  O81  1  0.31566316  0.97366522  0.58558760  1
  O  O82  1  0.29253997  0.92212885  0.14199360  1
  O  O83  1  0.16003080  0.63244536  0.13662026  1
  O  O84  1  0.25027751  0.78829363  0.46013508  1
  O  O85  1  0.19301654  0.60532996  0.61141332  1
  O  O86  1  0.07787115  0.37041112  0.47532660  1
  O  O87  1  0.27708606  0.74845394  0.91300936  1
  O  O88  1  0.02633478  0.34199694  0.91892060  1
  O  O89  1  0.06573676  0.30567136  0.14192985  1
  O  O90  1  0.01458072  0.15843564  0.26350821  1
  O  O91  1  0.08768921  0.17589024  0.80583500  1
  O  O92  1  0.26039367  0.67442726  0.01419609  1
  O  O93  1  0.25154606  0.52863112  0.24634236  1
  O  O94  1  0.32557274  0.58596641  0.34752909  1
  O  O95  1  0.21170637  0.46198388  0.79346908  1
  O  O96  1  0.41403359  0.73960633  0.68086309  1
  O  O97  1  0.41231342  0.80698346  0.27808032  1
  O  O98  1  0.47241456  0.83996920  0.80328626  1
  O  O99  1  0.31175554  0.43212445  0.07948592  1
  O  O100  1  0.34415058  0.47998809  0.63794966  1
  O  O101  1  0.36755464  0.52758544  0.46995326  1
  O  O102  1  0.24149700  0.27569062  0.52509418  1
  O  O103  1  0.39467004  0.58768658  0.94474632  1
  O  O104  1  0.47136888  0.72291394  0.57967636  1
  O  O105  1  0.52001191  0.86416249  0.97128266  1
  O  O106  1  0.56787555  0.87963109  0.41281892  1
  O  O107  1  0.15843564  0.14385492  0.09684121  1
  O  O108  1  0.22681873  0.27001726  0.42102413  1
  O  O109  1  0.31714228  0.33521112  0.17463640  1
  O  O110  1  0.17589024  0.08820102  0.63916800  1
  O  O111  1  0.33807799  0.35258915  0.85561644  1
  O  O112  1  0.53801612  0.74972249  0.12680208  1
  O  O113  1  0.30567136  0.23993460  0.97526285  1
  O  O114  1  0.64741085  0.98548884  0.18894944  1
  O  O115  1  0.34199694  0.31566316  0.75225460  1
  O  O116  1  0.37041112  0.29253997  0.30865960  1
  O  O117  1  0.66478888  0.98193116  0.50796940  1
  O  O118  1  0.72430938  0.96580638  0.85842818  1
  O  O119  1  0.27001726  0.04319854  0.25435713  1
  O  O120  1  0.72998274  0.95680146  0.75435713  1
  O  O121  1  0.27569062  0.03419362  0.35842818  1
  O  O122  1  0.33521112  0.01806884  0.00796940  1
  O  O123  1  0.62958888  0.70746003  0.80865960  1
  O  O124  1  0.65800306  0.68433684  0.25225460  1
  O  O125  1  0.35258915  0.01451116  0.68894944  1
  O  O126  1  0.69432864  0.76006540  0.47526285  1
  O  O127  1  0.46198388  0.25027751  0.62680208  1
  O  O128  1  0.66192201  0.64741085  0.35561644  1
  O  O129  1  0.82410976  0.91179898  0.13916800  1
  O  O130  1  0.68285772  0.66478888  0.67463640  1
  O  O131  1  0.77318127  0.72998274  0.92102413  1
  O  O132  1  0.84156436  0.85614508  0.59684121  1
  O  O133  1  0.43212445  0.12036891  0.91281892  1
  O  O134  1  0.47998809  0.13583751  0.47128266  1
  O  O135  1  0.52863112  0.27708606  0.07967636  1
  O  O136  1  0.60532996  0.41231342  0.44474632  1
  O  O137  1  0.75850300  0.72430938  0.02509418  1
  O  O138  1  0.63244536  0.47241456  0.96995326  1
  O  O139  1  0.65584942  0.52001191  0.13794966  1
  O  O140  1  0.68824446  0.56787555  0.57948592  1
  O  O141  1  0.52758544  0.16003080  0.30328726  1
  O  O142  1  0.58768658  0.19301654  0.77808032  1
  O  O143  1  0.58596641  0.26039367  0.18086309  1
  O  O144  1  0.78829363  0.53801612  0.29346908  1
  O  O145  1  0.67442726  0.41403359  0.84752909  1
  O  O146  1  0.74845394  0.47136888  0.74634236  1
  O  O147  1  0.73960633  0.32557274  0.51419609  1
  O  O148  1  0.91231079  0.82410976  0.30583500  1
  O  O149  1  0.98541928  0.84156436  0.76350821  1
  O  O150  1  0.93426324  0.69432864  0.64192985  1
  O  O151  1  0.97366522  0.65800306  0.41892060  1
  O  O152  1  0.72291394  0.25154606  0.41300936  1
  O  O153  1  0.92212885  0.62958888  0.97532660  1
  O  O154  1  0.80698346  0.39467004  0.11141332  1
  O  O155  1  0.74972249  0.21170637  0.96013508  1
  O  O156  1  0.83996920  0.36755464  0.63662026  1
  O  O157  1  0.70746003  0.07787115  0.64199360  1
  O  O158  1  0.68433684  0.02633478  0.08558760  1
  O  O159  1  0.87963109  0.31175554  0.24615192  1
  O  O160  1  0.86416249  0.34415058  0.80461566  1
  O  O161  1  0.76006540  0.06573676  0.30859685  1
  O  O162  1  0.98548884  0.33807799  0.02228344  1
  O  O163  1  0.96580638  0.24149700  0.69176118  1
  O  O164  1  0.85614508  0.01458072  0.43017521  1
  O  O165  1  0.98193116  0.31714228  0.34130240  1
  O  O166  1  0.91179898  0.08768921  0.97250100  1
  O  O167  1  0.95680146  0.22681873  0.58769013  1
