# generated using pymatgen
data_Li2CoP2O7
_symmetry_space_group_name_H-M   'P 1'
_cell_length_a   5.11862772
_cell_length_b   7.07438257
_cell_length_c   8.74932353
_cell_angle_alpha   113.74408916
_cell_angle_beta   90.75612130
_cell_angle_gamma   110.71662956
_symmetry_Int_Tables_number   1
_chemical_formula_structural   Li2CoP2O7
_chemical_formula_sum   'Li4 Co2 P4 O14'
_cell_volume   266.73425576
_cell_formula_units_Z   2
loop_
 _symmetry_equiv_pos_site_id
 _symmetry_equiv_pos_as_xyz
  1  'x, y, z'
loop_
 _atom_site_type_symbol
 _atom_site_label
 _atom_site_symmetry_multiplicity
 _atom_site_fract_x
 _atom_site_fract_y
 _atom_site_fract_z
 _atom_site_occupancy
  Li  Li0  1  0.07366818  0.31025928  0.00835701  1
  Li  Li1  1  0.32846634  0.61433926  0.75239180  1
  Li  Li2  1  0.67153366  0.38566074  0.24760820  1
  Li  Li3  1  0.92633182  0.68974072  0.99164299  1
  Co  Co4  1  0.14353664  0.15705659  0.33750373  1
  Co  Co5  1  0.85646336  0.84294341  0.66249627  1
  P  P6  1  0.24972562  0.64783681  0.39259508  1
  P  P7  1  0.47923539  0.83686372  0.14111396  1
  P  P8  1  0.52076461  0.16313628  0.85888604  1
  P  P9  1  0.75027438  0.35216319  0.60740492  1
  O  O10  1  0.98899593  0.70849247  0.42926236  1
  O  O11  1  0.43466296  0.69043817  0.54905860  1
  O  O12  1  0.15656204  0.40126499  0.25520933  1
  O  O13  1  0.19819672  0.08447498  0.84956780  1
  O  O14  1  0.30514857  0.61278637  0.98891553  1
  O  O15  1  0.44983203  0.80456013  0.31554549  1
  O  O16  1  0.64168030  0.99016894  0.84831667  1
  O  O17  1  0.35831970  0.00983106  0.15168333  1
  O  O18  1  0.55016797  0.19543987  0.68445451  1
  O  O19  1  0.69485143  0.38721363  0.01108447  1
  O  O20  1  0.80180328  0.91552502  0.15043220  1
  O  O21  1  0.84343796  0.59873501  0.74479067  1
  O  O22  1  0.56533704  0.30956183  0.45094140  1
  O  O23  1  0.01100407  0.29150753  0.57073764  1
