# generated using pymatgen
data_Na2H6C4O7
_symmetry_space_group_name_H-M   'P 1'
_cell_length_a   8.35764196
_cell_length_b   8.35764196
_cell_length_c   14.79774067
_cell_angle_alpha   64.91782281
_cell_angle_beta   115.08217719
_cell_angle_gamma   155.21912904
_symmetry_Int_Tables_number   1
_chemical_formula_structural   Na2H6C4O7
_chemical_formula_sum   'Na4 H12 C8 O14'
_cell_volume   390.30837518
_cell_formula_units_Z   2
loop_
 _symmetry_equiv_pos_site_id
 _symmetry_equiv_pos_as_xyz
  1  'x, y, z'
loop_
 _atom_site_type_symbol
 _atom_site_label
 _atom_site_symmetry_multiplicity
 _atom_site_fract_x
 _atom_site_fract_y
 _atom_site_fract_z
 _atom_site_occupancy
  Na  Na0  1  0.10571441  0.40139951  0.77897008  1
  Na  Na1  1  0.40139951  0.10571441  0.72102992  1
  Na  Na2  1  0.89428559  0.59860049  0.22102992  1
  Na  Na3  1  0.59860049  0.89428559  0.27897008  1
  H  H4  1  0.09977522  0.16322079  0.69067123  1
  H  H5  1  0.16322079  0.09977522  0.80932877  1
  H  H6  1  0.90022478  0.83677921  0.30932877  1
  H  H7  1  0.83677921  0.90022478  0.19067123  1
  H  H8  1  0.74256856  0.76595878  0.91386442  1
  H  H9  1  0.76595878  0.74256856  0.58613558  1
  H  H10  1  0.25743144  0.23404122  0.08613558  1
  H  H11  1  0.23404122  0.25743144  0.41386442  1
  H  H12  1  0.71039635  0.88938673  0.94895596  1
  H  H13  1  0.88938673  0.71039635  0.55104404  1
  H  H14  1  0.28960365  0.11061327  0.05104404  1
  H  H15  1  0.11061327  0.28960365  0.44895596  1
  C  C16  1  0.99408533  0.51027974  0.92617290  1
  C  C17  1  0.51027974  0.99408533  0.57382710  1
  C  C18  1  0.00591467  0.48972026  0.07382710  1
  C  C19  1  0.48972026  0.00591467  0.42617290  1
  C  C20  1  0.04038187  0.67178384  0.97612803  1
  C  C21  1  0.67178384  0.04038187  0.52387197  1
  C  C22  1  0.95961813  0.32821616  0.02387197  1
  C  C23  1  0.32821616  0.95961813  0.47612803  1
  O  O24  1  0.98876569  0.52576176  0.83626196  1
  O  O25  1  0.52576176  0.98876569  0.66373804  1
  O  O26  1  0.01123431  0.47423824  0.16373804  1
  O  O27  1  0.47423824  0.01123431  0.33626196  1
  O  O28  1  0.09343081  0.88351116  0.94698271  1
  O  O29  1  0.88351116  0.09343081  0.55301729  1
  O  O30  1  0.90656919  0.11648884  0.05301729  1
  O  O31  1  0.11648884  0.90656919  0.44698271  1
  O  O32  1  0.29190026  0.29190026  0.75000000  1
  O  O33  1  0.70809974  0.70809974  0.25000000  1
  O  O34  1  0.65746782  0.81325490  0.89041219  1
  O  O35  1  0.81325490  0.65746782  0.60958781  1
  O  O36  1  0.34253218  0.18674510  0.10958781  1
  O  O37  1  0.18674510  0.34253218  0.39041219  1
