# generated using pymatgen
data_Li2Ti(NiO3)2
_symmetry_space_group_name_H-M   'P 1'
_cell_length_a   7.80998441
_cell_length_b   7.80998384
_cell_length_c   5.90383327
_cell_angle_alpha   101.76206308
_cell_angle_beta   101.76205832
_cell_angle_gamma   67.74231551
_symmetry_Int_Tables_number   1
_chemical_formula_structural   Li2Ti(NiO3)2
_chemical_formula_sum   'Li6 Ti3 Ni6 O18'
_cell_volume   323.07695200
_cell_formula_units_Z   3
loop_
 _symmetry_equiv_pos_site_id
 _symmetry_equiv_pos_as_xyz
  1  'x, y, z'
loop_
 _atom_site_type_symbol
 _atom_site_label
 _atom_site_symmetry_multiplicity
 _atom_site_fract_x
 _atom_site_fract_y
 _atom_site_fract_z
 _atom_site_occupancy
  Li  Li0  1  0.98835134  0.32877504  0.83484060  1
  Li  Li1  1  0.32877504  0.98835134  0.83484060  1
  Li  Li2  1  0.67831466  0.33789196  0.49849240  1
  Li  Li3  1  0.33789196  0.67831466  0.49849240  1
  Li  Li4  1  0.65796497  0.00870203  0.16666700  1
  Li  Li5  1  0.00870203  0.65796497  0.16666700  1
  Ti  Ti6  1  0.66228927  0.00437773  0.66666700  1
  Ti  Ti7  1  0.33333300  0.33333300  0.66666700  1
  Ti  Ti8  1  0.00437773  0.66228927  0.66666700  1
  Ni  Ni9  1  -0.00028775  0.32753203  0.32941332  1
  Ni  Ni10  1  0.66949051  0.66949051  0.32531113  1
  Ni  Ni11  1  0.32753203  -0.00028775  0.32941332  1
  Ni  Ni12  1  0.66695475  0.33913397  0.00391968  1
  Ni  Ni13  1  0.33913397  0.66695475  0.00391968  1
  Ni  Ni14  1  0.99717649  0.99717649  0.00802187  1
  O  O15  1  0.82074422  0.82074422  0.42965013  1
  O  O16  1  0.84859993  0.48554527  0.11423969  1
  O  O17  1  0.48554527  0.84859993  0.11423969  1
  O  O18  1  0.84592278  0.84592278  0.90368287  1
  O  O19  1  0.85348978  0.49883407  0.56230954  1
  O  O20  1  0.49883407  0.85348978  0.56230954  1
  O  O21  1  0.81806707  0.18112173  0.21909431  1
  O  O22  1  0.52159228  0.52159228  0.23708732  1
  O  O23  1  0.18112173  0.81806707  0.21909431  1
  O  O24  1  0.81317622  0.16783293  0.77102346  1
  O  O25  1  0.49134633  0.49134633  0.77775300  1
  O  O26  1  0.16783293  0.81317622  0.77102346  1
  O  O27  1  0.50685243  0.17274114  0.44750095  1
  O  O28  1  0.17274114  0.50685243  0.44750095  1
  O  O29  1  0.14507372  0.14507372  0.09624568  1
  O  O30  1  0.49392586  0.15981457  0.88583305  1
  O  O31  1  0.15981457  0.49392586  0.88583305  1
  O  O32  1  0.17531967  0.17531967  0.55558000  1
