# generated using pymatgen
data_Li4Ti2Mn5O12
_symmetry_space_group_name_H-M   'P 1'
_cell_length_a   5.29415578
_cell_length_b   9.07305134
_cell_length_c   10.06514160
_cell_angle_alpha   89.99999800
_cell_angle_beta   98.99965056
_cell_angle_gamma   90.00000030
_symmetry_Int_Tables_number   1
_chemical_formula_structural   Li4Ti2Mn5O12
_chemical_formula_sum   'Li8 Ti4 Mn10 O24'
_cell_volume   477.51862969
_cell_formula_units_Z   2
loop_
 _symmetry_equiv_pos_site_id
 _symmetry_equiv_pos_as_xyz
  1  'x, y, z'
loop_
 _atom_site_type_symbol
 _atom_site_label
 _atom_site_symmetry_multiplicity
 _atom_site_fract_x
 _atom_site_fract_y
 _atom_site_fract_z
 _atom_site_occupancy
  Li  Li0  1  0.24278567  0.09264090  0.99168737  1
  Li  Li1  1  0.75778661  0.08902482  0.50914561  1
  Li  Li2  1  0.49735527  0.41452136  0.75178162  1
  Li  Li3  1  0.74825899  0.41032071  0.50935525  1
  Li  Li4  1  0.25721433  0.59264090  0.50831263  1
  Li  Li5  1  0.74221339  0.58902482  0.99085439  1
  Li  Li6  1  0.00264473  0.91452136  0.74821838  1
  Li  Li7  1  0.75174101  0.91032071  0.99064475  1
  Ti  Ti8  1  0.00870517  0.24274258  0.75483796  1
  Ti  Ti9  1  0.49166958  0.24672431  0.24339867  1
  Ti  Ti10  1  0.00833042  0.74672431  0.25660133  1
  Ti  Ti11  1  0.49129483  0.74274258  0.74516204  1
  Mn  Mn12  1  0.99992054  0.07822183  0.25518827  1
  Mn  Mn13  1  0.49932634  0.07359676  0.74469401  1
  Mn  Mn14  1  0.26014246  0.25300934  0.50667842  1
  Mn  Mn15  1  0.00414835  0.42004724  0.24840978  1
  Mn  Mn16  1  0.73227450  0.26249562  0.98957590  1
  Mn  Mn17  1  0.00067366  0.57359676  0.75530599  1
  Mn  Mn18  1  0.50007946  0.57822183  0.24481173  1
  Mn  Mn19  1  0.23985754  0.75300934  0.99332158  1
  Mn  Mn20  1  0.76772550  0.76249562  0.51042410  1
  Mn  Mn21  1  0.49585165  0.92004724  0.25159022  1
  O  O22  1  0.10734563  0.10479824  0.63110476  1
  O  O23  1  0.39563430  0.10255455  0.36676689  1
  O  O24  1  0.36265863  0.23051570  0.85466269  1
  O  O25  1  0.14713310  0.23960820  0.14297728  1
  O  O26  1  0.61453556  0.09992731  0.12833671  1
  O  O27  1  0.88611185  0.10196408  0.87465512  1
  O  O28  1  0.10683612  0.41181327  0.63654305  1
  O  O29  1  0.63512741  0.23755493  0.63665273  1
  O  O30  1  0.39263007  0.40977181  0.36701930  1
  O  O31  1  0.86204159  0.24741627  0.36358141  1
  O  O32  1  0.62429083  0.40964119  0.13582195  1
  O  O33  1  0.87080467  0.41204497  0.85779877  1
  O  O34  1  0.10436570  0.60255455  0.13323311  1
  O  O35  1  0.39265437  0.60479824  0.86889524  1
  O  O36  1  0.13734137  0.73051570  0.64533731  1
  O  O37  1  0.61388815  0.60196408  0.62534488  1
  O  O38  1  0.35286690  0.73960820  0.35702272  1
  O  O39  1  0.88546444  0.59992731  0.37166329  1
  O  O40  1  0.10736993  0.90977181  0.13298070  1
  O  O41  1  0.86487259  0.73755493  0.86334727  1
  O  O42  1  0.39316388  0.91181327  0.86345695  1
  O  O43  1  0.63795841  0.74741627  0.13641859  1
  O  O44  1  0.62919533  0.91204497  0.64220123  1
  O  O45  1  0.87570917  0.90964119  0.36417805  1
