# generated using pymatgen
data_Li3Mn3(PO4)4
_symmetry_space_group_name_H-M   'P 1'
_cell_length_a   8.97390479
_cell_length_b   8.71138032
_cell_length_c   9.93496717
_cell_angle_alpha   107.35837711
_cell_angle_beta   104.76444425
_cell_angle_gamma   110.64349956
_symmetry_Int_Tables_number   1
_chemical_formula_structural   Li3Mn3(PO4)4
_chemical_formula_sum   'Li6 Mn6 P8 O32'
_cell_volume   634.84557901
_cell_formula_units_Z   2
loop_
 _symmetry_equiv_pos_site_id
 _symmetry_equiv_pos_as_xyz
  1  'x, y, z'
loop_
 _atom_site_type_symbol
 _atom_site_label
 _atom_site_symmetry_multiplicity
 _atom_site_fract_x
 _atom_site_fract_y
 _atom_site_fract_z
 _atom_site_occupancy
  Li  Li0  1  0.47979142  0.04251489  0.78493759  1
  Li  Li1  1  0.37977936  0.35207874  0.83547425  1
  Li  Li2  1  0.33660422  0.27517300  0.28789730  1
  Li  Li3  1  0.66339578  0.72482700  0.71210270  1
  Li  Li4  1  0.62022064  0.64792126  0.16452575  1
  Li  Li5  1  0.52020858  0.95748511  0.21506241  1
  Mn  Mn6  1  0.07076194  0.80602077  0.57869262  1
  Mn  Mn7  1  0.08505893  0.83522910  0.14815577  1
  Mn  Mn8  1  0.04337023  0.48330265  0.26204248  1
  Mn  Mn9  1  0.95662977  0.51669735  0.73795752  1
  Mn  Mn10  1  0.91494107  0.16477090  0.85184423  1
  Mn  Mn11  1  0.92923806  0.19397923  0.42130738  1
  P  P12  1  0.26791799  0.58937671  0.60388476  1
  P  P13  1  0.18942731  0.00971660  0.91753156  1
  P  P14  1  0.22957220  0.55312553  0.04425945  1
  P  P15  1  0.24770231  0.07187614  0.48333428  1
  P  P16  1  0.75229769  0.92812386  0.51666572  1
  P  P17  1  0.77042780  0.44687447  0.95574055  1
  P  P18  1  0.81057269  0.99028340  0.08246844  1
  P  P19  1  0.73208201  0.41062329  0.39611524  1
  O  O20  1  0.06595910  0.81028926  0.78383782  1
  O  O21  1  0.06214658  0.43405042  0.88426207  1
  O  O22  1  0.12518706  0.85776825  0.41255749  1
  O  O23  1  0.09661453  0.47620977  0.62206253  1
  O  O24  1  0.28313478  0.78298950  0.64296818  1
  O  O25  1  0.11924252  0.13375836  0.86413113  1
  O  O26  1  0.22345306  0.49620785  0.42771609  1
  O  O27  1  0.25302150  0.75095864  0.10977987  1
  O  O28  1  0.13087820  0.16679121  0.47626070  1
  O  O29  1  0.18435765  0.45565402  0.14804625  1
  O  O30  1  0.42879034  0.58948940  0.69603362  1
  O  O31  1  0.37502106  0.07682491  0.93620277  1
  O  O32  1  0.36123182  0.13910443  0.65256280  1
  O  O33  1  0.67060609  0.91143905  0.63326042  1
  O  O34  1  0.16684993  0.01562721  0.06877293  1
  O  O35  1  0.61534754  0.44986979  0.98268852  1
  O  O36  1  0.38465246  0.55013021  0.01731148  1
  O  O37  1  0.83315007  0.98437279  0.93122707  1
  O  O38  1  0.32939391  0.08856095  0.36673958  1
  O  O39  1  0.63876818  0.86089557  0.34743720  1
  O  O40  1  0.62497894  0.92317509  0.06379723  1
  O  O41  1  0.57120966  0.41051060  0.30396638  1
  O  O42  1  0.81564235  0.54434598  0.85195375  1
  O  O43  1  0.86912180  0.83320879  0.52373930  1
  O  O44  1  0.74697850  0.24904136  0.89022013  1
  O  O45  1  0.77654694  0.50379215  0.57228391  1
  O  O46  1  0.88075748  0.86624164  0.13586887  1
  O  O47  1  0.71686522  0.21701050  0.35703282  1
  O  O48  1  0.90338547  0.52379023  0.37793747  1
  O  O49  1  0.87481294  0.14223275  0.58744251  1
  O  O50  1  0.93785342  0.56594958  0.11573793  1
  O  O51  1  0.93404090  0.18971074  0.21616218  1
