# generated using pymatgen
data_Li2Mn3(P2O7)2
_symmetry_space_group_name_H-M   'P 1'
_cell_length_a   13.90634684
_cell_length_b   7.38751740
_cell_length_c   6.45726134
_cell_angle_alpha   90.00000000
_cell_angle_beta   86.13085767
_cell_angle_gamma   90.00000000
_symmetry_Int_Tables_number   1
_chemical_formula_structural   Li2Mn3(P2O7)2
_chemical_formula_sum   'Li4 Mn6 P8 O28'
_cell_volume   661.86428808
_cell_formula_units_Z   2
loop_
 _symmetry_equiv_pos_site_id
 _symmetry_equiv_pos_as_xyz
  1  'x, y, z'
loop_
 _atom_site_type_symbol
 _atom_site_label
 _atom_site_symmetry_multiplicity
 _atom_site_fract_x
 _atom_site_fract_y
 _atom_site_fract_z
 _atom_site_occupancy
  Li  Li0  1  0.04934495  0.30943186  0.43212258  1
  Li  Li1  1  0.43327890  0.17654754  0.98627250  1
  Li  Li2  1  0.56672110  0.67654754  0.01372750  1
  Li  Li3  1  0.95065505  0.80943186  0.56787742  1
  Mn  Mn4  1  0.09931993  0.98258219  0.16950201  1
  Mn  Mn5  1  0.27502866  0.62103266  0.73003504  1
  Mn  Mn6  1  0.38845125  0.14426267  0.45349381  1
  Mn  Mn7  1  0.61154875  0.64426267  0.54650619  1
  Mn  Mn8  1  0.72497134  0.12103266  0.26996496  1
  Mn  Mn9  1  0.90068007  0.48258219  0.83049799  1
  P  P10  1  0.10935488  0.30645535  0.89738416  1
  P  P11  1  0.17315487  0.98742801  0.63818781  1
  P  P12  1  0.32482261  0.80786246  0.12470357  1
  P  P13  1  0.41689039  0.51598059  0.35046690  1
  P  P14  1  0.58310961  0.01598059  0.64953310  1
  P  P15  1  0.67517739  0.30786246  0.87529643  1
  P  P16  1  0.82684513  0.48742801  0.36181219  1
  P  P17  1  0.89064512  0.80645535  0.10261584  1
  O  O18  1  0.03360267  0.36893560  0.74808951  1
  O  O19  1  0.07283742  0.29251393  0.12537154  1
  O  O20  1  0.12353680  0.08470628  0.84971706  1
  O  O21  1  0.11808744  0.07894696  0.46765151  1
  O  O22  1  0.15350296  0.78523869  0.66043691  1
  O  O23  1  0.20627580  0.39485915  0.85086383  1
  O  O24  1  0.21641588  0.82364671  0.11242711  1
  O  O25  1  0.27997925  0.03057871  0.63236540  1
  O  O26  1  0.33388199  0.66698479  0.32040467  1
  O  O27  1  0.39113628  0.45953849  0.57707474  1
  O  O28  1  0.37388138  0.71447353  0.93478409  1
  O  O29  1  0.40506344  0.35086025  0.21075182  1
  O  O30  1  0.37593230  0.98352464  0.18128918  1
  O  O31  1  0.51487168  0.61004992  0.31026464  1
  O  O32  1  0.48512832  0.11005092  0.68973536  1
  O  O33  1  0.62406770  0.48352464  0.81871082  1
  O  O34  1  0.59493656  0.85086025  0.78924818  1
  O  O35  1  0.62611862  0.21447353  0.06521591  1
  O  O36  1  0.60886372  0.95953849  0.42292526  1
  O  O37  1  0.66611801  0.16698479  0.67959533  1
  O  O38  1  0.72002075  0.53057871  0.36763460  1
  O  O39  1  0.78358412  0.32364671  0.88757289  1
  O  O40  1  0.79372420  0.89485915  0.14913617  1
  O  O41  1  0.84649704  0.28523869  0.33956309  1
  O  O42  1  0.88191256  0.57894696  0.53234749  1
  O  O43  1  0.87646320  0.58470628  0.15028294  1
  O  O44  1  0.92716258  0.79251393  0.87462846  1
  O  O45  1  0.96639733  0.86893560  0.25191049  1
