# generated using pymatgen
data_Li2CrSi4O11
_symmetry_space_group_name_H-M   'P 1'
_cell_length_a   7.69241621
_cell_length_b   8.44177706
_cell_length_c   8.44177706
_cell_angle_alpha   101.98091576
_cell_angle_beta   117.10457121
_cell_angle_gamma   62.89542879
_symmetry_Int_Tables_number   1
_chemical_formula_structural   Li2CrSi4O11
_chemical_formula_sum   'Li4 Cr2 Si8 O22'
_cell_volume   434.39292157
_cell_formula_units_Z   2
loop_
 _symmetry_equiv_pos_site_id
 _symmetry_equiv_pos_as_xyz
  1  'x, y, z'
loop_
 _atom_site_type_symbol
 _atom_site_label
 _atom_site_symmetry_multiplicity
 _atom_site_fract_x
 _atom_site_fract_y
 _atom_site_fract_z
 _atom_site_occupancy
  Li  Li0  1  0.62133777  0.03381467  0.27649021  1
  Li  Li1  1  0.65515244  0.72350979  0.03381467  1
  Li  Li2  1  0.34484756  0.27649021  0.96618533  1
  Li  Li3  1  0.37866223  0.96618533  0.72350979  1
  Cr  Cr4  1  0.24465954  0.00000000  0.00000000  1
  Cr  Cr5  1  0.75534046  0.00000000  0.00000000  1
  Si  Si6  1  0.17780358  0.32205677  0.28555110  1
  Si  Si7  1  0.78568975  0.32205677  0.28555110  1
  Si  Si8  1  0.89225248  0.28555110  0.67794323  1
  Si  Si9  1  0.50013965  0.28555110  0.67794323  1
  Si  Si10  1  0.10774752  0.71444890  0.32205677  1
  Si  Si11  1  0.49986035  0.71444890  0.32205677  1
  Si  Si12  1  0.21431025  0.67794323  0.71444890  1
  Si  Si13  1  0.82219642  0.67794323  0.71444890  1
  O  O14  1  0.00000000  0.00000000  0.00000000  1
  O  O15  1  0.50000000  0.00000000  0.00000000  1
  O  O16  1  0.21487243  0.23923312  0.10794733  1
  O  O17  1  0.65384178  0.23923312  0.10794733  1
  O  O18  1  0.03741576  0.24856021  0.32339273  1
  O  O19  1  0.41013242  0.26733217  0.45965122  1
  O  O20  1  0.78218663  0.26733217  0.45965122  1
  O  O21  1  0.04951880  0.54034878  0.26733217  1
  O  O22  1  0.67746459  0.54034878  0.26733217  1
  O  O23  1  0.10692510  0.10794733  0.76076688  1
  O  O24  1  0.54589445  0.10794733  0.76076688  1
  O  O25  1  0.28597597  0.67660727  0.24856021  1
  O  O26  1  0.71402403  0.32339273  0.75143979  1
  O  O27  1  0.45410555  0.89205267  0.23923312  1
  O  O28  1  0.89307490  0.89205267  0.23923312  1
  O  O29  1  0.32253541  0.45965122  0.73266783  1
  O  O30  1  0.95048120  0.45965122  0.73266783  1
  O  O31  1  0.21781337  0.73266783  0.54034878  1
  O  O32  1  0.58986758  0.73266783  0.54034878  1
  O  O33  1  0.96258424  0.75143979  0.67660727  1
  O  O34  1  0.34615822  0.76076688  0.89205267  1
  O  O35  1  0.78512757  0.76076688  0.89205267  1
