# generated using pymatgen
data_Li2Ni2SnO6
_symmetry_space_group_name_H-M   'P 1'
_cell_length_a   6.74387105
_cell_length_b   6.63261741
_cell_length_c   8.50347577
_cell_angle_alpha   71.42564241
_cell_angle_beta   108.24764943
_cell_angle_gamma   96.28285304
_symmetry_Int_Tables_number   1
_chemical_formula_structural   Li2Ni2SnO6
_chemical_formula_sum   'Li6 Ni6 Sn3 O18'
_cell_volume   342.39309665
_cell_formula_units_Z   3
loop_
 _symmetry_equiv_pos_site_id
 _symmetry_equiv_pos_as_xyz
  1  'x, y, z'
loop_
 _atom_site_type_symbol
 _atom_site_label
 _atom_site_symmetry_multiplicity
 _atom_site_fract_x
 _atom_site_fract_y
 _atom_site_fract_z
 _atom_site_occupancy
  Li  Li0  1  0.32240557  0.32900219  0.49230375  1
  Li  Li1  1  0.34426143  0.00433181  0.84103025  1
  Li  Li2  1  0.68295367  0.98189381  0.17037748  1
  Li  Li3  1  0.70730908  0.67101406  0.50584092  1
  Li  Li4  1  0.95935692  0.66231894  0.82749308  1
  Li  Li5  1  0.98371333  0.35143919  0.16295552  1
  Ni  Ni6  1  0.98979109  0.99634363  0.99040114  1
  Ni  Ni7  1  0.67084590  0.67559718  0.00347729  1
  Ni  Ni8  1  0.67687591  0.33698937  0.34293286  1
  Ni  Ni9  1  0.66945404  0.00777951  0.66149741  1
  Ni  Ni10  1  0.99582110  0.65773582  0.32985571  1
  Ni  Ni11  1  0.99721296  0.32555349  0.67183659  1
  Sn  Sn12  1  0.33333300  0.66666700  0.66666700  1
  Sn  Sn13  1  0.33882763  0.33958112  0.00603998  1
  Sn  Sn14  1  0.32783937  0.99375188  0.32729302  1
  O  O15  1  0.00155373  0.96935062  0.22436137  1
  O  O16  1  0.01048561  0.62535484  0.60529390  1
  O  O17  1  0.01562366  0.31349450  0.91723377  1
  O  O18  1  0.34129636  0.99527055  0.57674780  1
  O  O19  1  0.36438565  0.66788277  0.91679740  1
  O  O20  1  0.67163680  0.97112586  0.90767979  1
  O  O21  1  0.30228035  0.66545123  0.41653660  1
  O  O22  1  0.32536964  0.33806245  0.75658620  1
  O  O23  1  0.65618139  0.70797916  0.72803910  1
  O  O24  1  0.32172092  0.32024958  0.24907202  1
  O  O25  1  0.70637323  0.64847704  0.26967905  1
  O  O26  1  0.67872840  0.30925960  0.56948503  1
  O  O27  1  0.34494608  0.01308342  0.08426198  1
  O  O28  1  0.66511327  0.36398238  0.10897263  1
  O  O29  1  0.65104334  0.01983950  0.41609923  1
  O  O30  1  0.96029277  0.68485696  0.06365395  1
  O  O31  1  0.99503020  0.36220814  0.42565321  1
  O  O32  1  0.98793860  0.02407340  0.76384797  1
