# generated using pymatgen
data_Li2(FeO2)3
_symmetry_space_group_name_H-M   'P 1'
_cell_length_a   5.12841811
_cell_length_b   5.13666045
_cell_length_c   10.51394238
_cell_angle_alpha   89.38539226
_cell_angle_beta   76.27657228
_cell_angle_gamma   119.40953176
_symmetry_Int_Tables_number   1
_chemical_formula_structural   Li2(FeO2)3
_chemical_formula_sum   'Li4 Fe6 O12'
_cell_volume   231.72428163
_cell_formula_units_Z   2
loop_
 _symmetry_equiv_pos_site_id
 _symmetry_equiv_pos_as_xyz
  1  'x, y, z'
loop_
 _atom_site_type_symbol
 _atom_site_label
 _atom_site_symmetry_multiplicity
 _atom_site_fract_x
 _atom_site_fract_y
 _atom_site_fract_z
 _atom_site_occupancy
  Li  Li0  1  0.15315624  0.74515513  0.74176258  1
  Li  Li1  1  0.48794727  0.57363835  0.24172670  1
  Li  Li2  1  0.84383266  0.24179429  0.24343895  1
  Li  Li3  1  0.83417256  0.07619765  0.74325101  1
  Fe  Fe4  1  0.01991632  0.83838602  0.48192773  1
  Fe  Fe5  1  0.99684422  0.66610109  0.00727317  1
  Fe  Fe6  1  0.33020662  0.50053136  0.50769047  1
  Fe  Fe7  1  0.34771872  0.34776382  0.98178446  1
  Fe  Fe8  1  0.66555898  0.16859539  0.50660030  1
  Fe  Fe9  1  0.65928013  0.00135379  0.00720075  1
  O  O10  1  0.91106827  0.96817489  0.10729330  1
  O  O11  1  0.60728428  0.82553172  0.60662218  1
  O  O12  1  0.42382768  0.86695356  0.38912778  1
  O  O13  1  0.75631646  0.72697066  0.89039083  1
  O  O14  1  0.26253970  0.61319025  0.10724923  1
  O  O15  1  0.94077945  0.47086680  0.61036304  1
  O  O16  1  0.72334520  0.50967450  0.39857010  1
  O  O17  1  0.05920438  0.37375573  0.89023218  1
  O  O18  1  0.59770455  0.30521359  0.10823586  1
  O  O19  1  0.25998475  0.11595656  0.60479891  1
  O  O20  1  0.06214732  0.21416664  0.39393110  1
  O  O21  1  0.41227124  0.02758222  0.89745835  1
