# generated using pymatgen
data_Mg6MnSn
_symmetry_space_group_name_H-M   'P 1'
_cell_length_a   6.29387767
_cell_length_b   6.25365035
_cell_length_c   5.01498235
_cell_angle_alpha   90.00000000
_cell_angle_beta   90.00000000
_cell_angle_gamma   119.78880033
_symmetry_Int_Tables_number   1
_chemical_formula_structural   Mg6MnSn
_chemical_formula_sum   'Mg6 Mn1 Sn1'
_cell_volume   171.30587823
_cell_formula_units_Z   1
loop_
 _symmetry_equiv_pos_site_id
 _symmetry_equiv_pos_as_xyz
  1  'x, y, z'
loop_
 _atom_site_type_symbol
 _atom_site_label
 _atom_site_symmetry_multiplicity
 _atom_site_fract_x
 _atom_site_fract_y
 _atom_site_fract_z
 _atom_site_occupancy
  Mg  Mg0  1  0.66698478  0.33272142  0.25000000  1
  Mg  Mg1  1  0.66698478  0.83426236  0.25000000  1
  Mg  Mg2  1  0.33273208  0.17593567  0.75000000  1
  Mg  Mg3  1  0.33273208  0.65679740  0.75000000  1
  Mg  Mg4  1  0.84184464  0.17092282  0.75000000  1
  Mg  Mg5  1  0.82853221  0.66426661  0.75000000  1
  Mn  Mn6  1  0.16574510  0.33287205  0.25000000  1
  Sn  Sn7  1  0.16444433  0.83222166  0.25000000  1
