# generated using pymatgen
data_LiMn(PO3)3
_symmetry_space_group_name_H-M   'P 1'
_cell_length_a   5.19220035
_cell_length_b   12.17913420
_cell_length_c   11.82360066
_cell_angle_alpha   90.00000000
_cell_angle_beta   90.00000000
_cell_angle_gamma   90.00000000
_symmetry_Int_Tables_number   1
_chemical_formula_structural   LiMn(PO3)3
_chemical_formula_sum   'Li4 Mn4 P12 O36'
_cell_volume   747.68318055
_cell_formula_units_Z   4
loop_
 _symmetry_equiv_pos_site_id
 _symmetry_equiv_pos_as_xyz
  1  'x, y, z'
loop_
 _atom_site_type_symbol
 _atom_site_label
 _atom_site_symmetry_multiplicity
 _atom_site_fract_x
 _atom_site_fract_y
 _atom_site_fract_z
 _atom_site_occupancy
  Li  Li0  1  0.00000000  0.00000000  0.00000000  1
  Li  Li1  1  0.00000000  0.50000000  0.00000000  1
  Li  Li2  1  0.00000000  0.00000000  0.50000000  1
  Li  Li3  1  0.00000000  0.50000000  0.50000000  1
  Mn  Mn4  1  0.97937828  0.07829039  0.25000000  1
  Mn  Mn5  1  0.97937828  0.42170961  0.75000000  1
  Mn  Mn6  1  0.02062172  0.57829039  0.25000000  1
  Mn  Mn7  1  0.02062172  0.92170961  0.75000000  1
  P  P8  1  0.23440180  0.75000000  0.00000000  1
  P  P9  1  0.23440180  0.75000000  0.50000000  1
  P  P10  1  0.51407679  0.07098592  0.63423324  1
  P  P11  1  0.51407679  0.42901408  0.13423324  1
  P  P12  1  0.51407679  0.07098592  0.86576676  1
  P  P13  1  0.51407679  0.42901408  0.36576676  1
  P  P14  1  0.48592321  0.57098592  0.63423324  1
  P  P15  1  0.48592321  0.92901408  0.36576676  1
  P  P16  1  0.48592321  0.92901408  0.13423324  1
  P  P17  1  0.48592321  0.57098592  0.86576676  1
  P  P18  1  0.76559820  0.25000000  0.00000000  1
  P  P19  1  0.76559820  0.25000000  0.50000000  1
  O  O20  1  0.09161646  0.69914079  0.09731814  1
  O  O21  1  0.09161646  0.69914079  0.40268186  1
  O  O22  1  0.09161646  0.80085921  0.59731814  1
  O  O23  1  0.09161646  0.80085921  0.90268186  1
  O  O24  1  0.24424008  0.47427387  0.12588582  1
  O  O25  1  0.24424008  0.02572613  0.62588582  1
  O  O26  1  0.24424008  0.47427387  0.37411418  1
  O  O27  1  0.24424008  0.02572613  0.87411418  1
  O  O28  1  0.26611405  0.01022212  0.12922966  1
  O  O29  1  0.26611405  0.01022212  0.37077034  1
  O  O30  1  0.26611405  0.48977788  0.87077034  1
  O  O31  1  0.26611405  0.48977788  0.62922966  1
  O  O32  1  0.46585265  0.85898430  0.25000000  1
  O  O33  1  0.46585265  0.64101570  0.75000000  1
  O  O34  1  0.45304236  0.66364785  0.54298531  1
  O  O35  1  0.45304236  0.83635215  0.04298531  1
  O  O36  1  0.45304236  0.66364785  0.95701469  1
  O  O37  1  0.45304236  0.83635215  0.45701469  1
  O  O38  1  0.54695764  0.16364785  0.54298531  1
  O  O39  1  0.54695764  0.33635215  0.04298531  1
  O  O40  1  0.54695764  0.33635215  0.45701469  1
  O  O41  1  0.54695764  0.16364785  0.95701469  1
  O  O42  1  0.53414735  0.14101570  0.75000000  1
  O  O43  1  0.53414735  0.35898430  0.25000000  1
  O  O44  1  0.73388595  0.51022212  0.37077034  1
  O  O45  1  0.73388595  0.98977788  0.62922966  1
  O  O46  1  0.73388595  0.51022212  0.12922966  1
  O  O47  1  0.73388595  0.98977788  0.87077034  1
  O  O48  1  0.75575992  0.52572613  0.87411418  1
  O  O49  1  0.75575992  0.52572613  0.62588582  1
  O  O50  1  0.75575992  0.97427387  0.37411418  1
  O  O51  1  0.75575992  0.97427387  0.12588582  1
  O  O52  1  0.90838354  0.19914079  0.40268186  1
  O  O53  1  0.90838354  0.30085921  0.59731814  1
  O  O54  1  0.90838354  0.19914079  0.09731814  1
  O  O55  1  0.90838354  0.30085921  0.90268186  1
