# generated using pymatgen
data_Li7FeP4O14F
_symmetry_space_group_name_H-M   'P 1'
_cell_length_a   6.37118570
_cell_length_b   6.37118570
_cell_length_c   14.62238105
_cell_angle_alpha   84.22333597
_cell_angle_beta   95.77666403
_cell_angle_gamma   101.29476900
_symmetry_Int_Tables_number   1
_chemical_formula_structural   Li7FeP4O14F
_chemical_formula_sum   'Li14 Fe2 P8 O28 F2'
_cell_volume   577.10428364
_cell_formula_units_Z   2
loop_
 _symmetry_equiv_pos_site_id
 _symmetry_equiv_pos_as_xyz
  1  'x, y, z'
loop_
 _atom_site_type_symbol
 _atom_site_label
 _atom_site_symmetry_multiplicity
 _atom_site_fract_x
 _atom_site_fract_y
 _atom_site_fract_z
 _atom_site_occupancy
  Li  Li0  1  0.01166042  0.39811457  0.82218952  1
  Li  Li1  1  0.63501895  0.82693430  0.83435303  1
  Li  Li2  1  0.60188543  0.98833958  0.32218952  1
  Li  Li3  1  0.17306570  0.36498105  0.33435303  1
  Li  Li4  1  0.89556111  0.95289274  0.49326205  1
  Li  Li5  1  0.52566149  0.32808511  0.82134306  1
  Li  Li6  1  0.04710726  0.10443889  0.99326205  1
  Li  Li7  1  0.87899878  0.58145310  0.97460262  1
  Li  Li8  1  0.67191489  0.47433851  0.32134306  1
  Li  Li9  1  0.41854690  0.12100122  0.47460262  1
  Li  Li10  1  0.52561153  0.03613201  0.98706682  1
  Li  Li11  1  0.96386799  0.47438847  0.48706682  1
  Li  Li12  1  0.69362991  0.13001152  0.65879143  1
  Li  Li13  1  0.86998848  0.30637009  0.15879143  1
  Fe  Fe14  1  0.27842461  0.72291739  0.65651799  1
  Fe  Fe15  1  0.27708261  0.72157539  0.15651799  1
  P  P16  1  0.13877280  0.91215549  0.83061943  1
  P  P17  1  0.08784451  0.86122720  0.33061943  1
  P  P18  1  0.37832053  0.52837069  0.98247943  1
  P  P19  1  0.47162931  0.62167947  0.48247943  1
  P  P20  1  0.16078857  0.19241664  0.65655933  1
  P  P21  1  0.80758336  0.83921143  0.15655933  1
  P  P22  1  0.74879676  0.61729147  0.65548076  1
  P  P23  1  0.38270853  0.25120324  0.15548076  1
  O  O24  1  0.29657826  0.79394330  0.79448871  1
  O  O25  1  0.20605670  0.70342174  0.29448871  1
  O  O26  1  0.14303967  0.41891795  0.95998817  1
  O  O27  1  0.25818106  0.61658427  0.52228348  1
  O  O28  1  0.58108205  0.85696033  0.45998817  1
  O  O29  1  0.38341573  0.74181894  0.02228348  1
  O  O30  1  0.62542438  0.78194662  0.68421843  1
  O  O31  1  0.26109925  0.39233453  0.70746866  1
  O  O32  1  0.54083792  0.54248097  0.91081542  1
  O  O33  1  0.03597084  0.03971279  0.73868619  1
  O  O34  1  0.21805338  0.37457562  0.18421843  1
  O  O35  1  0.60766547  0.73890075  0.20746866  1
  O  O36  1  0.45751903  0.45916208  0.41081542  1
  O  O37  1  0.96028721  0.96402916  0.23868619  1
  O  O38  1  0.94041623  0.76559831  0.86681003  1
  O  O39  1  0.24952122  0.08142669  0.89508476  1
  O  O40  1  0.61691609  0.50806070  0.56520260  1
  O  O41  1  0.95933880  0.72515768  0.61510957  1
  O  O42  1  0.23440169  0.05958377  0.36681003  1
  O  O43  1  0.33221220  0.08400857  0.62105783  1
  O  O44  1  0.91857331  0.75047878  0.39508476  1
  O  O45  1  0.49193930  0.38308391  0.06520260  1
  O  O46  1  0.76032801  0.42405582  0.72602857  1
  O  O47  1  0.27484232  0.04066120  0.11510957  1
  O  O48  1  0.91599143  0.66778780  0.12105783  1
  O  O49  1  0.57594418  0.23967199  0.22602857  1
  O  O50  1  0.97143254  0.20954940  0.58344448  1
  O  O51  1  0.79045060  0.02856746  0.08344448  1
  F  F52  1  0.70776213  0.12482547  0.88348362  1
  F  F53  1  0.87517453  0.29223787  0.38348362  1
