# generated using pymatgen
data_FeOF
_symmetry_space_group_name_H-M   'P 1'
_cell_length_a   9.50637212
_cell_length_b   14.34589433
_cell_length_c   3.09677367
_cell_angle_alpha   90.00000000
_cell_angle_beta   90.00000000
_cell_angle_gamma   90.67530765
_symmetry_Int_Tables_number   1
_chemical_formula_structural   FeOF
_chemical_formula_sum   'Fe12 O12 F12'
_cell_volume   422.30063795
_cell_formula_units_Z   12
loop_
 _symmetry_equiv_pos_site_id
 _symmetry_equiv_pos_as_xyz
  1  'x, y, z'
loop_
 _atom_site_type_symbol
 _atom_site_label
 _atom_site_symmetry_multiplicity
 _atom_site_fract_x
 _atom_site_fract_y
 _atom_site_fract_z
 _atom_site_occupancy
  Fe  Fe0  1  0.02095686  0.00039172  0.00000000  1
  Fe  Fe1  1  0.00969266  0.33815135  0.00000000  1
  Fe  Fe2  1  0.01893221  0.66620312  0.00000000  1
  Fe  Fe3  1  0.26089804  0.14468271  0.50000000  1
  Fe  Fe4  1  0.22909247  0.49932947  0.50000000  1
  Fe  Fe5  1  0.22854199  0.83357332  0.50000000  1
  Fe  Fe6  1  0.51957697  0.33036171  0.00000000  1
  Fe  Fe7  1  0.51002277  0.00361255  0.00000000  1
  Fe  Fe8  1  0.52089042  0.66960104  0.00000000  1
  Fe  Fe9  1  0.72891956  0.16396761  0.50000000  1
  Fe  Fe10  1  0.72193600  0.50220831  0.50000000  1
  Fe  Fe11  1  0.72423022  0.83935554  0.50000000  1
  O  O12  1  0.09646819  0.59920968  0.50000000  1
  O  O13  1  0.09742438  0.93652112  0.50000000  1
  O  O14  1  0.15160957  0.10546185  0.00000000  1
  O  O15  1  0.15202110  0.76804035  0.00000000  1
  O  O16  1  0.14842595  0.43080593  0.00000000  1
  O  O17  1  0.40815409  0.06213701  0.50000000  1
  O  O18  1  0.59907776  0.26954418  0.50000000  1
  O  O19  1  0.59636205  0.93657272  0.50000000  1
  O  O20  1  0.59313560  0.60386003  0.50000000  1
  O  O21  1  0.66009855  0.10340758  0.00000000  1
  O  O22  1  0.65339645  0.43529603  0.00000000  1
  O  O23  1  0.65320109  0.77066790  0.00000000  1
  F  F24  1  0.09440113  0.27006367  0.50000000  1
  F  F25  1  0.34609384  0.23565619  0.00000000  1
  F  F26  1  0.34313748  0.56210611  0.00000000  1
  F  F27  1  0.34487739  0.89335070  0.00000000  1
  F  F28  1  0.40051141  0.39977693  0.50000000  1
  F  F29  1  0.40108527  0.73029272  0.50000000  1
  F  F30  1  0.85757452  0.23757558  0.00000000  1
  F  F31  1  0.84873970  0.90048665  0.00000000  1
  F  F32  1  0.84691695  0.56386909  0.00000000  1
  F  F33  1  0.90496815  0.06750375  0.50000000  1
  F  F34  1  0.90373028  0.39744136  0.50000000  1
  F  F35  1  0.90489991  0.72891342  0.50000000  1
