# generated using pymatgen
data_LiCoCO4
_symmetry_space_group_name_H-M   'P 1'
_cell_length_a   9.19374823
_cell_length_b   9.42404202
_cell_length_c   3.15399601
_cell_angle_alpha   90.00000000
_cell_angle_beta   90.85475821
_cell_angle_gamma   90.00000000
_symmetry_Int_Tables_number   1
_chemical_formula_structural   LiCoCO4
_chemical_formula_sum   'Li4 Co4 C4 O16'
_cell_volume   273.23896422
_cell_formula_units_Z   4
loop_
 _symmetry_equiv_pos_site_id
 _symmetry_equiv_pos_as_xyz
  1  'x, y, z'
loop_
 _atom_site_type_symbol
 _atom_site_label
 _atom_site_symmetry_multiplicity
 _atom_site_fract_x
 _atom_site_fract_y
 _atom_site_fract_z
 _atom_site_occupancy
  Li  Li0  1  0.18362958  0.40750421  0.75595742  1
  Li  Li1  1  0.31637042  0.90750421  0.74404258  1
  Li  Li2  1  0.68362958  0.09249579  0.25595742  1
  Li  Li3  1  0.81637042  0.59249579  0.24404258  1
  Co  Co4  1  0.05122556  0.11791413  0.25639877  1
  Co  Co5  1  0.44877444  0.61791413  0.24360123  1
  Co  Co6  1  0.55122556  0.38208587  0.75639877  1
  Co  Co7  1  0.94877444  0.88208587  0.74360123  1
  C  C8  1  0.13764043  0.66856697  0.23531186  1
  C  C9  1  0.36235957  0.16856697  0.26468814  1
  C  C10  1  0.63764043  0.83143303  0.73531186  1
  C  C11  1  0.86235957  0.33143303  0.76468814  1
  O  O12  1  0.01508242  0.74581007  0.23681155  1
  O  O13  1  0.11539131  0.99772154  0.75634682  1
  O  O14  1  0.12895395  0.53634780  0.25474082  1
  O  O15  1  0.23887353  0.23774868  0.28594226  1
  O  O16  1  0.26112647  0.73774868  0.21405774  1
  O  O17  1  0.37104605  0.03634780  0.24525918  1
  O  O18  1  0.38460869  0.49772154  0.74365318  1
  O  O19  1  0.48491758  0.24581007  0.26318845  1
  O  O20  1  0.51508242  0.75418993  0.73681155  1
  O  O21  1  0.61539131  0.50227846  0.25634682  1
  O  O22  1  0.62895395  0.96365220  0.75474082  1
  O  O23  1  0.73887353  0.26225132  0.78594226  1
  O  O24  1  0.76112647  0.76225132  0.71405774  1
  O  O25  1  0.87104605  0.46365220  0.74525918  1
  O  O26  1  0.88460869  0.00227846  0.24365318  1
  O  O27  1  0.98491758  0.25418993  0.76318845  1
