# generated using pymatgen
data_LiCoSiO4
_symmetry_space_group_name_H-M   'P 1'
_cell_length_a   5.08816175
_cell_length_b   5.21503719
_cell_length_c   6.66926036
_cell_angle_alpha   89.99712170
_cell_angle_beta   90.51100078
_cell_angle_gamma   90.16463701
_symmetry_Int_Tables_number   1
_chemical_formula_structural   LiCoSiO4
_chemical_formula_sum   'Li2 Co2 Si2 O8'
_cell_volume   176.96073979
_cell_formula_units_Z   2
loop_
 _symmetry_equiv_pos_site_id
 _symmetry_equiv_pos_as_xyz
  1  'x, y, z'
loop_
 _atom_site_type_symbol
 _atom_site_label
 _atom_site_symmetry_multiplicity
 _atom_site_fract_x
 _atom_site_fract_y
 _atom_site_fract_z
 _atom_site_occupancy
  Li  Li0  1  0.49966132  0.32796072  0.24124525  1
  Li  Li1  1  0.99963858  0.67177475  0.74135905  1
  Co  Co2  1  0.99530874  0.67893282  0.23840414  1
  Co  Co3  1  0.49515229  0.32094295  0.73847413  1
  Si  Si4  1  0.49501911  0.81184188  0.49159558  1
  Si  Si5  1  0.99481471  0.18819564  0.99134313  1
  O  O6  1  0.04560997  0.87809293  0.00787624  1
  O  O7  1  0.11213354  0.34286569  0.18781462  1
  O  O8  1  0.63542312  0.68958865  0.29207702  1
  O  O9  1  0.17668166  0.75115174  0.47660667  1
  O  O10  1  0.54617232  0.12226627  0.50792505  1
  O  O11  1  0.61169308  0.65783760  0.68827962  1
  O  O12  1  0.13512578  0.31049820  0.79150730  1
  O  O13  1  0.67666777  0.24805016  0.97637222  1
