# generated using pymatgen
data_Li2Cr2CoO6
_symmetry_space_group_name_H-M   'P 1'
_cell_length_a   6.58285815
_cell_length_b   6.57012278
_cell_length_c   8.28139105
_cell_angle_alpha   71.02577266
_cell_angle_beta   109.23081755
_cell_angle_gamma   97.18279034
_symmetry_Int_Tables_number   1
_chemical_formula_structural   Li2Cr2CoO6
_chemical_formula_sum   'Li6 Cr6 Co3 O18'
_cell_volume   319.74558850
_cell_formula_units_Z   3
loop_
 _symmetry_equiv_pos_site_id
 _symmetry_equiv_pos_as_xyz
  1  'x, y, z'
loop_
 _atom_site_type_symbol
 _atom_site_label
 _atom_site_symmetry_multiplicity
 _atom_site_fract_x
 _atom_site_fract_y
 _atom_site_fract_z
 _atom_site_occupancy
  Li  Li0  1  0.01121540  0.66679578  0.83552893  1
  Li  Li1  1  0.01231576  0.33508941  0.17030401  1
  Li  Li2  1  0.33436643  0.00011519  0.83224290  1
  Li  Li3  1  0.33229957  0.33321881  0.50109010  1
  Li  Li4  1  0.65545060  0.66653722  0.49780407  1
  Li  Li5  1  0.65435124  0.99824359  0.16302899  1
  Cr  Cr6  1  0.00029306  0.33435610  0.66860716  1
  Cr  Cr7  1  0.00485923  0.67290681  0.33580895  1
  Cr  Cr8  1  0.66180777  0.66042719  0.99752505  1
  Cr  Cr9  1  0.66637294  0.99897690  0.66472584  1
  Cr  Cr10  1  0.00244869  0.00251991  0.00341028  1
  Cr  Cr11  1  0.66421731  0.33081309  0.32992372  1
  Co  Co12  1  0.33333300  0.66666700  0.66666700  1
  Co  Co13  1  0.33243862  -0.00005218  0.33261441  1
  Co  Co14  1  0.33422838  0.33338518  0.00071959  1
  O  O15  1  0.02600105  0.31763235  0.92191875  1
  O  O16  1  0.02528916  0.65171432  0.58775552  1
  O  O17  1  0.01833664  0.99422640  0.23951631  1
  O  O18  1  0.34058820  0.64862546  0.90127701  1
  O  O19  1  0.34863859  0.97690406  0.57848833  1
  O  O20  1  0.68127172  0.98005122  0.91690862  1
  O  O21  1  0.31802841  0.35642894  0.75484567  1
  O  O22  1  0.32607880  0.68470754  0.43205699  1
  O  O23  1  0.64137784  0.68161868  0.74557748  1
  O  O24  1  0.34688285  0.30783087  0.24618606  1
  O  O25  1  0.67511019  0.32338348  0.56740987  1
  O  O26  1  0.68412046  0.64731903  0.25067898  1
  O  O27  1  0.31978315  0.02550213  0.08714694  1
  O  O28  1  0.64066595  0.01570065  0.41141425  1
  O  O29  1  0.64833036  0.33910760  0.09381669  1
  O  O30  1  0.99155581  0.00994952  0.76592313  1
  O  O31  1  0.98539528  0.35328178  0.41642438  1
  O  O32  1  0.98254654  0.68601497  0.08265402  1
