# generated using pymatgen
data_Li3Mn4F15
_symmetry_space_group_name_H-M   'P 1'
_cell_length_a   3.94353162
_cell_length_b   17.90613282
_cell_length_c   17.97340226
_cell_angle_alpha   90.00000000
_cell_angle_beta   90.00000000
_cell_angle_gamma   90.00000000
_symmetry_Int_Tables_number   1
_chemical_formula_structural   Li3Mn4F15
_chemical_formula_sum   'Li12 Mn16 F60'
_cell_volume   1269.16306054
_cell_formula_units_Z   4
loop_
 _symmetry_equiv_pos_site_id
 _symmetry_equiv_pos_as_xyz
  1  'x, y, z'
loop_
 _atom_site_type_symbol
 _atom_site_label
 _atom_site_symmetry_multiplicity
 _atom_site_fract_x
 _atom_site_fract_y
 _atom_site_fract_z
 _atom_site_occupancy
  Li  Li0  1  0.00000000  0.00535359  0.17855292  1
  Li  Li1  1  0.00000000  0.33920156  0.02470235  1
  Li  Li2  1  0.00000000  0.31591247  0.40765143  1
  Li  Li3  1  0.00000000  0.50896967  0.37082931  1
  Li  Li4  1  0.00000000  0.81204768  0.13326194  1
  Li  Li5  1  0.00000000  0.80811633  0.51770298  1
  Li  Li6  1  0.50000000  0.49103033  0.87082931  1
  Li  Li7  1  0.50000000  0.66079844  0.52470235  1
  Li  Li8  1  0.50000000  0.68408753  0.90765143  1
  Li  Li9  1  0.50000000  0.19188367  0.01770298  1
  Li  Li10  1  0.50000000  0.18795232  0.63326194  1
  Li  Li11  1  0.50000000  0.99464641  0.67855292  1
  Mn  Mn12  1  0.00000000  0.02623493  0.82301231  1
  Mn  Mn13  1  0.00000000  0.96333330  0.02349961  1
  Mn  Mn14  1  0.00000000  0.46469911  0.52535966  1
  Mn  Mn15  1  0.00000000  0.31482782  0.67425809  1
  Mn  Mn16  1  0.00000000  0.23918375  0.88009946  1
  Mn  Mn17  1  0.00000000  0.52504587  0.72763046  1
  Mn  Mn18  1  0.00000000  0.73477227  0.66788280  1
  Mn  Mn19  1  0.00000000  0.81448240  0.87217752  1
  Mn  Mn20  1  0.50000000  0.26522773  0.16788280  1
  Mn  Mn21  1  0.50000000  0.47495413  0.22763046  1
  Mn  Mn22  1  0.50000000  0.68517218  0.17425809  1
  Mn  Mn23  1  0.50000000  0.03666670  0.52349961  1
  Mn  Mn24  1  0.50000000  0.18551760  0.37217752  1
  Mn  Mn25  1  0.50000000  0.53530089  0.02535966  1
  Mn  Mn26  1  0.50000000  0.76081625  0.38009946  1
  Mn  Mn27  1  0.50000000  0.97376507  0.32301231  1
  F  F28  1  0.00000000  0.05008540  0.07811469  1
  F  F29  1  0.00000000  0.27037185  0.16321745  1
  F  F30  1  0.00000000  0.03708494  0.51816353  1
  F  F31  1  0.00000000  0.53273009  0.03146485  1
  F  F32  1  0.00000000  0.19769352  0.37674776  1
  F  F33  1  0.00000000  0.47397336  0.23468025  1
  F  F34  1  0.00000000  0.01068085  0.71806622  1
  F  F35  1  0.00000000  0.69681967  0.16989577  1
  F  F36  1  0.00000000  0.41605486  0.42483264  1
  F  F37  1  0.00000000  0.21630881  0.63478782  1
  F  F38  1  0.00000000  0.91312164  0.12177447  1
  F  F39  1  0.00000000  0.36878528  0.57029254  1
  F  F40  1  0.00000000  0.02478621  0.92900781  1
  F  F41  1  0.00000000  0.14286175  0.83679085  1
  F  F42  1  0.00000000  0.55388682  0.47310922  1
  F  F43  1  0.00000000  0.27668375  0.78155775  1
  F  F44  1  0.00000000  0.76539116  0.38815766  1
  F  F45  1  0.00000000  0.52716325  0.62243527  1
  F  F46  1  0.00000000  0.41042539  0.71598567  1
  F  F47  1  0.00000000  0.20477169  0.98253466  1
  F  F48  1  0.00000000  0.33522592  0.91912807  1
  F  F49  1  0.00000000  0.97265211  0.31536709  1
  F  F50  1  0.00000000  0.69339064  0.56588499  1
  F  F51  1  0.00000000  0.50751953  0.83155492  1
  F  F52  1  0.00000000  0.64154513  0.71793801  1
  F  F53  1  0.00000000  0.82679973  0.62224675  1
  F  F54  1  0.00000000  0.77918692  0.76434718  1
  F  F55  1  0.00000000  0.71454593  0.90813746  1
  F  F56  1  0.00000000  0.91048456  0.83268949  1
  F  F57  1  0.00000000  0.86679786  0.97726831  1
  F  F58  1  0.50000000  0.22081308  0.26434718  1
  F  F59  1  0.50000000  0.28545407  0.40813746  1
  F  F60  1  0.50000000  0.30660936  0.06588499  1
  F  F61  1  0.50000000  0.23460884  0.88815766  1
  F  F62  1  0.50000000  0.08687836  0.62177447  1
  F  F63  1  0.50000000  0.35845487  0.21793801  1
  F  F64  1  0.50000000  0.63121472  0.07029254  1
  F  F65  1  0.50000000  0.66477408  0.41912807  1
  F  F66  1  0.50000000  0.72331625  0.28155775  1
  F  F67  1  0.50000000  0.58394514  0.92483264  1
  F  F68  1  0.50000000  0.08951544  0.33268949  1
  F  F69  1  0.50000000  0.13320214  0.47726831  1
  F  F70  1  0.50000000  0.30318033  0.66989577  1
  F  F71  1  0.50000000  0.44611318  0.97310922  1
  F  F72  1  0.50000000  0.47283675  0.12243527  1
  F  F73  1  0.50000000  0.98931915  0.21806622  1
  F  F74  1  0.50000000  0.02734789  0.81536709  1
  F  F75  1  0.50000000  0.49248047  0.33155492  1
  F  F76  1  0.50000000  0.58957461  0.21598567  1
  F  F77  1  0.50000000  0.46726991  0.53146485  1
  F  F78  1  0.50000000  0.78369119  0.13478782  1
  F  F79  1  0.50000000  0.52602664  0.73468025  1
  F  F80  1  0.50000000  0.79522831  0.48253466  1
  F  F81  1  0.50000000  0.85713825  0.33679085  1
  F  F82  1  0.50000000  0.72962815  0.66321745  1
  F  F83  1  0.50000000  0.94991460  0.57811469  1
  F  F84  1  0.50000000  0.80230648  0.87674776  1
  F  F85  1  0.50000000  0.17320027  0.12224675  1
  F  F86  1  0.50000000  0.97521379  0.42900781  1
  F  F87  1  0.50000000  0.96291506  0.01816353  1
