# generated using pymatgen
data_LiCoH8(CO5)2
_symmetry_space_group_name_H-M   'P 1'
_cell_length_a   5.39143223
_cell_length_b   5.39143204
_cell_length_c   15.28126688
_cell_angle_alpha   81.55459285
_cell_angle_beta   98.44540721
_cell_angle_gamma   102.26704357
_symmetry_Int_Tables_number   1
_chemical_formula_structural   LiCoH8(CO5)2
_chemical_formula_sum   'Li2 Co2 H16 C4 O20'
_cell_volume   426.25543171
_cell_formula_units_Z   2
loop_
 _symmetry_equiv_pos_site_id
 _symmetry_equiv_pos_as_xyz
  1  'x, y, z'
loop_
 _atom_site_type_symbol
 _atom_site_label
 _atom_site_symmetry_multiplicity
 _atom_site_fract_x
 _atom_site_fract_y
 _atom_site_fract_z
 _atom_site_occupancy
  Li  Li0  1  0.42943851  0.26367461  0.46483492  1
  Li  Li1  1  0.73632539  0.57056149  0.96483492  1
  Co  Co2  1  0.06237982  0.06085002  0.24991469  1
  Co  Co3  1  0.93914998  0.93762018  0.74991469  1
  H  H4  1  0.22783363  0.85532243  0.94411518  1
  H  H5  1  0.13558340  0.83031808  0.54136707  1
  H  H6  1  0.23074890  0.47273775  0.89123527  1
  H  H7  1  0.14467757  0.77216637  0.44411518  1
  H  H8  1  0.27114271  0.38148057  0.61579859  1
  H  H9  1  0.16968192  0.86441660  0.04136707  1
  H  H10  1  0.38251465  0.27301490  0.87564962  1
  H  H11  1  0.44955368  0.18711702  0.62673737  1
  H  H12  1  0.52726225  0.76925110  0.39123527  1
  H  H13  1  0.61851943  0.72885729  0.11579859  1
  H  H14  1  0.82042724  0.10427836  0.95788595  1
  H  H15  1  0.72698510  0.61748535  0.37564962  1
  H  H16  1  0.85782897  0.22590152  0.55414208  1
  H  H17  1  0.81288298  0.55044632  0.12673737  1
  H  H18  1  0.89572164  0.17957276  0.45788595  1
  H  H19  1  0.77409848  0.14217103  0.05414208  1
  C  C20  1  0.04615658  0.48441108  0.28897943  1
  C  C21  1  0.51558892  0.95384342  0.78897943  1
  C  C22  1  0.48406248  0.03873736  0.21314715  1
  C  C23  1  0.96126264  0.51593752  0.71314715  1
  O  O24  1  0.09927664  0.79376156  0.98523497  1
  O  O25  1  0.02024171  0.69631543  0.31373274  1
  O  O26  1  0.30368457  0.97975829  0.81373274  1
  O  O27  1  0.04163195  0.27824795  0.34564825  1
  O  O28  1  0.07318720  0.45721584  0.20841073  1
  O  O29  1  0.20623844  0.90072336  0.48523497  1
  O  O30  1  0.40411532  0.44591159  0.89203979  1
  O  O31  1  0.54278416  0.92681280  0.70841073  1
  O  O32  1  0.40185804  0.33507911  0.58683064  1
  O  O33  1  0.27612462  0.01619527  0.15739933  1
  O  O34  1  0.72175205  0.95836805  0.84564825  1
  O  O35  1  0.55408841  0.59588468  0.39203979  1
  O  O36  1  0.46009360  0.08964626  0.29121502  1
  O  O37  1  0.66492089  0.59814196  0.08683064  1
  O  O38  1  0.76714301  0.17687580  0.49701884  1
  O  O39  1  0.91035374  0.53990640  0.79121502  1
  O  O40  1  0.98380473  0.72387538  0.65739933  1
  O  O41  1  0.69669477  0.00859492  0.19007139  1
  O  O42  1  0.99140508  0.30330523  0.69007139  1
  O  O43  1  0.82312420  0.23285699  0.99701884  1
