# generated using pymatgen
data_Mn12O5F19
_symmetry_space_group_name_H-M   'P 1'
_cell_length_a   4.80994831
_cell_length_b   5.81230475
_cell_length_c   16.10923893
_cell_angle_alpha   90.40941345
_cell_angle_beta   90.00603770
_cell_angle_gamma   87.72909124
_symmetry_Int_Tables_number   1
_chemical_formula_structural   Mn12O5F19
_chemical_formula_sum   'Mn12 O5 F19'
_cell_volume   449.99895458
_cell_formula_units_Z   1
loop_
 _symmetry_equiv_pos_site_id
 _symmetry_equiv_pos_as_xyz
  1  'x, y, z'
loop_
 _atom_site_type_symbol
 _atom_site_label
 _atom_site_symmetry_multiplicity
 _atom_site_fract_x
 _atom_site_fract_y
 _atom_site_fract_z
 _atom_site_occupancy
  Mn  Mn0  1  0.01486812  0.14585566  0.41858336  1
  Mn  Mn1  1  0.99122227  0.85078472  0.24880497  1
  Mn  Mn2  1  0.01054824  0.17256955  0.09435066  1
  Mn  Mn3  1  0.99449180  0.15430227  0.74826975  1
  Mn  Mn4  1  0.01381550  0.83118491  0.57546068  1
  Mn  Mn5  1  0.01559951  0.84158053  0.90963686  1
  Mn  Mn6  1  0.52101316  0.33604743  0.59429923  1
  Mn  Mn7  1  0.48541913  0.32777767  0.91685469  1
  Mn  Mn8  1  0.50452721  0.32781336  0.23935690  1
  Mn  Mn9  1  0.50519403  0.64865781  0.08412204  1
  Mn  Mn10  1  0.48217656  0.66203214  0.41771207  1
  Mn  Mn11  1  0.49864272  0.66037580  0.75242855  1
  O  O12  1  0.22151690  0.89842759  0.46564528  1
  O  O13  1  0.22438452  0.89450380  0.79796521  1
  O  O14  1  0.29037619  0.37672273  0.13813219  1
  O  O15  1  0.72238932  0.38875265  0.70471602  1
  O  O16  1  0.78929585  0.12468677  0.19379349  1
  F  F17  1  0.23820102  0.11193353  0.30988086  1
  F  F18  1  0.20988413  0.12317298  0.63875572  1
  F  F19  1  0.22058682  0.11266182  0.98175277  1
  F  F20  1  0.24396215  0.88049632  0.14370406  1
  F  F21  1  0.27301136  0.59642000  0.30152582  1
  F  F22  1  0.26269031  0.39123260  0.47841305  1
  F  F23  1  0.27649927  0.61822221  0.64512895  1
  F  F24  1  0.24242128  0.39423167  0.80896563  1
  F  F25  1  0.26715344  0.61196752  0.97430240  1
  F  F26  1  0.74733308  0.38994237  0.02147222  1
  F  F27  1  0.73829938  0.61527767  0.19429282  1
  F  F28  1  0.73136719  0.37457548  0.35960111  1
  F  F29  1  0.71885127  0.60779834  0.52659021  1
  F  F30  1  0.70461271  0.62406757  0.86194678  1
  F  F31  1  0.76694650  0.11847857  0.52149006  1
  F  F32  1  0.76325232  0.88545980  0.36005217  1
  F  F33  1  0.77938517  0.89445158  0.02837933  1
  F  F34  1  0.77357546  0.11533985  0.85668320  1
  F  F35  1  0.75648613  0.89219574  0.68693193  1
