# generated using pymatgen
data_Li3(FeO3)2
_symmetry_space_group_name_H-M   'P 1'
_cell_length_a   5.05768984
_cell_length_b   5.05840936
_cell_length_c   6.52074939
_cell_angle_alpha   50.07104004
_cell_angle_beta   58.69995796
_cell_angle_gamma   60.24776952
_symmetry_Int_Tables_number   1
_chemical_formula_structural   Li3(FeO3)2
_chemical_formula_sum   'Li3 Fe2 O6'
_cell_volume   105.88210199
_cell_formula_units_Z   1
loop_
 _symmetry_equiv_pos_site_id
 _symmetry_equiv_pos_as_xyz
  1  'x, y, z'
loop_
 _atom_site_type_symbol
 _atom_site_label
 _atom_site_symmetry_multiplicity
 _atom_site_fract_x
 _atom_site_fract_y
 _atom_site_fract_z
 _atom_site_occupancy
  Li  Li0  1  0.99678758  0.50494344  0.00128793  1
  Li  Li1  1  0.64858925  0.16224810  0.99609975  1
  Li  Li2  1  0.34596698  0.85929187  0.99659435  1
  Fe  Fe3  1  0.83359717  0.83671853  0.49940483  1
  Fe  Fe4  1  0.16816937  0.17123236  0.49949961  1
  O  O5  1  0.79742941  0.97047094  0.73661588  1
  O  O6  1  0.20296811  0.03882103  0.26178351  1
  O  O7  1  0.41886837  0.73365723  0.73281858  1
  O  O8  1  0.96398572  0.65427015  0.26658026  1
  O  O9  1  0.58313245  0.27341666  0.26650679  1
  O  O10  1  0.03780459  0.35347869  0.73290849  1
