# generated using pymatgen
data_Li3V2Fe3O10
_symmetry_space_group_name_H-M   'P 1'
_cell_length_a   5.18183410
_cell_length_b   5.14334003
_cell_length_c   7.86816055
_cell_angle_alpha   73.29448314
_cell_angle_beta   106.29498419
_cell_angle_gamma   102.42784902
_symmetry_Int_Tables_number   1
_chemical_formula_structural   Li3V2Fe3O10
_chemical_formula_sum   'Li3 V2 Fe3 O10'
_cell_volume   190.70685206
_cell_formula_units_Z   1
loop_
 _symmetry_equiv_pos_site_id
 _symmetry_equiv_pos_as_xyz
  1  'x, y, z'
loop_
 _atom_site_type_symbol
 _atom_site_label
 _atom_site_symmetry_multiplicity
 _atom_site_fract_x
 _atom_site_fract_y
 _atom_site_fract_z
 _atom_site_occupancy
  Li  Li0  1  0.20429386  0.51751274  0.39377448  1
  Li  Li1  1  0.50000000  0.00000000  0.50000000  1
  Li  Li2  1  0.79570714  0.48248726  0.60622552  1
  V  V3  1  0.11809876  0.01877661  0.68825521  1
  V  V4  1  0.88190124  0.98122339  0.31174479  1
  Fe  Fe5  1  0.00000000  0.50000000  0.00000000  1
  Fe  Fe6  1  0.69057852  0.96564493  0.90158091  1
  Fe  Fe7  1  0.30942148  0.03435507  0.09841909  1
  O  O8  1  0.04214510  0.23229531  0.85828579  1
  O  O9  1  0.11111877  0.78823578  0.52250773  1
  O  O10  1  0.32256880  0.78557830  0.93997504  1
  O  O11  1  0.19772159  0.25102757  0.23098681  1
  O  O12  1  0.45620111  0.19518630  0.67084888  1
  O  O13  1  0.54379889  0.80481370  0.32915112  1
  O  O14  1  0.80227841  0.74897243  0.76901319  1
  O  O15  1  0.67743120  0.21442170  0.06002496  1
  O  O16  1  0.88888123  0.21176422  0.47749227  1
  O  O17  1  0.95785490  0.76770469  0.14171421  1
