# generated using pymatgen
data_K2LiMnPCO7
_symmetry_space_group_name_H-M   'P 1'
_cell_length_a   5.35097956
_cell_length_b   7.16737408
_cell_length_c   9.92495582
_cell_angle_alpha   90.00017934
_cell_angle_beta   89.04092309
_cell_angle_gamma   90.00063270
_symmetry_Int_Tables_number   1
_chemical_formula_structural   K2LiMnPCO7
_chemical_formula_sum   'K4 Li2 Mn2 P2 C2 O14'
_cell_volume   380.59326545
_cell_formula_units_Z   2
loop_
 _symmetry_equiv_pos_site_id
 _symmetry_equiv_pos_as_xyz
  1  'x, y, z'
loop_
 _atom_site_type_symbol
 _atom_site_label
 _atom_site_symmetry_multiplicity
 _atom_site_fract_x
 _atom_site_fract_y
 _atom_site_fract_z
 _atom_site_occupancy
  K  K0  1  0.25212494  0.47837972  0.73027893  1
  K  K1  1  0.25212606  0.02161308  0.73027789  1
  K  K2  1  0.74789596  0.52162697  0.26968928  1
  K  K3  1  0.74789134  0.97838621  0.26968556  1
  Li  Li4  1  0.29989244  0.75000487  0.98269697  1
  Li  Li5  1  0.70019906  0.24999450  0.01728779  1
  Mn  Mn6  1  0.76666709  0.74999759  0.63069667  1
  Mn  Mn7  1  0.23334227  0.25001406  0.36924238  1
  P  P8  1  0.71976631  0.25000305  0.57877042  1
  P  P9  1  0.28024641  0.75000591  0.42120729  1
  C  C10  1  0.73815736  0.74999674  0.92573571  1
  C  C11  1  0.26200351  0.24999112  0.07424215  1
  O  O12  1  0.34935147  0.24996759  0.95191415  1
  O  O13  1  0.97512030  0.74998846  0.89603970  1
  O  O14  1  0.57208553  0.74999877  0.82860956  1
  O  O15  1  0.77335979  0.07171577  0.66275463  1
  O  O16  1  0.77333808  0.42829866  0.66274843  1
  O  O17  1  0.12935440  0.74999710  0.55715665  1
  O  O18  1  0.43597966  0.24999291  0.54180473  1
  O  O19  1  0.56403051  0.75002105  0.45812413  1
  O  O20  1  0.87070951  0.25000122  0.44279516  1
  O  O21  1  0.22665375  0.57170584  0.33719554  1
  O  O22  1  0.22662507  0.92830135  0.33719594  1
  O  O23  1  0.42803772  0.25000177  0.17141355  1
  O  O24  1  0.02489544  0.25000293  0.10405723  1
  O  O25  1  0.65062104  0.74999978  0.04815658  1
