# generated using pymatgen
data_Li5Cr2O8
_symmetry_space_group_name_H-M   'P 1'
_cell_length_a   7.86859252
_cell_length_b   5.36064323
_cell_length_c   5.15379935
_cell_angle_alpha   65.54795386
_cell_angle_beta   110.21018620
_cell_angle_gamma   98.54746053
_symmetry_Int_Tables_number   1
_chemical_formula_structural   Li5Cr2O8
_chemical_formula_sum   'Li5 Cr2 O8'
_cell_volume   185.70476294
_cell_formula_units_Z   1
loop_
 _symmetry_equiv_pos_site_id
 _symmetry_equiv_pos_as_xyz
  1  'x, y, z'
loop_
 _atom_site_type_symbol
 _atom_site_label
 _atom_site_symmetry_multiplicity
 _atom_site_fract_x
 _atom_site_fract_y
 _atom_site_fract_z
 _atom_site_occupancy
  Li  Li0  1  0.18064080  0.29175028  0.40995378  1
  Li  Li1  1  0.46554297  0.75620394  0.47912425  1
  Li  Li2  1  0.56116787  0.26853130  0.51415047  1
  Li  Li3  1  0.80755583  0.72112445  0.55515965  1
  Li  Li4  1  0.98747314  0.20290069  0.80060307  1
  Cr  Cr5  1  0.23998136  0.71095922  0.83413943  1
  Cr  Cr6  1  0.75823069  0.29505017  0.15721667  1
  O  O7  1  0.05170493  0.84950074  0.79360010  1
  O  O8  1  0.19111903  0.47280833  0.69266013  1
  O  O9  1  0.36073668  0.96121735  0.64636567  1
  O  O10  1  0.35254955  0.56010701  0.20416393  1
  O  O11  1  0.63520371  0.47502992  0.78794764  1
  O  O12  1  0.63184948  0.02258778  0.32540367  1
  O  O13  1  0.81228104  0.45121001  0.40657788  1
  O  O14  1  0.95773893  0.20236081  0.15151666  1
