# generated using pymatgen
data_LiP3W2O13
_symmetry_space_group_name_H-M   'P 1'
_cell_length_a   6.88793672
_cell_length_b   8.76521801
_cell_length_c   8.94580252
_cell_angle_alpha   90.00000000
_cell_angle_beta   85.59914345
_cell_angle_gamma   90.00000000
_symmetry_Int_Tables_number   1
_chemical_formula_structural   LiP3W2O13
_chemical_formula_sum   'Li2 P6 W4 O26'
_cell_volume   538.50385271
_cell_formula_units_Z   2
loop_
 _symmetry_equiv_pos_site_id
 _symmetry_equiv_pos_as_xyz
  1  'x, y, z'
loop_
 _atom_site_type_symbol
 _atom_site_label
 _atom_site_symmetry_multiplicity
 _atom_site_fract_x
 _atom_site_fract_y
 _atom_site_fract_z
 _atom_site_occupancy
  Li  Li0  1  0.50000000  0.14283965  0.75000000  1
  Li  Li1  1  0.50000000  0.85716035  0.25000000  1
  P  P2  1  0.00000000  0.04124449  0.75000000  1
  P  P3  1  0.00000000  0.95875551  0.25000000  1
  P  P4  1  0.16244955  0.56820715  0.83822522  1
  P  P5  1  0.16244955  0.43179285  0.33822522  1
  P  P6  1  0.83755045  0.56820715  0.66177478  1
  P  P7  1  0.83755045  0.43179285  0.16177478  1
  W  W8  1  0.23358094  0.76189638  0.51829711  1
  W  W9  1  0.23358094  0.23810362  0.01829711  1
  W  W10  1  0.76641906  0.76189638  0.98170289  1
  W  W11  1  0.76641906  0.23810362  0.48170289  1
  O  O12  1  0.00000000  0.47858010  0.75000000  1
  O  O13  1  0.05243973  0.67193822  0.95333985  1
  O  O14  1  0.15045877  0.14283859  0.82240910  1
  O  O15  1  0.00000000  0.52141990  0.25000000  1
  O  O16  1  0.05243973  0.32806178  0.45333985  1
  O  O17  1  0.11865291  0.94487330  0.63190668  1
  O  O18  1  0.28511463  0.44692648  0.90794748  1
  O  O19  1  0.15045877  0.85716141  0.32240910  1
  O  O20  1  0.28359133  0.66144664  0.71956250  1
  O  O21  1  0.11865291  0.05512670  0.13190668  1
  O  O22  1  0.28511463  0.55307352  0.40794748  1
  O  O23  1  0.28359133  0.33855336  0.21956250  1
  O  O24  1  0.47674058  0.81927710  0.46749183  1
  O  O25  1  0.52325942  0.81927710  0.03250817  1
  O  O26  1  0.47674058  0.18072290  0.96749183  1
  O  O27  1  0.52325942  0.18072290  0.53250817  1
  O  O28  1  0.71640867  0.66144664  0.78043750  1
  O  O29  1  0.71488537  0.44692648  0.59205252  1
  O  O30  1  0.88134709  0.94487330  0.86809332  1
  O  O31  1  0.71640867  0.33855336  0.28043750  1
  O  O32  1  0.84954123  0.14283859  0.67759090  1
  O  O33  1  0.71488537  0.55307352  0.09205252  1
  O  O34  1  0.88134709  0.05512670  0.36809332  1
  O  O35  1  0.94756027  0.67193822  0.54666015  1
  O  O36  1  0.84954123  0.85716141  0.17759090  1
  O  O37  1  0.94756027  0.32806178  0.04666015  1
