# generated using pymatgen
data_CaHfMg6
_symmetry_space_group_name_H-M   'P 1'
_cell_length_a   6.43181728
_cell_length_b   6.43181669
_cell_length_c   5.13200047
_cell_angle_alpha   90.00000000
_cell_angle_beta   90.00000000
_cell_angle_gamma   116.60043580
_symmetry_Int_Tables_number   1
_chemical_formula_structural   CaHfMg6
_chemical_formula_sum   'Ca1 Hf1 Mg6'
_cell_volume   189.82999151
_cell_formula_units_Z   1
loop_
 _symmetry_equiv_pos_site_id
 _symmetry_equiv_pos_as_xyz
  1  'x, y, z'
loop_
 _atom_site_type_symbol
 _atom_site_label
 _atom_site_symmetry_multiplicity
 _atom_site_fract_x
 _atom_site_fract_y
 _atom_site_fract_z
 _atom_site_occupancy
  Ca  Ca0  1  0.10381361  0.39618639  0.25000000  1
  Hf  Hf1  1  0.40008885  0.09991115  0.75000000  1
  Mg  Mg2  1  0.09104006  0.89797677  0.25000000  1
  Mg  Mg3  1  0.60202323  0.40895994  0.25000000  1
  Mg  Mg4  1  0.57984049  0.92015951  0.25000000  1
  Mg  Mg5  1  0.42715942  0.61289959  0.75000000  1
  Mg  Mg6  1  0.88710041  0.07284058  0.75000000  1
  Mg  Mg7  1  0.90893393  0.59106606  0.75000000  1
