# generated using pymatgen
data_LiMnF4
_symmetry_space_group_name_H-M   'P 1'
_cell_length_a   7.64543083
_cell_length_b   7.61026911
_cell_length_c   10.06422659
_cell_angle_alpha   90.00000000
_cell_angle_beta   90.00000000
_cell_angle_gamma   90.00000000
_symmetry_Int_Tables_number   1
_chemical_formula_structural   LiMnF4
_chemical_formula_sum   'Li8 Mn8 F32'
_cell_volume   585.57480695
_cell_formula_units_Z   8
loop_
 _symmetry_equiv_pos_site_id
 _symmetry_equiv_pos_as_xyz
  1  'x, y, z'
loop_
 _atom_site_type_symbol
 _atom_site_label
 _atom_site_symmetry_multiplicity
 _atom_site_fract_x
 _atom_site_fract_y
 _atom_site_fract_z
 _atom_site_occupancy
  Li  Li0  1  0.00000000  0.24771888  0.22852423  1
  Li  Li1  1  0.00000000  0.80967762  0.21142765  1
  Li  Li2  1  0.00000000  0.00976527  0.73035513  1
  Li  Li3  1  0.00000000  0.52396338  0.70585810  1
  Li  Li4  1  0.50000000  0.02396338  0.29414190  1
  Li  Li5  1  0.50000000  0.30967762  0.78857235  1
  Li  Li6  1  0.50000000  0.50976527  0.26964487  1
  Li  Li7  1  0.50000000  0.74771888  0.77147577  1
  Mn  Mn8  1  0.24666426  0.49675405  0.99416101  1
  Mn  Mn9  1  0.24834948  0.74479052  0.49379950  1
  Mn  Mn10  1  0.25165052  0.24479052  0.50620050  1
  Mn  Mn11  1  0.25333574  0.99675405  0.00583899  1
  Mn  Mn12  1  0.74666426  0.99675405  0.00583899  1
  Mn  Mn13  1  0.74834948  0.24479052  0.50620050  1
  Mn  Mn14  1  0.75165052  0.74479052  0.49379950  1
  Mn  Mn15  1  0.75333574  0.49675405  0.99416101  1
  F  F16  1  0.00000000  0.21345964  0.42472028  1
  F  F17  1  0.00000000  0.78098237  0.40701116  1
  F  F18  1  0.00000000  0.03051973  0.92681170  1
  F  F19  1  0.00000000  0.47506190  0.90260752  1
  F  F20  1  0.16418164  0.44034354  0.15702085  1
  F  F21  1  0.17212180  0.19754779  0.67377610  1
  F  F22  1  0.16191927  0.79203026  0.65909550  1
  F  F23  1  0.16749070  0.03751764  0.17535650  1
  F  F24  1  0.18599502  0.49593263  0.53729075  1
  F  F25  1  0.18815772  0.74678366  0.03766128  1
  F  F26  1  0.31184228  0.24678366  0.96233872  1
  F  F27  1  0.31400498  0.99593263  0.46270925  1
  F  F28  1  0.33250930  0.53751764  0.82464350  1
  F  F29  1  0.33808073  0.29203026  0.34090450  1
  F  F30  1  0.32787820  0.69754779  0.32622390  1
  F  F31  1  0.33581836  0.94034354  0.84297915  1
  F  F32  1  0.50000000  0.28098237  0.59298884  1
  F  F33  1  0.50000000  0.53051973  0.07318830  1
  F  F34  1  0.50000000  0.97506190  0.09739248  1
  F  F35  1  0.50000000  0.71345964  0.57527972  1
  F  F36  1  0.66418164  0.94034354  0.84297915  1
  F  F37  1  0.67212180  0.69754779  0.32622390  1
  F  F38  1  0.66191927  0.29203026  0.34090450  1
  F  F39  1  0.66749070  0.53751764  0.82464350  1
  F  F40  1  0.68599502  0.99593263  0.46270925  1
  F  F41  1  0.68815772  0.24678366  0.96233872  1
  F  F42  1  0.81184228  0.74678366  0.03766128  1
  F  F43  1  0.81400498  0.49593263  0.53729075  1
  F  F44  1  0.83250930  0.03751764  0.17535650  1
  F  F45  1  0.83808073  0.79203026  0.65909550  1
  F  F46  1  0.82787820  0.19754779  0.67377610  1
  F  F47  1  0.83581836  0.44034354  0.15702085  1
