# generated using pymatgen
data_Li13(FeO6)2
_symmetry_space_group_name_H-M   'P 1'
_cell_length_a   5.62580681
_cell_length_b   7.94824470
_cell_length_c   5.56119692
_cell_angle_alpha   88.25531472
_cell_angle_beta   90.29137259
_cell_angle_gamma   89.83861278
_symmetry_Int_Tables_number   1
_chemical_formula_structural   Li13(FeO6)2
_chemical_formula_sum   'Li13 Fe2 O12'
_cell_volume   248.55093700
_cell_formula_units_Z   1
loop_
 _symmetry_equiv_pos_site_id
 _symmetry_equiv_pos_as_xyz
  1  'x, y, z'
loop_
 _atom_site_type_symbol
 _atom_site_label
 _atom_site_symmetry_multiplicity
 _atom_site_fract_x
 _atom_site_fract_y
 _atom_site_fract_z
 _atom_site_occupancy
  Li  Li0  1  0.88379860  0.63581410  0.29901689  1
  Li  Li1  1  0.81280582  0.89189770  0.62830299  1
  Li  Li2  1  0.77723864  0.28806447  0.95753242  1
  Li  Li3  1  0.60860688  0.89597290  0.18452233  1
  Li  Li4  1  0.68288343  0.19836494  0.51769146  1
  Li  Li5  1  0.69062036  0.60565974  0.87033163  1
  Li  Li6  1  0.36336205  0.40901965  0.07421116  1
  Li  Li7  1  0.28766928  0.77148330  0.50941922  1
  Li  Li8  1  0.37738463  0.10844803  0.83510175  1
  Li  Li9  1  0.21314934  0.71742498  0.99971728  1
  Li  Li10  1  0.18889798  0.08127054  0.41701549  1
  Li  Li11  1  0.11901218  0.39012777  0.71777037  1
  Li  Li12  1  0.01336363  0.35320795  0.30125089  1
  Fe  Fe13  1  0.50340416  0.49504559  0.48910580  1
  Fe  Fe14  1  0.99647547  0.00361736  0.01131488  1
  O  O15  1  0.87007631  0.78243632  0.01382543  1
  O  O16  1  0.85423729  0.05358901  0.30959829  1
  O  O17  1  0.78376779  0.41682574  0.65387397  1
  O  O18  1  0.62587265  0.71928806  0.47951280  1
  O  O19  1  0.71385868  0.07118019  0.84364571  1
  O  O20  1  0.67895474  0.44127119  0.20054709  1
  O  O21  1  0.35560651  0.55804032  0.78219698  1
  O  O22  1  0.27271572  0.92727464  0.17194904  1
  O  O23  1  0.35547677  0.27785198  0.51663298  1
  O  O24  1  0.22198274  0.56214372  0.30870780  1
  O  O25  1  0.14759690  0.94810746  0.71626278  1
  O  O26  1  0.11886846  0.23316836  0.00282256  1
