# generated using pymatgen
data_Li2Co(SiO3)2
_symmetry_space_group_name_H-M   'P 1'
_cell_length_a   11.97912212
_cell_length_b   11.14388775
_cell_length_c   6.34861375
_cell_angle_alpha   73.45027863
_cell_angle_beta   74.63384576
_cell_angle_gamma   85.67115691
_symmetry_Int_Tables_number   1
_chemical_formula_structural   Li2Co(SiO3)2
_chemical_formula_sum   'Li12 Co6 Si12 O36'
_cell_volume   783.35094398
_cell_formula_units_Z   6
loop_
 _symmetry_equiv_pos_site_id
 _symmetry_equiv_pos_as_xyz
  1  'x, y, z'
loop_
 _atom_site_type_symbol
 _atom_site_label
 _atom_site_symmetry_multiplicity
 _atom_site_fract_x
 _atom_site_fract_y
 _atom_site_fract_z
 _atom_site_occupancy
  Li  Li0  1  0.02232536  0.00000000  0.48883782  1
  Li  Li1  1  0.70993745  0.00000000  0.14503178  1
  Li  Li2  1  0.43845335  0.14328286  0.95511578  1
  Li  Li3  1  0.14098790  0.22101411  0.56254148  1
  Li  Li4  1  0.64098790  0.27898589  0.53355559  1
  Li  Li5  1  0.93845335  0.35671714  0.84839863  1
  Li  Li6  1  0.52232536  0.50000000  0.23883782  1
  Li  Li7  1  0.20993745  0.50000000  0.89503178  1
  Li  Li8  1  0.93845335  0.64328286  0.21314802  1
  Li  Li9  1  0.64098790  0.72101411  0.82545652  1
  Li  Li10  1  0.14098790  0.77898589  0.29647063  1
  Li  Li11  1  0.43845335  0.85671714  0.60643087  1
  Co  Co12  1  0.26346921  0.00000000  0.36826539  1
  Co  Co13  1  0.85978887  0.16785730  0.71693822  1
  Co  Co14  1  0.35978887  0.33214270  0.63479452  1
  Co  Co15  1  0.76346821  0.50000000  0.11826539  1
  Co  Co16  1  0.35978887  0.66785730  0.00541661  1
  Co  Co17  1  0.85978887  0.83214270  0.42327291  1
  Si  Si18  1  0.68254153  0.00000000  0.65872873  1
  Si  Si19  1  0.03008721  0.00000000  0.98495589  1
  Si  Si20  1  0.48738983  0.11076382  0.45203812  1
  Si  Si21  1  0.13908793  0.21668490  0.07364223  1
  Si  Si22  1  0.63908793  0.28331510  0.04032613  1
  Si  Si23  1  0.98738983  0.38923618  0.31280195  1
  Si  Si24  1  0.53008721  0.50000000  0.73495589  1
  Si  Si25  1  0.18254153  0.50000000  0.40872873  1
  Si  Si26  1  0.98738983  0.61076382  0.69980822  1
  Si  Si27  1  0.63908793  0.71668490  0.32058494  1
  Si  Si28  1  0.13908793  0.78331510  0.78726984  1
  Si  Si29  1  0.48738983  0.88923618  0.06057205  1
  O  O30  1  0.95879779  0.02185013  0.79413612  1
  O  O31  1  0.37441912  0.02350639  0.52388152  1
  O  O32  1  0.14498885  0.13171050  0.32600877  1
  O  O33  1  0.11425194  0.12846752  0.91550084  1
  O  O34  1  0.74995265  0.13227526  0.56895608  1
  O  O35  1  0.52018346  0.19097432  0.17509089  1
  O  O36  1  0.59898074  0.01162077  0.47763687  1
  O  O37  1  0.75232263  0.19709857  0.99088546  1
  O  O38  1  0.48159457  0.20026098  0.61717716  1
  O  O39  1  0.98159457  0.29973902  0.56743814  1
  O  O40  1  0.25232263  0.30290143  0.93798303  1
  O  O41  1  0.09898074  0.48837923  0.23925764  1
  O  O42  1  0.02018346  0.30902568  0.11606521  1
  O  O43  1  0.24995265  0.36772474  0.45123134  1
  O  O44  1  0.61425194  0.37153248  0.79396735  1
  O  O45  1  0.64498885  0.36828950  0.20771927  1
  O  O46  1  0.87441912  0.47649361  0.29738892  1
  O  O47  1  0.45879779  0.47814987  0.56598625  1
  O  O48  1  0.45879779  0.52185013  0.97521597  1
  O  O49  1  0.87441912  0.52350639  0.82819197  1
  O  O50  1  0.64498885  0.63171050  0.14729188  1
  O  O51  1  0.61425194  0.62846752  0.59177971  1
  O  O52  1  0.24995265  0.63227526  0.29881601  1
  O  O53  1  0.02018346  0.69097432  0.86375134  1
  O  O54  1  0.09898074  0.51162077  0.66176162  1
  O  O55  1  0.25232263  0.69709857  0.80969334  1
  O  O56  1  0.98159457  0.70026098  0.45096729  1
  O  O57  1  0.48159457  0.79973902  0.90122827  1
  O  O58  1  0.75232263  0.80290143  0.25679190  1
  O  O59  1  0.59898074  0.98837923  0.92338239  1
  O  O60  1  0.52018346  0.80902568  0.30472566  1
  O  O61  1  0.74995265  0.86772474  0.68109127  1
  O  O62  1  0.11425194  0.87153248  0.97024722  1
  O  O63  1  0.14498885  0.86828950  0.52900239  1
  O  O64  1  0.37441912  0.97649361  0.10169936  1
  O  O65  1  0.95879779  0.97814987  0.24706610  1
