# generated using pymatgen
data_Li3Fe8(BO3)8
_symmetry_space_group_name_H-M   'P 1'
_cell_length_a   5.30114146
_cell_length_b   9.07402340
_cell_length_c   10.11159407
_cell_angle_alpha   90.50197922
_cell_angle_beta   90.66541748
_cell_angle_gamma   89.57847281
_symmetry_Int_Tables_number   1
_chemical_formula_structural   Li3Fe8(BO3)8
_chemical_formula_sum   'Li3 Fe8 B8 O24'
_cell_volume   486.33052002
_cell_formula_units_Z   1
loop_
 _symmetry_equiv_pos_site_id
 _symmetry_equiv_pos_as_xyz
  1  'x, y, z'
loop_
 _atom_site_type_symbol
 _atom_site_label
 _atom_site_symmetry_multiplicity
 _atom_site_fract_x
 _atom_site_fract_y
 _atom_site_fract_z
 _atom_site_occupancy
  Li  Li0  1  0.34426104  0.01276035  0.84113912  1
  Li  Li1  1  0.65774432  0.99977939  0.12271235  1
  Li  Li2  1  0.84494623  0.50668828  0.84088495  1
  Fe  Fe3  1  0.16141024  0.17154953  0.12421716  1
  Fe  Fe4  1  0.84382739  0.16172979  0.37401981  1
  Fe  Fe5  1  0.33472058  0.34508823  0.87274741  1
  Fe  Fe6  1  0.65089276  0.32924055  0.61894332  1
  Fe  Fe7  1  0.33623106  0.66534901  0.36907587  1
  Fe  Fe8  1  0.15274700  0.83123590  0.61894165  1
  Fe  Fe9  1  0.66413931  0.65947370  0.12151660  1
  Fe  Fe10  1  0.84405752  0.84334912  0.87153280  1
  B  B11  1  0.15899520  0.16845004  0.62868440  1
  B  B12  1  0.33513537  0.33624784  0.36984932  1
  B  B13  1  0.83271923  0.16921126  0.87725231  1
  B  B14  1  0.66274763  0.32865574  0.11764517  1
  B  B15  1  0.33727901  0.67131901  0.87259706  1
  B  B16  1  0.66064714  0.66949441  0.62511674  1
  B  B17  1  0.16826599  0.83576332  0.12213608  1
  B  B18  1  0.82586279  0.82672619  0.36211397  1
  O  O19  1  0.25270087  0.02867794  0.64717847  1
  O  O20  1  0.08766278  0.16888275  0.91605431  1
  O  O21  1  0.69187055  0.04334221  0.89118770  1
  O  O22  1  0.20889689  0.21405561  0.31634864  1
  O  O23  1  0.30478775  0.28834926  0.66667706  1
  O  O24  1  0.79792810  0.20094367  0.15226178  1
  O  O25  1  0.91819408  0.18929042  0.57889488  1
  O  O26  1  0.41433736  0.31091276  0.07620494  1
  O  O27  1  0.22709526  0.47251718  0.36535071  1
  O  O28  1  0.57183461  0.31468046  0.42740468  1
  O  O29  1  0.72455492  0.29888622  0.82790560  1
  O  O30  1  0.19656745  0.54748339  0.87054832  1
  O  O31  1  0.77224265  0.46304007  0.11785647  1
  O  O32  1  0.30431092  0.71220510  0.16379378  1
  O  O33  1  0.42659460  0.69745610  0.56509063  1
  O  O34  1  0.73951378  0.52986387  0.65113153  1
  O  O35  1  0.58954315  0.67205375  0.92030542  1
  O  O36  1  0.06526297  0.80510609  0.42228975  1
  O  O37  1  0.23403646  0.80484525  0.82564068  1
  O  O38  1  0.69671868  0.69757047  0.32164335  1
  O  O39  1  0.80729362  0.78862064  0.66602054  1
  O  O40  1  0.28492000  0.96972034  0.11224322  1
  O  O41  1  0.91277555  0.82069990  0.08654553  1
  O  O42  1  0.72832222  0.96061988  0.33889094  1
