# generated using pymatgen
data_Li3Fe8O3F13
_symmetry_space_group_name_H-M   'P 1'
_cell_length_a   6.25132509
_cell_length_b   10.41211620
_cell_length_c   6.31931616
_cell_angle_alpha   107.29740638
_cell_angle_beta   60.19057776
_cell_angle_gamma   107.53716845
_symmetry_Int_Tables_number   1
_chemical_formula_structural   Li3Fe8O3F13
_chemical_formula_sum   'Li3 Fe8 O3 F13'
_cell_volume   334.85420809
_cell_formula_units_Z   1
loop_
 _symmetry_equiv_pos_site_id
 _symmetry_equiv_pos_as_xyz
  1  'x, y, z'
loop_
 _atom_site_type_symbol
 _atom_site_label
 _atom_site_symmetry_multiplicity
 _atom_site_fract_x
 _atom_site_fract_y
 _atom_site_fract_z
 _atom_site_occupancy
  Li  Li0  1  0.99673416  0.98945022  0.00194665  1
  Li  Li1  1  0.81926024  0.42998027  0.79622649  1
  Li  Li2  1  0.19827619  0.57184140  0.17950561  1
  Fe  Fe3  1  0.00451751  0.99156694  0.50579438  1
  Fe  Fe4  1  0.47990027  0.99192531  0.50879965  1
  Fe  Fe5  1  0.26423510  0.24972425  0.24802844  1
  Fe  Fe6  1  0.25787503  0.26557808  0.74860780  1
  Fe  Fe7  1  0.73359420  0.24855190  0.25533193  1
  Fe  Fe8  1  0.25445015  0.75280276  0.73764715  1
  Fe  Fe9  1  0.75397343  0.75407829  0.74132689  1
  Fe  Fe10  1  0.73807187  0.73368182  0.25513925  1
  O  O11  1  0.35809569  0.12351857  0.40512516  1
  O  O12  1  0.10515778  0.87750899  0.66398800  1
  O  O13  1  0.64294360  0.88077140  0.59482082  1
  F  F14  1  0.34013880  0.13459071  0.89560337  1
  F  F15  1  0.88589581  0.12156968  0.34970483  1
  F  F16  1  0.90410123  0.13423763  0.90336548  1
  F  F17  1  0.13444250  0.36500774  0.60115252  1
  F  F18  1  0.12046734  0.36772784  0.12510533  1
  F  F19  1  0.62783872  0.36317051  0.11457041  1
  F  F20  1  0.62989766  0.36617971  0.60764401  1
  F  F21  1  0.38334217  0.65079813  0.87653001  1
  F  F22  1  0.37419958  0.63043978  0.37353466  1
  F  F23  1  0.87693656  0.62701427  0.87349747  1
  F  F24  1  0.89004674  0.63565017  0.37178875  1
  F  F25  1  0.09156666  0.87051468  0.12469907  1
  F  F26  1  0.64391303  0.87169594  0.13073084  1
