# generated using pymatgen
data_Mn6O5F7
_symmetry_space_group_name_H-M   'P 1'
_cell_length_a   5.74930638
_cell_length_b   5.13947970
_cell_length_c   14.55828673
_cell_angle_alpha   92.07143913
_cell_angle_beta   86.20939563
_cell_angle_gamma   90.79210689
_symmetry_Int_Tables_number   1
_chemical_formula_structural   Mn6O5F7
_chemical_formula_sum   'Mn12 O10 F14'
_cell_volume   428.92493444
_cell_formula_units_Z   2
loop_
 _symmetry_equiv_pos_site_id
 _symmetry_equiv_pos_as_xyz
  1  'x, y, z'
loop_
 _atom_site_type_symbol
 _atom_site_label
 _atom_site_symmetry_multiplicity
 _atom_site_fract_x
 _atom_site_fract_y
 _atom_site_fract_z
 _atom_site_occupancy
  Mn  Mn0  1  0.12451706  0.97686044  0.00708571  1
  Mn  Mn1  1  0.89317028  0.49074003  0.17784503  1
  Mn  Mn2  1  0.12514373  0.98010922  0.33873148  1
  Mn  Mn3  1  0.90725997  0.51477919  0.49701880  1
  Mn  Mn4  1  0.10906944  0.98953684  0.66416141  1
  Mn  Mn5  1  0.91710564  0.50490727  0.83412149  1
  Mn  Mn6  1  0.54735687  0.01521886  0.16923081  1
  Mn  Mn7  1  0.42408814  0.47025835  0.99647234  1
  Mn  Mn8  1  0.41976254  0.54412679  0.65764543  1
  Mn  Mn9  1  0.55710241  0.03484027  0.49861516  1
  Mn  Mn10  1  0.39441665  0.49963913  0.33237521  1
  Mn  Mn11  1  0.49525380  0.00420602  0.83518822  1
  O  O12  1  0.13980033  0.67900354  0.40704272  1
  O  O13  1  0.19095719  0.72275177  0.74652003  1
  O  O14  1  0.36280791  0.16650203  0.06862661  1
  O  O15  1  0.35902072  0.81663348  0.25985011  1
  O  O16  1  0.35208955  0.83875417  0.58482815  1
  O  O17  1  0.36817640  0.79182800  0.93253799  1
  O  O18  1  0.34464084  0.18247171  0.40306922  1
  O  O19  1  0.62303955  0.30710185  0.90010299  1
  O  O20  1  0.62225412  0.35842623  0.56464206  1
  O  O21  1  0.60720276  0.32882990  0.23973389  1
  F  F22  1  0.11547444  0.28517691  0.25737316  1
  F  F23  1  0.14995860  0.63105361  0.08467523  1
  F  F24  1  0.12127176  0.32130221  0.59173654  1
  F  F25  1  0.14132600  0.28387753  0.91216430  1
  F  F26  1  0.39977346  0.22366714  0.73132617  1
  F  F27  1  0.63284306  0.67988594  0.09820015  1
  F  F28  1  0.63193623  0.70088471  0.42263874  1
  F  F29  1  0.66738684  0.70052734  0.75799603  1
  F  F30  1  0.87013676  0.16164943  0.41874653  1
  F  F31  1  0.87237249  0.14556622  0.09076072  1
  F  F32  1  0.89104427  0.16832922  0.75081826  1
  F  F33  1  0.84995453  0.84857717  0.57665677  1
  F  F34  1  0.89167278  0.79947253  0.93440221  1
  F  F35  1  0.88061387  0.83250794  0.25706234  1
