# generated using pymatgen
data_Mn2OF2
_symmetry_space_group_name_H-M   'P 1'
_cell_length_a   8.90951405
_cell_length_b   8.83524515
_cell_length_c   8.92245227
_cell_angle_alpha   109.41351970
_cell_angle_beta   109.55191104
_cell_angle_gamma   109.19499165
_symmetry_Int_Tables_number   1
_chemical_formula_structural   Mn2OF2
_chemical_formula_sum   'Mn16 O8 F16'
_cell_volume   542.35252836
_cell_formula_units_Z   8
loop_
 _symmetry_equiv_pos_site_id
 _symmetry_equiv_pos_as_xyz
  1  'x, y, z'
loop_
 _atom_site_type_symbol
 _atom_site_label
 _atom_site_symmetry_multiplicity
 _atom_site_fract_x
 _atom_site_fract_y
 _atom_site_fract_z
 _atom_site_occupancy
  Mn  Mn0  1  0.81038676  0.27291167  0.04542216  1
  Mn  Mn1  1  0.03795561  0.03306940  0.03874825  1
  Mn  Mn2  1  0.51811256  0.01160204  0.49133371  1
  Mn  Mn3  1  0.48395335  0.51101532  0.99676811  1
  Mn  Mn4  1  0.52260004  0.27762210  0.26353136  1
  Mn  Mn5  1  0.95827375  0.20591369  0.75008467  1
  Mn  Mn6  1  0.73841222  0.46481725  0.68873440  1
  Mn  Mn7  1  0.75178154  0.96099891  0.23165873  1
  Mn  Mn8  1  0.27013602  0.22210585  0.50255578  1
  Mn  Mn9  1  0.71813802  0.75019176  0.47418055  1
  Mn  Mn10  1  0.26515403  0.04458455  0.80793511  1
  Mn  Mn11  1  0.22408213  0.51859430  0.26915501  1
  Mn  Mn12  1  0.97732005  0.51607975  0.48245673  1
  Mn  Mn13  1  0.02571943  0.77726988  0.24830493  1
  Mn  Mn14  1  0.46879805  0.72056438  0.76472995  1
  Mn  Mn15  1  0.24116441  0.77162728  0.97893551  1
  O  O16  1  0.74445451  0.99904921  0.47854434  1
  O  O17  1  0.28343755  0.03925898  0.04377084  1
  O  O18  1  0.99921193  0.54550325  0.26851414  1
  O  O19  1  0.48675754  0.22404598  0.46396082  1
  O  O20  1  0.04231111  0.26825937  0.02363576  1
  O  O21  1  0.75516287  0.53770292  0.49173293  1
  O  O22  1  0.47212926  0.74521568  0.00898322  1
  O  O23  1  0.02072127  0.01882549  0.26673491  1
  F  F24  1  0.75849649  0.21972228  0.26137140  1
  F  F25  1  0.75636328  0.69780455  0.22790398  1
  F  F26  1  0.43904626  0.49533123  0.21913790  1
  F  F27  1  0.72741325  0.25227702  0.77932434  1
  F  F28  1  0.97755597  0.94512682  0.73313393  1
  F  F29  1  0.54658511  0.28483178  0.99057336  1
  F  F30  1  0.22855949  0.45244403  0.50158946  1
  F  F31  1  0.27979774  0.77168261  0.23268920  1
  F  F32  1  0.54931124  0.51404014  0.77769945  1
  F  F33  1  0.95613659  0.71119884  0.95445532  1
  F  F34  1  0.49109916  0.76048336  0.54375563  1
  F  F35  1  0.22689860  0.26698813  0.75541169  1
  F  F36  1  0.01510113  0.46519745  0.73099790  1
  F  F37  1  0.72488621  0.97118121  0.94005712  1
  F  F38  1  0.27478091  0.98732099  0.55726326  1
  F  F39  1  0.23179558  0.76754357  0.71422313  1
