# generated using pymatgen
data_Li2CrF4
_symmetry_space_group_name_H-M   'P 1'
_cell_length_a   4.08069541
_cell_length_b   8.94242344
_cell_length_c   8.85254703
_cell_angle_alpha   92.30070815
_cell_angle_beta   90.00028186
_cell_angle_gamma   90.00001265
_symmetry_Int_Tables_number   1
_chemical_formula_structural   Li2CrF4
_chemical_formula_sum   'Li8 Cr4 F16'
_cell_volume   322.78060154
_cell_formula_units_Z   4
loop_
 _symmetry_equiv_pos_site_id
 _symmetry_equiv_pos_as_xyz
  1  'x, y, z'
loop_
 _atom_site_type_symbol
 _atom_site_label
 _atom_site_symmetry_multiplicity
 _atom_site_fract_x
 _atom_site_fract_y
 _atom_site_fract_z
 _atom_site_occupancy
  Li  Li0  1  0.49999423  0.62798639  0.07459601  1
  Li  Li1  1  0.99999352  0.42188091  0.10509218  1
  Li  Li2  1  0.49999475  0.86749207  0.38294516  1
  Li  Li3  1  0.99999434  0.11582455  0.35972246  1
  Li  Li4  1  0.99999698  0.90329244  0.61943437  1
  Li  Li5  1  0.49999934  0.12428395  0.61537823  1
  Li  Li6  1  0.99999698  0.36690972  0.65741363  1
  Li  Li7  1  0.49999615  0.38283235  0.88194449  1
  Cr  Cr8  1  0.99999734  0.86162570  0.11749833  1
  Cr  Cr9  1  0.49998629  0.37978898  0.37186507  1
  Cr  Cr10  1  0.50001912  0.63519794  0.64887829  1
  Cr  Cr11  1  -0.00000948  0.12049619  0.88424972  1
  F  F12  1  0.99999330  0.08681245  0.13652202  1
  F  F13  1  0.99999338  0.63619147  0.11172184  1
  F  F14  1  0.50000520  0.84102449  0.15240992  1
  F  F15  1  0.49998776  0.41325219  0.11083839  1
  F  F16  1  0.99999249  0.90004265  0.38605799  1
  F  F17  1  0.00001000  0.36046646  0.35747146  1
  F  F18  1  0.50000075  0.15250657  0.38657130  1
  F  F19  1  0.50000302  0.60545580  0.41603611  1
  F  F20  1  0.50000005  0.35943382  0.64665612  1
  F  F21  1  0.49999969  0.89572965  0.59925855  1
  F  F22  1  0.00000614  0.60565479  0.63958350  1
  F  F23  1  0.00000084  0.13817690  0.61343047  1
  F  F24  1  0.49999586  0.59883407  0.86769200  1
  F  F25  1  0.50003275  0.14287951  0.85777579  1
  F  F26  1  0.99999860  0.34906103  0.88849048  1
  F  F27  1  0.00000362  0.90043900  0.85102111  1
