# generated using pymatgen
data_Li3Fe8(BO3)8
_symmetry_space_group_name_H-M   'P 1'
_cell_length_a   5.26550863
_cell_length_b   9.16345856
_cell_length_c   11.38833065
_cell_angle_alpha   66.83762250
_cell_angle_beta   76.25024965
_cell_angle_gamma   89.75864467
_symmetry_Int_Tables_number   1
_chemical_formula_structural   Li3Fe8(BO3)8
_chemical_formula_sum   'Li3 Fe8 B8 O24'
_cell_volume   488.26210765
_cell_formula_units_Z   1
loop_
 _symmetry_equiv_pos_site_id
 _symmetry_equiv_pos_as_xyz
  1  'x, y, z'
loop_
 _atom_site_type_symbol
 _atom_site_label
 _atom_site_symmetry_multiplicity
 _atom_site_fract_x
 _atom_site_fract_y
 _atom_site_fract_z
 _atom_site_occupancy
  Li  Li0  1  0.52039555  0.49320258  0.65706380  1
  Li  Li1  1  0.01097193  0.98919688  0.66569676  1
  Li  Li2  1  0.23094246  0.24496102  0.16568963  1
  Fe  Fe3  1  0.97627328  0.64681086  0.37619379  1
  Fe  Fe4  1  0.72844697  0.06774243  0.88417733  1
  Fe  Fe5  1  0.54013426  0.84604476  0.62332219  1
  Fe  Fe6  1  0.76094790  0.44098407  0.12994305  1
  Fe  Fe7  1  0.22823282  0.56958054  0.87538714  1
  Fe  Fe8  1  0.48299640  0.14638894  0.38304770  1
  Fe  Fe9  1  0.03735784  0.34560154  0.62626235  1
  Fe  Fe10  1  0.24629601  0.93123747  0.12950849  1
  B  B11  1  0.98258257  0.31972328  0.37256249  1
  B  B12  1  0.73547105  0.39807382  0.87612179  1
  B  B13  1  0.52748986  0.18347594  0.62985909  1
  B  B14  1  0.76647278  0.11421386  0.12580325  1
  B  B15  1  0.47171990  0.81070807  0.37818466  1
  B  B16  1  0.23545148  0.89968822  0.87396868  1
  B  B17  1  0.02446227  0.68240238  0.62805725  1
  B  B18  1  0.26337077  0.59744804  0.13113766  1
  O  O19  1  0.99287979  0.93489538  0.85341456  1
  O  O20  1  0.86325227  0.28872631  0.83445231  1
  O  O21  1  0.86101334  0.47751973  0.93351034  1
  O  O22  1  0.90944628  0.81523942  0.62874149  1
  O  O23  1  0.92068111  0.57828072  0.58451044  1
  O  O24  1  0.75662297  0.14530750  0.67306352  1
  O  O25  1  0.75121162  0.32784862  0.32915457  1
  O  O26  1  0.49173000  0.43307983  0.85789540  1
  O  O27  1  0.35697906  0.78304198  0.83643085  1
  O  O28  1  0.53913109  0.92827341  0.41917076  1
  O  O29  1  0.62433924  0.68945993  0.38535631  1
  O  O30  1  0.36552637  0.98141744  0.92477743  1
  O  O31  1  0.64481803  0.02651638  0.07594827  1
  O  O32  1  0.40712121  0.31290773  0.63248756  1
  O  O33  1  0.42186144  0.08180754  0.58126803  1
  O  O34  1  0.60371234  0.21930497  0.17077390  1
  O  O35  1  0.52222907  0.58947290  0.12952123  1
  O  O36  1  0.25299274  0.64455168  0.67543727  1
  O  O37  1  0.24172235  0.81858653  0.33733550  1
  O  O38  1  0.03956462  0.42234040  0.42503441  1
  O  O39  1  0.14796667  0.20905616  0.35677651  1
  O  O40  1  0.14894591  0.49663238  0.08355349  1
  O  O41  1  0.10687888  0.69314031  0.17758871  1
  O  O42  1  0.01766845  0.10710806  0.13360105  1
