# generated using pymatgen
data_Mn6O5F7
_symmetry_space_group_name_H-M   'P 1'
_cell_length_a   5.76146139
_cell_length_b   5.11292102
_cell_length_c   14.52533048
_cell_angle_alpha   93.43635211
_cell_angle_beta   90.89496443
_cell_angle_gamma   90.11610200
_symmetry_Int_Tables_number   1
_chemical_formula_structural   Mn6O5F7
_chemical_formula_sum   'Mn12 O10 F14'
_cell_volume   427.06236587
_cell_formula_units_Z   2
loop_
 _symmetry_equiv_pos_site_id
 _symmetry_equiv_pos_as_xyz
  1  'x, y, z'
loop_
 _atom_site_type_symbol
 _atom_site_label
 _atom_site_symmetry_multiplicity
 _atom_site_fract_x
 _atom_site_fract_y
 _atom_site_fract_z
 _atom_site_occupancy
  Mn  Mn0  1  0.12191239  0.95473916  0.00449979  1
  Mn  Mn1  1  0.86633198  0.48564774  0.16628401  1
  Mn  Mn2  1  0.06107706  0.03292058  0.34210832  1
  Mn  Mn3  1  0.11567431  0.49113557  0.50248873  1
  Mn  Mn4  1  0.88376106  0.00837778  0.66193010  1
  Mn  Mn5  1  0.09422803  0.52417473  0.83309394  1
  Mn  Mn6  1  0.57907676  0.99184763  0.16056538  1
  Mn  Mn7  1  0.42836167  0.45776618  0.00524164  1
  Mn  Mn8  1  0.54056644  0.48111001  0.66259857  1
  Mn  Mn9  1  0.44750009  0.96117419  0.49570512  1
  Mn  Mn10  1  0.44013731  0.51813730  0.33235376  1
  Mn  Mn11  1  0.41503799  0.05437265  0.83865288  1
  O  O12  1  0.21872629  0.73665990  0.41329779  1
  O  O13  1  0.19528810  0.26537434  0.92011057  1
  O  O14  1  0.36765906  0.14356636  0.07578596  1
  O  O15  1  0.35561511  0.66559104  0.57466455  1
  O  O16  1  0.34765336  0.76826156  0.92798832  1
  O  O17  1  0.33553247  0.33999555  0.76199482  1
  O  O18  1  0.35307554  0.23570488  0.41020897  1
  O  O19  1  0.61636787  0.15989576  0.59268211  1
  O  O20  1  0.63017271  0.31907011  0.23545396  1
  O  O21  1  0.62969348  0.65253851  0.09313963  1
  F  F22  1  0.10409938  0.34793548  0.24994718  1
  F  F23  1  0.11382655  0.62877984  0.08789848  1
  F  F24  1  0.12585654  0.17849439  0.57763818  1
  F  F25  1  0.10236195  0.84075307  0.75619522  1
  F  F26  1  0.36712167  0.81740523  0.25269257  1
  F  F27  1  0.65709238  0.26360236  0.91732042  1
  F  F28  1  0.68340796  0.78320623  0.40466684  1
  F  F29  1  0.59650743  0.83125491  0.74608448  1
  F  F30  1  0.88446395  0.31008372  0.42517423  1
  F  F31  1  0.88160095  0.13135203  0.08004078  1
  F  F32  1  0.83213601  0.35200551  0.74328784  1
  F  F33  1  0.84919423  0.65862718  0.59063511  1
  F  F34  1  0.90370081  0.75136735  0.92047834  1
  F  F35  1  0.85518313  0.85706818  0.23709340  1
