# generated using pymatgen
data_CaMg6Cu
_symmetry_space_group_name_H-M   'P 1'
_cell_length_a   6.70619246
_cell_length_b   6.70619191
_cell_length_c   4.97253160
_cell_angle_alpha   90.00000000
_cell_angle_beta   90.00000000
_cell_angle_gamma   124.03263307
_symmetry_Int_Tables_number   1
_chemical_formula_structural   CaMg6Cu
_chemical_formula_sum   'Ca1 Mg6 Cu1'
_cell_volume   185.32619543
_cell_formula_units_Z   1
loop_
 _symmetry_equiv_pos_site_id
 _symmetry_equiv_pos_as_xyz
  1  'x, y, z'
loop_
 _atom_site_type_symbol
 _atom_site_label
 _atom_site_symmetry_multiplicity
 _atom_site_fract_x
 _atom_site_fract_y
 _atom_site_fract_z
 _atom_site_occupancy
  Ca  Ca0  1  0.18955439  0.31044561  0.25000000  1
  Mg  Mg1  1  0.17688836  0.83115314  0.25000000  1
  Mg  Mg2  1  0.66884686  0.32311164  0.25000000  1
  Mg  Mg3  1  0.65914684  0.84085316  0.25000000  1
  Mg  Mg4  1  0.32032154  0.69267545  0.75000000  1
  Mg  Mg5  1  0.80732455  0.17967846  0.75000000  1
  Mg  Mg6  1  0.81715399  0.68284601  0.75000000  1
  Cu  Cu7  1  0.36076347  0.13923653  0.75000000  1
