# generated using pymatgen
data_Na4CoO4
_symmetry_space_group_name_H-M   'P 1'
_cell_length_a   10.06936044
_cell_length_b   6.06736396
_cell_length_c   17.84961000
_cell_angle_alpha   90.17019080
_cell_angle_beta   92.44344326
_cell_angle_gamma   90.01651055
_symmetry_Int_Tables_number   1
_chemical_formula_structural   Na4CoO4
_chemical_formula_sum   'Na32 Co8 O32'
_cell_volume   1089.51614168
_cell_formula_units_Z   8
loop_
 _symmetry_equiv_pos_site_id
 _symmetry_equiv_pos_as_xyz
  1  'x, y, z'
loop_
 _atom_site_type_symbol
 _atom_site_label
 _atom_site_symmetry_multiplicity
 _atom_site_fract_x
 _atom_site_fract_y
 _atom_site_fract_z
 _atom_site_occupancy
  Na  Na0  1  0.13837380  0.18328519  0.86139877  1
  Na  Na1  1  0.14830132  0.33343202  0.36075578  1
  Na  Na2  1  0.20359263  0.64106572  0.14013573  1
  Na  Na3  1  0.27148807  0.50803168  0.61049528  1
  Na  Na4  1  0.23949963  0.57368696  0.78207369  1
  Na  Na5  1  0.25154787  0.93770126  0.28731257  1
  Na  Na6  1  0.32898949  0.40245695  0.00442534  1
  Na  Na7  1  0.31422701  0.06190372  0.50276881  1
  Na  Na8  1  0.39063330  0.34257816  0.23533875  1
  Na  Na9  1  0.36789766  0.11488754  0.73704107  1
  Na  Na10  1  0.35295584  0.86130978  0.91844355  1
  Na  Na11  1  0.37248706  0.62210684  0.41384727  1
  Na  Na12  1  0.54780101  0.06779434  0.05638906  1
  Na  Na13  1  0.56264342  0.42271270  0.55659112  1
  Na  Na14  1  0.59482705  0.86936575  0.25599888  1
  Na  Na15  1  0.58967583  0.61866653  0.75460177  1
  Na  Na16  1  0.65183055  0.59183887  0.00371284  1
  Na  Na17  1  0.66928667  0.91049665  0.50684525  1
  Na  Na18  1  0.68334858  0.09848783  0.68487570  1
  Na  Na19  1  0.68765086  0.39052561  0.17905842  1
  Na  Na20  1  0.69897995  0.55560107  0.37408431  1
  Na  Na21  1  0.68857191  0.94076134  0.87414787  1
  Na  Na22  1  0.80550424  0.08909499  0.36707565  1
  Na  Na23  1  0.79790934  0.41010890  0.86509265  1
  Na  Na24  1  0.84145460  0.58975602  0.67368989  1
  Na  Na25  1  0.84794454  0.91804006  0.17482649  1
  Na  Na26  1  0.91527358  0.40846452  0.50396089  1
  Na  Na27  1  0.90475126  0.08704544  0.00639863  1
  Na  Na28  1  0.97454006  0.00818054  0.74042730  1
  Na  Na29  1  0.95535203  0.45399163  0.24584679  1
  Na  Na30  1  0.97535183  0.58806332  0.04797628  1
  Na  Na31  1  0.01330160  0.89794640  0.54660753  1
  Co  Co32  1  0.07003202  0.18491926  0.13481437  1
  Co  Co33  1  0.05230447  0.31240492  0.63652111  1
  Co  Co34  1  0.47642332  0.66900773  0.12482607  1
  Co  Co35  1  0.47205963  0.83163359  0.62136790  1
  Co  Co36  1  0.53268832  0.15150813  0.37867500  1
  Co  Co37  1  0.52349275  0.33915917  0.87757364  1
  Co  Co38  1  0.95937036  0.69601562  0.37509904  1
  Co  Co39  1  0.94894131  0.81005623  0.87401328  1
  O  O40  1  0.04448103  0.89562980  0.11684681  1
  O  O41  1  0.04042670  0.60467982  0.62111785  1
  O  O42  1  0.15425379  0.26562685  0.22320016  1
  O  O43  1  0.14992772  0.25726428  0.72249920  1
  O  O44  1  0.12882953  0.21410753  0.55302060  1
  O  O45  1  0.13553644  0.33203447  0.05834096  1
  O  O46  1  0.13609034  0.73743141  0.37385876  1
  O  O47  1  0.12514058  0.77256032  0.86732631  1
  O  O48  1  0.36039579  0.23444830  0.37990540  1
  O  O49  1  0.35385348  0.24515899  0.88073524  1
  O  O50  1  0.39743942  0.77100592  0.04094398  1
  O  O51  1  0.40158480  0.70762863  0.53705221  1
  O  O52  1  0.38761200  0.73646962  0.70211575  1
  O  O53  1  0.39110359  0.73229410  0.21010064  1
  O  O54  1  0.48337616  0.37402497  0.11522033  1
  O  O55  1  0.47055804  0.12757190  0.61484338  1
  O  O56  1  0.54935145  0.85569253  0.38329380  1
  O  O57  1  0.53563107  0.63691754  0.88138684  1
  O  O58  1  0.60781541  0.24440205  0.29227563  1
  O  O59  1  0.59976110  0.24513910  0.79237492  1
  O  O60  1  0.63062521  0.23232582  0.95376742  1
  O  O61  1  0.64060943  0.26569688  0.45310489  1
  O  O62  1  0.64784624  0.77268686  0.13140760  1
  O  O63  1  0.64490942  0.73532769  0.62969596  1
  O  O64  1  0.88264704  0.20653011  0.63845561  1
  O  O65  1  0.89323082  0.28933262  0.13520490  1
  O  O66  1  0.86887287  0.79311321  0.45430687  1
  O  O67  1  0.85542215  0.71195011  0.95220864  1
  O  O68  1  0.84571664  0.72366337  0.79193800  1
  O  O69  1  0.85709766  0.78077564  0.29285899  1
  O  O70  1  0.93204136  0.39734060  0.37434231  1
  O  O71  1  0.92504194  0.10707601  0.87522970  1
