# generated using pymatgen
data_Mg15Fe
_symmetry_space_group_name_H-M   'P 1'
_cell_length_a   6.30486002
_cell_length_b   6.30485952
_cell_length_c   9.93962038
_cell_angle_alpha   90.00000000
_cell_angle_beta   90.00000000
_cell_angle_gamma   120.00000261
_symmetry_Int_Tables_number   1
_chemical_formula_structural   Mg15Fe
_chemical_formula_sum   'Mg15 Fe1'
_cell_volume   342.17736810
_cell_formula_units_Z   1
loop_
 _symmetry_equiv_pos_site_id
 _symmetry_equiv_pos_as_xyz
  1  'x, y, z'
loop_
 _atom_site_type_symbol
 _atom_site_label
 _atom_site_symmetry_multiplicity
 _atom_site_fract_x
 _atom_site_fract_y
 _atom_site_fract_z
 _atom_site_occupancy
  Mg  Mg0  1  0.16666700  0.33333300  0.62500000  1
  Mg  Mg1  1  0.16151933  0.83075917  0.12500000  1
  Mg  Mg2  1  0.17021134  0.83510517  0.62500000  1
  Mg  Mg3  1  0.66924083  0.33848067  0.12500000  1
  Mg  Mg4  1  0.66489483  0.32978866  0.62500000  1
  Mg  Mg5  1  0.66924083  0.83075917  0.12500000  1
  Mg  Mg6  1  0.66489483  0.83510517  0.62500000  1
  Mg  Mg7  1  0.32595884  0.17404116  0.35915089  1
  Mg  Mg8  1  0.32595884  0.17404116  0.89084911  1
  Mg  Mg9  1  0.32595884  0.65191869  0.35915089  1
  Mg  Mg10  1  0.32595884  0.65191869  0.89084911  1
  Mg  Mg11  1  0.84808131  0.17404116  0.35915089  1
  Mg  Mg12  1  0.84808131  0.17404116  0.89084911  1
  Mg  Mg13  1  0.83333300  0.66666700  0.37780400  1
  Mg  Mg14  1  0.83333300  0.66666700  0.87219600  1
  Fe  Fe15  1  0.16666700  0.33333300  0.12500000  1
