# generated using pymatgen
data_Li3Fe8(BO3)8
_symmetry_space_group_name_H-M   'P 1'
_cell_length_a   5.28720366
_cell_length_b   9.07107525
_cell_length_c   11.35973099
_cell_angle_alpha   113.32724799
_cell_angle_beta   77.14347937
_cell_angle_gamma   90.19456791
_symmetry_Int_Tables_number   1
_chemical_formula_structural   Li3Fe8(BO3)8
_chemical_formula_sum   'Li3 Fe8 B8 O24'
_cell_volume   485.55458092
_cell_formula_units_Z   1
loop_
 _symmetry_equiv_pos_site_id
 _symmetry_equiv_pos_as_xyz
  1  'x, y, z'
loop_
 _atom_site_type_symbol
 _atom_site_label
 _atom_site_symmetry_multiplicity
 _atom_site_fract_x
 _atom_site_fract_y
 _atom_site_fract_z
 _atom_site_occupancy
  Li  Li0  1  0.60044552  0.05501495  0.09583112  1
  Li  Li1  1  0.93511367  0.43023661  0.83450163  1
  Li  Li2  1  0.67496322  0.66702415  0.34778465  1
  Fe  Fe3  1  0.40625003  0.26511020  0.87329171  1
  Fe  Fe4  1  0.09838502  0.22548637  0.12433932  1
  Fe  Fe5  1  0.84768259  0.14003427  0.61649880  1
  Fe  Fe6  1  0.65130381  0.34661532  0.37162523  1
  Fe  Fe7  1  0.34929030  0.64643381  0.62705559  1
  Fe  Fe8  1  0.15280888  0.84981581  0.37114730  1
  Fe  Fe9  1  0.90191398  0.78510267  0.86811275  1
  Fe  Fe10  1  0.59367488  0.72593520  0.11984961  1
  B  B11  1  0.65189493  0.01446794  0.36678244  1
  B  B12  1  0.88935719  0.11653354  0.87638398  1
  B  B13  1  0.13853412  0.51772184  0.37504081  1
  B  B14  1  0.40498225  0.59394236  0.86990691  1
  B  B15  1  0.84986118  0.48117935  0.62132602  1
  B  B16  1  0.59444324  0.39602874  0.12816476  1
  B  B17  1  0.35356100  0.97941930  0.62498503  1
  B  B18  1  0.10901247  0.89091846  0.11809688  1
  O  O19  1  0.12057713  0.14982720  0.91455878  1
  O  O20  1  0.47366190  0.12214584  0.67437822  1
  O  O21  1  0.23438715  0.01994276  0.11447237  1
  O  O22  1  0.54755408  0.14054939  0.35149667  1
  O  O23  1  0.85644154  0.03006735  0.42764386  1
  O  O24  1  0.79566370  0.22243953  0.82755099  1
  O  O25  1  0.28087490  0.45998082  0.86816603  1
  O  O26  1  0.02797372  0.37110911  0.33729334  1
  O  O27  1  0.69384493  0.28924995  0.17268296  1
  O  O28  1  0.63165919  0.47443768  0.56902349  1
  O  O29  1  0.92734577  0.35435081  0.64504910  1
  O  O30  1  0.39660924  0.34742396  0.06437751  1
  O  O31  1  0.63499421  0.62524930  0.91661500  1
  O  O32  1  0.38059289  0.52571474  0.41268425  1
  O  O33  1  0.30461560  0.69542884  0.82269880  1
  O  O34  1  0.97645219  0.62091763  0.65686488  1
  O  O35  1  0.69039012  0.54233048  0.14977147  1
  O  O36  1  0.22055250  0.78080526  0.15439174  1
  O  O37  1  0.13177001  0.98629342  0.58150963  1
  O  O38  1  0.45966015  0.83725982  0.61455165  1
  O  O39  1  0.02127336  0.64892455  0.37334244  1
  O  O40  1  0.75271877  0.99730484  0.89397972  1
  O  O41  1  0.55723514  0.86149965  0.32065655  1
  O  O42  1  0.86496853  0.86464819  0.08411199  1
