# generated using pymatgen
data_Li2FeO3
_symmetry_space_group_name_H-M   'P 1'
_cell_length_a   5.02652295
_cell_length_b   4.97959161
_cell_length_c   8.55456940
_cell_angle_alpha   89.99978243
_cell_angle_beta   90.00022614
_cell_angle_gamma   90.01518302
_symmetry_Int_Tables_number   1
_chemical_formula_structural   Li2FeO3
_chemical_formula_sum   'Li8 Fe4 O12'
_cell_volume   214.12113445
_cell_formula_units_Z   4
loop_
 _symmetry_equiv_pos_site_id
 _symmetry_equiv_pos_as_xyz
  1  'x, y, z'
loop_
 _atom_site_type_symbol
 _atom_site_label
 _atom_site_symmetry_multiplicity
 _atom_site_fract_x
 _atom_site_fract_y
 _atom_site_fract_z
 _atom_site_occupancy
  Li  Li0  1  0.00000289  0.50000549  0.41781430  1
  Li  Li1  1  0.50000102  0.50000160  0.75487250  1
  Li  Li2  1  0.99999670  0.50000326  0.73088908  1
  Li  Li3  1  0.50000354  0.50000266  0.06801740  1
  Li  Li4  1  0.50000323  0.00000431  0.91785575  1
  Li  Li5  1  0.99999518  0.00000363  0.56801762  1
  Li  Li6  1  0.50000187  0.00000064  0.23101085  1
  Li  Li7  1  0.00000008  0.99999977  0.25494565  1
  Fe  Fe8  1  -0.00000003  0.49999804  0.08388685  1
  Fe  Fe9  1  0.50000187  0.50000395  0.40208061  1
  Fe  Fe10  1  0.49999105  0.99999349  0.58389537  1
  Fe  Fe11  1  0.00000052  0.00000141  0.90205431  1
  O  O12  1  0.75005648  0.85629787  0.74299540  1
  O  O13  1  0.78159739  0.82308389  0.06913677  1
  O  O14  1  0.71844046  0.82303837  0.41673404  1
  O  O15  1  0.21844490  0.67703372  0.91674663  1
  O  O16  1  0.28150004  0.67681246  0.56912202  1
  O  O17  1  0.25008840  0.64369802  0.24298023  1
  O  O18  1  0.74991898  0.35630444  0.24298130  1
  O  O19  1  0.71849768  0.32318703  0.56912215  1
  O  O20  1  0.78155343  0.32296496  0.91674561  1
  O  O21  1  0.28156156  0.17695932  0.41673348  1
  O  O22  1  0.21840983  0.17691875  0.06914020  1
  O  O23  1  0.24993496  0.14370492  0.74299891  1
