# generated using pymatgen
data_Na2FeO2
_symmetry_space_group_name_H-M   'P 1'
_cell_length_a   8.00367423
_cell_length_b   6.21976899
_cell_length_c   5.74773668
_cell_angle_alpha   90.00000000
_cell_angle_beta   96.55175786
_cell_angle_gamma   90.00000000
_symmetry_Int_Tables_number   1
_chemical_formula_structural   Na2FeO2
_chemical_formula_sum   'Na8 Fe4 O8'
_cell_volume   284.25945838
_cell_formula_units_Z   4
loop_
 _symmetry_equiv_pos_site_id
 _symmetry_equiv_pos_as_xyz
  1  'x, y, z'
loop_
 _atom_site_type_symbol
 _atom_site_label
 _atom_site_symmetry_multiplicity
 _atom_site_fract_x
 _atom_site_fract_y
 _atom_site_fract_z
 _atom_site_occupancy
  Na  Na0  1  0.01900477  0.24473504  0.50670387  1
  Na  Na1  1  0.01900477  0.25526496  0.00670387  1
  Na  Na2  1  0.33102948  0.85838346  0.91704665  1
  Na  Na3  1  0.33102948  0.64161654  0.41704665  1
  Na  Na4  1  0.66897052  0.35838346  0.58295335  1
  Na  Na5  1  0.66897052  0.14161654  0.08295335  1
  Na  Na6  1  0.98099523  0.74473504  0.99329613  1
  Na  Na7  1  0.98099523  0.75526496  0.49329613  1
  Fe  Fe8  1  0.35933604  0.38756939  0.85102198  1
  Fe  Fe9  1  0.35933604  0.11243061  0.35102198  1
  Fe  Fe10  1  0.64066396  0.88756939  0.64897802  1
  Fe  Fe11  1  0.64066396  0.61243061  0.14897802  1
  O  O12  1  0.14346172  0.53046672  0.76329855  1
  O  O13  1  0.14346172  0.96953328  0.26329855  1
  O  O14  1  0.45622144  0.12647273  0.71405483  1
  O  O15  1  0.45622144  0.37352727  0.21405483  1
  O  O16  1  0.54377856  0.62647273  0.78594517  1
  O  O17  1  0.54377856  0.87352727  0.28594517  1
  O  O18  1  0.85653828  0.03046672  0.73670145  1
  O  O19  1  0.85653828  0.46953328  0.23670145  1
