# generated using pymatgen
data_Li3Fe8(BO3)8
_symmetry_space_group_name_H-M   'P 1'
_cell_length_a   5.21961134
_cell_length_b   9.11582627
_cell_length_c   11.38124315
_cell_angle_alpha   66.79844118
_cell_angle_beta   76.80117898
_cell_angle_gamma   89.46624356
_symmetry_Int_Tables_number   1
_chemical_formula_structural   Li3Fe8(BO3)8
_chemical_formula_sum   'Li3 Fe8 B8 O24'
_cell_volume   482.61515965
_cell_formula_units_Z   1
loop_
 _symmetry_equiv_pos_site_id
 _symmetry_equiv_pos_as_xyz
  1  'x, y, z'
loop_
 _atom_site_type_symbol
 _atom_site_label
 _atom_site_symmetry_multiplicity
 _atom_site_fract_x
 _atom_site_fract_y
 _atom_site_fract_z
 _atom_site_occupancy
  Li  Li0  1  0.70733803  0.72348271  0.91419596  1
  Li  Li1  1  0.02111747  0.99802055  0.65837159  1
  Li  Li2  1  0.23908635  0.25227899  0.15605553  1
  Fe  Fe3  1  0.97472312  0.64833386  0.37506078  1
  Fe  Fe4  1  0.73957056  0.07324386  0.87920873  1
  Fe  Fe5  1  0.53884104  0.83792866  0.62143702  1
  Fe  Fe6  1  0.74680311  0.44399582  0.13990408  1
  Fe  Fe7  1  0.22949569  0.55690376  0.87473978  1
  Fe  Fe8  1  0.49003940  0.14564700  0.38231664  1
  Fe  Fe9  1  0.01936382  0.35777349  0.63060330  1
  Fe  Fe10  1  0.26443974  0.92803180  0.12330546  1
  B  B11  1  0.98058410  0.31507778  0.38130479  1
  B  B12  1  0.72746523  0.40508158  0.87560042  1
  B  B13  1  0.51814964  0.18384694  0.62700490  1
  B  B14  1  0.76179559  0.10292231  0.13279103  1
  B  B15  1  0.47405884  0.81441231  0.36931151  1
  B  B16  1  0.22917565  0.88398874  0.88020595  1
  B  B17  1  0.03824360  0.68813982  0.62723119  1
  B  B18  1  0.26528847  0.60405729  0.12407601  1
  O  O19  1  0.98080471  0.90488512  0.85751729  1
  O  O20  1  0.87626039  0.30939855  0.82214287  1
  O  O21  1  0.85086181  0.50784521  0.91539859  1
  O  O22  1  0.90854576  0.81843756  0.62823167  1
  O  O23  1  0.95965763  0.58856493  0.57235269  1
  O  O24  1  0.76601207  0.16834801  0.65936906  1
  O  O25  1  0.73874046  0.32133765  0.34942844  1
  O  O26  1  0.46057104  0.39723177  0.89440015  1
  O  O27  1  0.38029266  0.76994138  0.84780832  1
  O  O28  1  0.53484136  0.92393650  0.41840726  1
  O  O29  1  0.62871498  0.69469743  0.37105119  1
  O  O30  1  0.34484483  0.97311498  0.93181671  1
  O  O31  1  0.63282280  0.01623557  0.08336541  1
  O  O32  1  0.36210305  0.29816364  0.63979330  1
  O  O33  1  0.42794066  0.07141055  0.58431100  1
  O  O34  1  0.61446194  0.20834459  0.17866417  1
  O  O35  1  0.53221857  0.62293393  0.10370607  1
  O  O36  1  0.25659779  0.65104596  0.68137043  1
  O  O37  1  0.24357464  0.82937729  0.32254103  1
  O  O38  1  0.04848943  0.42288884  0.43073935  1
  O  O39  1  0.15095596  0.20869550  0.35883015  1
  O  O40  1  0.14828208  0.49151769  0.09163180  1
  O  O41  1  0.10660040  0.70309172  0.17290023  1
  O  O42  1  0.02379056  0.09020436  0.13290220  1
