# generated using pymatgen
data_Li3CoNi3O8
_symmetry_space_group_name_H-M   'P 1'
_cell_length_a   5.72358463
_cell_length_b   5.71681172
_cell_length_c   9.29561370
_cell_angle_alpha   90.01563135
_cell_angle_beta   90.02127627
_cell_angle_gamma   120.09666650
_symmetry_Int_Tables_number   1
_chemical_formula_structural   Li3CoNi3O8
_chemical_formula_sum   'Li6 Co2 Ni6 O16'
_cell_volume   263.15204265
_cell_formula_units_Z   2
loop_
 _symmetry_equiv_pos_site_id
 _symmetry_equiv_pos_as_xyz
  1  'x, y, z'
loop_
 _atom_site_type_symbol
 _atom_site_label
 _atom_site_symmetry_multiplicity
 _atom_site_fract_x
 _atom_site_fract_y
 _atom_site_fract_z
 _atom_site_occupancy
  Li  Li0  1  0.16106913  0.82703298  0.05185346  1
  Li  Li1  1  0.66755067  0.83932639  0.05156459  1
  Li  Li2  1  0.17397167  0.33456980  0.05212715  1
  Li  Li3  1  0.83937645  0.66365816  0.55199217  1
  Li  Li4  1  0.33581025  0.17579280  0.55177128  1
  Li  Li5  1  0.82471350  0.16031272  0.55155327  1
  Co  Co6  1  0.33303883  0.66720085  0.51361343  1
  Co  Co7  1  0.66671021  0.33290436  0.01374748  1
  Ni  Ni8  1  0.16353146  0.82428363  0.78613387  1
  Ni  Ni9  1  0.65993157  0.83623464  0.78550685  1
  Ni  Ni10  1  0.17451716  0.33826246  0.78627304  1
  Ni  Ni11  1  0.83550351  0.66041621  0.28661310  1
  Ni  Ni12  1  0.33991168  0.17525184  0.28645681  1
  Ni  Ni13  1  0.82475377  0.16487112  0.28634584  1
  O  O14  1  0.15483299  0.82277903  0.41288399  1
  O  O15  1  0.46229107  0.96177690  0.64815225  1
  O  O16  1  0.66585585  0.84525868  0.41260974  1
  O  O17  1  0.33249873  0.66545363  0.89441763  1
  O  O18  1  0.03917343  0.50118030  0.64757673  1
  O  O19  1  0.49914951  0.53895157  0.64808518  1
  O  O20  1  0.84359987  0.66455323  0.91199882  1
  O  O21  1  0.17835885  0.33513477  0.41249438  1
  O  O22  1  0.53807388  0.49851108  0.14792401  1
  O  O23  1  0.66680663  0.33439712  0.39561649  1
  O  O24  1  0.00005464  0.99943726  0.18589048  1
  O  O25  1  0.96159872  0.46311159  0.14795252  1
  O  O26  1  0.00011118  0.00013659  0.68545638  1
  O  O27  1  0.33243451  0.17677338  0.91322472  1
  O  O28  1  0.50300526  0.03907718  0.14766278  1
  O  O29  1  0.82194101  0.15334576  0.91261755  1
