# generated using pymatgen
data_Li3Fe8(BO3)8
_symmetry_space_group_name_H-M   'P 1'
_cell_length_a   5.29709677
_cell_length_b   9.09203823
_cell_length_c   10.12415253
_cell_angle_alpha   90.58471985
_cell_angle_beta   90.19313082
_cell_angle_gamma   89.74457212
_symmetry_Int_Tables_number   1
_chemical_formula_structural   Li3Fe8(BO3)8
_chemical_formula_sum   'Li3 Fe8 B8 O24'
_cell_volume   487.56049247
_cell_formula_units_Z   1
loop_
 _symmetry_equiv_pos_site_id
 _symmetry_equiv_pos_as_xyz
  1  'x, y, z'
loop_
 _atom_site_type_symbol
 _atom_site_label
 _atom_site_symmetry_multiplicity
 _atom_site_fract_x
 _atom_site_fract_y
 _atom_site_fract_z
 _atom_site_occupancy
  Li  Li0  1  0.34807392  0.01424676  0.83315756  1
  Li  Li1  1  0.84331961  0.50976557  0.84398080  1
  Li  Li2  1  0.35461010  0.99346912  0.33378021  1
  Fe  Fe3  1  0.15331416  0.16994956  0.11974026  1
  Fe  Fe4  1  0.84156704  0.16381462  0.37196131  1
  Fe  Fe5  1  0.33722172  0.34568718  0.87565310  1
  Fe  Fe6  1  0.65472721  0.32937097  0.62197251  1
  Fe  Fe7  1  0.33839370  0.65674939  0.36915565  1
  Fe  Fe8  1  0.14928930  0.82894903  0.62186564  1
  Fe  Fe9  1  0.66413174  0.66421957  0.11937543  1
  Fe  Fe10  1  0.83866612  0.84625523  0.87411470  1
  B  B11  1  0.16113766  0.16883442  0.62725959  1
  B  B12  1  0.33842729  0.32919537  0.37194996  1
  B  B13  1  0.83411445  0.17002232  0.87222104  1
  B  B14  1  0.66175318  0.33174092  0.11918763  1
  B  B15  1  0.33344112  0.67228785  0.87079110  1
  B  B16  1  0.65510416  0.66765310  0.62394475  1
  B  B17  1  0.16238556  0.82966847  0.12924121  1
  B  B18  1  0.82509231  0.82966191  0.37010555  1
  O  O19  1  0.25206783  0.02668897  0.63910975  1
  O  O20  1  0.08744801  0.16651090  0.91760705  1
  O  O21  1  0.69435228  0.04483608  0.86949071  1
  O  O22  1  0.22406712  0.20022050  0.32278728  1
  O  O23  1  0.30984374  0.28440360  0.67086091  1
  O  O24  1  0.80640165  0.21376072  0.16278261  1
  O  O25  1  0.92391854  0.19378136  0.57706716  1
  O  O26  1  0.41530840  0.30800121  0.07739098  1
  O  O27  1  0.22450312  0.46408601  0.36185690  1
  O  O28  1  0.57317188  0.31514500  0.43067603  1
  O  O29  1  0.73153226  0.30355956  0.82891193  1
  O  O30  1  0.19659458  0.54764732  0.86824178  1
  O  O31  1  0.76450249  0.46891775  0.11206574  1
  O  O32  1  0.31061369  0.70964615  0.17068873  1
  O  O33  1  0.41734377  0.69283801  0.56533875  1
  O  O34  1  0.73754178  0.53037972  0.65085037  1
  O  O35  1  0.58355437  0.67576617  0.91858139  1
  O  O36  1  0.08312162  0.81809368  0.41245663  1
  O  O37  1  0.22920510  0.80578849  0.82294157  1
  O  O38  1  0.70338231  0.70023695  0.32693888  1
  O  O39  1  0.80106511  0.78818133  0.66072703  1
  O  O40  1  0.25425119  0.96868518  0.14422803  1
  O  O41  1  0.92656863  0.80390651  0.07632321  1
  O  O42  1  0.70591921  0.96052947  0.37082460  1
