# generated using pymatgen
data_Li2P5WO15
_symmetry_space_group_name_H-M   'P 1'
_cell_length_a   6.87444033
_cell_length_b   6.87444033
_cell_length_c   13.92492342
_cell_angle_alpha   83.15575725
_cell_angle_beta   96.84424275
_cell_angle_gamma   67.28816062
_symmetry_Int_Tables_number   1
_chemical_formula_structural   Li2P5WO15
_chemical_formula_sum   'Li4 P10 W2 O30'
_cell_volume   592.82666436
_cell_formula_units_Z   2
loop_
 _symmetry_equiv_pos_site_id
 _symmetry_equiv_pos_as_xyz
  1  'x, y, z'
loop_
 _atom_site_type_symbol
 _atom_site_label
 _atom_site_symmetry_multiplicity
 _atom_site_fract_x
 _atom_site_fract_y
 _atom_site_fract_z
 _atom_site_occupancy
  Li  Li0  1  0.23370628  0.24770719  0.70499414  1
  Li  Li1  1  0.75229281  0.76629372  0.20499414  1
  Li  Li2  1  0.79929985  0.46086856  0.56573800  1
  Li  Li3  1  0.53913144  0.20070015  0.06573800  1
  P  P4  1  0.65096806  0.95400372  0.52786115  1
  P  P5  1  0.28902128  0.57775173  0.55736383  1
  P  P6  1  0.38708412  0.82090228  0.83601254  1
  P  P7  1  0.04599628  0.34903194  0.02786115  1
  P  P8  1  0.42224827  0.71097872  0.05736383  1
  P  P9  1  0.17909772  0.61291588  0.33601254  1
  P  P10  1  0.17555017  0.07464440  0.52989141  1
  P  P11  1  0.92535560  0.82444983  0.02989141  1
  P  P12  1  0.77270842  0.43722550  0.82804831  1
  P  P13  1  0.56277450  0.22729158  0.32804831  1
  W  W14  1  0.81817678  0.92728735  0.77562466  1
  W  W15  1  0.07271265  0.18182322  0.27562466  1
  O  O16  1  0.15704543  0.87042027  0.79990818  1
  O  O17  1  0.12957973  0.84295457  0.29990818  1
  O  O18  1  0.17713894  0.51784289  0.63343155  1
  O  O19  1  0.48215711  0.82286106  0.13343155  1
  O  O20  1  0.21697931  0.83220295  0.54413555  1
  O  O21  1  0.16779705  0.78302069  0.04413555  1
  O  O22  1  0.43537529  0.83317089  0.94897409  1
  O  O23  1  0.16682911  0.56462471  0.44897409  1
  O  O24  1  0.47344678  0.96571652  0.77848427  1
  O  O25  1  0.03428348  0.52655322  0.27848427  1
  O  O26  1  0.24749675  0.31087867  0.99009492  1
  O  O27  1  0.68912133  0.75250325  0.49009492  1
  O  O28  1  0.81968073  0.93017916  0.92574194  1
  O  O29  1  0.52356535  0.46504010  0.56578968  1
  O  O30  1  0.06982084  0.18031927  0.42574194  1
  O  O31  1  0.52110436  0.57429536  0.82774303  1
  O  O32  1  0.53495990  0.47643465  0.06578968  1
  O  O33  1  0.42570464  0.47889564  0.32774303  1
  O  O34  1  0.05842803  0.18506984  0.60471530  1
  O  O35  1  0.81493016  0.94157197  0.10471530  1
  O  O36  1  0.41096012  0.07392597  0.55000549  1
  O  O37  1  0.92607403  0.58903988  0.05000549  1
  O  O38  1  0.86905939  0.58686568  0.78777876  1
  O  O39  1  0.41313432  0.13094061  0.28777876  1
  O  O40  1  0.86878782  0.33794479  0.94194827  1
  O  O41  1  0.66205521  0.13121218  0.44194827  1
  O  O42  1  0.78417000  0.26074728  0.77239738  1
  O  O43  1  0.73925272  0.21583000  0.27239738  1
  O  O44  1  0.79250479  0.95234998  0.61911755  1
  O  O45  1  0.04765002  0.20749521  0.11911755  1
