# generated using pymatgen
data_Li3VCr3O8
_symmetry_space_group_name_H-M   'P 1'
_cell_length_a   5.90257609
_cell_length_b   5.90257680
_cell_length_c   5.90257707
_cell_angle_alpha   60.60162151
_cell_angle_beta   119.39838013
_cell_angle_gamma   119.39838685
_symmetry_Int_Tables_number   1
_chemical_formula_structural   Li3VCr3O8
_chemical_formula_sum   'Li3 V1 Cr3 O8'
_cell_volume   147.39105738
_cell_formula_units_Z   1
loop_
 _symmetry_equiv_pos_site_id
 _symmetry_equiv_pos_as_xyz
  1  'x, y, z'
loop_
 _atom_site_type_symbol
 _atom_site_label
 _atom_site_symmetry_multiplicity
 _atom_site_fract_x
 _atom_site_fract_y
 _atom_site_fract_z
 _atom_site_occupancy
  Li  Li0  1  0.00000123  0.99999877  0.50000181  1
  Li  Li1  1  0.00000123  0.50000181  0.99999877  1
  Li  Li2  1  0.49999819  0.99999877  0.99999877  1
  V  V3  1  0.49999677  0.50000323  0.50000323  1
  Cr  Cr4  1  -0.00001934  0.49999085  0.49999085  1
  Cr  Cr5  1  0.50000915  0.00001934  0.49999085  1
  Cr  Cr6  1  0.50000915  0.49999085  0.00001934  1
  O  O7  1  0.25799881  0.74200119  0.74200119  1
  O  O8  1  0.26720182  0.28274288  0.73279818  1
  O  O9  1  0.26720182  0.73279818  0.28274288  1
  O  O10  1  0.71725712  0.73279818  0.73279818  1
  O  O11  1  0.28274394  0.26720760  0.26720760  1
  O  O12  1  0.73279240  0.26720760  0.71725606  1
  O  O13  1  0.73279240  0.71725606  0.26720760  1
  O  O14  1  0.74200931  0.25799069  0.25799069  1
