# generated using pymatgen
data_LiV2F7
_symmetry_space_group_name_H-M   'P 1'
_cell_length_a   10.18393454
_cell_length_b   7.14814105
_cell_length_c   7.82071435
_cell_angle_alpha   90.00000000
_cell_angle_beta   89.14064230
_cell_angle_gamma   90.00000000
_symmetry_Int_Tables_number   1
_chemical_formula_structural   LiV2F7
_chemical_formula_sum   'Li4 V8 F28'
_cell_volume   569.25425496
_cell_formula_units_Z   4
loop_
 _symmetry_equiv_pos_site_id
 _symmetry_equiv_pos_as_xyz
  1  'x, y, z'
loop_
 _atom_site_type_symbol
 _atom_site_label
 _atom_site_symmetry_multiplicity
 _atom_site_fract_x
 _atom_site_fract_y
 _atom_site_fract_z
 _atom_site_occupancy
  Li  Li0  1  0.35114550  0.65781553  0.69566425  1
  Li  Li1  1  0.35546078  0.14323294  0.17129019  1
  Li  Li2  1  0.85114550  0.84218447  0.69566425  1
  Li  Li3  1  0.85546078  0.35676706  0.17129019  1
  V  V4  1  0.08276601  0.13383146  0.88174342  1
  V  V5  1  0.09206879  0.63285751  0.39764511  1
  V  V6  1  0.40816388  0.14153496  0.60348879  1
  V  V7  1  0.42064460  0.64051677  0.11842831  1
  V  V8  1  0.58276601  0.36616854  0.88174342  1
  V  V9  1  0.59206879  0.86714249  0.39764511  1
  V  V10  1  0.90816388  0.35846504  0.60348879  1
  V  V11  1  0.92064460  0.85948323  0.11842831  1
  F  F12  1  0.02518600  0.38491929  0.80625789  1
  F  F13  1  0.06533048  0.86917999  0.93766582  1
  F  F14  1  0.05260098  0.88408618  0.30520314  1
  F  F15  1  0.07008606  0.36788885  0.45198645  1
  F  F16  1  0.18913005  0.68851213  0.59054444  1
  F  F17  1  0.19950192  0.18904879  0.05560174  1
  F  F18  1  0.24059518  0.10966570  0.72480830  1
  F  F19  1  0.26405674  0.60972804  0.26408714  1
  F  F20  1  0.31769421  0.70471498  0.93000808  1
  F  F21  1  0.32092181  0.19774074  0.40088767  1
  F  F22  1  0.42738050  0.86126029  0.55392985  1
  F  F23  1  0.44399722  0.41396450  0.68680842  1
  F  F24  1  0.43494377  0.36264015  0.06312521  1
  F  F25  1  0.46317452  0.91268115  0.19132577  1
  F  F26  1  0.52518600  0.11508071  0.80625789  1
  F  F27  1  0.56533048  0.63082001  0.93766582  1
  F  F28  1  0.55260098  0.61591382  0.30520314  1
  F  F29  1  0.57008606  0.13211115  0.45198645  1
  F  F30  1  0.68913005  0.81148787  0.59054444  1
  F  F31  1  0.69950192  0.31095121  0.05560174  1
  F  F32  1  0.74059518  0.39033430  0.72480830  1
  F  F33  1  0.76405674  0.89027196  0.26408714  1
  F  F34  1  0.81769421  0.79528502  0.93000808  1
  F  F35  1  0.82092181  0.30225926  0.40088767  1
  F  F36  1  0.92738050  0.63873971  0.55392985  1
  F  F37  1  0.94399722  0.08603550  0.68680842  1
  F  F38  1  0.93494377  0.13735985  0.06312521  1
  F  F39  1  0.96317452  0.58731885  0.19132577  1
