# generated using pymatgen
data_Li5Co7O3F13
_symmetry_space_group_name_H-M   'P 1'
_cell_length_a   6.06719647
_cell_length_b   6.13954959
_cell_length_c   10.52205718
_cell_angle_alpha   107.00799835
_cell_angle_beta   90.10287310
_cell_angle_gamma   60.38783313
_symmetry_Int_Tables_number   1
_chemical_formula_structural   Li5Co7O3F13
_chemical_formula_sum   'Li5 Co7 O3 F13'
_cell_volume   321.01128525
_cell_formula_units_Z   1
loop_
 _symmetry_equiv_pos_site_id
 _symmetry_equiv_pos_as_xyz
  1  'x, y, z'
loop_
 _atom_site_type_symbol
 _atom_site_label
 _atom_site_symmetry_multiplicity
 _atom_site_fract_x
 _atom_site_fract_y
 _atom_site_fract_z
 _atom_site_occupancy
  Li  Li0  1  0.60283411  0.79261212  0.12824018  1
  Li  Li1  1  0.01336138  0.97809584  0.98764435  1
  Li  Li2  1  0.11023069  0.76059594  0.63532259  1
  Li  Li3  1  0.52535677  0.95662449  0.49744011  1
  Li  Li4  1  0.56026781  0.37190942  0.81012715  1
  Co  Co5  1  0.32398959  0.36028160  0.06540644  1
  Co  Co6  1  0.06157836  0.88137767  0.31442691  1
  Co  Co7  1  0.56207157  0.37494155  0.31290886  1
  Co  Co8  1  0.06299040  0.37574073  0.31233579  1
  Co  Co9  1  0.80415090  0.40711604  0.56727309  1
  Co  Co10  1  0.58218595  0.85953941  0.80545255  1
  Co  Co11  1  0.05575460  0.38410596  0.80443162  1
  O  O12  1  0.40531534  0.19158519  0.20175372  1
  O  O13  1  0.72109674  0.55961734  0.42281979  1
  O  O14  1  0.92380989  0.61654980  0.69496358  1
  F  F15  1  0.41872333  0.64096010  0.19003344  1
  F  F16  1  0.94439733  0.64140458  0.18881148  1
  F  F17  1  0.17910731  0.64140024  0.43513107  1
  F  F18  1  0.94657767  0.11140360  0.18571117  1
  F  F19  1  0.70662950  0.11789578  0.43848173  1
  F  F20  1  0.18840286  0.10917772  0.43356996  1
  F  F21  1  0.43979566  0.62370246  0.69946892  1
  F  F22  1  0.91229847  0.15682599  0.69182511  1
  F  F23  1  0.68382801  0.61776458  0.92943807  1
  F  F24  1  0.20538529  0.58632133  0.93861668  1
  F  F25  1  0.43508538  0.12711936  0.69898216  1
  F  F26  1  0.67347604  0.12922529  0.93422365  1
  F  F27  1  0.20130104  0.12610487  0.92515784  1
