# generated using pymatgen
data_LiAgF4
_symmetry_space_group_name_H-M   'P 1'
_cell_length_a   7.81345911
_cell_length_b   5.21605508
_cell_length_c   7.79004404
_cell_angle_alpha   90.00000000
_cell_angle_beta   77.40613772
_cell_angle_gamma   90.00000000
_symmetry_Int_Tables_number   1
_chemical_formula_structural   LiAgF4
_chemical_formula_sum   'Li4 Ag4 F16'
_cell_volume   309.84793047
_cell_formula_units_Z   4
loop_
 _symmetry_equiv_pos_site_id
 _symmetry_equiv_pos_as_xyz
  1  'x, y, z'
loop_
 _atom_site_type_symbol
 _atom_site_label
 _atom_site_symmetry_multiplicity
 _atom_site_fract_x
 _atom_site_fract_y
 _atom_site_fract_z
 _atom_site_occupancy
  Li  Li0  1  0.35532921  0.25489411  0.32940201  1
  Li  Li1  1  0.35532921  0.24510589  0.82940201  1
  Li  Li2  1  0.64467079  0.75489411  0.17059799  1
  Li  Li3  1  0.64467079  0.74510589  0.67059799  1
  Ag  Ag4  1  0.18861277  0.75480852  0.17571908  1
  Ag  Ag5  1  0.18861277  0.74519148  0.67571908  1
  Ag  Ag6  1  0.81138723  0.25480852  0.32428092  1
  Ag  Ag7  1  0.81138723  0.24519148  0.82428092  1
  F  F8  1  0.05604708  0.44125753  0.30035932  1
  F  F9  1  0.05604708  0.05874247  0.80035932  1
  F  F10  1  0.19593059  0.92165840  0.42553672  1
  F  F11  1  0.30985185  0.08782023  0.07491877  1
  F  F12  1  0.19593059  0.57834160  0.92553672  1
  F  F13  1  0.30985185  0.41217977  0.57491877  1
  F  F14  1  0.42199309  0.57340624  0.19370935  1
  F  F15  1  0.42199309  0.92659376  0.69370935  1
  F  F16  1  0.57800691  0.07340624  0.30629065  1
  F  F17  1  0.57800691  0.42659376  0.80629065  1
  F  F18  1  0.69014815  0.58782023  0.42508123  1
  F  F19  1  0.80406941  0.42165840  0.07446328  1
  F  F20  1  0.69014815  0.91217977  0.92508123  1
  F  F21  1  0.80406941  0.07834160  0.57446328  1
  F  F22  1  0.94395292  0.94125753  0.19964068  1
  F  F23  1  0.94395292  0.55874247  0.69964068  1
