# generated using pymatgen
data_Li3(FeO3)2
_symmetry_space_group_name_H-M   'P 1'
_cell_length_a   8.75872392
_cell_length_b   8.86772926
_cell_length_c   9.66897017
_cell_angle_alpha   97.12619912
_cell_angle_beta   89.98367127
_cell_angle_gamma   60.41123104
_symmetry_Int_Tables_number   1
_chemical_formula_structural   Li3(FeO3)2
_chemical_formula_sum   'Li18 Fe12 O36'
_cell_volume   646.35890594
_cell_formula_units_Z   6
loop_
 _symmetry_equiv_pos_site_id
 _symmetry_equiv_pos_as_xyz
  1  'x, y, z'
loop_
 _atom_site_type_symbol
 _atom_site_label
 _atom_site_symmetry_multiplicity
 _atom_site_fract_x
 _atom_site_fract_y
 _atom_site_fract_z
 _atom_site_occupancy
  Li  Li0  1  0.83317007  0.83339862  0.49996152  1
  Li  Li1  1  0.67048946  0.85964439  0.01426428  1
  Li  Li2  1  0.83784796  0.52352885  0.51304105  1
  Li  Li3  1  0.46969654  0.85984980  0.51427212  1
  Li  Li4  1  0.33333691  0.83338020  0.00007592  1
  Li  Li5  1  0.63848026  0.52386498  0.01317062  1
  Li  Li6  1  0.19702690  0.80681615  0.48568929  1
  Li  Li7  1  0.51037075  0.50081563  0.49872133  1
  Li  Li8  1  0.82883346  0.14307341  0.48686871  1
  Li  Li9  1  0.67775632  0.16581751  0.00125844  1
  Li  Li10  1  0.36347380  0.47662301  0.98603366  1
  Li  Li11  1  0.99617735  0.80694608  0.98582083  1
  Li  Li12  1  0.50663494  0.19009928  0.51393803  1
  Li  Li13  1  0.16002759  0.47659228  0.48610255  1
  Li  Li14  1  0.98889312  0.50080640  0.99874566  1
  Li  Li15  1  0.30337450  0.18978695  0.01383652  1
  Li  Li16  1  0.15636363  0.16578620  0.50124230  1
  Li  Li17  1  0.02806308  0.14300574  0.98693558  1
  Fe  Fe18  1  0.74902481  0.66805246  0.25291040  1
  Fe  Fe19  1  0.58292954  0.66805796  0.75298527  1
  Fe  Fe20  1  0.91099195  0.33335065  0.74995987  1
  Fe  Fe21  1  0.75564888  0.33334127  0.25002362  1
  Fe  Fe22  1  0.24876012  0.66526672  0.74645792  1
  Fe  Fe23  1  0.91764492  0.99864497  0.74711416  1
  Fe  Fe24  1  0.08600750  0.66521734  0.24649413  1
  Fe  Fe25  1  0.42003353  0.33327329  0.24995638  1
  Fe  Fe26  1  0.24664147  0.33336920  0.74998309  1
  Fe  Fe27  1  0.58072846  0.00141789  0.75350490  1
  Fe  Fe28  1  0.41788351  0.00141151  0.25357229  1
  Fe  Fe29  1  0.08371476  0.99863706  0.24700551  1
  O  O30  1  0.99579822  0.89479298  0.36367984  1
  O  O31  1  0.77869677  0.94523029  0.87067246  1
  O  O32  1  0.88804567  0.72138596  0.12932052  1
  O  O33  1  0.94372114  0.61176892  0.37015722  1
  O  O34  1  0.61666600  0.88771529  0.36859387  1
  O  O35  1  0.67087703  0.77188578  0.63633180  1
  O  O36  1  0.49569999  0.88796225  0.86859786  1
  O  O37  1  0.55727043  0.77170810  0.13628293  1
  O  O38  1  0.77942300  0.55528943  0.86608118  1
  O  O39  1  0.83909059  0.44509130  0.13692098  1
  O  O40  1  0.27625297  0.94529618  0.37072972  1
  O  O41  1  0.66538501  0.55539843  0.36605440  1
  O  O42  1  0.95101235  0.22149863  0.36308596  1
  O  O43  1  0.71558389  0.44523143  0.63693536  1
  O  O44  1  0.39035478  0.72141296  0.62931160  1
  O  O45  1  0.44456077  0.61182998  0.87014292  1
  O  O46  1  0.10936207  0.89502720  0.86373877  1
  O  O47  1  0.82755897  0.22155858  0.86307261  1
  O  O48  1  0.17102691  0.77879959  0.13141083  1
  O  O49  1  0.88726081  0.11137449  0.13392140  1
  O  O50  1  0.56093533  0.38820130  0.12987180  1
  O  O51  1  0.61603447  0.27842341  0.37006301  1
  O  O52  1  0.28049973  0.56019016  0.36516775  1
  O  O53  1  0.05000784  0.77895470  0.63142174  1
  O  O54  1  0.33618657  0.43741903  0.63115027  1
  O  O55  1  0.72287536  0.05495078  0.62990767  1
  O  O56  1  0.15944277  0.56026631  0.86519422  1
  O  O57  1  0.22599853  0.43777279  0.13114108  1
  O  O58  1  0.44071245  0.22887242  0.86882063  1
  O  O59  1  0.50719542  0.10636623  0.13476273  1
  O  O60  1  0.33053431  0.22917867  0.36888230  1
  O  O61  1  0.38619021  0.10641446  0.63485103  1
  O  O62  1  0.05065147  0.38821932  0.62988378  1
  O  O63  1  0.10582502  0.27840080  0.87006464  1
  O  O64  1  0.22199101  0.05494502  0.12986989  1
  O  O65  1  0.00122904  0.11130804  0.63396630  1
