# generated using pymatgen
data_Li2Ni3OF6
_symmetry_space_group_name_H-M   'P 1'
_cell_length_a   6.50667301
_cell_length_b   6.05904201
_cell_length_c   7.97491522
_cell_angle_alpha   101.38354900
_cell_angle_beta   114.96044073
_cell_angle_gamma   101.20807525
_symmetry_Int_Tables_number   1
_chemical_formula_structural   Li2Ni3OF6
_chemical_formula_sum   'Li4 Ni6 O2 F12'
_cell_volume   265.44498349
_cell_formula_units_Z   2
loop_
 _symmetry_equiv_pos_site_id
 _symmetry_equiv_pos_as_xyz
  1  'x, y, z'
loop_
 _atom_site_type_symbol
 _atom_site_label
 _atom_site_symmetry_multiplicity
 _atom_site_fract_x
 _atom_site_fract_y
 _atom_site_fract_z
 _atom_site_occupancy
  Li  Li0  1  0.31649380  0.68058040  0.47146112  1
  Li  Li1  1  0.37273548  0.88003433  0.06259611  1
  Li  Li2  1  0.62726452  0.11996567  0.93740389  1
  Li  Li3  1  0.68350620  0.31941960  0.52853888  1
  Ni  Ni4  1  0.22731742  0.21765981  0.65571767  1
  Ni  Ni5  1  0.05838892  0.07441872  0.22053008  1
  Ni  Ni6  1  0.65690547  0.64621569  0.93060736  1
  Ni  Ni7  1  0.34309453  0.35378331  0.06939264  1
  Ni  Ni8  1  0.94161108  0.92558128  0.77946992  1
  Ni  Ni9  1  0.77268258  0.78234019  0.34428233  1
  O  O10  1  0.28174045  0.07098545  0.86474684  1
  O  O11  1  0.71825955  0.92901455  0.13525316  1
  F  F12  1  0.14110888  0.90904568  0.43415112  1
  F  F13  1  0.30202257  0.53148551  0.86565197  1
  F  F14  1  0.15479956  0.36665632  0.44292265  1
  F  F15  1  0.98752189  0.22215364  0.00123851  1
  F  F16  1  0.59604684  0.82274348  0.72818270  1
  F  F17  1  0.42027471  0.66427864  0.27008374  1
  F  F18  1  0.57972529  0.33572136  0.72991626  1
  F  F19  1  0.40395316  0.17725652  0.27181730  1
  F  F20  1  0.01247811  0.77784636  0.99876149  1
  F  F21  1  0.84520044  0.63334368  0.55707735  1
  F  F22  1  0.69797743  0.46851449  0.13434803  1
  F  F23  1  0.85889112  0.09095432  0.56584888  1
