# generated using pymatgen
data_Te4Mo(WS)2
_symmetry_space_group_name_H-M   'P 1'
_cell_length_a   3.42546440
_cell_length_b   3.42544129
_cell_length_c   31.75964638
_cell_angle_alpha   89.99925560
_cell_angle_beta   90.00000000
_cell_angle_gamma   120.00022322
_symmetry_Int_Tables_number   1
_chemical_formula_structural   Te4Mo(WS)2
_chemical_formula_sum   'Te4 Mo1 W2 S2'
_cell_volume   322.73145745
_cell_formula_units_Z   1
loop_
 _symmetry_equiv_pos_site_id
 _symmetry_equiv_pos_as_xyz
  1  'x, y, z'
loop_
 _atom_site_type_symbol
 _atom_site_label
 _atom_site_symmetry_multiplicity
 _atom_site_fract_x
 _atom_site_fract_y
 _atom_site_fract_z
 _atom_site_occupancy
  Te  Te0  1  0.33334525  0.66669150  0.40573343  1
  Te  Te1  1  0.66665275  0.33330451  0.51953859  1
  Te  Te2  1  0.66664853  0.33329607  0.63740266  1
  Te  Te3  1  0.33335706  0.66671512  0.28786592  1
  Mo  Mo4  1  0.33331250  0.66662500  0.11565531  1
  W  W5  1  0.33331651  0.66663301  0.57850173  1
  W  W6  1  0.66667920  0.33335840  0.34679330  1
  S  S7  1  0.66664187  0.33328273  0.06853818  1
  S  S8  1  0.66664733  0.33329366  0.16281189  1
