# generated using pymatgen
data_Li5Cr3FeO8
_symmetry_space_group_name_H-M   'P 1'
_cell_length_a   8.44962802
_cell_length_b   8.61212597
_cell_length_c   8.60089419
_cell_angle_alpha   90.34813907
_cell_angle_beta   89.95391562
_cell_angle_gamma   90.03859515
_symmetry_Int_Tables_number   1
_chemical_formula_structural   Li5Cr3FeO8
_chemical_formula_sum   'Li20 Cr12 Fe4 O32'
_cell_volume   625.86881706
_cell_formula_units_Z   4
loop_
 _symmetry_equiv_pos_site_id
 _symmetry_equiv_pos_as_xyz
  1  'x, y, z'
loop_
 _atom_site_type_symbol
 _atom_site_label
 _atom_site_symmetry_multiplicity
 _atom_site_fract_x
 _atom_site_fract_y
 _atom_site_fract_z
 _atom_site_occupancy
  Li  Li0  1  0.10071916  0.87683352  0.88570593  1
  Li  Li1  1  0.92955713  0.55903435  0.45607264  1
  Li  Li2  1  0.88327376  0.36657594  0.65324609  1
  Li  Li3  1  0.87500591  0.11573400  0.86650254  1
  Li  Li4  1  0.86911290  0.90351621  0.11558669  1
  Li  Li5  1  0.81425477  0.71051766  0.30389073  1
  Li  Li6  1  0.65233283  0.14001521  0.62855426  1
  Li  Li7  1  0.65795972  0.32751696  0.83878489  1
  Li  Li8  1  0.61627045  0.64601420  0.14886804  1
  Li  Li9  1  0.63087324  0.90683559  0.35382572  1
  Li  Li10  1  0.52280184  0.49207434  0.97707471  1
  Li  Li11  1  0.45446128  0.95323986  0.55688665  1
  Li  Li12  1  0.40583392  0.13649584  0.39256252  1
  Li  Li13  1  0.37396445  0.39768283  0.14719450  1
  Li  Li14  1  0.34275803  0.64546622  0.88495522  1
  Li  Li15  1  0.22598810  0.22723594  0.24230513  1
  Li  Li16  1  0.30500694  0.81100200  0.69470849  1
  Li  Li17  1  0.11910361  0.60435364  0.65651794  1
  Li  Li18  1  0.12998276  0.39859726  0.39857569  1
  Li  Li19  1  0.09160183  0.08696824  0.07815681  1
  Cr  Cr20  1  0.87688980  0.13291674  0.37942496  1
  Cr  Cr21  1  0.87353776  0.62851436  0.88401791  1
  Cr  Cr22  1  0.87546415  0.37946694  0.13052240  1
  Cr  Cr23  1  0.62561635  0.37947390  0.38046022  1
  Cr  Cr24  1  0.37471072  0.87956830  0.12814619  1
  Cr  Cr25  1  0.37526199  0.12504655  0.87664030  1
  Cr  Cr26  1  0.37514233  0.37703768  0.63075675  1
  Cr  Cr27  1  0.12500178  0.12906325  0.62840706  1
  Cr  Cr28  1  0.12450934  0.62938703  0.13056772  1
  Cr  Cr29  1  0.62550240  0.87706923  0.87996446  1
  Cr  Cr30  1  0.62544121  0.62586260  0.63311915  1
  Cr  Cr31  1  0.12504765  0.88190048  0.37758392  1
  Fe  Fe32  1  0.87503300  0.87670940  0.62763748  1
  Fe  Fe33  1  0.62326404  0.13514670  0.12477565  1
  Fe  Fe34  1  0.37488436  0.63322803  0.38461954  1
  Fe  Fe35  1  0.12704252  0.37403757  0.88583160  1
  O  O36  1  0.88289030  0.89911777  0.37125887  1
  O  O37  1  0.87577961  0.38875944  0.89352332  1
  O  O38  1  0.88351062  0.61750315  0.12074504  1
  O  O39  1  0.88679845  0.13337409  0.61840475  1
  O  O40  1  0.86679095  0.36930590  0.36916266  1
  O  O41  1  0.86378877  0.86708048  0.88421238  1
  O  O42  1  0.86735152  0.62030204  0.64988453  1
  O  O43  1  0.87524286  0.14280619  0.13951891  1
  O  O44  1  0.63346750  0.64018464  0.87005911  1
  O  O45  1  0.63600085  0.14067473  0.38494607  1
  O  O46  1  0.62978870  0.38609970  0.14232709  1
  O  O47  1  0.62945015  0.86167049  0.64211432  1
  O  O48  1  0.61656139  0.87904311  0.12058070  1
  O  O49  1  0.61706630  0.38721539  0.61868895  1
  O  O50  1  0.61720207  0.11175756  0.87206491  1
  O  O51  1  0.62652803  0.61839143  0.39239836  1
  O  O52  1  0.36907200  0.11778446  0.11454297  1
  O  O53  1  0.38165596  0.88593947  0.88942752  1
  O  O54  1  0.38089663  0.61281083  0.63840603  1
  O  O55  1  0.38006291  0.37058253  0.38650088  1
  O  O56  1  0.37002823  0.63563412  0.12080019  1
  O  O57  1  0.36858696  0.13896359  0.63705029  1
  O  O58  1  0.37007960  0.88684734  0.36468028  1
  O  O59  1  0.38055385  0.36247360  0.86979888  1
  O  O60  1  0.12428162  0.64157901  0.36996979  1
  O  O61  1  0.13350201  0.12141391  0.86313752  1
  O  O62  1  0.13327146  0.86747757  0.13844592  1
  O  O63  1  0.13423790  0.36866823  0.62992649  1
  O  O64  1  0.12042048  0.89119386  0.61410246  1
  O  O65  1  0.11353007  0.63273563  0.89225134  1
  O  O66  1  0.12044840  0.39225055  0.13827777  1
  O  O67  1  0.11694680  0.11860861  0.39094414  1
