# generated using pymatgen
data_LiV2F5
_symmetry_space_group_name_H-M   'P 1'
_cell_length_a   4.18978430
_cell_length_b   5.52510514
_cell_length_c   10.40709509
_cell_angle_alpha   90.00000000
_cell_angle_beta   90.00000000
_cell_angle_gamma   112.29970355
_symmetry_Int_Tables_number   1
_chemical_formula_structural   LiV2F5
_chemical_formula_sum   'Li2 V4 F10'
_cell_volume   222.89629128
_cell_formula_units_Z   2
loop_
 _symmetry_equiv_pos_site_id
 _symmetry_equiv_pos_as_xyz
  1  'x, y, z'
loop_
 _atom_site_type_symbol
 _atom_site_label
 _atom_site_symmetry_multiplicity
 _atom_site_fract_x
 _atom_site_fract_y
 _atom_site_fract_z
 _atom_site_occupancy
  Li  Li0  1  0.18061841  0.36123479  0.25000000  1
  Li  Li1  1  0.81938159  0.63876521  0.75000000  1
  V  V2  1  0.14327227  0.28662083  0.56399307  1
  V  V3  1  0.14327227  0.28662083  0.93600693  1
  V  V4  1  0.85672773  0.71337917  0.06399307  1
  V  V5  1  0.85672773  0.71337917  0.43600693  1
  F  F6  1  0.32155109  0.64309382  0.05594973  1
  F  F7  1  0.32155109  0.64309382  0.44405027  1
  F  F8  1  0.05396650  0.10858794  0.11781797  1
  F  F9  1  0.05396650  0.10858794  0.38218203  1
  F  F10  1  0.23403931  0.46778376  0.75000000  1
  F  F11  1  0.76596069  0.53221624  0.25000000  1
  F  F12  1  0.94603350  0.89141206  0.88218203  1
  F  F13  1  0.94603350  0.89141206  0.61781797  1
  F  F14  1  0.67844891  0.35690618  0.94405027  1
  F  F15  1  0.67844891  0.35690618  0.55594973  1
