# generated using pymatgen
data_Mn2O3F
_symmetry_space_group_name_H-M   'P 1'
_cell_length_a   5.47949462
_cell_length_b   9.62031322
_cell_length_c   5.47934968
_cell_angle_alpha   82.03443524
_cell_angle_beta   66.63750861
_cell_angle_gamma   101.82100989
_symmetry_Int_Tables_number   1
_chemical_formula_structural   Mn2O3F
_chemical_formula_sum   'Mn8 O12 F4'
_cell_volume   251.65097932
_cell_formula_units_Z   4
loop_
 _symmetry_equiv_pos_site_id
 _symmetry_equiv_pos_as_xyz
  1  'x, y, z'
loop_
 _atom_site_type_symbol
 _atom_site_label
 _atom_site_symmetry_multiplicity
 _atom_site_fract_x
 _atom_site_fract_y
 _atom_site_fract_z
 _atom_site_occupancy
  Mn  Mn0  1  0.00260795  0.99900800  0.99610895  1
  Mn  Mn1  1  0.12406273  0.25023561  0.37508422  1
  Mn  Mn2  1  0.38218449  0.73635737  0.14563923  1
  Mn  Mn3  1  0.49257924  0.99898477  0.50590978  1
  Mn  Mn4  1  0.75660316  0.50099894  0.24438582  1
  Mn  Mn5  1  0.24586880  0.50188012  0.75258771  1
  Mn  Mn6  1  0.62404733  0.25044858  0.87520579  1
  Mn  Mn7  1  0.86694950  0.76401044  0.60353203  1
  O  O8  1  0.04809964  0.40527249  0.14008636  1
  O  O9  1  0.23250608  0.15359785  0.07624362  1
  O  O10  1  0.01573651  0.34735370  0.67273590  1
  O  O11  1  0.51998670  0.34648242  0.17086250  1
  O  O12  1  0.26579342  0.84704530  0.42170670  1
  O  O13  1  0.45894770  0.59507421  0.36151671  1
  O  O14  1  0.20122788  0.09517909  0.60876829  1
  O  O15  1  0.79098214  0.90556484  0.38748821  1
  O  O16  1  0.98359605  0.65288134  0.32824445  1
  O  O17  1  0.72805286  0.15436300  0.57934645  1
  O  O18  1  0.48015637  0.65440367  0.82816179  1
  O  O19  1  0.76837939  0.84676669  0.92007121  1
  F  F20  1  0.69612119  0.10861577  0.09076152  1
  F  F21  1  0.55173991  0.39268983  0.66109834  1
  F  F22  1  0.30460865  0.88800868  0.91728462  1
  F  F23  1  0.94314931  0.61207829  0.83259277  1
