# generated using pymatgen
data_Mn12O5F19
_symmetry_space_group_name_H-M   'P 1'
_cell_length_a   4.84539893
_cell_length_b   5.80207938
_cell_length_c   16.07447526
_cell_angle_alpha   89.70317402
_cell_angle_beta   89.89938535
_cell_angle_gamma   87.61303588
_symmetry_Int_Tables_number   1
_chemical_formula_structural   Mn12O5F19
_chemical_formula_sum   'Mn12 O5 F19'
_cell_volume   451.50927716
_cell_formula_units_Z   1
loop_
 _symmetry_equiv_pos_site_id
 _symmetry_equiv_pos_as_xyz
  1  'x, y, z'
loop_
 _atom_site_type_symbol
 _atom_site_label
 _atom_site_symmetry_multiplicity
 _atom_site_fract_x
 _atom_site_fract_y
 _atom_site_fract_z
 _atom_site_occupancy
  Mn  Mn0  1  0.99170960  0.16955092  0.41204045  1
  Mn  Mn1  1  0.02394995  0.83159602  0.23888774  1
  Mn  Mn2  1  0.00129251  0.15813251  0.08174521  1
  Mn  Mn3  1  0.03106773  0.14652178  0.74746042  1
  Mn  Mn4  1  0.00463478  0.84428849  0.58472869  1
  Mn  Mn5  1  0.01273139  0.84234957  0.90976446  1
  Mn  Mn6  1  0.47861685  0.31023267  0.58974567  1
  Mn  Mn7  1  0.52944362  0.33693321  0.92607097  1
  Mn  Mn8  1  0.51540977  0.33353820  0.25692496  1
  Mn  Mn9  1  0.49841287  0.65609222  0.08354336  1
  Mn  Mn10  1  0.52328425  0.64744749  0.41620172  1
  Mn  Mn11  1  0.48726033  0.66898278  0.75355695  1
  O  O12  1  0.20455971  0.09946544  0.64336750  1
  O  O13  1  0.22561903  0.88848922  0.12742653  1
  O  O14  1  0.22416260  0.89211844  0.80291212  1
  O  O15  1  0.72564701  0.38895595  0.03759812  1
  O  O16  1  0.72760383  0.39881066  0.36664929  1
  F  F17  1  0.22014541  0.11005612  0.30419264  1
  F  F18  1  0.21276650  0.12507157  0.97134334  1
  F  F19  1  0.24128173  0.88882019  0.46853974  1
  F  F20  1  0.25504514  0.39166251  0.14624064  1
  F  F21  1  0.27100878  0.61759788  0.31238811  1
  F  F22  1  0.26567997  0.39353018  0.47518811  1
  F  F23  1  0.26560420  0.59668880  0.64277922  1
  F  F24  1  0.28096140  0.39638556  0.81319243  1
  F  F25  1  0.27766153  0.61904904  0.97670257  1
  F  F26  1  0.70948695  0.62457849  0.19230434  1
  F  F27  1  0.72983121  0.61589554  0.53138189  1
  F  F28  1  0.73089828  0.61617922  0.86301313  1
  F  F29  1  0.74037142  0.38296345  0.70117728  1
  F  F30  1  0.77617051  0.11362390  0.18756450  1
  F  F31  1  0.76021968  0.10712391  0.52165021  1
  F  F32  1  0.77033085  0.88857718  0.35441269  1
  F  F33  1  0.75893172  0.89272493  0.01712481  1
  F  F34  1  0.78533675  0.12638315  0.85104357  1
  F  F35  1  0.74286116  0.87958381  0.69113563  1
