# generated using pymatgen
data_Li6Sn5(P2O7)4
_symmetry_space_group_name_H-M   'P 1'
_cell_length_a   13.65259112
_cell_length_b   9.62673271
_cell_length_c   11.72735138
_cell_angle_alpha   63.77024968
_cell_angle_beta   89.82225371
_cell_angle_gamma   74.83760897
_symmetry_Int_Tables_number   1
_chemical_formula_structural   Li6Sn5(P2O7)4
_chemical_formula_sum   'Li12 Sn10 P16 O56'
_cell_volume   1323.16830428
_cell_formula_units_Z   2
loop_
 _symmetry_equiv_pos_site_id
 _symmetry_equiv_pos_as_xyz
  1  'x, y, z'
loop_
 _atom_site_type_symbol
 _atom_site_label
 _atom_site_symmetry_multiplicity
 _atom_site_fract_x
 _atom_site_fract_y
 _atom_site_fract_z
 _atom_site_occupancy
  Li  Li0  1  0.17448832  0.08841464  0.87159162  1
  Li  Li1  1  0.07796076  0.90804448  0.65401694  1
  Li  Li2  1  0.25000000  0.50000000  0.50000000  1
  Li  Li3  1  0.42203924  0.09195552  0.34598306  1
  Li  Li4  1  0.32551168  0.91158536  0.12840838  1
  Li  Li5  1  0.50242635  0.76803187  0.05723080  1
  Li  Li6  1  0.69897339  0.07670696  0.87281312  1
  Li  Li7  1  0.59405299  0.87679083  0.70427254  1
  Li  Li8  1  0.75000000  0.50000000  0.50000000  1
  Li  Li9  1  0.90594701  0.12320917  0.29572746  1
  Li  Li10  1  0.80102661  0.92329304  0.12718688  1
  Li  Li11  1  0.99757365  0.23196813  0.94276920  1
  Sn  Sn12  1  0.15292047  0.10909750  0.29408179  1
  Sn  Sn13  1  0.99787660  0.80374282  0.00207558  1
  Sn  Sn14  1  0.17878673  0.47202955  0.26776171  1
  Sn  Sn15  1  0.32121327  0.52797045  0.73223829  1
  Sn  Sn16  1  0.50212340  0.19625718  0.99792442  1
  Sn  Sn17  1  0.34707953  0.89090250  0.70591821  1
  Sn  Sn18  1  0.64903066  0.10802889  0.30552712  1
  Sn  Sn19  1  0.67172023  0.47626610  0.25803646  1
  Sn  Sn20  1  0.82827977  0.52373390  0.74196354  1
  Sn  Sn21  1  0.85096934  0.89197111  0.69447288  1
  P  P22  1  0.15459118  0.19438927  0.58129088  1
  P  P23  1  0.09066587  0.53071507  0.78996534  1
  P  P24  1  0.03278887  0.80516172  0.29759928  1
  P  P25  1  0.23627283  0.27402870  0.00789483  1
  P  P26  1  0.26372717  0.72597130  0.99210517  1
  P  P27  1  0.46721113  0.19483828  0.70240072  1
  P  P28  1  0.40933413  0.46928493  0.21003466  1
  P  P29  1  0.34540882  0.80561073  0.41870912  1
  P  P30  1  0.65574521  0.19448930  0.58039374  1
  P  P31  1  0.59208093  0.52271447  0.81251483  1
  P  P32  1  0.53304324  0.80471803  0.30091068  1
  P  P33  1  0.75496118  0.27128927  0.01502571  1
  P  P34  1  0.74503882  0.72871073  0.98497429  1
  P  P35  1  0.96695676  0.19528197  0.69908932  1
  P  P36  1  0.90791907  0.47728553  0.18748517  1
  P  P37  1  0.84425479  0.80551070  0.41960626  1
  O  O38  1  0.02327680  0.11808717  0.83586334  1
  O  O39  1  0.04208306  0.28238721  0.60024193  1
  O  O40  1  0.98492853  0.57785759  0.16351633  1
  O  O41  1  0.14501103  0.06943885  0.53628727  1
  O  O42  1  0.04442275  0.71112762  0.74833867  1
  O  O43  1  0.18198060  0.15463776  0.00469867  1
  O  O44  1  0.15825213  0.45668995  0.93209310  1
  O  O45  1  0.04290231  0.94272678  0.32591877  1
  O  O46  1  0.22165559  0.10359779  0.71304935  1
  O  O47  1  0.19520714  0.33047725  0.48787375  1
  O  O48  1  0.26475627  0.24451121  0.14373786  1
  O  O49  1  0.13024685  0.66417020  0.33376479  1
  O  O50  1  0.16925893  0.49873501  0.70241117  1
  O  O51  1  0.16890606  0.72421818  0.06807334  1
  O  O52  1  0.33109394  0.27578182  0.93192666  1
  O  O53  1  0.33074107  0.50126499  0.29758883  1
  O  O54  1  0.36975315  0.33582980  0.66623521  1
  O  O55  1  0.23524373  0.75548879  0.85626214  1
  O  O56  1  0.30479286  0.66952275  0.51212625  1
  O  O57  1  0.27834441  0.89640221  0.28695065  1
  O  O58  1  0.45709769  0.05727322  0.67408123  1
  O  O59  1  0.34174787  0.54331005  0.06790690  1
  O  O60  1  0.31801940  0.84536224  0.99530133  1
  O  O61  1  0.45557725  0.28887238  0.25166133  1
  O  O62  1  0.51947927  0.12159113  0.84281611  1
  O  O63  1  0.35498897  0.93056115  0.46371273  1
  O  O64  1  0.51507147  0.42214241  0.83648367  1
  O  O65  1  0.54485194  0.27784588  0.60803988  1
  O  O66  1  0.45791694  0.71761279  0.39975807  1
  O  O67  1  0.48727237  0.56335300  0.18646182  1
  O  O68  1  0.64354618  0.07096278  0.53426349  1
  O  O69  1  0.47672320  0.88191283  0.16413666  1
  O  O70  1  0.53688857  0.69792395  0.78021719  1
  O  O71  1  0.70997758  0.14736100  0.00080416  1
  O  O72  1  0.66318091  0.44319054  0.95237725  1
  O  O73  1  0.54691020  0.93565611  0.33702648  1
  O  O74  1  0.72591913  0.09942938  0.70978699  1
  O  O75  1  0.69317661  0.33317624  0.48764421  1
  O  O76  1  0.77923257  0.22857030  0.15540043  1
  O  O77  1  0.63079583  0.66649070  0.32979857  1
  O  O78  1  0.66452226  0.50222927  0.71748500  1
  O  O79  1  0.65333150  0.70474782  0.06039450  1
  O  O80  1  0.84666850  0.29525218  0.93960550  1
  O  O81  1  0.83547774  0.49777073  0.28251500  1
  O  O82  1  0.86920417  0.33350930  0.67020143  1
  O  O83  1  0.72076743  0.77142970  0.84459957  1
  O  O84  1  0.80682339  0.66682376  0.51235579  1
  O  O85  1  0.77408087  0.90057062  0.29021301  1
  O  O86  1  0.95308980  0.06434389  0.66297352  1
  O  O87  1  0.83681909  0.55680946  0.04762275  1
  O  O88  1  0.79002242  0.85263900  0.99919584  1
  O  O89  1  0.96311143  0.30207605  0.21978281  1
  O  O90  1  0.85645382  0.92903722  0.46573651  1
  O  O91  1  0.01272763  0.43664700  0.81353818  1
  O  O92  1  0.95514806  0.72215412  0.39196012  1
  O  O93  1  0.98052073  0.87840887  0.15718389  1
