# generated using pymatgen
data_Li2VO2F
_symmetry_space_group_name_H-M   'P 1'
_cell_length_a   5.16260255
_cell_length_b   5.17036273
_cell_length_c   9.87521599
_cell_angle_alpha   85.06195466
_cell_angle_beta   99.92874205
_cell_angle_gamma   119.95025447
_symmetry_Int_Tables_number   1
_chemical_formula_structural   Li2VO2F
_chemical_formula_sum   'Li8 V4 O8 F4'
_cell_volume   224.97319214
_cell_formula_units_Z   4
loop_
 _symmetry_equiv_pos_site_id
 _symmetry_equiv_pos_as_xyz
  1  'x, y, z'
loop_
 _atom_site_type_symbol
 _atom_site_label
 _atom_site_symmetry_multiplicity
 _atom_site_fract_x
 _atom_site_fract_y
 _atom_site_fract_z
 _atom_site_occupancy
  Li  Li0  1  0.16279298  0.81699213  0.49768747  1
  Li  Li1  1  0.01373897  0.49722831  -0.00006935  1
  Li  Li2  1  0.09266597  0.18533121  0.25000157  1
  Li  Li3  1  0.65420059  0.81699214  0.00231490  1
  Li  Li4  1  0.48349077  0.49722884  0.50007220  1
  Li  Li5  1  0.33580131  0.19604558  0.00627618  1
  Li  Li6  1  0.74631519  0.49262728  0.25000103  1
  Li  Li7  1  0.86024535  0.19604502  0.49372677  1
  V  V8  1  0.25133932  0.50266918  0.74999093  1
  V  V9  1  0.39541170  0.79081540  0.24999862  1
  V  V10  1  0.58433562  0.16866295  0.75000291  1
  V  V11  1  0.91821479  0.83648142  0.74998288  1
  O  O12  1  0.28840664  0.83594337  0.86476839  1
  O  O13  1  0.13450904  0.51229804  0.36956937  1
  O  O14  1  0.21333880  0.16946593  0.63341527  1
  O  O15  1  0.54753775  0.83594222  0.63523305  1
  O  O16  1  0.37779092  0.51229887  0.13043360  1
  O  O17  1  0.62352210  0.50193497  0.86650798  1
  O  O18  1  0.87841437  0.50193458  0.63349384  1
  O  O19  1  0.95612897  0.16946711  0.86658719  1
  F  F20  1  0.04340828  0.83120664  0.12706134  1
  F  F21  1  0.45924225  0.15059213  0.36807425  1
  F  F22  1  0.78779871  0.83120667  0.37294133  1
  F  F23  1  0.69135061  0.15059300  0.13192830  1
