# generated using pymatgen
data_Ba6CaI14
_symmetry_space_group_name_H-M   'P 1'
_cell_length_a   13.24909769
_cell_length_b   13.24909769
_cell_length_c   19.27079995
_cell_angle_alpha   90.00000000
_cell_angle_beta   90.00000000
_cell_angle_gamma   140.11824144
_symmetry_Int_Tables_number   1
_chemical_formula_structural   Ba6CaI14
_chemical_formula_sum   'Ba12 Ca2 I28'
_cell_volume   2169.04962180
_cell_formula_units_Z   2
loop_
 _symmetry_equiv_pos_site_id
 _symmetry_equiv_pos_as_xyz
  1  'x, y, z'
loop_
 _atom_site_type_symbol
 _atom_site_label
 _atom_site_symmetry_multiplicity
 _atom_site_fract_x
 _atom_site_fract_y
 _atom_site_fract_z
 _atom_site_occupancy
  Ba  Ba0  1  0.07804436  0.76758368  0.36768021  1
  Ba  Ba1  1  0.23241632  0.92195564  0.63231979  1
  Ba  Ba2  1  0.42195564  0.73241632  0.86768021  1
  Ba  Ba3  1  0.26758368  0.57804436  0.13231979  1
  Ba  Ba4  1  0.80515418  0.80515418  0.17954507  1
  Ba  Ba5  1  0.30515418  0.30515418  0.32045493  1
  Ba  Ba6  1  0.19484582  0.19484582  0.82045493  1
  Ba  Ba7  1  0.69484582  0.69484582  0.67954507  1
  Ba  Ba8  1  0.57804436  0.26758368  0.13231979  1
  Ba  Ba9  1  0.73241632  0.42195564  0.86768021  1
  Ba  Ba10  1  0.76758368  0.07804436  0.36768021  1
  Ba  Ba11  1  0.92195564  0.23241632  0.63231979  1
  Ca  Ca12  1  0.50000000  0.50000000  0.00000000  1
  Ca  Ca13  1  0.00000000  0.00000000  0.50000000  1
  I  I14  1  0.19410318  0.99797391  0.21628193  1
  I  I15  1  0.00202609  0.80589682  0.78371807  1
  I  I16  1  0.25925600  0.74074400  0.00000000  1
  I  I17  1  0.07317823  0.57317823  0.25000000  1
  I  I18  1  0.42682177  0.92682177  0.75000000  1
  I  I19  1  0.24074400  0.75925600  0.50000000  1
  I  I20  1  0.49797391  0.69410318  0.28371807  1
  I  I21  1  0.30589682  0.50202609  0.71628193  1
  I  I22  1  0.67852317  0.85919108  0.53958265  1
  I  I23  1  0.14080892  0.32147683  0.46041735  1
  I  I24  1  0.64080892  0.82147683  0.03958265  1
  I  I25  1  0.17852317  0.35919108  0.96041735  1
  I  I26  1  0.40934269  0.40934269  0.14736150  1
  I  I27  1  0.09065731  0.09065731  0.64736150  1
  I  I28  1  0.59065731  0.59065731  0.85263850  1
  I  I29  1  0.90934269  0.90934269  0.35263850  1
  I  I30  1  0.32147683  0.14080892  0.46041735  1
  I  I31  1  0.35919108  0.17852317  0.96041735  1
  I  I32  1  0.82147683  0.64080892  0.03958265  1
  I  I33  1  0.85919108  0.67852317  0.53958265  1
  I  I34  1  0.50202609  0.30589682  0.71628193  1
  I  I35  1  0.69410318  0.49797391  0.28371807  1
  I  I36  1  0.75925600  0.24074400  0.50000000  1
  I  I37  1  0.92682177  0.42682177  0.75000000  1
  I  I38  1  0.57317823  0.07317823  0.25000000  1
  I  I39  1  0.74074400  0.25925600  0.00000000  1
  I  I40  1  0.80589682  0.00202609  0.78371807  1
  I  I41  1  0.99797391  0.19410318  0.21628193  1
