# generated using pymatgen
data_Mn2F7
_symmetry_space_group_name_H-M   'P 1'
_cell_length_a   8.68252441
_cell_length_b   6.36002217
_cell_length_c   5.35270628
_cell_angle_alpha   96.43197407
_cell_angle_beta   75.52402829
_cell_angle_gamma   108.94459753
_symmetry_Int_Tables_number   1
_chemical_formula_structural   Mn2F7
_chemical_formula_sum   'Mn4 F14'
_cell_volume   270.54175230
_cell_formula_units_Z   2
loop_
 _symmetry_equiv_pos_site_id
 _symmetry_equiv_pos_as_xyz
  1  'x, y, z'
loop_
 _atom_site_type_symbol
 _atom_site_label
 _atom_site_symmetry_multiplicity
 _atom_site_fract_x
 _atom_site_fract_y
 _atom_site_fract_z
 _atom_site_occupancy
  Mn  Mn0  1  0.17453202  0.97369582  0.28838837  1
  Mn  Mn1  1  0.30667708  0.21739748  0.78626824  1
  Mn  Mn2  1  0.69332292  0.78260252  0.21373176  1
  Mn  Mn3  1  0.82546798  0.02630418  0.71161163  1
  F  F4  1  0.14032561  0.70782580  0.39192330  1
  F  F5  1  0.08406390  0.08556273  0.68437978  1
  F  F6  1  0.26384240  0.92509412  0.91687192  1
  F  F7  1  0.20629783  0.25585253  0.14410739  1
  F  F8  1  0.30822742  0.47887810  0.71277919  1
  F  F9  1  0.49075319  0.69867142  0.16209683  1
  F  F10  1  0.37626557  0.12537876  0.44769424  1
  F  F11  1  0.62373443  0.87462124  0.55230576  1
  F  F12  1  0.50924681  0.30132858  0.83790317  1
  F  F13  1  0.69177258  0.52112190  0.28722081  1
  F  F14  1  0.79370217  0.74414747  0.85589261  1
  F  F15  1  0.73615760  0.07490588  0.08312808  1
  F  F16  1  0.91593610  0.91443727  0.31562022  1
  F  F17  1  0.85967439  0.29217420  0.60807670  1
