# generated using pymatgen
data_Ba5Nb5O14
_symmetry_space_group_name_H-M   'P 1'
_cell_length_a   4.14074273
_cell_length_b   9.31474883
_cell_length_c   9.29845629
_cell_angle_alpha   89.86659712
_cell_angle_beta   90.00000000
_cell_angle_gamma   90.00000000
_symmetry_Int_Tables_number   1
_chemical_formula_structural   Ba5Nb5O14
_chemical_formula_sum   'Ba5 Nb5 O14'
_cell_volume   358.64028700
_cell_formula_units_Z   1
loop_
 _symmetry_equiv_pos_site_id
 _symmetry_equiv_pos_as_xyz
  1  'x, y, z'
loop_
 _atom_site_type_symbol
 _atom_site_label
 _atom_site_symmetry_multiplicity
 _atom_site_fract_x
 _atom_site_fract_y
 _atom_site_fract_z
 _atom_site_occupancy
  Ba  Ba0  1  0.50000000  0.50055096  0.49929960  1
  Ba  Ba1  1  0.50000000  0.09944804  0.30070040  1
  Ba  Ba2  1  0.50000000  0.30000000  0.90000000  1
  Ba  Ba3  1  0.50000000  0.89969323  0.70082658  1
  Ba  Ba4  1  0.50000000  0.70030677  0.09917342  1
  Nb  Nb5  1  0.00000000  0.19985060  0.59954764  1
  Nb  Nb6  1  0.00000000  0.59847181  0.79923192  1
  Nb  Nb7  1  0.00000000  0.80000000  0.40000000  1
  Nb  Nb8  1  0.00000000  0.40014940  0.20045236  1
  Nb  Nb9  1  0.00000000  0.00152819  0.00076808  1
  O  O10  1  0.50000000  0.60414651  0.80221923  1
  O  O11  1  0.50000000  0.19973373  0.59996783  1
  O  O12  1  0.50000000  0.80000000  0.40000000  1
  O  O13  1  0.50000000  0.99585349  0.99778077  1
  O  O14  1  0.50000000  0.40026627  0.20003217  1
  O  O15  1  0.00000000  0.09685624  0.80010483  1
  O  O16  1  0.00000000  0.39769463  0.70043210  1
  O  O17  1  0.00000000  0.70207947  0.60250473  1
  O  O18  1  0.00000000  0.59910622  0.30366891  1
  O  O19  1  0.00000000  0.00089378  0.49633109  1
  O  O20  1  0.00000000  0.30000000  0.40000000  1
  O  O21  1  0.00000000  0.89792053  0.19749527  1
  O  O22  1  0.00000000  0.50314376  0.99989517  1
  O  O23  1  0.00000000  0.20230537  0.09956790  1
