# generated using pymatgen
data_Li2VOF4
_symmetry_space_group_name_H-M   'P 1'
_cell_length_a   7.22568878
_cell_length_b   5.42919501
_cell_length_c   9.62198028
_cell_angle_alpha   90.00000000
_cell_angle_beta   90.00000000
_cell_angle_gamma   90.00000000
_symmetry_Int_Tables_number   1
_chemical_formula_structural   Li2VOF4
_chemical_formula_sum   'Li8 V4 O4 F16'
_cell_volume   377.46714450
_cell_formula_units_Z   4
loop_
 _symmetry_equiv_pos_site_id
 _symmetry_equiv_pos_as_xyz
  1  'x, y, z'
loop_
 _atom_site_type_symbol
 _atom_site_label
 _atom_site_symmetry_multiplicity
 _atom_site_fract_x
 _atom_site_fract_y
 _atom_site_fract_z
 _atom_site_occupancy
  Li  Li0  1  0.95233970  0.74215022  0.27972667  1
  Li  Li1  1  0.11606227  0.25587543  0.42801134  1
  Li  Li2  1  0.38393773  0.75587543  0.92801134  1
  Li  Li3  1  0.54766030  0.24215022  0.77972667  1
  Li  Li4  1  0.45233970  0.74215022  0.22027333  1
  Li  Li5  1  0.61606227  0.25587543  0.07198866  1
  Li  Li6  1  0.88393773  0.75587543  0.57198866  1
  Li  Li7  1  0.04766030  0.24215022  0.72027333  1
  V  V8  1  0.19602405  0.25838431  0.05100485  1
  V  V9  1  0.30397595  0.75838431  0.55100485  1
  V  V10  1  0.69602405  0.25838431  0.44899515  1
  V  V11  1  0.80397595  0.75838431  0.94899515  1
  O  O12  1  0.15559433  0.99008690  0.57931349  1
  O  O13  1  0.34440567  0.49008690  0.07931349  1
  O  O14  1  0.65559433  0.99008690  0.92068651  1
  O  O15  1  0.84440567  0.49008690  0.42068651  1
  F  F16  1  0.02269069  0.94583610  0.00518504  1
  F  F17  1  0.10096314  0.22526336  0.23511448  1
  F  F18  1  0.13340324  0.48715084  0.58669786  1
  F  F19  1  0.24115845  0.71820985  0.35077728  1
  F  F20  1  0.25884155  0.21820985  0.85077728  1
  F  F21  1  0.36659676  0.98715084  0.08669786  1
  F  F22  1  0.39903686  0.72526336  0.73511448  1
  F  F23  1  0.47730931  0.44583610  0.50518504  1
  F  F24  1  0.52269069  0.94583610  0.49481496  1
  F  F25  1  0.60096314  0.22526336  0.26488552  1
  F  F26  1  0.63340324  0.48715084  0.91330214  1
  F  F27  1  0.74115845  0.71820985  0.14922272  1
  F  F28  1  0.75884155  0.21820985  0.64922272  1
  F  F29  1  0.86659676  0.98715084  0.41330214  1
  F  F30  1  0.89903686  0.72526336  0.76488552  1
  F  F31  1  0.97730931  0.44583610  0.99481496  1
