# generated using pymatgen
data_LiSiBiO4
_symmetry_space_group_name_H-M   'P 1'
_cell_length_a   8.98402043
_cell_length_b   8.98390773
_cell_length_c   8.36298671
_cell_angle_alpha   90.00180343
_cell_angle_beta   89.99798993
_cell_angle_gamma   120.00024421
_symmetry_Int_Tables_number   1
_chemical_formula_structural   LiSiBiO4
_chemical_formula_sum   'Li6 Si6 Bi6 O24'
_cell_volume   584.55715804
_cell_formula_units_Z   6
loop_
 _symmetry_equiv_pos_site_id
 _symmetry_equiv_pos_as_xyz
  1  'x, y, z'
loop_
 _atom_site_type_symbol
 _atom_site_label
 _atom_site_symmetry_multiplicity
 _atom_site_fract_x
 _atom_site_fract_y
 _atom_site_fract_z
 _atom_site_occupancy
  Li  Li0  1  0.02704268  0.68447369  0.25713519  1
  Li  Li1  1  0.31552993  0.34256620  0.25712234  1
  Li  Li2  1  0.65743883  0.97295358  0.25713322  1
  Li  Li3  1  0.34255456  0.02704233  0.75714380  1
  Li  Li4  1  0.68446908  0.65742034  0.75712855  1
  Li  Li5  1  0.97296492  0.31553793  0.75712315  1
  Si  Si6  1  0.02325858  0.67665089  0.87104487  1
  Si  Si7  1  0.32336444  0.34660829  0.87102835  1
  Si  Si8  1  0.65335188  0.97673105  0.87103707  1
  Si  Si9  1  0.34662501  0.02324929  0.37103415  1
  Si  Si10  1  0.67663662  0.65338581  0.37103330  1
  Si  Si11  1  0.97675039  0.32336729  0.37103334  1
  Bi  Bi12  1  0.33332350  0.66666505  0.99604221  1
  Bi  Bi13  1  0.33333944  0.66666842  0.54760922  1
  Bi  Bi14  1  0.99991929  0.00001354  0.94674622  1
  Bi  Bi15  1  0.00001350  0.00001349  0.44672746  1
  Bi  Bi16  1  0.66666828  0.33332391  0.49604200  1
  Bi  Bi17  1  0.66666732  0.33334020  0.04760449  1
  O  O18  1  0.07930140  0.86403896  0.78167413  1
  O  O19  1  0.11570564  0.73165303  0.04798649  1
  O  O20  1  0.10957521  0.57222210  0.78426621  1
  O  O21  1  0.24439554  0.81184322  0.38848983  1
  O  O22  1  0.18814260  0.43252493  0.38850768  1
  O  O23  1  0.13597503  0.21529987  0.78163489  1
  O  O24  1  0.46263059  0.89043567  0.78427368  1
  O  O25  1  0.26832736  0.38403805  0.04797474  1
  O  O26  1  0.61597581  0.88430244  0.04796719  1
  O  O27  1  0.21531550  0.07930996  0.28162876  1
  O  O28  1  0.42779591  0.53736581  0.78425922  1
  O  O29  1  0.56747615  0.75560124  0.38850656  1
  O  O30  1  0.43254146  0.24440563  0.88849576  1
  O  O31  1  0.57220903  0.46262172  0.28425646  1
  O  O32  1  0.78466670  0.92067486  0.78160474  1
  O  O33  1  0.38404097  0.11568793  0.54797031  1
  O  O34  1  0.73167269  0.61595460  0.54796898  1
  O  O35  1  0.53737598  0.10957247  0.28425899  1
  O  O36  1  0.86401719  0.78470255  0.28162654  1
  O  O37  1  0.81186029  0.56747475  0.88850939  1
  O  O38  1  0.75564169  0.18815767  0.88850977  1
  O  O39  1  0.89043051  0.42779017  0.28426031  1
  O  O40  1  0.88429114  0.26832357  0.54796527  1
  O  O41  1  0.92070036  0.13598853  0.28161518  1
