# generated using pymatgen
data_Mn2OF3
_symmetry_space_group_name_H-M   'P 1'
_cell_length_a   4.85453237
_cell_length_b   13.63770482
_cell_length_c   5.82068635
_cell_angle_alpha   102.02126080
_cell_angle_beta   93.15817575
_cell_angle_gamma   87.06928656
_symmetry_Int_Tables_number   1
_chemical_formula_structural   Mn2OF3
_chemical_formula_sum   'Mn10 O5 F15'
_cell_volume   376.02315690
_cell_formula_units_Z   5
loop_
 _symmetry_equiv_pos_site_id
 _symmetry_equiv_pos_as_xyz
  1  'x, y, z'
loop_
 _atom_site_type_symbol
 _atom_site_label
 _atom_site_symmetry_multiplicity
 _atom_site_fract_x
 _atom_site_fract_y
 _atom_site_fract_z
 _atom_site_occupancy
  Mn  Mn0  1  0.49215485  0.00283422  0.49697601  1
  Mn  Mn1  1  0.49798948  0.40004537  0.29850848  1
  Mn  Mn2  1  0.49444608  0.60258371  0.69911823  1
  Mn  Mn3  1  0.50110644  0.19975335  0.90016010  1
  Mn  Mn4  1  0.53070824  0.79203574  0.11515578  1
  Mn  Mn5  1  0.99818823  0.20067667  0.40010481  1
  Mn  Mn6  1  0.99834599  0.40040273  0.79828636  1
  Mn  Mn7  1  0.98027565  0.80498532  0.59026743  1
  Mn  Mn8  1  0.00502789  0.59771951  0.20248576  1
  Mn  Mn9  1  0.00679496  0.99881312  0.00192460  1
  O  O10  1  0.69277966  0.26247500  0.21195571  1
  O  O11  1  0.68936790  0.86530056  0.41704692  1
  O  O12  1  0.70408275  0.65877579  0.01999034  1
  O  O13  1  0.30502733  0.13921609  0.58910909  1
  O  O14  1  0.30183632  0.53718352  0.38152119  1
  F  F15  1  0.80101956  0.86131293  0.91040321  1
  F  F16  1  0.80145921  0.25997604  0.71629117  1
  F  F17  1  0.80614980  0.66074325  0.51793676  1
  F  F18  1  0.80269828  0.06053591  0.32005383  1
  F  F19  1  0.80338881  0.46142332  0.12046613  1
  F  F20  1  0.69596644  0.05992203  0.82061872  1
  F  F21  1  0.68991900  0.46020861  0.61661324  1
  F  F22  1  0.30713319  0.33975368  0.97982283  1
  F  F23  1  0.31432062  0.92990562  0.17106924  1
  F  F24  1  0.29743237  0.74703998  0.79079558  1
  F  F25  1  0.19784573  0.54014221  0.88514748  1
  F  F26  1  0.19713445  0.33865364  0.47924736  1
  F  F27  1  0.19938038  0.13943017  0.08582148  1
  F  F28  1  0.20098441  0.93980200  0.67762790  1
  F  F29  1  0.18703598  0.73835394  0.28547528  1
