# generated using pymatgen
data_LiV(OF)2
_symmetry_space_group_name_H-M   'P 1'
_cell_length_a   8.94007327
_cell_length_b   5.42495396
_cell_length_c   6.87430077
_cell_angle_alpha   90.00000000
_cell_angle_beta   90.00000000
_cell_angle_gamma   90.00000000
_symmetry_Int_Tables_number   1
_chemical_formula_structural   LiV(OF)2
_chemical_formula_sum   'Li4 V4 O8 F8'
_cell_volume   333.40005319
_cell_formula_units_Z   4
loop_
 _symmetry_equiv_pos_site_id
 _symmetry_equiv_pos_as_xyz
  1  'x, y, z'
loop_
 _atom_site_type_symbol
 _atom_site_label
 _atom_site_symmetry_multiplicity
 _atom_site_fract_x
 _atom_site_fract_y
 _atom_site_fract_z
 _atom_site_occupancy
  Li  Li0  1  0.22388562  0.51823262  0.37101637  1
  Li  Li1  1  0.27611438  0.51823262  0.87101637  1
  Li  Li2  1  0.72388562  0.48176738  0.37101637  1
  Li  Li3  1  0.77611438  0.48176738  0.87101637  1
  V  V4  1  0.05634744  0.04756174  0.99363367  1
  V  V5  1  0.94365256  0.95243826  0.49363367  1
  V  V6  1  0.44365256  0.04756174  0.49363367  1
  V  V7  1  0.55634744  0.95243826  0.99363367  1
  O  O8  1  0.97673449  0.03038781  0.73591036  1
  O  O9  1  0.21733153  0.19821092  0.98694561  1
  O  O10  1  0.28266847  0.19821092  0.48694561  1
  O  O11  1  0.52326551  0.03038781  0.23591036  1
  O  O12  1  0.47673449  0.96961219  0.73591036  1
  O  O13  1  0.71733153  0.80178908  0.98694561  1
  O  O14  1  0.78266847  0.80178908  0.48694561  1
  O  O15  1  0.02326551  0.96961219  0.23591036  1
  F  F16  1  0.07683694  0.68341436  0.51198477  1
  F  F17  1  0.11523464  0.72239204  0.93710922  1
  F  F18  1  0.42316306  0.68341436  0.01198477  1
  F  F19  1  0.38476536  0.72239204  0.43710922  1
  F  F20  1  0.57683694  0.31658564  0.51198477  1
  F  F21  1  0.61523464  0.27760796  0.93710922  1
  F  F22  1  0.88476536  0.27760796  0.43710922  1
  F  F23  1  0.92316306  0.31658564  0.01198477  1
