# generated using pymatgen
data_Li2VOF3
_symmetry_space_group_name_H-M   'P 1'
_cell_length_a   5.97398807
_cell_length_b   5.97888081
_cell_length_c   6.07732852
_cell_angle_alpha   120.54619927
_cell_angle_beta   90.00000000
_cell_angle_gamma   60.86830377
_symmetry_Int_Tables_number   1
_chemical_formula_structural   Li2VOF3
_chemical_formula_sum   'Li4 V2 O2 F6'
_cell_volume   154.21142649
_cell_formula_units_Z   2
loop_
 _symmetry_equiv_pos_site_id
 _symmetry_equiv_pos_as_xyz
  1  'x, y, z'
loop_
 _atom_site_type_symbol
 _atom_site_label
 _atom_site_symmetry_multiplicity
 _atom_site_fract_x
 _atom_site_fract_y
 _atom_site_fract_z
 _atom_site_occupancy
  Li  Li0  1  0.50000000  0.00000000  0.50000000  1
  Li  Li1  1  0.00000000  0.00000000  0.50000000  1
  Li  Li2  1  0.09535594  0.25247189  0.12623644  1
  Li  Li3  1  0.90464406  0.74752811  0.87376356  1
  V  V4  1  0.50000000  0.50000000  0.50000000  1
  V  V5  1  0.50000000  0.50000000  0.00000000  1
  O  O6  1  0.30161760  0.48914598  0.74457299  1
  O  O7  1  0.69838240  0.51085402  0.25542701  1
  F  F8  1  0.74273168  0.02550035  0.75048519  1
  F  F9  1  0.74273168  0.02550035  0.27501516  1
  F  F10  1  0.74942798  0.49116450  0.74558275  1
  F  F11  1  0.25057202  0.50883550  0.25441725  1
  F  F12  1  0.25726832  0.97449965  0.72498484  1
  F  F13  1  0.25726832  0.97449965  0.24951481  1
