# generated using pymatgen
data_Ti3V2Cu(PO4)6
_symmetry_space_group_name_H-M   'P 1'
_cell_length_a   8.52993329
_cell_length_b   8.68443010
_cell_length_c   8.68443071
_cell_angle_alpha   59.99999977
_cell_angle_beta   59.39901964
_cell_angle_gamma   59.39902039
_symmetry_Int_Tables_number   1
_chemical_formula_structural   Ti3V2Cu(PO4)6
_chemical_formula_sum   'Ti3 V2 Cu1 P6 O24'
_cell_volume   450.72116464
_cell_formula_units_Z   1
loop_
 _symmetry_equiv_pos_site_id
 _symmetry_equiv_pos_as_xyz
  1  'x, y, z'
loop_
 _atom_site_type_symbol
 _atom_site_label
 _atom_site_symmetry_multiplicity
 _atom_site_fract_x
 _atom_site_fract_y
 _atom_site_fract_z
 _atom_site_occupancy
  Ti  Ti0  1  0.06403146  0.64532251  0.64532251  1
  Ti  Ti1  1  0.42893416  0.85702161  0.85702161  1
  Ti  Ti2  1  0.93668286  0.35443938  0.35443938  1
  V  V3  1  0.99206288  0.00264604  0.00264604  1
  V  V4  1  0.49532671  0.50155776  0.50155776  1
  Cu  Cu5  1  0.56057631  0.14647423  0.14647423  1
  P  P6  1  0.25438178  0.24760305  0.54437534  1
  P  P7  1  0.25438178  0.95363983  0.24760305  1
  P  P8  1  0.25438178  0.54437534  0.95363983  1
  P  P9  1  0.75004274  0.45635320  0.04474499  1
  P  P10  1  0.75004274  0.04474499  0.74885908  1
  P  P11  1  0.75004274  0.74885908  0.45635320  1
  O  O12  1  0.07265657  0.11860872  0.31370532  1
  O  O13  1  0.07265657  0.49502939  0.11860872  1
  O  O14  1  0.07265657  0.31370532  0.49502939  1
  O  O15  1  0.22372070  0.09077373  0.74390662  1
  O  O16  1  0.44141309  0.18237553  0.39595980  1
  O  O17  1  0.25992748  0.41021262  0.57133124  1
  O  O18  1  0.22372070  0.94159896  0.09077373  1
  O  O19  1  0.25992748  0.75852866  0.41021262  1
  O  O20  1  0.56699099  0.61859563  0.99819849  1
  O  O21  1  0.25992748  0.57133124  0.75852866  1
  O  O22  1  0.78460924  0.26410419  0.05063353  1
  O  O23  1  0.56699099  0.99819849  0.81621489  1
  O  O24  1  0.44141309  0.98025259  0.18237553  1
  O  O25  1  0.22372070  0.74390662  0.94159896  1
  O  O26  1  0.72717433  0.44502386  0.24014615  1
  O  O27  1  0.44141309  0.39595980  0.98025259  1
  O  O28  1  0.72717433  0.24014615  0.58765565  1
  O  O29  1  0.78460924  0.05063353  0.90065204  1
  O  O30  1  0.72717433  0.58765565  0.44502386  1
  O  O31  1  0.56699099  0.81621489  0.61859563  1
  O  O32  1  0.78460924  0.90065204  0.26410419  1
  O  O33  1  0.92654562  0.66866414  0.51635663  1
  O  O34  1  0.92654562  0.51635663  0.88843360  1
  O  O35  1  0.92654562  0.88843360  0.66866414  1
