# generated using pymatgen
data_Li2MnOF3
_symmetry_space_group_name_H-M   'P 1'
_cell_length_a   5.71143111
_cell_length_b   5.71143111
_cell_length_c   5.26491894
_cell_angle_alpha   90.67258235
_cell_angle_beta   89.32741765
_cell_angle_gamma   118.79619019
_symmetry_Int_Tables_number   1
_chemical_formula_structural   Li2MnOF3
_chemical_formula_sum   'Li4 Mn2 O2 F6'
_cell_volume   150.49191887
_cell_formula_units_Z   2
loop_
 _symmetry_equiv_pos_site_id
 _symmetry_equiv_pos_as_xyz
  1  'x, y, z'
loop_
 _atom_site_type_symbol
 _atom_site_label
 _atom_site_symmetry_multiplicity
 _atom_site_fract_x
 _atom_site_fract_y
 _atom_site_fract_z
 _atom_site_occupancy
  Li  Li0  1  0.33434879  0.96554801  0.75626582  1
  Li  Li1  1  0.07206157  0.65947940  0.27719736  1
  Li  Li2  1  0.96554801  0.33434879  0.74373418  1
  Li  Li3  1  0.65947940  0.07206157  0.22280264  1
  Mn  Mn4  1  0.61414140  0.61414140  0.75000000  1
  Mn  Mn5  1  0.36654862  0.36654862  0.25000000  1
  O  O6  1  0.29395983  0.48765758  0.94270607  1
  O  O7  1  0.48765758  0.29395983  0.55729393  1
  F  F8  1  0.72106233  0.98355933  0.87534314  1
  F  F9  1  0.99939426  0.28024662  0.38688415  1
  F  F10  1  0.47599628  0.74599499  0.41670376  1
  F  F11  1  0.74599499  0.47599628  0.08329624  1
  F  F12  1  0.98355933  0.72106233  0.62465686  1
  F  F13  1  0.28024662  0.99939426  0.11311585  1
