# generated using pymatgen
data_Li4Ti5S12
_symmetry_space_group_name_H-M   'P 1'
_cell_length_a   6.49327314
_cell_length_b   11.66061611
_cell_length_c   12.01612417
_cell_angle_alpha   72.86033361
_cell_angle_beta   76.55552676
_cell_angle_gamma   78.38063938
_symmetry_Int_Tables_number   1
_chemical_formula_structural   Li4Ti5S12
_chemical_formula_sum   'Li8 Ti10 S24'
_cell_volume   836.88866933
_cell_formula_units_Z   2
loop_
 _symmetry_equiv_pos_site_id
 _symmetry_equiv_pos_as_xyz
  1  'x, y, z'
loop_
 _atom_site_type_symbol
 _atom_site_label
 _atom_site_symmetry_multiplicity
 _atom_site_fract_x
 _atom_site_fract_y
 _atom_site_fract_z
 _atom_site_occupancy
  Li  Li0  1  0.14659258  0.40715077  0.40421565  1
  Li  Li1  1  0.35599459  0.58065871  0.11071371  1
  Li  Li2  1  0.27445016  0.91211370  0.02172570  1
  Li  Li3  1  0.30961465  0.76691271  0.55631554  1
  Li  Li4  1  0.69038535  0.23308729  0.44368446  1
  Li  Li5  1  0.72554984  0.08788630  0.97827430  1
  Li  Li6  1  0.64400541  0.41934129  0.88928629  1
  Li  Li7  1  0.85340842  0.59284923  0.59578435  1
  Ti  Ti8  1  0.26126148  0.09157919  0.27628839  1
  Ti  Ti9  1  0.19178065  0.09226877  0.67766012  1
  Ti  Ti10  1  0.18933655  0.27541790  0.92257119  1
  Ti  Ti11  1  0.12426450  0.59236942  0.86018263  1
  Ti  Ti12  1  0.42059470  0.42597564  0.64679929  1
  Ti  Ti13  1  0.57940430  0.57402436  0.35320071  1
  Ti  Ti14  1  0.87573550  0.40763058  0.13981737  1
  Ti  Ti15  1  0.81066345  0.72458210  0.07742881  1
  Ti  Ti16  1  0.80821935  0.90773123  0.32233988  1
  Ti  Ti17  1  0.73873852  0.90842081  0.72371161  1
  S  S18  1  0.05008462  0.26545692  0.30243776  1
  S  S19  1  0.24502926  0.42018514  0.01717169  1
  S  S20  1  0.34146957  0.10220271  0.08268872  1
  S  S21  1  0.10252235  0.10337794  0.86693373  1
  S  S22  1  0.04638232  0.42970270  0.77227601  1
  S  S23  1  0.11053283  0.91835423  0.38440378  1
  S  S24  1  0.32008396  0.26364218  0.56930666  1
  S  S25  1  0.25278436  0.57070170  0.48401399  1
  S  S26  1  0.56883854  0.08036868  0.34296901  1
  S  S27  1  0.17164908  0.73115837  0.94696953  1
  S  S28  1  0.54049306  0.41764843  0.27049728  1
  S  S29  1  0.46557706  0.73126283  0.19259578  1
  S  S30  1  0.53442294  0.26873717  0.80740422  1
  S  S31  1  0.45950694  0.58235157  0.72950272  1
  S  S32  1  0.82835092  0.26884163  0.05303047  1
  S  S33  1  0.43116146  0.91963132  0.65703099  1
  S  S34  1  0.74721564  0.42929830  0.51598601  1
  S  S35  1  0.67991604  0.73635782  0.43069334  1
  S  S36  1  0.88946717  0.08164577  0.61559622  1
  S  S37  1  0.95361768  0.57029730  0.22772399  1
  S  S38  1  0.89747765  0.89662206  0.13306627  1
  S  S39  1  0.65853043  0.89779729  0.91731128  1
  S  S40  1  0.75497074  0.57981486  0.98282831  1
  S  S41  1  0.94991538  0.73454308  0.69756224  1
