# generated using pymatgen
data_CrPO4
_symmetry_space_group_name_H-M   'P 1'
_cell_length_a   9.27433453
_cell_length_b   5.58266490
_cell_length_c   6.45331365
_cell_angle_alpha   101.98078684
_cell_angle_beta   106.93179945
_cell_angle_gamma   80.54071225
_symmetry_Int_Tables_number   1
_chemical_formula_structural   CrPO4
_chemical_formula_sum   'Cr4 P4 O16'
_cell_volume   310.74454057
_cell_formula_units_Z   4
loop_
 _symmetry_equiv_pos_site_id
 _symmetry_equiv_pos_as_xyz
  1  'x, y, z'
loop_
 _atom_site_type_symbol
 _atom_site_label
 _atom_site_symmetry_multiplicity
 _atom_site_fract_x
 _atom_site_fract_y
 _atom_site_fract_z
 _atom_site_occupancy
  Cr  Cr0  1  0.19801955  0.69964812  0.91282216  1
  Cr  Cr1  1  0.43479401  0.20344188  0.16531094  1
  Cr  Cr2  1  0.56520599  0.79655812  0.83468906  1
  Cr  Cr3  1  0.80198045  0.30035188  0.08717784  1
  P  P4  1  0.09754896  0.16369406  0.85536416  1
  P  P5  1  0.47395116  0.34626802  0.71519600  1
  P  P6  1  0.52604884  0.65373198  0.28480400  1
  P  P7  1  0.90245104  0.83630594  0.14463584  1
  O  O8  1  0.15000905  0.36186643  0.77061442  1
  O  O9  1  0.08400201  0.91259832  0.69827320  1
  O  O10  1  0.04278397  0.73934311  0.06603819  1
  O  O11  1  0.23744504  0.06831018  0.05386982  1
  O  O12  1  0.45747030  0.15111381  0.84903025  1
  O  O13  1  0.44518279  0.23457573  0.47761825  1
  O  O14  1  0.37712939  0.60133393  0.75728426  1
  O  O15  1  0.36194192  0.56536436  0.17925527  1
  O  O16  1  0.63805808  0.43463564  0.82074473  1
  O  O17  1  0.62287061  0.39866607  0.24271574  1
  O  O18  1  0.55481721  0.76542427  0.52238175  1
  O  O19  1  0.54252970  0.84888619  0.15096975  1
  O  O20  1  0.76255496  0.93168982  0.94613018  1
  O  O21  1  0.95721603  0.26065689  0.93396181  1
  O  O22  1  0.91599799  0.08740168  0.30172680  1
  O  O23  1  0.84999095  0.63813357  0.22938558  1
