# generated using pymatgen
data_Li8TiS6
_symmetry_space_group_name_H-M   'P 1'
_cell_length_a   14.70064643
_cell_length_b   7.10012997
_cell_length_c   10.26034229
_cell_angle_alpha   90.00000000
_cell_angle_beta   90.00000000
_cell_angle_gamma   90.00146884
_symmetry_Int_Tables_number   1
_chemical_formula_structural   Li8TiS6
_chemical_formula_sum   'Li32 Ti4 S24'
_cell_volume   1070.93861989
_cell_formula_units_Z   4
loop_
 _symmetry_equiv_pos_site_id
 _symmetry_equiv_pos_as_xyz
  1  'x, y, z'
loop_
 _atom_site_type_symbol
 _atom_site_label
 _atom_site_symmetry_multiplicity
 _atom_site_fract_x
 _atom_site_fract_y
 _atom_site_fract_z
 _atom_site_occupancy
  Li  Li0  1  0.01989162  0.51147010  0.78107729  1
  Li  Li1  1  0.05944539  0.27945078  0.52935606  1
  Li  Li2  1  0.06715806  0.89866321  0.19259737  1
  Li  Li3  1  0.07554740  0.93392363  0.83204711  1
  Li  Li4  1  0.11526375  0.33876602  0.00057226  1
  Li  Li5  1  0.21499142  0.54263613  0.82142618  1
  Li  Li6  1  0.23089224  0.58317117  0.18598443  1
  Li  Li7  1  0.24371204  0.93594208  0.00795324  1
  Li  Li8  1  0.25628962  0.43592995  0.50794829  1
  Li  Li9  1  0.26910616  0.08316624  0.68598005  1
  Li  Li10  1  0.28500620  0.04263820  0.32143007  1
  Li  Li11  1  0.38473465  0.83876125  0.50057051  1
  Li  Li12  1  0.42443990  0.43393216  0.33204449  1
  Li  Li13  1  0.43284108  0.39863796  0.69259923  1
  Li  Li14  1  0.44055936  0.77946129  0.02938011  1
  Li  Li15  1  0.48009713  0.01146031  0.28107867  1
  Li  Li16  1  0.51990287  0.98853969  0.78107867  1
  Li  Li17  1  0.55944064  0.22053871  0.52938011  1
  Li  Li18  1  0.56715892  0.60136204  0.19259923  1
  Li  Li19  1  0.57556010  0.56606784  0.83204449  1
  Li  Li20  1  0.61526535  0.16123875  0.00057051  1
  Li  Li21  1  0.71499380  0.95736180  0.82143007  1
  Li  Li22  1  0.73089384  0.91683376  0.18598005  1
  Li  Li23  1  0.74371038  0.56407005  0.00794829  1
  Li  Li24  1  0.75628796  0.06405792  0.50795324  1
  Li  Li25  1  0.76910776  0.41682883  0.68598443  1
  Li  Li26  1  0.78500858  0.45736387  0.32142618  1
  Li  Li27  1  0.88473625  0.66123398  0.50057226  1
  Li  Li28  1  0.92445260  0.06607637  0.33204711  1
  Li  Li29  1  0.93284194  0.10133679  0.69259737  1
  Li  Li30  1  0.94055461  0.72054922  0.02935606  1
  Li  Li31  1  0.98010838  0.48852990  0.28107729  1
  Ti  Ti32  1  0.12443465  0.77183175  0.51296393  1
  Ti  Ti33  1  0.37556809  0.27185359  0.01295592  1
  Ti  Ti34  1  0.62443191  0.72814641  0.51295592  1
  Ti  Ti35  1  0.87556535  0.22816825  0.01296393  1
  S  S36  1  0.00083126  0.78214754  0.64415020  1
  S  S37  1  0.12576224  0.51881415  0.37758764  1
  S  S38  1  0.11892592  0.70965786  0.00405435  1
  S  S39  1  0.12281941  0.25239262  0.75974685  1
  S  S40  1  0.12658792  0.03349865  0.39271627  1
  S  S41  1  0.25331242  0.73898825  0.63245264  1
  S  S42  1  0.24669617  0.23899810  0.13244936  1
  S  S43  1  0.37341915  0.53347774  0.89273259  1
  S  S44  1  0.37717355  0.75238272  0.25975248  1
  S  S45  1  0.38107349  0.20965587  0.50405485  1
  S  S46  1  0.37424916  0.01879933  0.87758503  1
  S  S47  1  0.49917011  0.28215231  0.14415153  1
  S  S48  1  0.50082989  0.71784769  0.64415153  1
  S  S49  1  0.62575084  0.98120067  0.37758503  1
  S  S50  1  0.61892651  0.79034413  0.00405485  1
  S  S51  1  0.62282645  0.24761728  0.75975248  1
  S  S52  1  0.62658085  0.46652226  0.39273259  1
  S  S53  1  0.75330383  0.76100190  0.63244936  1
  S  S54  1  0.74668758  0.26101175  0.13245264  1
  S  S55  1  0.87341208  0.96650135  0.89271627  1
  S  S56  1  0.87718059  0.74760738  0.25974685  1
  S  S57  1  0.88107408  0.29034214  0.50405435  1
  S  S58  1  0.87423776  0.48118585  0.87758764  1
  S  S59  1  0.99916874  0.21785246  0.14415020  1
