# generated using pymatgen
data_Li2VSi2O7
_symmetry_space_group_name_H-M   'P 1'
_cell_length_a   6.05584669
_cell_length_b   8.77190106
_cell_length_c   5.21629351
_cell_angle_alpha   90.19956496
_cell_angle_beta   95.13632353
_cell_angle_gamma   69.43011496
_symmetry_Int_Tables_number   1
_chemical_formula_structural   Li2VSi2O7
_chemical_formula_sum   'Li4 V2 Si4 O14'
_cell_volume   258.27176043
_cell_formula_units_Z   2
loop_
 _symmetry_equiv_pos_site_id
 _symmetry_equiv_pos_as_xyz
  1  'x, y, z'
loop_
 _atom_site_type_symbol
 _atom_site_label
 _atom_site_symmetry_multiplicity
 _atom_site_fract_x
 _atom_site_fract_y
 _atom_site_fract_z
 _atom_site_occupancy
  Li  Li0  1  0.07783791  0.85630744  0.71167491  1
  Li  Li1  1  0.34694673  0.48066701  0.75785622  1
  Li  Li2  1  0.65305327  0.51933299  0.24214378  1
  Li  Li3  1  0.92216209  0.14369256  0.28832509  1
  V  V4  1  0.30304971  0.27811186  0.23340622  1
  V  V5  1  0.69695029  0.72188814  0.76659378  1
  Si  Si6  1  0.06703678  0.65680561  0.30985516  1
  Si  Si7  1  0.66168907  0.12838499  0.79036141  1
  Si  Si8  1  0.33831093  0.87161501  0.20963859  1
  Si  Si9  1  0.93296322  0.34319439  0.69014484  1
  O  O10  1  0.98268071  0.35315672  0.38782066  1
  O  O11  1  0.14733930  0.34242997  0.90483583  1
  O  O12  1  0.26311067  0.06691531  0.21210883  1
  O  O13  1  0.09463394  0.84090992  0.29133400  1
  O  O14  1  0.31564850  0.51004299  0.25813813  1
  O  O15  1  0.45911307  0.22893451  0.56184090  1
  O  O16  1  0.61119567  0.20817247  0.07209276  1
  O  O17  1  0.38880433  0.79182753  0.92790724  1
  O  O18  1  0.54088693  0.77106549  0.43815910  1
  O  O19  1  0.68435150  0.48995701  0.74186187  1
  O  O20  1  0.90536606  0.15909008  0.70866600  1
  O  O21  1  0.73688933  0.93308469  0.78789117  1
  O  O22  1  0.85266070  0.65757003  0.09516417  1
  O  O23  1  0.01731929  0.64684328  0.61217934  1
