# generated using pymatgen
data_LiMn2F7
_symmetry_space_group_name_H-M   'P 1'
_cell_length_a   5.70450946
_cell_length_b   5.70450883
_cell_length_c   9.75628827
_cell_angle_alpha   82.03204156
_cell_angle_beta   97.96795974
_cell_angle_gamma   57.64771289
_symmetry_Int_Tables_number   1
_chemical_formula_structural   LiMn2F7
_chemical_formula_sum   'Li2 Mn4 F14'
_cell_volume   256.87675513
_cell_formula_units_Z   2
loop_
 _symmetry_equiv_pos_site_id
 _symmetry_equiv_pos_as_xyz
  1  'x, y, z'
loop_
 _atom_site_type_symbol
 _atom_site_label
 _atom_site_symmetry_multiplicity
 _atom_site_fract_x
 _atom_site_fract_y
 _atom_site_fract_z
 _atom_site_occupancy
  Li  Li0  1  0.92542153  0.06280299  0.83713728  1
  Li  Li1  1  0.93719701  0.07457847  0.33713728  1
  Mn  Mn2  1  0.24272058  0.35293014  0.42360862  1
  Mn  Mn3  1  0.31581096  0.25600687  0.06863940  1
  Mn  Mn4  1  0.64706986  0.75727942  0.92360862  1
  Mn  Mn5  1  0.74399313  0.68418904  0.56863940  1
  F  F6  1  0.20030442  0.47041897  0.59457540  1
  F  F7  1  0.18350356  0.25119141  0.24257090  1
  F  F8  1  0.99143741  0.72072124  0.00603049  1
  F  F9  1  0.46041427  0.21417862  0.90329109  1
  F  F10  1  0.31921531  0.80079645  0.83256761  1
  F  F11  1  0.19920355  0.68078469  0.33256761  1
  F  F12  1  0.27927876  0.00856259  0.50603049  1
  F  F13  1  0.70566611  0.02325908  0.46621282  1
  F  F14  1  0.75377276  0.38052616  0.66717738  1
  F  F15  1  0.61947384  0.24622724  0.16717738  1
  F  F16  1  0.52958103  0.79969558  0.09457540  1
  F  F17  1  0.97674092  0.29433389  0.96621282  1
  F  F18  1  0.74880859  0.81649644  0.74257090  1
  F  F19  1  0.78582138  0.53958573  0.40329109  1
