# generated using pymatgen
data_Li7Mn(O2F)2
_symmetry_space_group_name_H-M   'P 1'
_cell_length_a   5.50014658
_cell_length_b   5.72910798
_cell_length_c   5.51291594
_cell_angle_alpha   90.92472271
_cell_angle_beta   64.96576024
_cell_angle_gamma   63.24314910
_symmetry_Int_Tables_number   1
_chemical_formula_structural   Li7Mn(O2F)2
_chemical_formula_sum   'Li7 Mn1 O4 F2'
_cell_volume   135.88204974
_cell_formula_units_Z   1
loop_
 _symmetry_equiv_pos_site_id
 _symmetry_equiv_pos_as_xyz
  1  'x, y, z'
loop_
 _atom_site_type_symbol
 _atom_site_label
 _atom_site_symmetry_multiplicity
 _atom_site_fract_x
 _atom_site_fract_y
 _atom_site_fract_z
 _atom_site_occupancy
  Li  Li0  1  0.39149604  0.33671879  0.11679877  1
  Li  Li1  1  0.11549500  0.35366327  0.76080224  1
  Li  Li2  1  0.26094742  0.68112789  0.50884471  1
  Li  Li3  1  0.82915266  0.30929263  0.47216268  1
  Li  Li4  1  0.87960383  0.63758089  0.20385106  1
  Li  Li5  1  0.55810408  0.67230092  0.93993766  1
  Li  Li6  1  0.72766333  0.96398126  0.65245728  1
  Mn  Mn7  1  0.98278679  0.00690943  0.01043410  1
  O  O8  1  0.11899519  0.24077265  0.08738695  1
  O  O9  1  0.13161512  0.77054793  0.23255774  1
  O  O10  1  0.79875521  0.25045121  0.81536976  1
  O  O11  1  0.89553367  0.75184997  0.87495510  1
  F  F12  1  0.48900974  0.28004285  0.43327687  1
  F  F13  1  0.55729391  0.72293130  0.57803608  1
