# generated using pymatgen
data_LiNi2OF3
_symmetry_space_group_name_H-M   'P 1'
_cell_length_a   7.98563424
_cell_length_b   7.98563424
_cell_length_c   5.87439921
_cell_angle_alpha   68.41935953
_cell_angle_beta   111.58064047
_cell_angle_gamma   115.40383600
_symmetry_Int_Tables_number   1
_chemical_formula_structural   LiNi2OF3
_chemical_formula_sum   'Li4 Ni8 O4 F12'
_cell_volume   304.67462397
_cell_formula_units_Z   4
loop_
 _symmetry_equiv_pos_site_id
 _symmetry_equiv_pos_as_xyz
  1  'x, y, z'
loop_
 _atom_site_type_symbol
 _atom_site_label
 _atom_site_symmetry_multiplicity
 _atom_site_fract_x
 _atom_site_fract_y
 _atom_site_fract_z
 _atom_site_occupancy
  Li  Li0  1  0.76083769  0.53130461  0.11476654  1
  Li  Li1  1  0.03130461  0.26083769  0.38523346  1
  Li  Li2  1  0.98391153  0.74231161  0.62080046  1
  Li  Li3  1  0.24231161  0.48391153  0.87919954  1
  Ni  Ni4  1  0.98596690  0.98841701  0.99877495  1
  Ni  Ni5  1  0.38099693  0.11714030  0.38962340  1
  Ni  Ni6  1  0.61714030  0.88099693  0.11037660  1
  Ni  Ni7  1  0.23383088  0.73383088  0.25000000  1
  Ni  Ni8  1  0.48841701  0.48596690  0.50122505  1
  Ni  Ni9  1  0.76928869  0.26928869  0.75000000  1
  Ni  Ni10  1  0.38099693  0.11714030  0.87423322  1
  Ni  Ni11  1  0.61714030  0.88099693  0.62576678  1
  O  O12  1  0.74197290  0.78384865  0.97906212  1
  O  O13  1  0.28384865  0.24197290  0.52093788  1
  O  O14  1  0.53446116  0.03446116  0.75000000  1
  O  O15  1  0.46896082  0.96896082  0.25000000  1
  F  F16  1  0.87917516  0.12904185  0.11641352  1
  F  F17  1  0.00551992  0.50551992  0.25000000  1
  F  F18  1  0.62904185  0.37917516  0.38358648  1
  F  F19  1  0.37428036  0.62201295  0.13702347  1
  F  F20  1  0.87917516  0.12904185  0.63371979  1
  F  F21  1  0.72047950  0.74464651  0.48791699  1
  F  F22  1  0.12201295  0.87428036  0.36297653  1
  F  F23  1  0.37428036  0.62201295  0.61524494  1
  F  F24  1  0.62904185  0.37917516  0.86628021  1
  F  F25  1  0.99895053  0.49895053  0.75000000  1
  F  F26  1  0.24464651  0.22047950  0.01208301  1
  F  F27  1  0.12201295  0.87428036  0.88475506  1
