# generated using pymatgen
data_LiVSiO4
_symmetry_space_group_name_H-M   'P 1'
_cell_length_a   8.52533993
_cell_length_b   5.26134548
_cell_length_c   8.61408037
_cell_angle_alpha   90.00000000
_cell_angle_beta   108.51049583
_cell_angle_gamma   90.00000000
_symmetry_Int_Tables_number   1
_chemical_formula_structural   LiVSiO4
_chemical_formula_sum   'Li4 V4 Si4 O16'
_cell_volume   366.39319628
_cell_formula_units_Z   4
loop_
 _symmetry_equiv_pos_site_id
 _symmetry_equiv_pos_as_xyz
  1  'x, y, z'
loop_
 _atom_site_type_symbol
 _atom_site_label
 _atom_site_symmetry_multiplicity
 _atom_site_fract_x
 _atom_site_fract_y
 _atom_site_fract_z
 _atom_site_occupancy
  Li  Li0  1  0.09330332  0.83063287  0.97796690  1
  Li  Li1  1  0.26559435  0.31812883  0.50087746  1
  Li  Li2  1  0.59330332  0.16936713  0.97796690  1
  Li  Li3  1  0.76559435  0.68187117  0.50087746  1
  V  V4  1  0.00595472  0.67454571  0.25745896  1
  V  V5  1  0.33277064  0.82279712  0.73815918  1
  V  V6  1  0.50595472  0.32545429  0.25745896  1
  V  V7  1  0.83277064  0.17720288  0.73815918  1
  Si  Si8  1  0.22261686  0.31947239  0.86635533  1
  Si  Si9  1  0.37077417  0.82007360  0.36847773  1
  Si  Si10  1  0.72261686  0.68052761  0.86635533  1
  Si  Si11  1  0.87077417  0.17992640  0.36847773  1
  O  O12  1  0.05592458  0.18174618  0.88431391  1
  O  O13  1  0.03027944  0.33313682  0.34581843  1
  O  O14  1  0.18990035  0.62556696  0.82793740  1
  O  O15  1  0.26859926  0.18056064  0.71323403  1
  O  O16  1  0.20656346  0.77033312  0.20899811  1
  O  O17  1  0.31576432  0.69974074  0.52144942  1
  O  O18  1  0.55592458  0.81825382  0.88431391  1
  O  O19  1  0.41511667  0.12393243  0.39832466  1
  O  O20  1  0.38063786  0.26839831  0.02942848  1
  O  O21  1  0.53027944  0.66686318  0.34581843  1
  O  O22  1  0.68990035  0.37443304  0.82793740  1
  O  O23  1  0.76859926  0.81943936  0.71323403  1
  O  O24  1  0.70656346  0.22966688  0.20899811  1
  O  O25  1  0.81576432  0.30025926  0.52144942  1
  O  O26  1  0.91511667  0.87606757  0.39832466  1
  O  O27  1  0.88063786  0.73160169  0.02942848  1
