# generated using pymatgen
data_Li2Mn(CO3)2
_symmetry_space_group_name_H-M   'P 1'
_cell_length_a   5.23552341
_cell_length_b   6.76775794
_cell_length_c   7.80311909
_cell_angle_alpha   90.00041448
_cell_angle_beta   89.99976171
_cell_angle_gamma   110.63811155
_symmetry_Int_Tables_number   1
_chemical_formula_structural   Li2Mn(CO3)2
_chemical_formula_sum   'Li4 Mn2 C4 O12'
_cell_volume   258.74259942
_cell_formula_units_Z   2
loop_
 _symmetry_equiv_pos_site_id
 _symmetry_equiv_pos_as_xyz
  1  'x, y, z'
loop_
 _atom_site_type_symbol
 _atom_site_label
 _atom_site_symmetry_multiplicity
 _atom_site_fract_x
 _atom_site_fract_y
 _atom_site_fract_z
 _atom_site_occupancy
  Li  Li0  1  0.85687533  0.25361709  0.58326173  1
  Li  Li1  1  0.64313207  0.24638668  0.08326789  1
  Li  Li2  1  0.35687139  0.75361550  0.91674002  1
  Li  Li3  1  0.14312453  0.74638369  0.41674360  1
  Mn  Mn4  1  0.99999073  0.99999382  0.99999455  1
  Mn  Mn5  1  0.49998502  0.49999305  0.49999980  1
  C  C6  1  0.30999208  0.13546139  0.73024670  1
  C  C7  1  0.19001454  0.36454059  0.23024187  1
  C  C8  1  0.80998707  0.63545972  0.76975533  1
  C  C9  1  0.69001071  0.86453945  0.26975650  1
  O  O10  1  0.41004261  0.08289516  0.87010274  1
  O  O11  1  0.45739285  0.19228260  0.59428619  1
  O  O12  1  0.05717381  0.12558483  0.73339707  1
  O  O13  1  0.44283811  0.37441976  0.23339556  1
  O  O14  1  0.04262586  0.30772710  0.09428329  1
  O  O15  1  0.91003081  0.58289663  0.62989375  1
  O  O16  1  0.08996416  0.41710294  0.37010347  1
  O  O17  1  0.95738228  0.69227500  0.90571243  1
  O  O18  1  0.55716408  0.62558166  0.76660603  1
  O  O19  1  0.94283136  0.87441739  0.26660736  1
  O  O20  1  0.54260903  0.80772132  0.40571363  1
  O  O21  1  0.58996757  0.91710761  0.12989549  1
