# generated using pymatgen
data_LiVSi3O8
_symmetry_space_group_name_H-M   'P 1'
_cell_length_a   7.69760150
_cell_length_b   7.39239423
_cell_length_c   7.23275413
_cell_angle_alpha   81.82692974
_cell_angle_beta   108.77100013
_cell_angle_gamma   63.80440933
_symmetry_Int_Tables_number   1
_chemical_formula_structural   LiVSi3O8
_chemical_formula_sum   'Li2 V2 Si6 O16'
_cell_volume   329.51050667
_cell_formula_units_Z   2
loop_
 _symmetry_equiv_pos_site_id
 _symmetry_equiv_pos_as_xyz
  1  'x, y, z'
loop_
 _atom_site_type_symbol
 _atom_site_label
 _atom_site_symmetry_multiplicity
 _atom_site_fract_x
 _atom_site_fract_y
 _atom_site_fract_z
 _atom_site_occupancy
  Li  Li0  1  0.24867919  0.72683197  0.14462672  1
  Li  Li1  1  0.75132081  0.27316803  0.85537328  1
  V  V2  1  0.83565688  0.84803509  0.80557784  1
  V  V3  1  0.16434312  0.15196491  0.19442216  1
  Si  Si4  1  0.22209935  0.56623839  0.71544982  1
  Si  Si5  1  0.45648849  0.77074767  0.62709953  1
  Si  Si6  1  0.17530189  0.17346139  0.74207528  1
  Si  Si7  1  0.82469811  0.82653861  0.25792472  1
  Si  Si8  1  0.54351151  0.22925233  0.37290047  1
  Si  Si9  1  0.77790065  0.43376161  0.28455018  1
  O  O10  1  0.13716780  0.69072887  0.86389939  1
  O  O11  1  0.34905692  0.95896651  0.72072975  1
  O  O12  1  0.03922662  0.69203940  0.47722658  1
  O  O13  1  0.32624479  0.85855931  0.37473450  1
  O  O14  1  0.10953839  0.11589211  0.92401883  1
  O  O15  1  0.44189451  0.56143780  0.72318632  1
  O  O16  1  0.28668129  0.31717194  0.79058258  1
  O  O17  1  0.70991211  0.68807044  0.71078826  1
  O  O18  1  0.29008789  0.31192956  0.28921174  1
  O  O19  1  0.71331871  0.68282806  0.20941742  1
  O  O20  1  0.55810549  0.43856220  0.27681368  1
  O  O21  1  0.89046161  0.88410789  0.07598117  1
  O  O22  1  0.67375521  0.14144069  0.62526550  1
  O  O23  1  0.96077338  0.30796060  0.52277342  1
  O  O24  1  0.65094308  0.04103349  0.27927025  1
  O  O25  1  0.86283220  0.30927113  0.13610061  1
