# generated using pymatgen
data_Mn5OF11
_symmetry_space_group_name_H-M   'P 1'
_cell_length_a   5.53843634
_cell_length_b   5.79992508
_cell_length_c   9.33213737
_cell_angle_alpha   107.43100994
_cell_angle_beta   90.25807483
_cell_angle_gamma   64.58771614
_symmetry_Int_Tables_number   1
_chemical_formula_structural   Mn5OF11
_chemical_formula_sum   'Mn5 O1 F11'
_cell_volume   255.64249450
_cell_formula_units_Z   1
loop_
 _symmetry_equiv_pos_site_id
 _symmetry_equiv_pos_as_xyz
  1  'x, y, z'
loop_
 _atom_site_type_symbol
 _atom_site_label
 _atom_site_symmetry_multiplicity
 _atom_site_fract_x
 _atom_site_fract_y
 _atom_site_fract_z
 _atom_site_occupancy
  Mn  Mn0  1  0.99537317  0.98579291  0.32996283  1
  Mn  Mn1  1  0.47472811  0.05422653  0.16146048  1
  Mn  Mn2  1  0.76659886  0.43526289  0.07141741  1
  Mn  Mn3  1  0.00598435  0.98002376  0.66487875  1
  Mn  Mn4  1  0.50578285  0.01310693  0.84078325  1
  O  O5  1  0.54191092  0.22189318  0.03330413  1
  F  F6  1  0.04975207  0.21868695  0.19463712  1
  F  F7  1  0.02986239  0.19397888  0.55596275  1
  F  F8  1  0.05481157  0.21450327  0.86894378  1
  F  F9  1  0.58771378  0.22247106  0.74189544  1
  F  F10  1  0.57641785  0.24386991  0.33318257  1
  F  F11  1  0.42515462  0.80888176  0.66569067  1
  F  F12  1  0.49231427  0.78442738  0.96377098  1
  F  F13  1  0.42854442  0.80203041  0.24883531  1
  F  F14  1  0.89877086  0.73963620  0.14112605  1
  F  F15  1  0.98994795  0.75845246  0.46984046  1
  F  F16  1  0.94009596  0.77781854  0.76804402  1
