# generated using pymatgen
data_Li3V4(PO4)6
_symmetry_space_group_name_H-M   'P 1'
_cell_length_a   8.46987342
_cell_length_b   8.73883119
_cell_length_c   6.41112777
_cell_angle_alpha   72.85065477
_cell_angle_beta   105.96505387
_cell_angle_gamma   88.17229762
_symmetry_Int_Tables_number   1
_chemical_formula_structural   Li3V4(PO4)6
_chemical_formula_sum   'Li3 V4 P6 O24'
_cell_volume   432.63394080
_cell_formula_units_Z   1
loop_
 _symmetry_equiv_pos_site_id
 _symmetry_equiv_pos_as_xyz
  1  'x, y, z'
loop_
 _atom_site_type_symbol
 _atom_site_label
 _atom_site_symmetry_multiplicity
 _atom_site_fract_x
 _atom_site_fract_y
 _atom_site_fract_z
 _atom_site_occupancy
  Li  Li0  1  0.28296056  0.30023823  0.25038664  1
  Li  Li1  1  0.50000000  0.50000000  0.00000000  1
  Li  Li2  1  0.71703944  0.69976177  0.74961336  1
  V  V3  1  0.05521037  0.62135320  0.63092705  1
  V  V4  1  0.36926129  0.93985202  0.13235082  1
  V  V5  1  0.63073871  0.06014798  0.86764918  1
  V  V6  1  0.94478963  0.37864680  0.36907295  1
  P  P7  1  0.29163757  0.28473960  0.75131372  1
  P  P8  1  0.14063839  0.64952304  0.12134899  1
  P  P9  1  0.35304544  0.85033241  0.64608006  1
  P  P10  1  0.64695456  0.14966759  0.35391994  1
  P  P11  1  0.85936161  0.35047696  0.87865101  1
  P  P12  1  0.70836243  0.71526040  0.24868628  1
  O  O13  1  0.00336770  0.66264549  0.89654557  1
  O  O14  1  0.05214378  0.59227810  0.31781469  1
  O  O15  1  0.26718076  0.15876041  0.96957483  1
  O  O16  1  0.17354528  0.26780846  0.52918739  1
  O  O17  1  0.17611515  0.80074079  0.62177699  1
  O  O18  1  0.26685027  0.45469786  0.76813102  1
  O  O19  1  0.18566365  0.82268965  0.11575085  1
  O  O20  1  0.29052787  0.53391172  0.16979509  1
  O  O21  1  0.39588735  0.95323171  0.81806222  1
  O  O22  1  0.34914872  0.96970076  0.40923045  1
  O  O23  1  0.47259233  0.24691257  0.74654984  1
  O  O24  1  0.48211744  0.70610097  0.73431934  1
  O  O25  1  0.51788256  0.29389903  0.26568066  1
  O  O26  1  0.52740767  0.75308743  0.25345016  1
  O  O27  1  0.65085128  0.03029924  0.59076955  1
  O  O28  1  0.60411265  0.04676829  0.18193778  1
  O  O29  1  0.70947213  0.46608828  0.83020491  1
  O  O30  1  0.81433635  0.17731035  0.88424915  1
  O  O31  1  0.73314973  0.54530214  0.23186898  1
  O  O32  1  0.82388485  0.19925921  0.37822301  1
  O  O33  1  0.82645472  0.73219154  0.47081261  1
  O  O34  1  0.73281924  0.84123959  0.03042517  1
  O  O35  1  0.94785622  0.40772190  0.68218531  1
  O  O36  1  0.99663230  0.33735451  0.10345443  1
