# generated using pymatgen
data_Li4Ti9O20
_symmetry_space_group_name_H-M   'P 1'
_cell_length_a   5.98273329
_cell_length_b   5.97384207
_cell_length_c   24.67792118
_cell_angle_alpha   89.96231080
_cell_angle_beta   97.00635845
_cell_angle_gamma   120.02201191
_symmetry_Int_Tables_number   1
_chemical_formula_structural   Li4Ti9O20
_chemical_formula_sum   'Li8 Ti18 O40'
_cell_volume   756.07807337
_cell_formula_units_Z   2
loop_
 _symmetry_equiv_pos_site_id
 _symmetry_equiv_pos_as_xyz
  1  'x, y, z'
loop_
 _atom_site_type_symbol
 _atom_site_label
 _atom_site_symmetry_multiplicity
 _atom_site_fract_x
 _atom_site_fract_y
 _atom_site_fract_z
 _atom_site_occupancy
  Li  Li0  1  0.99915632  0.99834095  0.99915026  1
  Li  Li1  1  0.50303542  0.75154355  0.25118124  1
  Li  Li2  1  0.59725014  0.79564200  0.39866752  1
  Li  Li3  1  0.30228685  0.15137584  0.45386271  1
  Li  Li4  1  0.95165266  0.48122757  0.42547987  1
  Li  Li5  1  0.19928162  0.59586738  0.80222934  1
  Li  Li6  1  0.45576637  0.97514961  0.92441075  1
  Li  Li7  1  0.90539332  0.95769037  0.85028851  1
  Ti  Ti8  1  0.24132944  0.85804583  0.12655541  1
  Ti  Ti9  1  0.35999740  0.69903529  0.01918909  1
  Ti  Ti10  1  0.03953410  0.76257990  0.32463020  1
  Ti  Ti11  1  0.26218656  0.37641510  0.12118130  1
  Ti  Ti12  1  0.75043766  0.88261921  0.12505655  1
  Ti  Ti13  1  0.04930017  0.27994571  0.32742838  1
  Ti  Ti14  1  0.15737233  0.08801612  0.22358146  1
  Ti  Ti15  1  0.55535540  0.27312513  0.32799906  1
  Ti  Ti16  1  0.33824687  0.66917071  0.52308080  1
  Ti  Ti17  1  0.74170127  0.86851175  0.62042799  1
  Ti  Ti18  1  0.85426130  0.66742150  0.52448431  1
  Ti  Ti19  1  0.63747205  0.57077777  0.72642788  1
  Ti  Ti20  1  0.14568232  0.06191302  0.72201999  1
  Ti  Ti21  1  0.84805021  0.17516008  0.52188601  1
  Ti  Ti22  1  0.54294170  0.25410512  0.82870856  1
  Ti  Ti23  1  0.66166874  0.08526620  0.72199873  1
  Ti  Ti24  1  0.45722208  0.46755679  0.92647083  1
  Ti  Ti25  1  0.95729889  0.48254057  0.92290708  1
  O  O26  1  0.53444878  0.98352530  0.08049967  1
  O  O27  1  0.09555359  0.54574563  0.08214510  1
  O  O28  1  0.44827269  0.72316326  0.16888445  1
  O  O29  1  0.53811543  0.54563407  0.08166797  1
  O  O30  1  0.33298801  0.94777174  0.27754420  1
  O  O31  1  0.05659909  0.02601512  0.08291449  1
  O  O32  1  0.40541152  0.20252242  0.17247294  1
  O  O33  1  0.97306310  0.76685498  0.17225400  1
  O  O34  1  0.22237947  0.61087833  0.36634954  1
  O  O35  1  0.33186741  0.38796353  0.27726118  1
  O  O36  1  0.89204978  0.94597447  0.27754956  1
  O  O37  1  0.14367627  0.80543969  0.48300384  1
  O  O38  1  0.14213494  0.33723550  0.48245077  1
  O  O39  1  0.04111810  0.52021432  0.56504498  1
  O  O40  1  0.24632612  0.12547851  0.36809898  1
  O  O41  1  0.85504409  0.42707231  0.28442446  1
  O  O42  1  0.75484830  0.61102125  0.36662784  1
  O  O43  1  0.96778075  0.19898527  0.17223417  1
  O  O44  1  0.65116607  0.82694774  0.48090901  1
  O  O45  1  0.36577389  0.95977971  0.77214306  1
  O  O46  1  0.56852560  0.56772257  0.57228604  1
  O  O47  1  0.99945205  0.99979430  0.57204787  1
  O  O48  1  0.75519236  0.14321570  0.36706352  1
  O  O49  1  0.49878846  0.75175776  0.67963648  1
  O  O50  1  0.67631410  0.33973330  0.48248496  1
  O  O51  1  0.93521021  0.75140775  0.67949059  1
  O  O52  1  0.84862435  0.92683574  0.76798055  1
  O  O53  1  0.36687623  0.41177789  0.77042043  1
  O  O54  1  0.57018844  0.00059951  0.57218494  1
  O  O55  1  0.45786098  0.22836192  0.68465030  1
  O  O56  1  0.15578566  0.79533896  0.97608927  1
  O  O57  1  0.24255916  0.60740374  0.88360090  1
  O  O58  1  0.81525444  0.41034460  0.76996109  1
  O  O59  1  0.61712834  0.79489930  0.97613088  1
  O  O60  1  0.17018511  0.36233304  0.97433993  1
  O  O61  1  0.73791726  0.59593234  0.87502348  1
  O  O62  1  0.28712700  0.15999695  0.87327788  1
  O  O63  1  0.93557745  0.18850803  0.67956157  1
  O  O64  1  0.65393710  0.34498561  0.96265566  1
  O  O65  1  0.74970912  0.16058074  0.87307962  1
