# generated using pymatgen
data_Li12V3FeP4(CO7)4
_symmetry_space_group_name_H-M   'P 1'
_cell_length_a   8.48456478
_cell_length_b   10.01196121
_cell_length_c   6.59927160
_cell_angle_alpha   90.00000000
_cell_angle_beta   90.00000000
_cell_angle_gamma   84.88296302
_symmetry_Int_Tables_number   1
_chemical_formula_structural   Li12V3FeP4(CO7)4
_chemical_formula_sum   'Li12 V3 Fe1 P4 C4 O28'
_cell_volume   558.35502632
_cell_formula_units_Z   1
loop_
 _symmetry_equiv_pos_site_id
 _symmetry_equiv_pos_as_xyz
  1  'x, y, z'
loop_
 _atom_site_type_symbol
 _atom_site_label
 _atom_site_symmetry_multiplicity
 _atom_site_fract_x
 _atom_site_fract_y
 _atom_site_fract_z
 _atom_site_occupancy
  Li  Li0  1  0.09414609  0.38077949  0.25000000  1
  Li  Li1  1  0.09304294  0.88054296  0.25000000  1
  Li  Li2  1  0.27710191  0.12351848  0.02808055  1
  Li  Li3  1  0.27710191  0.12351848  0.47191945  1
  Li  Li4  1  0.27618998  0.62325625  0.02881362  1
  Li  Li5  1  0.27618998  0.62325625  0.47118638  1
  Li  Li6  1  0.72340852  0.37634168  0.52501808  1
  Li  Li7  1  0.72340852  0.37634168  0.97498192  1
  Li  Li8  1  0.72369740  0.87665068  0.52654952  1
  Li  Li9  1  0.72369740  0.87665068  0.97345048  1
  Li  Li10  1  0.90649489  0.11895516  0.75000000  1
  Li  Li11  1  0.90819943  0.61932575  0.75000000  1
  V  V12  1  0.32998408  0.39628084  0.75000000  1
  V  V13  1  0.32988800  0.89669744  0.75000000  1
  V  V14  1  0.66987604  0.10363000  0.25000000  1
  Fe  Fe15  1  0.66543148  0.60526847  0.25000000  1
  P  P16  1  0.41132163  0.35970651  0.25000000  1
  P  P17  1  0.41100879  0.86001500  0.25000000  1
  P  P18  1  0.58920383  0.14033820  0.75000000  1
  P  P19  1  0.58892884  0.64041074  0.75000000  1
  C  C20  1  0.03419823  0.35006546  0.75000000  1
  C  C21  1  0.03438321  0.84998767  0.75000000  1
  C  C22  1  0.96565224  0.14986893  0.25000000  1
  C  C23  1  0.96548996  0.64900757  0.25000000  1
  O  O24  1  0.07422980  0.47247836  0.75000000  1
  O  O25  1  0.11206104  0.17699282  0.25000000  1
  O  O26  1  0.07409121  0.97255180  0.75000000  1
  O  O27  1  0.14761412  0.25307254  0.75000000  1
  O  O28  1  0.11211962  0.67816936  0.25000000  1
  O  O29  1  0.14785123  0.75314551  0.75000000  1
  O  O30  1  0.30846291  0.41347152  0.06698502  1
  O  O31  1  0.30846291  0.41347152  0.43301498  1
  O  O32  1  0.30826505  0.91345842  0.06687998  1
  O  O33  1  0.30826505  0.91345842  0.43312002  1
  O  O34  1  0.42168194  0.09065957  0.75000000  1
  O  O35  1  0.42881168  0.20275942  0.25000000  1
  O  O36  1  0.42177038  0.59027048  0.75000000  1
  O  O37  1  0.42925995  0.70332000  0.25000000  1
  O  O38  1  0.57076234  0.29691858  0.75000000  1
  O  O39  1  0.57872732  0.40869077  0.25000000  1
  O  O40  1  0.57096309  0.79708443  0.75000000  1
  O  O41  1  0.57817062  0.91003164  0.25000000  1
  O  O42  1  0.69195579  0.08649517  0.93290748  1
  O  O43  1  0.69195579  0.08649517  0.56709252  1
  O  O44  1  0.69049837  0.58736497  0.56466936  1
  O  O45  1  0.69049837  0.58736497  0.93533064  1
  O  O46  1  0.85235752  0.24665409  0.25000000  1
  O  O47  1  0.88788646  0.32306255  0.75000000  1
  O  O48  1  0.85200363  0.74578526  0.25000000  1
  O  O49  1  0.92595518  0.02730375  0.25000000  1
  O  O50  1  0.88815537  0.82278604  0.75000000  1
  O  O51  1  0.92911498  0.52626852  0.25000000  1
