# generated using pymatgen
data_Li4Ti2Fe3Ni3O16
_symmetry_space_group_name_H-M   'P 1'
_cell_length_a   5.86710253
_cell_length_b   5.80840304
_cell_length_c   9.51135933
_cell_angle_alpha   89.99411066
_cell_angle_beta   90.92866920
_cell_angle_gamma   119.60632361
_symmetry_Int_Tables_number   1
_chemical_formula_structural   Li4Ti2Fe3Ni3O16
_chemical_formula_sum   'Li4 Ti2 Fe3 Ni3 O16'
_cell_volume   281.76550877
_cell_formula_units_Z   1
loop_
 _symmetry_equiv_pos_site_id
 _symmetry_equiv_pos_as_xyz
  1  'x, y, z'
loop_
 _atom_site_type_symbol
 _atom_site_label
 _atom_site_symmetry_multiplicity
 _atom_site_fract_x
 _atom_site_fract_y
 _atom_site_fract_z
 _atom_site_occupancy
  Li  Li0  1  0.32303782  0.66164089  0.89341981  1
  Li  Li1  1  0.99245538  0.99681122  0.99302271  1
  Li  Li2  1  0.99462853  0.99786255  0.49599344  1
  Li  Li3  1  0.67446546  0.33607495  0.39973287  1
  Ti  Ti4  1  0.33759551  0.66862313  0.49551352  1
  Ti  Ti5  1  0.65826611  0.33015903  0.99646363  1
  Fe  Fe6  1  0.17253526  0.83144984  0.21671326  1
  Fe  Fe7  1  0.17141763  0.34090413  0.21648373  1
  Fe  Fe8  1  0.34135821  0.17101405  0.71676170  1
  Ni  Ni9  1  0.65871587  0.82873858  0.21219980  1
  Ni  Ni10  1  0.82738498  0.66021873  0.71320471  1
  Ni  Ni11  1  0.82743159  0.16745426  0.71314193  1
  O  O12  1  0.18694417  0.84752023  0.59325220  1
  O  O13  1  0.04141229  0.52141727  0.34570989  1
  O  O14  1  0.34130109  0.67067972  0.10634050  1
  O  O15  1  0.98687593  0.99338410  0.30552753  1
  O  O16  1  0.99026456  0.99488853  0.80377075  1
  O  O17  1  0.18642049  0.33888734  0.59413103  1
  O  O18  1  0.48903706  0.96234995  0.34432562  1
  O  O19  1  0.48438479  0.51948739  0.34466449  1
  O  O20  1  0.33461553  0.16665869  0.09640088  1
  O  O21  1  0.67589001  0.83727668  0.59791090  1
  O  O22  1  0.50391821  0.46985982  0.84309156  1
  O  O23  1  0.50384251  0.03466520  0.84259905  1
  O  O24  1  0.67697541  0.33848422  0.61058449  1
  O  O25  1  0.83197164  0.66580536  0.09109009  1
  O  O26  1  0.95144407  0.47622436  0.83571341  1
  O  O27  1  0.83541090  0.17175779  0.09007747  1
