# generated using pymatgen
data_Li6MnVP2(CO7)2
_symmetry_space_group_name_H-M   'P 1'
_cell_length_a   8.53347037
_cell_length_b   5.01147242
_cell_length_c   6.63481438
_cell_angle_alpha   90.00000000
_cell_angle_beta   90.00000000
_cell_angle_gamma   85.15958923
_symmetry_Int_Tables_number   1
_chemical_formula_structural   Li6MnVP2(CO7)2
_chemical_formula_sum   'Li6 Mn1 V1 P2 C2 O14'
_cell_volume   282.72757450
_cell_formula_units_Z   1
loop_
 _symmetry_equiv_pos_site_id
 _symmetry_equiv_pos_as_xyz
  1  'x, y, z'
loop_
 _atom_site_type_symbol
 _atom_site_label
 _atom_site_symmetry_multiplicity
 _atom_site_fract_x
 _atom_site_fract_y
 _atom_site_fract_z
 _atom_site_occupancy
  Li  Li0  1  0.09483211  0.76101999  0.25000000  1
  Li  Li1  1  0.27551712  0.24806677  0.02691250  1
  Li  Li2  1  0.27551712  0.24806677  0.47308750  1
  Li  Li3  1  0.72389761  0.75346522  0.52630416  1
  Li  Li4  1  0.72389761  0.75346522  0.97369584  1
  Li  Li5  1  0.90563154  0.23523020  0.75000000  1
  Mn  Mn6  1  0.66028193  0.22106082  0.25000000  1
  V  V7  1  0.33038728  0.79214354  0.75000000  1
  P  P8  1  0.41001310  0.72138567  0.25000000  1
  P  P9  1  0.58895875  0.27932605  0.75000000  1
  C  C10  1  0.03593937  0.69941719  0.75000000  1
  C  C11  1  0.96677430  0.29683544  0.25000000  1
  O  O12  1  0.07557557  0.94412567  0.75000000  1
  O  O13  1  0.11247215  0.35623137  0.25000000  1
  O  O14  1  0.14812752  0.50616801  0.75000000  1
  O  O15  1  0.31012890  0.82877398  0.06733682  1
  O  O16  1  0.31012890  0.82877398  0.43266318  1
  O  O17  1  0.42238993  0.17909315  0.75000000  1
  O  O18  1  0.42413925  0.40764872  0.25000000  1
  O  O19  1  0.57016070  0.59248224  0.75000000  1
  O  O20  1  0.57964834  0.81218810  0.25000000  1
  O  O21  1  0.69039178  0.17414977  0.93316007  1
  O  O22  1  0.69039178  0.17414977  0.56683993  1
  O  O23  1  0.85439686  0.49028607  0.25000000  1
  O  O24  1  0.88980171  0.64500482  0.75000000  1
  O  O25  1  0.93059779  0.05144045  0.25000000  1
