# generated using pymatgen
data_Mn2O3F
_symmetry_space_group_name_H-M   'P 1'
_cell_length_a   5.78228866
_cell_length_b   6.37038341
_cell_length_c   8.25490326
_cell_angle_alpha   90.00000000
_cell_angle_beta   90.00000000
_cell_angle_gamma   89.96377012
_symmetry_Int_Tables_number   1
_chemical_formula_structural   Mn2O3F
_chemical_formula_sum   'Mn8 O12 F4'
_cell_volume   304.07256765
_cell_formula_units_Z   4
loop_
 _symmetry_equiv_pos_site_id
 _symmetry_equiv_pos_as_xyz
  1  'x, y, z'
loop_
 _atom_site_type_symbol
 _atom_site_label
 _atom_site_symmetry_multiplicity
 _atom_site_fract_x
 _atom_site_fract_y
 _atom_site_fract_z
 _atom_site_occupancy
  Mn  Mn0  1  0.00000000  0.25000000  0.37500000  1
  Mn  Mn1  1  0.00000000  0.75000000  0.37500000  1
  Mn  Mn2  1  0.21902106  0.99998701  0.62290798  1
  Mn  Mn3  1  0.28097894  0.50001299  0.12290798  1
  Mn  Mn4  1  0.50000000  0.25000000  0.87500000  1
  Mn  Mn5  1  0.50000000  0.75000000  0.87500000  1
  Mn  Mn6  1  0.71902106  0.99998701  0.62709202  1
  Mn  Mn7  1  0.78097894  0.50001299  0.12709202  1
  O  O8  1  0.02893188  0.29816184  0.14144967  1
  O  O9  1  0.02867622  0.70186743  0.14143713  1
  O  O10  1  0.19776676  0.99990370  0.39167900  1
  O  O11  1  0.30223324  0.50009630  0.89167900  1
  O  O12  1  0.47106812  0.20183816  0.64144967  1
  O  O13  1  0.47132378  0.79813257  0.64143713  1
  O  O14  1  0.52893188  0.29816184  0.10855033  1
  O  O15  1  0.52867622  0.70186743  0.10856287  1
  O  O16  1  0.69776676  0.99990370  0.85832100  1
  O  O17  1  0.80223324  0.50009630  0.35832100  1
  O  O18  1  0.97106812  0.20183816  0.60855033  1
  O  O19  1  0.97132378  0.79813257  0.60856287  1
  F  F20  1  0.21899707  0.00015020  0.85878452  1
  F  F21  1  0.28100293  0.49984980  0.35878452  1
  F  F22  1  0.71899707  0.00015020  0.39121548  1
  F  F23  1  0.78100293  0.49984980  0.89121548  1
