# generated using pymatgen
data_Li8MnO5F
_symmetry_space_group_name_H-M   'P 1'
_cell_length_a   5.58159972
_cell_length_b   5.52799166
_cell_length_c   10.99768416
_cell_angle_alpha   90.40901976
_cell_angle_beta   89.54115082
_cell_angle_gamma   118.14428549
_symmetry_Int_Tables_number   1
_chemical_formula_structural   Li8MnO5F
_chemical_formula_sum   'Li16 Mn2 O10 F2'
_cell_volume   299.20019669
_cell_formula_units_Z   2
loop_
 _symmetry_equiv_pos_site_id
 _symmetry_equiv_pos_as_xyz
  1  'x, y, z'
loop_
 _atom_site_type_symbol
 _atom_site_label
 _atom_site_symmetry_multiplicity
 _atom_site_fract_x
 _atom_site_fract_y
 _atom_site_fract_z
 _atom_site_occupancy
  Li  Li0  1  0.97343656  0.68455918  0.77159185  1
  Li  Li1  1  0.01900989  0.64066160  0.12356622  1
  Li  Li2  1  0.97925438  0.35549894  0.62158629  1
  Li  Li3  1  0.02509414  0.31161361  0.27136894  1
  Li  Li4  1  0.32750763  0.66263162  0.41226029  1
  Li  Li5  1  0.33427519  0.67121047  0.92346006  1
  Li  Li6  1  0.31188571  0.29060168  0.77316855  1
  Li  Li7  1  0.36836842  0.38697080  0.12200433  1
  Li  Li8  1  0.63110128  0.61426522  0.62281476  1
  Li  Li9  1  0.29075880  0.98148221  0.27216918  1
  Li  Li10  1  0.68676817  0.71195326  0.27352122  1
  Li  Li11  1  0.38406285  0.02284442  0.62248947  1
  Li  Li12  1  0.66658571  0.33483935  0.91229320  1
  Li  Li13  1  0.66867151  0.33533458  0.42369661  1
  Li  Li14  1  0.61938662  0.97738293  0.12218666  1
  Li  Li15  1  0.71369480  0.02130208  0.77155444  1
  Mn  Mn16  1  0.00648919  0.00655658  0.98182454  1
  Mn  Mn17  1  0.99717330  0.98835837  0.48199269  1
  O  O18  1  0.98886553  0.66886165  0.94809194  1
  O  O19  1  0.00155926  0.32148416  0.44566165  1
  O  O20  1  0.33383418  0.66849892  0.21392996  1
  O  O21  1  0.00304554  0.99601938  0.67541188  1
  O  O22  1  0.00055428  0.99967687  0.17576637  1
  O  O23  1  0.32967098  0.33361076  0.94915846  1
  O  O24  1  0.33729338  0.01881095  0.44800797  1
  O  O25  1  0.66371420  0.67572961  0.45036455  1
  O  O26  1  0.66639170  0.33152318  0.71370550  1
  O  O27  1  0.67185264  0.98796862  0.94632745  1
  F  F28  1  0.33029202  0.66373953  0.71076998  1
  F  F29  1  0.66920514  0.33600847  0.21051398  1
