# generated using pymatgen
data_Li3CoPCO7
_symmetry_space_group_name_H-M   'P 1'
_cell_length_a   8.64973892
_cell_length_b   9.66695933
_cell_length_c   6.37032213
_cell_angle_alpha   90.00000000
_cell_angle_beta   90.00000000
_cell_angle_gamma   84.73789221
_symmetry_Int_Tables_number   1
_chemical_formula_structural   Li3CoPCO7
_chemical_formula_sum   'Li12 Co4 P4 C4 O28'
_cell_volume   530.42027074
_cell_formula_units_Z   4
loop_
 _symmetry_equiv_pos_site_id
 _symmetry_equiv_pos_as_xyz
  1  'x, y, z'
loop_
 _atom_site_type_symbol
 _atom_site_label
 _atom_site_symmetry_multiplicity
 _atom_site_fract_x
 _atom_site_fract_y
 _atom_site_fract_z
 _atom_site_occupancy
  Li  Li0  1  0.11305534  0.39465333  0.24160220  1
  Li  Li1  1  0.11305534  0.89465333  0.25839780  1
  Li  Li2  1  0.28121970  0.12724406  0.50703148  1
  Li  Li3  1  0.28121970  0.62724406  0.99296852  1
  Li  Li4  1  0.36087695  0.38748895  0.74971044  1
  Li  Li5  1  0.36087695  0.88748895  0.75028956  1
  Li  Li6  1  0.63912305  0.11251105  0.25028956  1
  Li  Li7  1  0.63912305  0.61251105  0.24971044  1
  Li  Li8  1  0.71878030  0.37275594  0.49296852  1
  Li  Li9  1  0.71878030  0.87275594  0.00703148  1
  Li  Li10  1  0.88694466  0.10534667  0.75839780  1
  Li  Li11  1  0.88694466  0.60534667  0.74160220  1
  Co  Co12  1  0.26048758  0.12824649  0.00319315  1
  Co  Co13  1  0.26048758  0.62824649  0.49680685  1
  Co  Co14  1  0.73951242  0.37175351  0.99680685  1
  Co  Co15  1  0.73951242  0.87175351  0.50319315  1
  P  P16  1  0.40685573  0.36359618  0.23777342  1
  P  P17  1  0.40685573  0.86359618  0.26222658  1
  P  P18  1  0.59314427  0.13640382  0.76222658  1
  P  P19  1  0.59314427  0.63640382  0.73777342  1
  C  C20  1  0.04777272  0.34815020  0.75433778  1
  C  C21  1  0.04777272  0.84815020  0.74566222  1
  C  C22  1  0.95222728  0.15184980  0.24566222  1
  C  C23  1  0.95222728  0.65184980  0.25433778  1
  O  O24  1  0.06440205  0.47656006  0.73036350  1
  O  O25  1  0.09253154  0.19385793  0.21812409  1
  O  O26  1  0.06440205  0.97656006  0.76963650  1
  O  O27  1  0.16611420  0.25469949  0.74809121  1
  O  O28  1  0.09253154  0.69385793  0.28187591  1
  O  O29  1  0.16611420  0.75469949  0.75190879  1
  O  O30  1  0.30582756  0.42227115  0.05272666  1
  O  O31  1  0.31541053  0.41707273  0.43810866  1
  O  O32  1  0.31541053  0.91707273  0.06189134  1
  O  O33  1  0.30582756  0.92227115  0.44727334  1
  O  O34  1  0.42572810  0.09303949  0.76133363  1
  O  O35  1  0.41336585  0.20098907  0.23386784  1
  O  O36  1  0.42572810  0.59303949  0.73866637  1
  O  O37  1  0.41336585  0.70098907  0.26613216  1
  O  O38  1  0.58663415  0.29901093  0.76613216  1
  O  O39  1  0.57427190  0.40696051  0.23866637  1
  O  O40  1  0.58663415  0.79901093  0.73386784  1
  O  O41  1  0.57427190  0.90696051  0.26133363  1
  O  O42  1  0.69417244  0.07772885  0.94727334  1
  O  O43  1  0.68458947  0.08292727  0.56189134  1
  O  O44  1  0.69417244  0.57772885  0.55272666  1
  O  O45  1  0.68458947  0.58292727  0.93810866  1
  O  O46  1  0.83388580  0.24530051  0.25190879  1
  O  O47  1  0.90746846  0.30614207  0.78187591  1
  O  O48  1  0.83388580  0.74530051  0.24809121  1
  O  O49  1  0.93559795  0.02343994  0.26963650  1
  O  O50  1  0.90746846  0.80614207  0.71812409  1
  O  O51  1  0.93559795  0.52343994  0.23036350  1
