# generated using pymatgen
data_Mg7Co17O32
_symmetry_space_group_name_H-M   'P 1'
_cell_length_a   5.79400624
_cell_length_b   5.79072344
_cell_length_c   19.21501015
_cell_angle_alpha   98.15862578
_cell_angle_beta   98.67141923
_cell_angle_gamma   59.98124510
_symmetry_Int_Tables_number   1
_chemical_formula_structural   Mg7Co17O32
_chemical_formula_sum   'Mg7 Co17 O32'
_cell_volume   550.16616795
_cell_formula_units_Z   1
loop_
 _symmetry_equiv_pos_site_id
 _symmetry_equiv_pos_as_xyz
  1  'x, y, z'
loop_
 _atom_site_type_symbol
 _atom_site_label
 _atom_site_symmetry_multiplicity
 _atom_site_fract_x
 _atom_site_fract_y
 _atom_site_fract_z
 _atom_site_occupancy
  Mg  Mg0  1  0.21896584  0.71818218  0.15611485  1
  Mg  Mg1  1  0.34398453  0.34226131  0.03022937  1
  Mg  Mg2  1  0.96853416  0.46931782  0.40638515  1
  Mg  Mg3  1  0.84351547  0.84523869  0.53227063  1
  Mg  Mg4  1  0.09375000  0.09375000  0.28125000  1
  Mg  Mg5  1  0.47018088  0.96486137  0.90522313  1
  Mg  Mg6  1  0.71731912  0.22263863  0.65727687  1
  Co  Co7  1  0.69439472  0.67562566  0.06441609  1
  Co  Co8  1  0.74309233  0.76142954  0.24761521  1
  Co  Co9  1  0.99467285  0.00855444  0.99789914  1
  Co  Co10  1  0.71854658  0.21869583  0.15608336  1
  Co  Co11  1  0.21884095  0.21869583  0.15608336  1
  Co  Co12  1  0.46895342  0.96880417  0.40641664  1
  Co  Co13  1  0.96865905  0.96880417  0.40641664  1
  Co  Co14  1  0.44440767  0.42607046  0.31488479  1
  Co  Co15  1  0.49310528  0.51187434  0.49808391  1
  Co  Co16  1  0.22025799  0.72069628  0.65728342  1
  Co  Co17  1  0.71633015  0.72069628  0.65728342  1
  Co  Co18  1  0.19282715  0.17894556  0.56460086  1
  Co  Co19  1  0.94279682  0.92647310  0.81206775  1
  Co  Co20  1  0.59375000  0.59375000  0.78125000  1
  Co  Co21  1  0.24470318  0.26102690  0.75043225  1
  Co  Co22  1  0.96724201  0.46680372  0.90521658  1
  Co  Co23  1  0.47116985  0.46680372  0.90521658  1
  O  O24  1  0.38580372  0.92563912  0.21476324  1
  O  O25  1  0.90332039  0.92563912  0.21476324  1
  O  O26  1  0.05203287  0.51127599  0.09714901  1
  O  O27  1  0.53383914  0.51127599  0.09714901  1
  O  O28  1  0.52627864  0.04760345  0.10016173  1
  O  O29  1  0.41395590  0.38497058  0.21288239  1
  O  O30  1  0.27649959  0.79757266  0.35057284  1
  O  O31  1  0.02352616  0.05232912  0.09938244  1
  O  O32  1  0.91100041  0.38992734  0.21192716  1
  O  O33  1  0.77354410  0.80252942  0.34961761  1
  O  O34  1  0.13546713  0.67622401  0.46535099  1
  O  O35  1  0.65366086  0.67622401  0.46535099  1
  O  O36  1  0.80169628  0.26186088  0.34773676  1
  O  O37  1  0.28417961  0.26186088  0.34773676  1
  O  O38  1  0.16397384  0.13517088  0.46311756  1
  O  O39  1  0.02741188  0.54683384  0.60165860  1
  O  O40  1  0.91350960  0.88380296  0.71082216  1
  O  O41  1  0.66122136  0.13989655  0.46233827  1
  O  O42  1  0.42056006  0.87487763  0.71599675  1
  O  O43  1  0.52353108  0.55303927  0.60010143  1
  O  O44  1  0.87010079  0.43656384  0.71912549  1
  O  O45  1  0.41245986  0.43656384  0.71912549  1
  O  O46  1  0.03519817  0.01459445  0.59897169  1
  O  O47  1  0.54917907  0.01459445  0.59897169  1
  O  O48  1  0.31739921  0.75093616  0.84337451  1
  O  O49  1  0.77504014  0.75093616  0.84337451  1
  O  O50  1  0.76693994  0.31262237  0.84650325  1
  O  O51  1  0.66396892  0.63446073  0.96239857  1
  O  O52  1  0.16008812  0.64066616  0.96084140  1
  O  O53  1  0.27399040  0.30369704  0.85167784  1
  O  O54  1  0.63832093  0.17290555  0.96352831  1
  O  O55  1  0.15230183  0.17290555  0.96352831  1
