# generated using pymatgen
data_Li6B4O9
_symmetry_space_group_name_H-M   'P 1'
_cell_length_a   6.72880014
_cell_length_b   7.16349330
_cell_length_c   8.50322485
_cell_angle_alpha   93.47085875
_cell_angle_beta   100.98339859
_cell_angle_gamma   98.61454473
_symmetry_Int_Tables_number   1
_chemical_formula_structural   Li6B4O9
_chemical_formula_sum   'Li12 B8 O18'
_cell_volume   396.14394670
_cell_formula_units_Z   2
loop_
 _symmetry_equiv_pos_site_id
 _symmetry_equiv_pos_as_xyz
  1  'x, y, z'
loop_
 _atom_site_type_symbol
 _atom_site_label
 _atom_site_symmetry_multiplicity
 _atom_site_fract_x
 _atom_site_fract_y
 _atom_site_fract_z
 _atom_site_occupancy
  Li  Li0  1  0.06435236  0.04339839  0.87295469  1
  Li  Li1  1  0.09212700  0.66451162  0.21089868  1
  Li  Li2  1  0.06141418  0.19677376  0.52074687  1
  Li  Li3  1  0.25356398  0.68024432  0.94756969  1
  Li  Li4  1  0.37443267  0.45919054  0.35704012  1
  Li  Li5  1  0.39671643  0.29162938  0.76898395  1
  Li  Li6  1  0.60328357  0.70837062  0.23101605  1
  Li  Li7  1  0.62556733  0.54080946  0.64295988  1
  Li  Li8  1  0.74643602  0.31975568  0.05243031  1
  Li  Li9  1  0.93858582  0.80322624  0.47925313  1
  Li  Li10  1  0.90787300  0.33548838  0.78910132  1
  Li  Li11  1  0.93564764  0.95660161  0.12704531  1
  B  B12  1  0.23476598  0.58309784  0.56979335  1
  B  B13  1  0.26437027  0.36202837  0.06828799  1
  B  B14  1  0.28581762  0.90294232  0.70526283  1
  B  B15  1  0.33520829  0.03922781  0.15504040  1
  B  B16  1  0.66479171  0.96077219  0.84495960  1
  B  B17  1  0.71418238  0.09705768  0.29473717  1
  B  B18  1  0.73562973  0.63797163  0.93171201  1
  B  B19  1  0.76523402  0.41690216  0.43020665  1
  O  O20  1  0.14910512  0.65030818  0.43241929  1
  O  O21  1  0.12529920  0.98895900  0.65742346  1
  O  O22  1  0.19152715  0.30928791  0.90908463  1
  O  O23  1  0.30451301  0.22716487  0.18495737  1
  O  O24  1  0.19321973  0.91138298  0.05476227  1
  O  O25  1  0.26772242  0.70506203  0.72038292  1
  O  O26  1  0.31730903  0.41825542  0.57600793  1
  O  O27  1  0.30734031  0.54614426  0.13463894  1
  O  O28  1  0.51805459  0.98481863  0.23558601  1
  O  O29  1  0.48194541  0.01518137  0.76441399  1
  O  O30  1  0.69265969  0.45385574  0.86536106  1
  O  O31  1  0.68269097  0.58174458  0.42399207  1
  O  O32  1  0.73227758  0.29493797  0.27961708  1
  O  O33  1  0.80678027  0.08861702  0.94523773  1
  O  O34  1  0.69548699  0.77283513  0.81504263  1
  O  O35  1  0.80847285  0.69071209  0.09091537  1
  O  O36  1  0.87470080  0.01104100  0.34257654  1
  O  O37  1  0.85089488  0.34969182  0.56758071  1
