# generated using pymatgen
data_Li3MnPCO7
_symmetry_space_group_name_H-M   'P 1'
_cell_length_a   9.56726105
_cell_length_b   9.83471817
_cell_length_c   6.47969035
_cell_angle_alpha   90.00000000
_cell_angle_beta   90.00000000
_cell_angle_gamma   63.82728725
_symmetry_Int_Tables_number   1
_chemical_formula_structural   Li3MnPCO7
_chemical_formula_sum   'Li12 Mn4 P4 C4 O28'
_cell_volume   547.17094432
_cell_formula_units_Z   4
loop_
 _symmetry_equiv_pos_site_id
 _symmetry_equiv_pos_as_xyz
  1  'x, y, z'
loop_
 _atom_site_type_symbol
 _atom_site_label
 _atom_site_symmetry_multiplicity
 _atom_site_fract_x
 _atom_site_fract_y
 _atom_site_fract_z
 _atom_site_occupancy
  Li  Li0  1  0.89703953  0.43797490  0.75308551  1
  Li  Li1  1  0.89703953  0.93797490  0.74691449  1
  Li  Li2  1  0.71468847  0.25979929  0.98867464  1
  Li  Li3  1  0.71468847  0.75979929  0.51132536  1
  Li  Li4  1  0.64657447  0.06640364  0.24537410  1
  Li  Li5  1  0.64657447  0.56640364  0.25462590  1
  Li  Li6  1  0.35342553  0.43359636  0.75462590  1
  Li  Li7  1  0.35342553  0.93359636  0.74537410  1
  Li  Li8  1  0.28531153  0.24019971  0.01132536  1
  Li  Li9  1  0.28531153  0.74020071  0.48867464  1
  Li  Li10  1  0.10296047  0.06202510  0.24691449  1
  Li  Li11  1  0.10296047  0.56202510  0.25308551  1
  Mn  Mn12  1  0.73083078  0.26500768  0.50082726  1
  Mn  Mn13  1  0.73083078  0.76500768  0.99917274  1
  Mn  Mn14  1  0.26916922  0.23499232  0.49917274  1
  Mn  Mn15  1  0.26916922  0.73499232  0.00082726  1
  P  P16  1  0.59287394  0.06368277  0.75256219  1
  P  P17  1  0.59287394  0.56368277  0.74743781  1
  P  P18  1  0.40712606  0.43631723  0.24743781  1
  P  P19  1  0.40712606  0.93631723  0.25256219  1
  C  C20  1  0.95763277  0.37323466  0.25117996  1
  C  C21  1  0.95763277  0.87323466  0.24882004  1
  C  C22  1  0.04236723  0.12676534  0.74882004  1
  C  C23  1  0.04236723  0.62676534  0.75117996  1
  O  O24  1  0.93007754  0.01288721  0.26229527  1
  O  O25  1  0.93007754  0.51288721  0.23770473  1
  O  O26  1  0.89676757  0.23407902  0.74637086  1
  O  O27  1  0.84619519  0.33227746  0.25951582  1
  O  O28  1  0.89676757  0.73407902  0.75362914  1
  O  O29  1  0.84619519  0.83227746  0.24048418  1
  O  O30  1  0.69270869  0.06357865  0.94041208  1
  O  O31  1  0.68769590  0.07012444  0.55977103  1
  O  O32  1  0.68769590  0.57012444  0.94022897  1
  O  O33  1  0.69270869  0.56357865  0.55958792  1
  O  O34  1  0.57348106  0.30318661  0.24457308  1
  O  O35  1  0.57765555  0.41150914  0.74960420  1
  O  O36  1  0.57348106  0.80318661  0.25542692  1
  O  O37  1  0.57765555  0.91150914  0.75039580  1
  O  O38  1  0.42234445  0.08849086  0.25039580  1
  O  O39  1  0.42651894  0.19681339  0.75542692  1
  O  O40  1  0.42234445  0.58849086  0.24960420  1
  O  O41  1  0.42651894  0.69681339  0.74457308  1
  O  O42  1  0.30729131  0.43642135  0.05958792  1
  O  O43  1  0.31230410  0.42987556  0.44022897  1
  O  O44  1  0.31230410  0.92987556  0.05977103  1
  O  O45  1  0.30729131  0.93642135  0.44041208  1
  O  O46  1  0.15380481  0.16772254  0.74048418  1
  O  O47  1  0.10323243  0.26592098  0.25362914  1
  O  O48  1  0.15380481  0.66772254  0.75951582  1
  O  O49  1  0.10323243  0.76592098  0.24637086  1
  O  O50  1  0.06992246  0.48711279  0.73770473  1
  O  O51  1  0.06992246  0.98711279  0.76229527  1
