# generated using pymatgen
data_LiCo2CuO6
_symmetry_space_group_name_H-M   'P 1'
_cell_length_a   6.64180277
_cell_length_b   2.81761774
_cell_length_c   5.79730979
_cell_angle_alpha   90.00000849
_cell_angle_beta   104.18536990
_cell_angle_gamma   77.75382472
_symmetry_Int_Tables_number   1
_chemical_formula_structural   LiCo2CuO6
_chemical_formula_sum   'Li1 Co2 Cu1 O6'
_cell_volume   102.63486459
_cell_formula_units_Z   1
loop_
 _symmetry_equiv_pos_site_id
 _symmetry_equiv_pos_as_xyz
  1  'x, y, z'
loop_
 _atom_site_type_symbol
 _atom_site_label
 _atom_site_symmetry_multiplicity
 _atom_site_fract_x
 _atom_site_fract_y
 _atom_site_fract_z
 _atom_site_occupancy
  Li  Li0  1  0.66313449  0.66843226  0.16211382  1
  Co  Co1  1  0.99581968  0.00208966  0.99311606  1
  Co  Co2  1  0.67731494  0.66134203  0.65862862  1
  Cu  Cu3  1  0.32529470  0.33735265  0.34947386  1
  O  O4  1  0.99119136  0.50440432  0.20763607  1
  O  O5  1  0.37837805  0.81081048  0.57265423  1
  O  O6  1  0.69614240  0.15192880  0.88871875  1
  O  O7  1  0.29870236  0.85064932  0.12449875  1
  O  O8  1  0.66161280  0.16919360  0.43541846  1
  O  O9  1  0.97907523  0.51046188  0.77440939  1
