# generated using pymatgen
data_CoH4SeO5
_symmetry_space_group_name_H-M   'P 1'
_cell_length_a   5.71633145
_cell_length_b   11.71126225
_cell_length_c   7.84313608
_cell_angle_alpha   90.00000000
_cell_angle_beta   101.44177726
_cell_angle_gamma   90.00000000
_symmetry_Int_Tables_number   1
_chemical_formula_structural   CoH4SeO5
_chemical_formula_sum   'Co4 H16 Se4 O20'
_cell_volume   514.62765420
_cell_formula_units_Z   4
loop_
 _symmetry_equiv_pos_site_id
 _symmetry_equiv_pos_as_xyz
  1  'x, y, z'
loop_
 _atom_site_type_symbol
 _atom_site_label
 _atom_site_symmetry_multiplicity
 _atom_site_fract_x
 _atom_site_fract_y
 _atom_site_fract_z
 _atom_site_occupancy
  Co  Co0  1  0.22680710  0.06553555  0.93555877  1
  Co  Co1  1  0.27319290  0.56553555  0.56444123  1
  Co  Co2  1  0.72680710  0.43446445  0.43555877  1
  Co  Co3  1  0.77319290  0.93446445  0.06444123  1
  H  H4  1  0.90750893  0.89882153  0.68141377  1
  H  H5  1  0.03226741  0.18623940  0.63543734  1
  H  H6  1  0.18079566  0.08465541  0.59149766  1
  H  H7  1  0.14748062  0.56244120  0.17570950  1
  H  H8  1  0.31920434  0.58465541  0.90850234  1
  H  H9  1  0.46773259  0.68623940  0.86456266  1
  H  H10  1  0.59249107  0.39882153  0.81858623  1
  H  H11  1  0.35251938  0.06244120  0.32429050  1
  H  H12  1  0.64748062  0.93755880  0.67570950  1
  H  H13  1  0.40750893  0.60117847  0.18141377  1
  H  H14  1  0.53226741  0.31376060  0.13543734  1
  H  H15  1  0.68079566  0.41534459  0.09149766  1
  H  H16  1  0.85251938  0.43755880  0.82429050  1
  H  H17  1  0.81920434  0.91534459  0.40850234  1
  H  H18  1  0.96773259  0.81376060  0.36456266  1
  H  H19  1  0.09249107  0.10117847  0.31858623  1
  Se  Se20  1  0.17336274  0.34680424  0.36763445  1
  Se  Se21  1  0.32663726  0.84680424  0.13236555  1
  Se  Se22  1  0.67336274  0.15319576  0.86763445  1
  Se  Se23  1  0.82663726  0.65319576  0.63236555  1
  O  O24  1  0.04959461  0.48396313  0.32659046  1
  O  O25  1  0.03932609  0.70003249  0.51910541  1
  O  O26  1  0.08560422  0.10907596  0.68010041  1
  O  O27  1  0.25342157  0.10738600  0.39184858  1
  O  O28  1  0.08764387  0.89265582  0.96886326  1
  O  O29  1  0.41439578  0.60907596  0.81989959  1
  O  O30  1  0.41235613  0.39265582  0.53113674  1
  O  O31  1  0.46067391  0.20003249  0.98089459  1
  O  O32  1  0.24657843  0.60738600  0.10815242  1
  O  O33  1  0.45040539  0.98396313  0.17340954  1
  O  O34  1  0.54959461  0.01603687  0.82659046  1
  O  O35  1  0.75342157  0.39261400  0.89184858  1
  O  O36  1  0.53932609  0.79996751  0.01910541  1
  O  O37  1  0.58764387  0.60734418  0.46886326  1
  O  O38  1  0.58560422  0.39092404  0.18010041  1
  O  O39  1  0.91235613  0.10734418  0.03113674  1
  O  O40  1  0.74657843  0.89261400  0.60815142  1
  O  O41  1  0.91439578  0.89092404  0.31989959  1
  O  O42  1  0.96067391  0.29996751  0.48089459  1
  O  O43  1  0.95040539  0.51603687  0.67340954  1
