# generated using pymatgen
data_Li3MnPCO7
_symmetry_space_group_name_H-M   'P 1'
_cell_length_a   8.58625395
_cell_length_b   9.85504584
_cell_length_c   6.48146203
_cell_angle_alpha   90.00000000
_cell_angle_beta   90.00000000
_cell_angle_gamma   85.37632122
_symmetry_Int_Tables_number   1
_chemical_formula_structural   Li3MnPCO7
_chemical_formula_sum   'Li12 Mn4 P4 C4 O28'
_cell_volume   546.66303459
_cell_formula_units_Z   4
loop_
 _symmetry_equiv_pos_site_id
 _symmetry_equiv_pos_as_xyz
  1  'x, y, z'
loop_
 _atom_site_type_symbol
 _atom_site_label
 _atom_site_symmetry_multiplicity
 _atom_site_fract_x
 _atom_site_fract_y
 _atom_site_fract_z
 _atom_site_occupancy
  Li  Li0  1  0.10085519  0.38491831  0.25215908  1
  Li  Li1  1  0.10085519  0.88491831  0.24784092  1
  Li  Li2  1  0.28364054  0.11733736  0.48734640  1
  Li  Li3  1  0.28364054  0.61733736  0.01265360  1
  Li  Li4  1  0.35089083  0.38972183  0.75369161  1
  Li  Li5  1  0.35089083  0.88972183  0.74630839  1
  Li  Li6  1  0.64910917  0.11027817  0.24630839  1
  Li  Li7  1  0.64910917  0.61027817  0.25369161  1
  Li  Li8  1  0.71635946  0.38266264  0.51265360  1
  Li  Li9  1  0.71635946  0.88266264  0.98734640  1
  Li  Li10  1  0.89914481  0.11508169  0.74784092  1
  Li  Li11  1  0.89914481  0.61508169  0.75215908  1
  Mn  Mn12  1  0.27085800  0.13017087  0.00157004  1
  Mn  Mn13  1  0.27085800  0.63017087  0.49842996  1
  Mn  Mn14  1  0.72914200  0.36982913  0.99842996  1
  Mn  Mn15  1  0.72914200  0.86982913  0.50157004  1
  P  P16  1  0.40749789  0.35984548  0.25135762  1
  P  P17  1  0.40749789  0.85984548  0.24864238  1
  P  P18  1  0.59250211  0.14015452  0.74864238  1
  P  P19  1  0.59250211  0.64015452  0.75135762  1
  C  C20  1  0.04158715  0.35250614  0.75157572  1
  C  C21  1  0.04158715  0.85250614  0.74842428  1
  C  C22  1  0.95841285  0.14749386  0.24842428  1
  C  C23  1  0.95841285  0.64749386  0.25157572  1
  O  O24  1  0.07035599  0.47728350  0.74109920  1
  O  O25  1  0.10492202  0.18139235  0.24764704  1
  O  O26  1  0.07035599  0.97728350  0.75890080  1
  O  O27  1  0.15250737  0.25474791  0.75912142  1
  O  O28  1  0.10492202  0.68139235  0.25235296  1
  O  O29  1  0.15250737  0.75474791  0.74087858  1
  O  O30  1  0.30969012  0.41029772  0.06159789  1
  O  O31  1  0.31017199  0.41289857  0.44227684  1
  O  O32  1  0.31017199  0.91289857  0.05772316  1
  O  O33  1  0.30969012  0.91029772  0.43840211  1
  O  O34  1  0.42558945  0.09011260  0.74498994  1
  O  O35  1  0.42332097  0.20043457  0.24990266  1
  O  O36  1  0.42558945  0.59011260  0.75501006  1
  O  O37  1  0.42332097  0.70043457  0.25009734  1
  O  O38  1  0.57667903  0.29956543  0.75009734  1
  O  O39  1  0.57441055  0.40988740  0.25501006  1
  O  O40  1  0.57667903  0.79956543  0.74990266  1
  O  O41  1  0.57441055  0.90988740  0.24498994  1
  O  O42  1  0.69030988  0.08970228  0.93840211  1
  O  O43  1  0.68982801  0.08710143  0.55772316  1
  O  O44  1  0.69030988  0.58970228  0.56159789  1
  O  O45  1  0.68982801  0.58710143  0.94227684  1
  O  O46  1  0.84749263  0.24525209  0.24087858  1
  O  O47  1  0.89507798  0.31860765  0.75235296  1
  O  O48  1  0.84749263  0.74525209  0.25912142  1
  O  O49  1  0.92964401  0.02271650  0.25890080  1
  O  O50  1  0.89507798  0.81860765  0.74764704  1
  O  O51  1  0.92964401  0.52271650  0.24109920  1
