# generated using pymatgen
data_Li2NiP2O7
_symmetry_space_group_name_H-M   'P 1'
_cell_length_a   4.92451142
_cell_length_b   5.19127083
_cell_length_c   12.09650749
_cell_angle_alpha   85.24388313
_cell_angle_beta   101.93158155
_cell_angle_gamma   61.73658401
_symmetry_Int_Tables_number   1
_chemical_formula_structural   Li2NiP2O7
_chemical_formula_sum   'Li4 Ni2 P4 O14'
_cell_volume   260.55647524
_cell_formula_units_Z   2
loop_
 _symmetry_equiv_pos_site_id
 _symmetry_equiv_pos_as_xyz
  1  'x, y, z'
loop_
 _atom_site_type_symbol
 _atom_site_label
 _atom_site_symmetry_multiplicity
 _atom_site_fract_x
 _atom_site_fract_y
 _atom_site_fract_z
 _atom_site_occupancy
  Li  Li0  1  0.21902114  0.83889155  0.36872013  1
  Li  Li1  1  0.68910377  0.65879372  0.12620436  1
  Li  Li2  1  0.30896219  0.34453063  0.87247673  1
  Li  Li3  1  0.78334376  0.15813134  0.63257150  1
  Ni  Ni4  1  0.00270644  0.49867021  0.50029836  1
  Ni  Ni5  1  0.00022929  0.99956575  -0.00010125  1
  P  P6  1  0.47156757  0.78165367  0.62633705  1
  P  P7  1  0.62346996  0.71699252  0.87334666  1
  P  P8  1  0.37788940  0.28123910  0.12676439  1
  P  P9  1  0.53541646  0.21305925  0.37393312  1
  O  O10  1  0.71819766  0.95591848  0.85482425  1
  O  O11  1  0.41997856  0.77428287  0.95687811  1
  O  O12  1  0.59626788  0.89328153  0.39921389  1
  O  O13  1  0.38243039  0.74916411  0.74950206  1
  O  O14  1  0.24402221  0.72165386  0.54251226  1
  O  O15  1  0.82499266  0.54225309  0.64707621  1
  O  O16  1  0.09354022  0.60080509  0.10036137  1
  O  O17  1  0.90749556  0.39714508  0.90030836  1
  O  O18  1  0.18301927  0.45317786  0.35415530  1
  O  O19  1  0.76608953  0.26910381  0.45822827  1
  O  O20  1  0.62127319  0.24745553  0.25039183  1
  O  O21  1  0.40863071  0.10180356  0.60119392  1
  O  O22  1  0.58151390  0.22583070  0.04323151  1
  O  O23  1  0.28652125  0.04001671  0.14576960  1
