# generated using pymatgen
data_Na4Sb2C4SO16
_symmetry_space_group_name_H-M   'P 1'
_cell_length_a   10.34452875
_cell_length_b   10.10870097
_cell_length_c   10.18594013
_cell_angle_alpha   118.74844090
_cell_angle_beta   59.50821453
_cell_angle_gamma   119.29980485
_symmetry_Int_Tables_number   1
_chemical_formula_structural   Na4Sb2C4SO16
_chemical_formula_sum   'Na8 Sb4 C8 S2 O32'
_cell_volume   761.09205227
_cell_formula_units_Z   2
loop_
 _symmetry_equiv_pos_site_id
 _symmetry_equiv_pos_as_xyz
  1  'x, y, z'
loop_
 _atom_site_type_symbol
 _atom_site_label
 _atom_site_symmetry_multiplicity
 _atom_site_fract_x
 _atom_site_fract_y
 _atom_site_fract_z
 _atom_site_occupancy
  Na  Na0  1  0.91909322  0.16439794  0.32113067  1
  Na  Na1  1  0.91678131  0.16162533  0.92485549  1
  Na  Na2  1  0.92036421  0.57488799  0.32796749  1
  Na  Na3  1  0.66853042  0.43020531  0.07830809  1
  Na  Na4  1  0.33054165  0.17169052  0.91807106  1
  Na  Na5  1  0.34014252  0.58091832  0.92458751  1
  Na  Na6  1  0.07716488  0.42713978  0.66810567  1
  Na  Na7  1  0.08094561  0.81758898  0.66809247  1
  Sb  Sb8  1  0.49585817  0.99365180  0.00044386  1
  Sb  Sb9  1  0.50711119  0.99526100  0.48862995  1
  Sb  Sb10  1  0.49767909  0.49947801  0.50147166  1
  Sb  Sb11  1  0.99985683  0.99332704  0.49167227  1
  C  C12  1  0.72237097  0.16086165  0.71695026  1
  C  C13  1  0.67083885  0.22767076  0.27232208  1
  C  C14  1  0.26842923  0.21799332  0.66990840  1
  C  C15  1  0.28289722  0.22669195  0.27867330  1
  C  C16  1  0.71850628  0.78000187  0.71813265  1
  C  C17  1  0.72838567  0.78388080  0.34020404  1
  C  C18  1  0.33719249  0.78048221  0.72985141  1
  C  C19  1  0.27145825  0.83345389  0.28513905  1
  S  S20  1  0.87617751  0.62357143  0.87226058  1
  S  S21  1  0.12197674  0.37040016  0.12122921  1
  O  O22  1  0.85552864  0.17194312  0.71181404  1
  O  O23  1  0.67281134  0.10869788  0.28958533  1
  O  O24  1  0.71173914  0.14553202  0.58882207  1
  O  O25  1  0.67715339  0.21453015  0.13655372  1
  O  O26  1  0.59969587  0.16400570  0.85164452  1
  O  O27  1  0.94252663  0.56556430  0.69064406  1
  O  O28  1  0.93165566  0.55425713  0.92994833  1
  O  O29  1  0.66702921  0.36036017  0.39049139  1
  O  O30  1  0.29233024  0.11293830  0.14375821  1
  O  O31  1  0.38523323  0.20280471  0.66893840  1
  O  O32  1  0.70009344  0.56402442  0.93203092  1
  O  O33  1  0.94063590  0.80096505  0.92567004  1
  O  O34  1  0.85416283  0.78290366  0.59670709  1
  O  O35  1  0.72408584  0.64796857  0.32851142  1
  O  O36  1  0.40964031  0.34919308  0.29390638  1
  O  O37  1  0.13384145  0.10244273  0.67628438  1
  O  O38  1  0.59487298  0.65556846  0.71217948  1
  O  O39  1  0.85515622  0.90874614  0.34715825  1
  O  O40  1  0.28250761  0.35417074  0.66747826  1
  O  O41  1  0.14804924  0.21874182  0.39881150  1
  O  O42  1  0.29818315  0.42496100  0.05773431  1
  O  O43  1  0.06175351  0.19054313  0.06214040  1
  O  O44  1  0.60531735  0.79498854  0.34737625  1
  O  O45  1  0.71168957  0.90737825  0.84277991  1
  O  O46  1  0.32474071  0.64456969  0.61784942  1
  O  O47  1  0.05550113  0.42552068  0.29959075  1
  O  O48  1  0.06489619  0.43236777  0.05887833  1
  O  O49  1  0.38660150  0.82438389  0.14781414  1
  O  O50  1  0.35422841  0.79467019  0.85587657  1
  O  O51  1  0.28819654  0.85282101  0.41147548  1
  O  O52  1  0.33356174  0.90076959  0.71849074  1
  O  O53  1  0.13427371  0.82294108  0.29750376  1
