# generated using pymatgen
data_LaMg14Cr
_symmetry_space_group_name_H-M   'P 1'
_cell_length_a   6.55568748
_cell_length_b   6.55568692
_cell_length_c   10.31715550
_cell_angle_alpha   90.00000000
_cell_angle_beta   90.00000000
_cell_angle_gamma   120.00000283
_symmetry_Int_Tables_number   1
_chemical_formula_structural   LaMg14Cr
_chemical_formula_sum   'La1 Mg14 Cr1'
_cell_volume   383.99630222
_cell_formula_units_Z   1
loop_
 _symmetry_equiv_pos_site_id
 _symmetry_equiv_pos_as_xyz
  1  'x, y, z'
loop_
 _atom_site_type_symbol
 _atom_site_label
 _atom_site_symmetry_multiplicity
 _atom_site_fract_x
 _atom_site_fract_y
 _atom_site_fract_z
 _atom_site_occupancy
  La  La0  1  0.16666700  0.33333300  0.12500000  1
  Mg  Mg1  1  0.17775977  0.83887939  0.12500000  1
  Mg  Mg2  1  0.16610904  0.83305402  0.62500000  1
  Mg  Mg3  1  0.66112061  0.32224023  0.12500000  1
  Mg  Mg4  1  0.66694598  0.33389096  0.62500000  1
  Mg  Mg5  1  0.66112061  0.83887939  0.12500000  1
  Mg  Mg6  1  0.66694598  0.83305402  0.62500000  1
  Mg  Mg7  1  0.33357390  0.16642610  0.38531348  1
  Mg  Mg8  1  0.33357390  0.16642610  0.86468652  1
  Mg  Mg9  1  0.33357390  0.66714880  0.38531348  1
  Mg  Mg10  1  0.33357390  0.66714880  0.86468652  1
  Mg  Mg11  1  0.83285120  0.16642610  0.38531348  1
  Mg  Mg12  1  0.83285120  0.16642610  0.86468652  1
  Mg  Mg13  1  0.83333300  0.66666700  0.36919780  1
  Mg  Mg14  1  0.83333300  0.66666700  0.88080220  1
  Cr  Cr15  1  0.16666700  0.33333300  0.62500000  1
