# generated using pymatgen
data_NiH16C2S3N6O7
_symmetry_space_group_name_H-M   'P 1'
_cell_length_a   7.03994017
_cell_length_b   16.62978483
_cell_length_c   6.53793518
_cell_angle_alpha   90.00000000
_cell_angle_beta   100.71336041
_cell_angle_gamma   90.00000000
_symmetry_Int_Tables_number   1
_chemical_formula_structural   NiH16C2S3N6O7
_chemical_formula_sum   'Ni2 H32 C4 S6 N12 O14'
_cell_volume   752.07209880
_cell_formula_units_Z   2
loop_
 _symmetry_equiv_pos_site_id
 _symmetry_equiv_pos_as_xyz
  1  'x, y, z'
loop_
 _atom_site_type_symbol
 _atom_site_label
 _atom_site_symmetry_multiplicity
 _atom_site_fract_x
 _atom_site_fract_y
 _atom_site_fract_z
 _atom_site_occupancy
  Ni  Ni0  1  0.00000000  0.50000000  0.00000000  1
  Ni  Ni1  1  0.00000000  0.00000000  0.00000000  1
  H  H2  1  0.04694781  0.65326836  0.07351445  1
  H  H3  1  0.95305219  0.15326836  0.92648555  1
  H  H4  1  0.95305219  0.34673164  0.92648555  1
  H  H5  1  0.04694781  0.84673164  0.07351445  1
  H  H6  1  0.86657808  0.61909588  0.18252541  1
  H  H7  1  0.13342192  0.11909588  0.81747459  1
  H  H8  1  0.13342192  0.38090412  0.81747459  1
  H  H9  1  0.86657808  0.88090412  0.18252541  1
  H  H10  1  0.13869228  0.65559412  0.44712614  1
  H  H11  1  0.86130772  0.15559412  0.55287386  1
  H  H12  1  0.86130772  0.34440588  0.55287386  1
  H  H13  1  0.13869228  0.84440588  0.44712614  1
  H  H14  1  0.33373559  0.58564003  0.71744828  1
  H  H15  1  0.66626441  0.08564003  0.28255172  1
  H  H16  1  0.66626441  0.41435997  0.28255172  1
  H  H17  1  0.33373559  0.91435997  0.71744828  1
  H  H18  1  0.37475418  0.48085431  0.68102563  1
  H  H19  1  0.62524582  0.98085431  0.31897437  1
  H  H20  1  0.62524582  0.51914569  0.31897437  1
  H  H21  1  0.37475418  0.01914569  0.68102563  1
  H  H22  1  0.20588501  0.25000000  0.35395346  1
  H  H23  1  0.79411499  0.75000000  0.64604654  1
  H  H24  1  0.42356599  0.25000000  0.33913395  1
  H  H25  1  0.57643401  0.75000000  0.66086605  1
  H  H26  1  0.48454305  0.34606095  0.88805125  1
  H  H27  1  0.51545695  0.84606095  0.11194875  1
  H  H28  1  0.51545695  0.65393905  0.11194875  1
  H  H29  1  0.48454305  0.15393905  0.88805125  1
  H  H30  1  0.37967651  0.32980387  0.65457126  1
  H  H31  1  0.62032349  0.82980387  0.34542874  1
  H  H32  1  0.62032349  0.67019613  0.34542874  1
  H  H33  1  0.37967651  0.17019613  0.65457126  1
  C  C34  1  0.21324363  0.53525418  0.43327013  1
  C  C35  1  0.78675637  0.03525418  0.56672987  1
  C  C36  1  0.78675637  0.46474582  0.56672987  1
  C  C37  1  0.21324363  0.96474582  0.43327013  1
  S  S38  1  0.19530171  0.44809180  0.28834118  1
  S  S39  1  0.80469829  0.94809180  0.71165882  1
  S  S40  1  0.80469829  0.55190820  0.71165882  1
  S  S41  1  0.19530171  0.05190820  0.28834118  1
  S  S42  1  0.78180160  0.25000000  0.18777403  1
  S  S43  1  0.21819840  0.75000000  0.81222597  1
  N  N44  1  0.00666220  0.60620331  0.16060726  1
  N  N45  1  0.99333780  0.10620331  0.83939274  1
  N  N46  1  0.99333780  0.39379669  0.83939274  1
  N  N47  1  0.00666220  0.89379669  0.16060726  1
  N  N48  1  0.13057725  0.60394655  0.35600186  1
  N  N49  1  0.86942275  0.10394655  0.64399814  1
  N  N50  1  0.86942275  0.39605345  0.64399814  1
  N  N51  1  0.13057725  0.89605345  0.35600186  1
  N  N52  1  0.31329459  0.53424900  0.62658629  1
  N  N53  1  0.68670541  0.03424900  0.37341371  1
  N  N54  1  0.68670541  0.46575100  0.37341371  1
  N  N55  1  0.31329459  0.96575100  0.62658629  1
  O  O56  1  0.95687019  0.25000000  0.08778174  1
  O  O57  1  0.04312981  0.75000000  0.91221826  1
  O  O58  1  0.84466688  0.25000000  0.41992787  1
  O  O59  1  0.15533312  0.75000000  0.58007213  1
  O  O60  1  0.66294833  0.32339411  0.12366605  1
  O  O61  1  0.33705167  0.82339411  0.87633395  1
  O  O62  1  0.33705167  0.67660589  0.87633395  1
  O  O63  1  0.66294833  0.17660589  0.12366605  1
  O  O64  1  0.33609783  0.25000000  0.43953661  1
  O  O65  1  0.66390217  0.75000000  0.56046339  1
  O  O66  1  0.38630316  0.36737066  0.77232991  1
  O  O67  1  0.61369684  0.86737066  0.22767009  1
  O  O68  1  0.61369684  0.63262934  0.22767009  1
  O  O69  1  0.38630316  0.13262934  0.77232991  1
