# generated using pymatgen
data_Zn9Fe15O32
_symmetry_space_group_name_H-M   'P 1'
_cell_length_a   6.01002208
_cell_length_b   6.04621264
_cell_length_c   19.98380883
_cell_angle_alpha   98.96968581
_cell_angle_beta   89.47745929
_cell_angle_gamma   119.81501461
_symmetry_Int_Tables_number   1
_chemical_formula_structural   Zn9Fe15O32
_chemical_formula_sum   'Zn9 Fe15 O32'
_cell_volume   620.35969362
_cell_formula_units_Z   1
loop_
 _symmetry_equiv_pos_site_id
 _symmetry_equiv_pos_as_xyz
  1  'x, y, z'
loop_
 _atom_site_type_symbol
 _atom_site_label
 _atom_site_symmetry_multiplicity
 _atom_site_fract_x
 _atom_site_fract_y
 _atom_site_fract_z
 _atom_site_occupancy
  Zn  Zn0  1  0.21676585  0.93671552  0.15565838  1
  Zn  Zn1  1  0.99846222  0.00530686  0.00035967  1
  Zn  Zn2  1  0.71922148  0.93598020  0.15551856  1
  Zn  Zn3  1  0.47055832  0.44198573  0.40795649  1
  Zn  Zn4  1  0.97139772  0.44173041  0.40784245  1
  Zn  Zn5  1  0.84302998  0.68896770  0.53063663  1
  Zn  Zn6  1  0.71806804  0.93672477  0.65587736  1
  Zn  Zn7  1  0.59476044  0.18731365  0.78130939  1
  Zn  Zn8  1  0.46928287  0.43814163  0.90583116  1
  Fe  Fe9  1  0.34410745  0.68727775  0.03031758  1
  Fe  Fe10  1  0.21702440  0.43410756  0.15564657  1
  Fe  Fe11  1  0.68503846  0.36704462  0.06145539  1
  Fe  Fe12  1  0.43381133  0.86743058  0.31158412  1
  Fe  Fe13  1  0.09276929  0.18574301  0.28146320  1
  Fe  Fe14  1  0.75321989  0.50739282  0.25240061  1
  Fe  Fe15  1  0.96900884  0.93993388  0.40813960  1
  Fe  Fe16  1  0.21882210  0.93740972  0.65623486  1
  Fe  Fe17  1  0.18998826  0.37008654  0.56360651  1
  Fe  Fe18  1  0.24562453  0.50307393  0.74758469  1
  Fe  Fe19  1  0.50242807  0.00977951  0.49925601  1
  Fe  Fe20  1  0.46837023  0.93464409  0.90533093  1
  Fe  Fe21  1  0.71879131  0.43790114  0.65617412  1
  Fe  Fe22  1  0.94253370  0.87150235  0.81418379  1
  Fe  Fe23  1  0.97048006  0.43724273  0.90620646  1
  O  O24  1  0.04460180  0.55772860  0.09364992  1
  O  O25  1  0.51192502  0.55645773  0.09258980  1
  O  O26  1  0.39912491  0.79774766  0.21415712  1
  O  O27  1  0.03866527  0.07714794  0.10179322  1
  O  O28  1  0.39163749  0.31614776  0.21953721  1
  O  O29  1  0.14925407  0.82100042  0.46563621  1
  O  O30  1  0.91623134  0.83278073  0.21998143  1
  O  O31  1  0.26888992  0.53877278  0.34366274  1
  O  O32  1  0.51918685  0.04071575  0.09243340  1
  O  O33  1  0.26340129  0.06127333  0.34349538  1
  O  O34  1  0.15135039  0.30112483  0.46621103  1
  O  O35  1  0.02800223  0.57078423  0.59863076  1
  O  O36  1  0.67047630  0.82250486  0.46656756  1
  O  O37  1  0.78903219  0.57989740  0.34862270  1
  O  O38  1  0.92391861  0.31540133  0.21981715  1
  O  O39  1  0.66652533  0.33158627  0.46730765  1
  O  O40  1  0.40796086  0.82950132  0.71554260  1
  O  O41  1  0.79705922  0.06121254  0.34384547  1
  O  O42  1  0.54388719  0.56049983  0.59659875  1
  O  O43  1  0.03003445  0.04490130  0.59710837  1
  O  O44  1  0.90928915  0.80164448  0.71530960  1
  O  O45  1  0.40966343  0.30412566  0.71413243  1
  O  O46  1  0.16556001  0.79434665  0.96529826  1
  O  O47  1  0.52819521  0.07390744  0.59831156  1
  O  O48  1  0.27977044  0.57257358  0.84560628  1
  O  O49  1  0.89199719  0.31272772  0.71557766  1
  O  O50  1  0.62643419  0.80431955  0.96709841  1
  O  O51  1  0.16209551  0.34263991  0.96616044  1
  O  O52  1  0.29532949  0.06079607  0.84688321  1
  O  O53  1  0.78150128  0.54607291  0.84648338  1
  O  O54  1  0.77888330  0.06779329  0.84818161  1
  O  O55  1  0.65655320  0.29843043  0.96319417  1
