# generated using pymatgen
data_V9PO25
_symmetry_space_group_name_H-M   'P 1'
_cell_length_a   3.63186381
_cell_length_b   10.86291853
_cell_length_c   10.86291853
_cell_angle_alpha   91.60134713
_cell_angle_beta   99.62320141
_cell_angle_gamma   80.37679859
_symmetry_Int_Tables_number   1
_chemical_formula_structural   V9PO25
_chemical_formula_sum   'V9 P1 O25'
_cell_volume   416.59434911
_cell_formula_units_Z   1
loop_
 _symmetry_equiv_pos_site_id
 _symmetry_equiv_pos_as_xyz
  1  'x, y, z'
loop_
 _atom_site_type_symbol
 _atom_site_label
 _atom_site_symmetry_multiplicity
 _atom_site_fract_x
 _atom_site_fract_y
 _atom_site_fract_z
 _atom_site_occupancy
  V  V0  1  0.00000000  0.00000000  0.00000000  1
  V  V1  1  0.11474583  0.10063338  0.32669009  1
  V  V2  1  0.89861687  0.44828241  0.21817364  1
  V  V3  1  0.65310072  0.21817364  0.55171759  1
  V  V4  1  0.21194426  0.67330991  0.10063338  1
  V  V5  1  0.78462079  0.32669009  0.89936662  1
  V  V6  1  0.31955677  0.78182636  0.44828241  1
  V  V7  1  0.12872664  0.55171759  0.78182636  1
  V  V8  1  0.88869013  0.89936662  0.67330991  1
  P  P9  1  0.75000000  0.50000000  0.50000000  1
  O  O10  1  0.50000000  0.00000000  0.00000000  1
  O  O11  1  0.05517821  0.06025058  0.16901886  1
  O  O12  1  0.81201951  0.39706600  0.04024319  1
  O  O13  1  0.61381549  0.14201330  0.35622795  1
  O  O14  1  0.98754852  0.30114791  0.26165920  1
  O  O15  1  0.79091449  0.04024319  0.60293400  1
  O  O16  1  0.16262196  0.19667600  0.50873926  1
  O  O17  1  0.34611730  0.49126074  0.19667600  1
  O  O18  1  0.74241146  0.64377205  0.14201330  1
  O  O19  1  0.57038034  0.38009256  0.47805314  1
  O  O20  1  0.11383965  0.83098114  0.06025058  1
  O  O21  1  0.90767279  0.52194686  0.38009256  1
  O  O22  1  0.71130357  0.26165920  0.69885209  1
  O  O23  1  0.27411068  0.73834080  0.30114791  1
  O  O24  1  0.04952710  0.47805314  0.61990744  1
  O  O25  1  0.88457121  0.16901886  0.93974942  1
  O  O26  1  0.47241977  0.61990744  0.52194686  1
  O  O27  1  0.24417021  0.35622795  0.85798670  1
  O  O28  1  0.64070204  0.50873926  0.80332400  1
  O  O29  1  0.85055869  0.80332400  0.49126074  1
  O  O30  1  0.22822368  0.95975681  0.39706600  1
  O  O31  1  0.02703723  0.69885209  0.73834080  1
  O  O32  1  0.39960184  0.85798670  0.64377205  1
  O  O33  1  0.16884232  0.60293400  0.95975681  1
  O  O34  1  0.94641093  0.93974942  0.83098114  1
