# generated using pymatgen
data_Li4Mn3Cr2Co3O16
_symmetry_space_group_name_H-M   'P 1'
_cell_length_a   5.78359444
_cell_length_b   5.80396263
_cell_length_c   9.48454901
_cell_angle_alpha   89.63906781
_cell_angle_beta   89.77846927
_cell_angle_gamma   120.29771989
_symmetry_Int_Tables_number   1
_chemical_formula_structural   Li4Mn3Cr2Co3O16
_chemical_formula_sum   'Li4 Mn3 Cr2 Co3 O16'
_cell_volume   274.87545160
_cell_formula_units_Z   1
loop_
 _symmetry_equiv_pos_site_id
 _symmetry_equiv_pos_as_xyz
  1  'x, y, z'
loop_
 _atom_site_type_symbol
 _atom_site_label
 _atom_site_symmetry_multiplicity
 _atom_site_fract_x
 _atom_site_fract_y
 _atom_site_fract_z
 _atom_site_occupancy
  Li  Li0  1  0.33541244  0.66739884  0.89459090  1
  Li  Li1  1  0.00615882  0.00369050  0.99882364  1
  Li  Li2  1  0.00883585  0.00389946  0.49532682  1
  Li  Li3  1  0.66636301  0.33535324  0.38966455  1
  Mn  Mn4  1  0.66008813  0.82972699  0.21477716  1
  Mn  Mn5  1  0.82914503  0.66152732  0.71487208  1
  Mn  Mn6  1  0.82926802  0.16778770  0.71477180  1
  Cr  Cr7  1  0.32481783  0.66288128  0.48367642  1
  Cr  Cr8  1  0.66335243  0.32710934  0.98603331  1
  Co  Co9  1  0.16765293  0.83029451  0.21255442  1
  Co  Co10  1  0.16680667  0.33603156  0.21119005  1
  Co  Co11  1  0.33467093  0.16742231  0.71129070  1
  O  O12  1  0.15659803  0.83114306  0.60134170  1
  O  O13  1  0.03640348  0.52622994  0.33629766  1
  O  O14  1  0.33149317  0.66612354  0.11033944  1
  O  O15  1  0.00100520  0.00039929  0.30702397  1
  O  O16  1  0.00053648  -0.00015585  0.80984340  1
  O  O17  1  0.15560510  0.32548405  0.60067085  1
  O  O18  1  0.48079206  0.96262413  0.33497890  1
  O  O19  1  0.48644237  0.52483561  0.33972528  1
  O  O20  1  0.32778627  0.15680240  0.10500561  1
  O  O21  1  0.67777201  0.83958560  0.60288858  1
  O  O22  1  0.52487172  0.48811370  0.84150509  1
  O  O23  1  0.52478701  0.03603397  0.84118392  1
  O  O24  1  0.66650736  0.33355639  0.60964355  1
  O  O25  1  0.83980719  0.67744919  0.10370430  1
  O  O26  1  0.96340867  0.48158345  0.83554445  1
  O  O27  1  0.83361480  0.15736647  0.10057044  1
