# generated using pymatgen
data_Li4Ti3Mn6O18
_symmetry_space_group_name_H-M   'P 1'
_cell_length_a   9.04317292
_cell_length_b   25.92411410
_cell_length_c   2.90935316
_cell_angle_alpha   90.00003034
_cell_angle_beta   90.00008551
_cell_angle_gamma   90.01342959
_symmetry_Int_Tables_number   1
_chemical_formula_structural   Li4Ti3Mn6O18
_chemical_formula_sum   'Li8 Ti6 Mn12 O36'
_cell_volume   682.05781576
_cell_formula_units_Z   2
loop_
 _symmetry_equiv_pos_site_id
 _symmetry_equiv_pos_as_xyz
  1  'x, y, z'
loop_
 _atom_site_type_symbol
 _atom_site_label
 _atom_site_symmetry_multiplicity
 _atom_site_fract_x
 _atom_site_fract_y
 _atom_site_fract_z
 _atom_site_occupancy
  Li  Li0  1  0.19465663  0.98751084  0.99999826  1
  Li  Li1  1  0.20567160  0.20227614  0.00000009  1
  Li  Li2  1  0.29392218  0.70233805  0.99999890  1
  Li  Li3  1  0.30493640  0.48747558  0.00000101  1
  Li  Li4  1  0.69502256  0.51769391  0.99999869  1
  Li  Li5  1  0.69707114  0.30487579  0.00000020  1
  Li  Li6  1  0.80301848  0.80486975  0.99999807  1
  Li  Li7  1  0.80538335  0.01763305  0.99999884  1
  Ti  Ti8  1  0.00013238  0.10297860  0.99999843  1
  Ti  Ti9  1  0.50002415  0.60303574  0.99999944  1
  Ti  Ti10  1  0.49745987  0.39637333  0.99999870  1
  Ti  Ti11  1  0.64553737  0.69314701  0.50000061  1
  Ti  Ti12  1  0.85433426  0.19298541  0.49999978  1
  Ti  Ti13  1  0.00250962  0.89644486  0.00000077  1
  Mn  Mn14  1  0.99808432  0.50035016  0.00000610  1
  Mn  Mn15  1  0.02347457  0.30814251  0.00000051  1
  Mn  Mn16  1  0.14984618  0.58704832  0.50000301  1
  Mn  Mn17  1  0.14782027  0.80723189  0.50000122  1
  Mn  Mn18  1  0.35218280  0.30708608  0.50000014  1
  Mn  Mn19  1  0.35023396  0.08698653  0.50000273  1
  Mn  Mn20  1  0.47646773  0.80832265  0.00000060  1
  Mn  Mn21  1  0.50183368  0.00033803  -0.00000201  1
  Mn  Mn22  1  0.51507764  0.19237962  0.00000129  1
  Mn  Mn23  1  0.65022412  0.91279105  0.49998710  1
  Mn  Mn24  1  0.84984446  0.41269135  0.49999920  1
  Mn  Mn25  1  0.98481558  0.69246845  -0.00000163  1
  O  O26  1  0.98813672  0.42584731  0.00000261  1
  O  O27  1  0.00943550  0.57510346  0.00000397  1
  O  O28  1  0.06043413  0.93960375  0.50000208  1
  O  O29  1  0.05145667  0.15695184  0.50000115  1
  O  O30  1  0.11098286  0.66772553  0.50000328  1
  O  O31  1  0.10418405  0.76156253  0.00000239  1
  O  O32  1  0.14216349  0.50006857  0.50000457  1
  O  O33  1  0.15030684  0.28235556  0.50000265  1
  O  O34  1  0.18960327  0.85508171  0.00000216  1
  O  O35  1  0.20567229  0.08264948  0.00000261  1
  O  O36  1  0.29440340  0.58273609  0.00000204  1
  O  O37  1  0.31048171  0.35490624  0.00000041  1
  O  O38  1  0.34963359  0.78250606  0.50000188  1
  O  O39  1  0.35781276  0.00002908  0.49999802  1
  O  O40  1  0.39574030  0.26138820  -0.00000014  1
  O  O41  1  0.38901955  0.16758861  0.49999921  1
  O  O42  1  0.44862624  0.65700384  0.49999900  1
  O  O43  1  0.43965157  0.43954317  0.49999951  1
  O  O44  1  0.49064750  0.07507330  0.00000022  1
  O  O45  1  0.51182576  0.92584858  0.99999038  1
  O  O46  1  0.55752740  0.55880594  0.49999920  1
  O  O47  1  0.54791084  0.34072335  0.50000080  1
  O  O48  1  0.60239585  0.83352752  0.50000049  1
  O  O49  1  0.59973285  0.73859392  0.00000051  1
  O  O50  1  0.64671219  0.99994046  0.49999677  1
  O  O51  1  0.64591594  0.21375114  0.50000027  1
  O  O52  1  0.68579305  0.64252450  0.00000018  1
  O  O53  1  0.70359414  0.41274477  0.99999971  1
  O  O54  1  0.79645981  0.91287274  0.99998962  1
  O  O55  1  0.81418631  0.14235901  -0.00000013  1
  O  O56  1  0.85408304  0.71387507  0.50000220  1
  O  O57  1  0.85327693  0.49992591  0.50000175  1
  O  O58  1  0.90045266  0.23839778  0.00000068  1
  O  O59  1  0.89755752  0.33337111  0.50000168  1
  O  O60  1  0.95204913  0.84079831  0.49999954  1
  O  O61  1  0.94254886  0.05874490  0.49999867  1
