# generated using pymatgen
data_Na3Ni2P2(CO7)2
_symmetry_space_group_name_H-M   'P 1'
_cell_length_a   10.27133877
_cell_length_b   10.51778247
_cell_length_c   6.49256143
_cell_angle_alpha   90.00000000
_cell_angle_beta   90.00000000
_cell_angle_gamma   59.52190339
_symmetry_Int_Tables_number   1
_chemical_formula_structural   Na3Ni2P2(CO7)2
_chemical_formula_sum   'Na6 Ni4 P4 C4 O28'
_cell_volume   604.48488628
_cell_formula_units_Z   2
loop_
 _symmetry_equiv_pos_site_id
 _symmetry_equiv_pos_as_xyz
  1  'x, y, z'
loop_
 _atom_site_type_symbol
 _atom_site_label
 _atom_site_symmetry_multiplicity
 _atom_site_fract_x
 _atom_site_fract_y
 _atom_site_fract_z
 _atom_site_occupancy
  Na  Na0  1  0.00267299  0.24811575  0.03864808  1
  Na  Na1  1  0.49664966  0.25695906  0.98710420  1
  Na  Na2  1  0.49634828  0.25598436  0.51544480  1
  Na  Na3  1  0.50267299  0.74811575  0.46135192  1
  Na  Na4  1  0.99634828  0.75598436  0.98455520  1
  Na  Na5  1  0.99664966  0.75695906  0.51289580  1
  Ni  Ni6  1  0.27820190  0.06829016  0.74559993  1
  Ni  Ni7  1  0.21508485  0.43225890  0.24991577  1
  Ni  Ni8  1  0.77820190  0.56829016  0.75440007  1
  Ni  Ni9  1  0.71508485  0.93225890  0.25008423  1
  P  P10  1  0.35265248  0.07032067  0.25155329  1
  P  P11  1  0.14335279  0.42810811  0.75018520  1
  P  P12  1  0.85265248  0.57032067  0.24844671  1
  P  P13  1  0.64335279  0.92810811  0.74981480  1
  C  C14  1  0.81775574  0.09982362  0.25241432  1
  C  C15  1  0.31775574  0.59982362  0.24758568  1
  C  C16  1  0.68468671  0.39444884  0.74646490  1
  C  C17  1  0.18468671  0.89444884  0.75353510  1
  O  O18  1  0.09830166  0.03716678  0.76078602  1
  O  O19  1  0.26761542  0.06363792  0.06022896  1
  O  O20  1  0.27603541  0.04992046  0.44426783  1
  O  O21  1  0.14191451  0.28218275  0.75680796  1
  O  O22  1  0.02005948  0.44073346  0.24608135  1
  O  O23  1  0.47782151  0.06251756  0.75001739  1
  O  O24  1  0.35786952  0.21541713  0.25556823  1
  O  O25  1  0.23080555  0.44051639  0.93683634  1
  O  O26  1  0.22929556  0.43954541  0.56191168  1
  O  O27  1  0.67247419  0.14637301  0.25206940  1
  O  O28  1  0.17247419  0.64637301  0.24793060  1
  O  O29  1  0.40264720  0.45617422  0.24881938  1
  O  O30  1  0.63459208  0.30677136  0.74871773  1
  O  O31  1  0.13459208  0.80677136  0.75128227  1
  O  O32  1  0.86816471  0.18539806  0.25324353  1
  O  O33  1  0.36816471  0.68539806  0.24675647  1
  O  O34  1  0.59830166  0.53716678  0.73921398  1
  O  O35  1  0.82814777  0.35147304  0.75300721  1
  O  O36  1  0.32814777  0.85147304  0.74699279  1
  O  O37  1  0.77603541  0.54992046  0.05573217  1
  O  O38  1  0.76761542  0.56363792  0.43977104  1
  O  O39  1  0.64191451  0.78218275  0.74319204  1
  O  O40  1  0.52005948  0.94073346  0.25391865  1
  O  O41  1  0.97782151  0.56251756  0.74998261  1
  O  O42  1  0.85786952  0.71541713  0.24443177  1
  O  O43  1  0.73080555  0.94051639  0.56316366  1
  O  O44  1  0.72929556  0.93954541  0.93808832  1
  O  O45  1  0.90264720  0.95617422  0.25118062  1
