# generated using pymatgen
data_Mg14BiMo
_symmetry_space_group_name_H-M   'P 1'
_cell_length_a   6.30067594
_cell_length_b   6.30067544
_cell_length_c   10.32372496
_cell_angle_alpha   90.00000000
_cell_angle_beta   90.00000000
_cell_angle_gamma   120.00000261
_symmetry_Int_Tables_number   1
_chemical_formula_structural   Mg14BiMo
_chemical_formula_sum   'Mg14 Bi1 Mo1'
_cell_volume   354.92884702
_cell_formula_units_Z   1
loop_
 _symmetry_equiv_pos_site_id
 _symmetry_equiv_pos_as_xyz
  1  'x, y, z'
loop_
 _atom_site_type_symbol
 _atom_site_label
 _atom_site_symmetry_multiplicity
 _atom_site_fract_x
 _atom_site_fract_y
 _atom_site_fract_z
 _atom_site_occupancy
  Mg  Mg0  1  0.16463845  0.83231873  0.12500000  1
  Mg  Mg1  1  0.16687341  0.83343620  0.62500000  1
  Mg  Mg2  1  0.66768127  0.33536155  0.12500000  1
  Mg  Mg3  1  0.66656380  0.33312659  0.62500000  1
  Mg  Mg4  1  0.66768127  0.83231873  0.12500000  1
  Mg  Mg5  1  0.66656380  0.83343620  0.62500000  1
  Mg  Mg6  1  0.32892108  0.17107892  0.35889294  1
  Mg  Mg7  1  0.32892108  0.17107892  0.89110706  1
  Mg  Mg8  1  0.32892108  0.65784316  0.35889294  1
  Mg  Mg9  1  0.32892108  0.65784316  0.89110706  1
  Mg  Mg10  1  0.84215684  0.17107892  0.35889294  1
  Mg  Mg11  1  0.84215684  0.17107892  0.89110706  1
  Mg  Mg12  1  0.83333300  0.66666700  0.37327382  1
  Mg  Mg13  1  0.83333300  0.66666700  0.87672618  1
  Bi  Bi14  1  0.16666700  0.33333300  0.62500000  1
  Mo  Mo15  1  0.16666700  0.33333300  0.12500000  1
