# generated using pymatgen
data_YbScO2
_symmetry_space_group_name_H-M   'P 1'
_cell_length_a   3.20788884
_cell_length_b   3.20770371
_cell_length_c   10.81773227
_cell_angle_alpha   89.98917320
_cell_angle_beta   90.01054551
_cell_angle_gamma   120.00053488
_symmetry_Int_Tables_number   1
_chemical_formula_structural   YbScO2
_chemical_formula_sum   'Yb2 Sc2 O4'
_cell_volume   96.40022926
_cell_formula_units_Z   2
loop_
 _symmetry_equiv_pos_site_id
 _symmetry_equiv_pos_as_xyz
  1  'x, y, z'
loop_
 _atom_site_type_symbol
 _atom_site_label
 _atom_site_symmetry_multiplicity
 _atom_site_fract_x
 _atom_site_fract_y
 _atom_site_fract_z
 _atom_site_occupancy
  Yb  Yb0  1  0.33341245  0.66673081  0.75000542  1
  Yb  Yb1  1  0.66657970  0.33334074  0.24999449  1
  Sc  Sc2  1  0.99998994  0.99998922  0.00011308  1
  Sc  Sc3  1  0.00001160  0.99997215  0.49988608  1
  O  O4  1  0.33328375  0.66664009  0.11417034  1
  O  O5  1  0.33328651  0.66663567  0.38583698  1
  O  O6  1  0.66673138  0.33333789  0.61421051  1
  O  O7  1  0.66670367  0.33335344  0.88578309  1
