# generated using pymatgen
data_Li2TiFe2O5
_symmetry_space_group_name_H-M   'P 1'
_cell_length_a   6.11626510
_cell_length_b   7.99843719
_cell_length_c   4.21465855
_cell_angle_alpha   74.73991726
_cell_angle_beta   90.11251435
_cell_angle_gamma   76.40593744
_symmetry_Int_Tables_number   1
_chemical_formula_structural   Li2TiFe2O5
_chemical_formula_sum   'Li4 Ti2 Fe4 O10'
_cell_volume   192.89275512
_cell_formula_units_Z   2
loop_
 _symmetry_equiv_pos_site_id
 _symmetry_equiv_pos_as_xyz
  1  'x, y, z'
loop_
 _atom_site_type_symbol
 _atom_site_label
 _atom_site_symmetry_multiplicity
 _atom_site_fract_x
 _atom_site_fract_y
 _atom_site_fract_z
 _atom_site_occupancy
  Li  Li0  1  0.89164891  0.39103526  0.80820877  1
  Li  Li1  1  0.49987818  0.00003538  0.99992936  1
  Li  Li2  1  0.10844236  0.60894595  0.19174640  1
  Li  Li3  1  0.00006883  0.00007329  0.99991166  1
  Ti  Ti4  1  0.81328105  0.79808315  0.56268643  1
  Ti  Ti5  1  0.18671255  0.20191394  0.43721361  1
  Fe  Fe6  1  0.61864997  0.59463040  0.20466167  1
  Fe  Fe7  1  0.69481501  0.19883124  0.39953920  1
  Fe  Fe8  1  0.38125020  0.40529769  0.79543201  1
  Fe  Fe9  1  0.30518657  0.80115988  0.60055013  1
  O  O10  1  0.80947041  0.80835395  0.11704492  1
  O  O11  1  0.91771543  0.38430354  0.30640106  1
  O  O12  1  0.67891496  0.21912696  0.88977667  1
  O  O13  1  0.63840550  0.61903010  0.69498932  1
  O  O14  1  0.32106863  0.78089876  0.11031495  1
  O  O15  1  0.50002392  0.99998994  0.50003068  1
  O  O16  1  0.36162490  0.38095806  0.30506629  1
  O  O17  1  0.19052066  0.19164427  0.88284478  1
  O  O18  1  0.08232740  0.61568494  0.69362898  1
  O  O19  1  -0.00000447  0.00000229  0.50002312  1
