# generated using pymatgen
data_Li4Ti3Ni3(WO8)2
_symmetry_space_group_name_H-M   'P 1'
_cell_length_a   5.98520398
_cell_length_b   5.94739633
_cell_length_c   9.75057732
_cell_angle_alpha   90.37986770
_cell_angle_beta   90.69235105
_cell_angle_gamma   120.11119628
_symmetry_Int_Tables_number   1
_chemical_formula_structural   Li4Ti3Ni3(WO8)2
_chemical_formula_sum   'Li4 Ti3 Ni3 W2 O16'
_cell_volume   300.19304229
_cell_formula_units_Z   1
loop_
 _symmetry_equiv_pos_site_id
 _symmetry_equiv_pos_as_xyz
  1  'x, y, z'
loop_
 _atom_site_type_symbol
 _atom_site_label
 _atom_site_symmetry_multiplicity
 _atom_site_fract_x
 _atom_site_fract_y
 _atom_site_fract_z
 _atom_site_occupancy
  Li  Li0  1  0.32430312  0.66094444  0.89962919  1
  Li  Li1  1  0.98807914  0.99348221  0.98469197  1
  Li  Li2  1  0.00395461  0.00070052  0.49604082  1
  Li  Li3  1  0.66605430  0.33594150  0.40882218  1
  Ti  Ti4  1  0.18465006  0.84350292  0.21732689  1
  Ti  Ti5  1  0.17436115  0.33874858  0.21410620  1
  Ti  Ti6  1  0.34353574  0.18122833  0.71921035  1
  Ni  Ni7  1  0.65950764  0.82984274  0.20952306  1
  Ni  Ni8  1  0.83742157  0.65844104  0.71071803  1
  Ni  Ni9  1  0.83618440  0.17528966  0.71083488  1
  W  W10  1  0.34448187  0.67291436  0.49123243  1
  W  W11  1  0.68219193  0.34138273  0.98216146  1
  O  O12  1  0.17338684  0.83436423  0.59337805  1
  O  O13  1  0.04226421  0.52074892  0.34026219  1
  O  O14  1  0.30956638  0.65527694  0.10680410  1
  O  O15  1  0.00865788  0.00187166  0.30609409  1
  O  O16  1  0.01301027  0.00771274  0.79983687  1
  O  O17  1  0.17911586  0.33972455  0.59479704  1
  O  O18  1  0.46798875  0.96647247  0.34136662  1
  O  O19  1  0.46732156  0.50569597  0.33944734  1
  O  O20  1  0.33089389  0.16310712  0.10485799  1
  O  O21  1  0.66415856  0.83062241  0.58286506  1
  O  O22  1  0.50743002  0.47589762  0.84759598  1
  O  O23  1  0.50129420  0.03730122  0.85665767  1
  O  O24  1  0.63999397  0.31360620  0.60690360  1
  O  O25  1  0.83786050  0.65924468  0.09529758  1
  O  O26  1  0.96447260  0.48196333  0.84991642  1
  O  O27  1  0.84786098  0.17427092  0.09746393  1
