# generated using pymatgen
data_Na2Li3Ti3Al(PO4)6
_symmetry_space_group_name_H-M   'P 1'
_cell_length_a   8.72449361
_cell_length_b   8.79231371
_cell_length_c   8.72449382
_cell_angle_alpha   119.74516144
_cell_angle_beta   59.99999869
_cell_angle_gamma   119.74515936
_symmetry_Int_Tables_number   1
_chemical_formula_structural   Na2Li3Ti3Al(PO4)6
_chemical_formula_sum   'Na2 Li3 Ti3 Al1 P6 O24'
_cell_volume   475.04068244
_cell_formula_units_Z   1
loop_
 _symmetry_equiv_pos_site_id
 _symmetry_equiv_pos_as_xyz
  1  'x, y, z'
loop_
 _atom_site_type_symbol
 _atom_site_label
 _atom_site_symmetry_multiplicity
 _atom_site_fract_x
 _atom_site_fract_y
 _atom_site_fract_z
 _atom_site_occupancy
  Na  Na0  1  0.99534928  0.98604683  0.99534928  1
  Na  Na1  1  0.50370705  0.51112215  0.50370705  1
  Li  Li2  1  0.15232320  0.25509325  0.75883421  1
  Li  Li3  1  0.34393684  0.25509325  0.15232320  1
  Li  Li4  1  0.75883421  0.25509325  0.34393684  1
  Ti  Ti5  1  0.35071723  0.05215268  0.35071723  1
  Ti  Ti6  1  0.85713743  0.57141328  0.85713743  1
  Ti  Ti7  1  0.64191689  0.92575166  0.64191689  1
  Al  Al8  1  0.15021786  0.45065457  0.15021786  1
  P  P9  1  0.03506690  0.25179244  0.45799042  1
  P  P10  1  0.45799042  0.25179244  0.75873613  1
  P  P11  1  0.75873613  0.25179244  0.03506690  1
  P  P12  1  0.24983430  0.74502306  0.95674165  1
  P  P13  1  0.53844611  0.74502306  0.24983430  1
  P  P14  1  0.95674165  0.74502306  0.53844611  1
  O  O15  1  0.06373617  0.26629798  0.27240498  1
  O  O16  1  0.22416247  0.24389599  0.42745109  1
  O  O17  1  0.00606172  0.42355391  0.62819313  1
  O  O18  1  0.48370104  0.07678209  0.72609252  1
  O  O19  1  0.27240498  0.26629798  0.93015684  1
  O  O20  1  0.42745109  0.24389599  0.59228243  1
  O  O21  1  0.72609252  0.07678209  0.86698952  1
  O  O22  1  0.59228243  0.24389599  0.22416247  1
  O  O23  1  0.20635045  0.57088645  0.99496796  1
  O  O24  1  0.08139579  0.73878653  0.93600564  1
  O  O25  1  0.86698952  0.07678209  0.48370104  1
  O  O26  1  0.36956803  0.57088645  0.20635045  1
  O  O27  1  0.62819313  0.42355391  0.78929906  1
  O  O28  1  0.11879093  0.92965974  0.51701792  1
  O  O29  1  0.93015684  0.26629798  0.06373617  1
  O  O30  1  0.78929906  0.42355391  0.00606172  1
  O  O31  1  0.41927551  0.74918083  0.77496283  1
  O  O32  1  0.29385089  0.92965974  0.11879093  1
  O  O33  1  0.55494249  0.74918083  0.41927551  1
  O  O34  1  0.72138510  0.73878653  0.08139579  1
  O  O35  1  0.51701792  0.92965974  0.29385089  1
  O  O36  1  0.99496796  0.57088645  0.36956803  1
  O  O37  1  0.77496283  0.74918083  0.55494249  1
  O  O38  1  0.93600564  0.73878653  0.72138510  1
