# generated using pymatgen
data_Li4Mn3Fe3(NiO8)2
_symmetry_space_group_name_H-M   'P 1'
_cell_length_a   5.86059702
_cell_length_b   5.84505314
_cell_length_c   9.60446936
_cell_angle_alpha   90.01980333
_cell_angle_beta   90.18094421
_cell_angle_gamma   119.89679839
_symmetry_Int_Tables_number   1
_chemical_formula_structural   Li4Mn3Fe3(NiO8)2
_chemical_formula_sum   'Li4 Mn3 Fe3 Ni2 O16'
_cell_volume   285.22119578
_cell_formula_units_Z   1
loop_
 _symmetry_equiv_pos_site_id
 _symmetry_equiv_pos_as_xyz
  1  'x, y, z'
loop_
 _atom_site_type_symbol
 _atom_site_label
 _atom_site_symmetry_multiplicity
 _atom_site_fract_x
 _atom_site_fract_y
 _atom_site_fract_z
 _atom_site_occupancy
  Li  Li0  1  0.33486214  0.66753902  0.89207940  1
  Li  Li1  1  0.99811150  0.99891327  0.99844964  1
  Li  Li2  1  0.00007010  0.00005295  0.49787776  1
  Li  Li3  1  0.66568998  0.33299649  0.39140371  1
  Mn  Mn4  1  0.66010432  0.83007718  0.21368765  1
  Mn  Mn5  1  0.83106298  0.66227531  0.71485194  1
  Mn  Mn6  1  0.83104767  0.16882521  0.71487766  1
  Fe  Fe7  1  0.16827397  0.83051870  0.21436259  1
  Fe  Fe8  1  0.16827647  0.33780276  0.21437435  1
  Fe  Fe9  1  0.33698581  0.16853960  0.71480392  1
  Ni  Ni10  1  0.33452248  0.66717441  0.48934375  1
  Ni  Ni11  1  0.66545714  0.33252311  0.98741317  1
  O  O12  1  0.15813208  0.83835262  0.60714182  1
  O  O13  1  0.03609511  0.51801422  0.33322540  1
  O  O14  1  0.34580027  0.67290756  0.10122452  1
  O  O15  1  0.98655794  0.99337558  0.31355259  1
  O  O16  1  0.98568012  0.99293124  0.81380529  1
  O  O17  1  0.15776947  0.31971221  0.60713150  1
  O  O18  1  0.48474910  0.96314775  0.33242077  1
  O  O19  1  0.48498312  0.52188631  0.33246103  1
  O  O20  1  0.32157289  0.16086939  0.10526974  1
  O  O21  1  0.68328135  0.84153787  0.60610428  1
  O  O22  1  0.52162715  0.48464413  0.83202043  1
  O  O23  1  0.52187786  0.03700126  0.83207813  1
  O  O24  1  0.68216762  0.34103900  0.60557194  1
  O  O25  1  0.83633722  0.67861750  0.10489379  1
  O  O26  1  0.96277884  0.48155265  0.83256616  1
  O  O27  1  0.83612631  0.15747068  0.10484603  1
