# generated using pymatgen
data_Li2Fe3CoO8
_symmetry_space_group_name_H-M   'P 1'
_cell_length_a   5.90486049
_cell_length_b   5.90198907
_cell_length_c   9.37716816
_cell_angle_alpha   89.97758824
_cell_angle_beta   90.01119288
_cell_angle_gamma   119.98391972
_symmetry_Int_Tables_number   1
_chemical_formula_structural   Li2Fe3CoO8
_chemical_formula_sum   'Li4 Fe6 Co2 O16'
_cell_volume   283.06142825
_cell_formula_units_Z   2
loop_
 _symmetry_equiv_pos_site_id
 _symmetry_equiv_pos_as_xyz
  1  'x, y, z'
loop_
 _atom_site_type_symbol
 _atom_site_label
 _atom_site_symmetry_multiplicity
 _atom_site_fract_x
 _atom_site_fract_y
 _atom_site_fract_z
 _atom_site_occupancy
  Li  Li0  1  0.33325295  0.66656934  0.89613144  1
  Li  Li1  1  0.00002507  0.00046332  0.99389967  1
  Li  Li2  1  0.99997493  0.00043825  0.49389967  1
  Li  Li3  1  0.66674705  0.33331640  0.39613144  1
  Fe  Fe4  1  0.16994249  0.82970939  0.21158746  1
  Fe  Fe5  1  0.17041735  0.34047243  0.21150866  1
  Fe  Fe6  1  0.65956125  0.82946355  0.21154245  1
  Fe  Fe7  1  0.34043875  0.16990231  0.71154245  1
  Fe  Fe8  1  0.83005751  0.65976690  0.71158746  1
  Fe  Fe9  1  0.82958265  0.17005608  0.71150866  1
  Co  Co10  1  0.33327942  0.66677655  0.48296076  1
  Co  Co11  1  0.66672058  0.33349614  0.98296076  1
  O  O12  1  0.17105441  0.82912356  0.59731588  1
  O  O13  1  0.04524780  0.52244594  0.34895208  1
  O  O14  1  0.33332926  0.66687989  0.10276361  1
  O  O15  1  0.99985369  0.00001806  0.30431715  1
  O  O16  1  0.00014631  0.00016437  0.80431715  1
  O  O17  1  0.17127427  0.34251715  0.59720296  1
  O  O18  1  0.47718677  0.95426804  0.34904350  1
  O  O19  1  0.47741545  0.52232485  0.34926756  1
  O  O20  1  0.34201085  0.17104144  0.09742583  1
  O  O21  1  0.65798915  0.82903158  0.59742583  1
  O  O22  1  0.52281323  0.47708227  0.84904350  1
  O  O23  1  0.52258455  0.04491040  0.84926756  1
  O  O24  1  0.66667074  0.33355063  0.60276361  1
  O  O25  1  0.82894559  0.65806814  0.09731588  1
  O  O26  1  0.95475220  0.47719814  0.84895208  1
  O  O27  1  0.82872573  0.17124288  0.09720296  1
