# generated using pymatgen
data_Li3Al2VO6
_symmetry_space_group_name_H-M   'P 1'
_cell_length_a   5.38424074
_cell_length_b   5.84786692
_cell_length_c   7.83082607
_cell_angle_alpha   90.99553614
_cell_angle_beta   97.79305891
_cell_angle_gamma   90.55808984
_symmetry_Int_Tables_number   1
_chemical_formula_structural   Li3Al2VO6
_chemical_formula_sum   'Li6 Al4 V2 O12'
_cell_volume   244.23163975
_cell_formula_units_Z   2
loop_
 _symmetry_equiv_pos_site_id
 _symmetry_equiv_pos_as_xyz
  1  'x, y, z'
loop_
 _atom_site_type_symbol
 _atom_site_label
 _atom_site_symmetry_multiplicity
 _atom_site_fract_x
 _atom_site_fract_y
 _atom_site_fract_z
 _atom_site_occupancy
  Li  Li0  1  0.17961721  0.84277586  0.09614930  1
  Li  Li1  1  0.35249609  0.66075362  0.42269102  1
  Li  Li2  1  0.50292596  0.83200205  0.74621687  1
  Li  Li3  1  0.49707404  0.16799795  0.25378313  1
  Li  Li4  1  0.64750291  0.33924638  0.57730898  1
  Li  Li5  1  0.82038279  0.15722414  0.90385070  1
  Al  Al6  1  0.18006603  0.16728084  0.58924830  1
  Al  Al7  1  0.65413745  0.67260794  0.07665756  1
  Al  Al8  1  0.34586255  0.32739206  0.92334244  1
  Al  Al9  1  0.81993397  0.83271916  0.41075170  1
  V  V10  1  0.99692372  0.66808317  0.75303351  1
  V  V11  1  0.00307628  0.33191683  0.24696649  1
  O  O12  1  0.97192378  0.66490718  0.25304243  1
  O  O13  1  0.17462519  0.18750306  0.07506293  1
  O  O14  1  0.13891010  0.85293812  0.58085144  1
  O  O15  1  0.31339253  0.31953895  0.42720395  1
  O  O16  1  0.53363099  0.83000819  0.24561238  1
  O  O17  1  0.34173763  0.64126731  0.92571662  1
  O  O18  1  0.65826237  0.35873269  0.07428338  1
  O  O19  1  0.46636901  0.16999181  0.75438762  1
  O  O20  1  0.68660747  0.68046105  0.57279605  1
  O  O21  1  0.86108990  0.14706188  0.41914856  1
  O  O22  1  0.82537481  0.81249694  0.92493707  1
  O  O23  1  0.02807622  0.33509282  0.74695757  1
