# generated using pymatgen
data_LiFePCO7
_symmetry_space_group_name_H-M   'P 1'
_cell_length_a   8.48977825
_cell_length_b   8.24125466
_cell_length_c   8.28284136
_cell_angle_alpha   77.87939311
_cell_angle_beta   85.86210024
_cell_angle_gamma   93.64496174
_symmetry_Int_Tables_number   1
_chemical_formula_structural   LiFePCO7
_chemical_formula_sum   'Li4 Fe4 P4 C4 O28'
_cell_volume   563.28045251
_cell_formula_units_Z   4
loop_
 _symmetry_equiv_pos_site_id
 _symmetry_equiv_pos_as_xyz
  1  'x, y, z'
loop_
 _atom_site_type_symbol
 _atom_site_label
 _atom_site_symmetry_multiplicity
 _atom_site_fract_x
 _atom_site_fract_y
 _atom_site_fract_z
 _atom_site_occupancy
  Li  Li0  1  0.88888573  0.25681984  0.50196618  1
  Li  Li1  1  0.71158931  0.41048380  0.12862694  1
  Li  Li2  1  0.10923414  0.73604671  0.51334046  1
  Li  Li3  1  0.11561087  0.22851105  0.01280654  1
  Fe  Fe4  1  0.66488594  0.53084772  0.72005658  1
  Fe  Fe5  1  0.66419997  0.02195091  0.22164390  1
  Fe  Fe6  1  0.33694959  0.97302794  0.77507193  1
  Fe  Fe7  1  0.33686528  0.47943645  0.27068641  1
  P  P8  1  0.57767361  0.24453175  0.50645900  1
  P  P9  1  0.57687340  0.74561607  0.99844123  1
  P  P10  1  0.42470600  0.26393329  0.99389991  1
  P  P11  1  0.42206356  0.75872840  0.48846414  1
  C  C12  1  0.95110936  0.47370438  0.78401088  1
  C  C13  1  0.95117517  0.97397516  0.27486579  1
  C  C14  1  0.05402529  0.02969932  0.72409633  1
  C  C15  1  0.03906626  0.50637151  0.23073199  1
  O  O16  1  0.93127845  0.58634247  0.65421487  1
  O  O17  1  0.92811496  0.09755052  0.15523812  1
  O  O18  1  0.91805474  0.06525195  0.68736598  1
  O  O19  1  0.81939866  0.40513969  0.87212979  1
  O  O20  1  0.89981861  0.52372500  0.19020606  1
  O  O21  1  0.82175197  0.89019776  0.35215226  1
  O  O22  1  0.69000091  0.36498263  0.57585161  1
  O  O23  1  0.69280426  0.19510433  0.37121966  1
  O  O24  1  0.68602287  0.69375349  0.86408833  1
  O  O25  1  0.67299574  0.88118349  0.06085041  1
  O  O26  1  0.52127824  0.09142242  0.64550467  1
  O  O27  1  0.57657918  0.20726814  0.07608966  1
  O  O28  1  0.56996647  0.68052508  0.55476999  1
  O  O29  1  0.53381338  0.58675839  0.14129603  1
  O  O30  1  0.47891636  0.41067156  0.84721566  1
  O  O31  1  0.43392011  0.32501183  0.43201196  1
  O  O32  1  0.42029225  0.80623565  0.93495229  1
  O  O33  1  0.47849788  0.91163766  0.34790986  1
  O  O34  1  0.32402590  0.12767622  0.93678320  1
  O  O35  1  0.31019161  0.81367842  0.61904763  1
  O  O36  1  0.30700783  0.32145911  0.11941496  1
  O  O37  1  0.31090894  0.63708312  0.41962129  1
  O  O38  1  0.18058131  0.11401134  0.64060645  1
  O  O39  1  0.08113369  0.42293246  0.82749253  1
  O  O40  1  0.15841075  0.60059821  0.14780767  1
  O  O41  1  0.08309872  0.93307525  0.32137349  1
  O  O42  1  0.07253969  0.39441711  0.35548202  1
  O  O43  1  0.08949702  0.91185841  0.84288535  1
