# generated using pymatgen
data_CoBO3
_symmetry_space_group_name_H-M   'P 1'
_cell_length_a   6.06790415
_cell_length_b   5.30994056
_cell_length_c   5.26661239
_cell_angle_alpha   55.25993159
_cell_angle_beta   110.21140531
_cell_angle_gamma   83.38993936
_symmetry_Int_Tables_number   1
_chemical_formula_structural   CoBO3
_chemical_formula_sum   'Co2 B2 O6'
_cell_volume   119.66911291
_cell_formula_units_Z   2
loop_
 _symmetry_equiv_pos_site_id
 _symmetry_equiv_pos_as_xyz
  1  'x, y, z'
loop_
 _atom_site_type_symbol
 _atom_site_label
 _atom_site_symmetry_multiplicity
 _atom_site_fract_x
 _atom_site_fract_y
 _atom_site_fract_z
 _atom_site_occupancy
  Co  Co0  1  0.73582231  0.21251492  0.14724920  1
  Co  Co1  1  0.26417769  0.78748508  0.85275080  1
  B  B2  1  0.74174958  0.90035275  0.82340370  1
  B  B3  1  0.25825042  0.09964725  0.17659630  1
  O  O4  1  0.63554269  0.67177909  0.95551199  1
  O  O5  1  0.86886848  0.89363798  0.65176532  1
  O  O6  1  0.71254130  0.14366690  0.84732308  1
  O  O7  1  0.28745870  0.85633310  0.15267692  1
  O  O8  1  0.13113152  0.10636202  0.34823468  1
  O  O9  1  0.36445731  0.32822091  0.04448801  1
