# generated using pymatgen
data_Li3TiMn3O8
_symmetry_space_group_name_H-M   'P 1'
_cell_length_a   10.48100956
_cell_length_b   10.31039307
_cell_length_c   14.80834308
_cell_angle_alpha   19.31017862
_cell_angle_beta   19.30350267
_cell_angle_gamma   32.86231443
_symmetry_Int_Tables_number   1
_chemical_formula_structural   Li3TiMn3O8
_chemical_formula_sum   'Li3 Ti1 Mn3 O8'
_cell_volume   154.96911442
_cell_formula_units_Z   1
loop_
 _symmetry_equiv_pos_site_id
 _symmetry_equiv_pos_as_xyz
  1  'x, y, z'
loop_
 _atom_site_type_symbol
 _atom_site_label
 _atom_site_symmetry_multiplicity
 _atom_site_fract_x
 _atom_site_fract_y
 _atom_site_fract_z
 _atom_site_occupancy
  Li  Li0  1  0.99999423  0.49999061  0.50001130  1
  Li  Li1  1  0.49999427  0.99998934  0.50001204  1
  Li  Li2  1  0.50001346  0.49999383  0.49999646  1
  Ti  Ti3  1  0.99999309  0.00000837  0.00000095  1
  Mn  Mn4  1  0.99999503  0.49999492  0.00000615  1
  Mn  Mn5  1  0.50000661  0.00000623  0.99998840  1
  Mn  Mn6  1  0.49999671  0.50000316  0.00000021  1
  O  O7  1  0.05009614  0.04239211  0.19655899  1
  O  O8  1  0.06009126  0.55013805  0.18446102  1
  O  O9  1  0.48693656  0.97528557  0.29097213  1
  O  O10  1  0.94991316  0.95761171  0.80343047  1
  O  O11  1  0.42127501  0.47626703  0.32799532  1
  O  O12  1  0.93990213  0.44986435  0.81554295  1
  O  O13  1  0.51306858  0.02472138  0.70901879  1
  O  O14  1  0.57872576  0.52373433  0.67200482  1
