# generated using pymatgen
data_Li4Ni5BiO12
_symmetry_space_group_name_H-M   'P 1'
_cell_length_a   5.19123443
_cell_length_b   5.15048090
_cell_length_c   10.12156714
_cell_angle_alpha   91.10434916
_cell_angle_beta   92.19175788
_cell_angle_gamma   59.73791274
_symmetry_Int_Tables_number   1
_chemical_formula_structural   Li4Ni5BiO12
_chemical_formula_sum   'Li4 Ni5 Bi1 O12'
_cell_volume   233.57478360
_cell_formula_units_Z   1
loop_
 _symmetry_equiv_pos_site_id
 _symmetry_equiv_pos_as_xyz
  1  'x, y, z'
loop_
 _atom_site_type_symbol
 _atom_site_label
 _atom_site_symmetry_multiplicity
 _atom_site_fract_x
 _atom_site_fract_y
 _atom_site_fract_z
 _atom_site_occupancy
  Li  Li0  1  0.17479539  0.45876977  0.74198929  1
  Li  Li1  1  0.36643484  0.45876977  0.25801071  1
  Li  Li2  1  0.63356516  0.54123023  0.74198929  1
  Li  Li3  1  0.82520461  0.54123023  0.25801071  1
  Ni  Ni4  1  0.16430791  0.67138418  0.50000000  1
  Ni  Ni5  1  0.66563992  0.66871916  0.00000000  1
  Ni  Ni6  1  0.33436008  0.33128084  1.00000000  1
  Ni  Ni7  1  0.83569209  0.32861582  0.50000000  1
  Ni  Ni8  1  0.50000000  0.00000000  0.50000000  1
  Bi  Bi9  1  0.00000000  0.00000000  0.00000000  1
  O  O10  1  0.02788493  0.64134847  0.11412824  1
  O  O11  1  0.33076661  0.64134847  0.88587176  1
  O  O12  1  0.15755705  0.35782740  0.39793875  1
  O  O13  1  0.51538445  0.64217260  0.39793875  1
  O  O14  1  0.48461555  0.35782740  0.60206125  1
  O  O15  1  0.17826631  0.00000000  0.58984577  1
  O  O16  1  0.84244295  0.64217260  0.60206125  1
  O  O17  1  0.66923339  0.35865153  0.11412824  1
  O  O18  1  0.35907987  0.00000000  0.10510777  1
  O  O19  1  0.97211507  0.35865153  0.88587176  1
  O  O20  1  0.64092013  1.00000000  0.89489223  1
  O  O21  1  0.82173369  1.00000000  0.41015423  1
