# generated using pymatgen
data_Li3MnO3
_symmetry_space_group_name_H-M   'P 1'
_cell_length_a   5.57945352
_cell_length_b   5.16922239
_cell_length_c   9.95461524
_cell_angle_alpha   90.00000000
_cell_angle_beta   90.00000000
_cell_angle_gamma   104.72581734
_symmetry_Int_Tables_number   1
_chemical_formula_structural   Li3MnO3
_chemical_formula_sum   'Li12 Mn4 O12'
_cell_volume   277.67493735
_cell_formula_units_Z   4
loop_
 _symmetry_equiv_pos_site_id
 _symmetry_equiv_pos_as_xyz
  1  'x, y, z'
loop_
 _atom_site_type_symbol
 _atom_site_label
 _atom_site_symmetry_multiplicity
 _atom_site_fract_x
 _atom_site_fract_y
 _atom_site_fract_z
 _atom_site_occupancy
  Li  Li0  1  0.08966771  0.94015831  0.78205877  1
  Li  Li1  1  0.33133396  0.86624869  0.00396821  1
  Li  Li2  1  0.42952796  0.93271889  0.25655237  1
  Li  Li3  1  0.08966771  0.44015831  0.71794123  1
  Li  Li4  1  0.57047204  0.56728111  0.75655237  1
  Li  Li5  1  0.33133396  0.36624869  0.49603179  1
  Li  Li6  1  0.66866604  0.63375131  0.50396821  1
  Li  Li7  1  0.42952796  0.43271889  0.24344763  1
  Li  Li8  1  0.91033229  0.55984169  0.28205877  1
  Li  Li9  1  0.57047204  0.06728111  0.74344763  1
  Li  Li10  1  0.66866604  0.13375131  0.99603179  1
  Li  Li11  1  0.91033229  0.05984169  0.21794123  1
  Mn  Mn12  1  0.17889402  0.83012749  0.49737186  1
  Mn  Mn13  1  0.17889402  0.33012749  0.00262814  1
  Mn  Mn14  1  0.82110598  0.66987251  0.99737186  1
  Mn  Mn15  1  0.82110598  0.16987251  0.50262814  1
  O  O16  1  0.10581341  0.61429122  0.89317508  1
  O  O17  1  0.23398576  0.59547498  0.36479796  1
  O  O18  1  0.40370338  0.73657092  0.61907954  1
  O  O19  1  0.59629662  0.76342908  0.11907954  1
  O  O20  1  0.76601424  0.90452502  0.86479796  1
  O  O21  1  0.89418659  0.88570878  0.39317508  1
  O  O22  1  0.10581341  0.11429122  0.60682492  1
  O  O23  1  0.23398576  0.09547498  0.13520204  1
  O  O24  1  0.40370338  0.23657092  0.88092046  1
  O  O25  1  0.59629662  0.26342908  0.38092046  1
  O  O26  1  0.76601424  0.40452502  0.63520204  1
  O  O27  1  0.89418659  0.38570878  0.10682492  1
