# generated using pymatgen
data_LiFePCO7
_symmetry_space_group_name_H-M   'P 1'
_cell_length_a   10.59116406
_cell_length_b   5.16647605
_cell_length_c   10.65512635
_cell_angle_alpha   85.87911161
_cell_angle_beta   74.76078841
_cell_angle_gamma   85.88470829
_symmetry_Int_Tables_number   1
_chemical_formula_structural   LiFePCO7
_chemical_formula_sum   'Li4 Fe4 P4 C4 O28'
_cell_volume   560.23445058
_cell_formula_units_Z   4
loop_
 _symmetry_equiv_pos_site_id
 _symmetry_equiv_pos_as_xyz
  1  'x, y, z'
loop_
 _atom_site_type_symbol
 _atom_site_label
 _atom_site_symmetry_multiplicity
 _atom_site_fract_x
 _atom_site_fract_y
 _atom_site_fract_z
 _atom_site_occupancy
  Li  Li0  1  0.06770047  0.22677606  0.82087173  1
  Li  Li1  1  0.56846749  0.22775992  0.32450477  1
  Li  Li2  1  0.92952732  0.76945793  0.18208831  1
  Li  Li3  1  0.41392791  0.24718209  0.86634163  1
  Fe  Fe4  1  0.28997000  0.80205513  0.04692277  1
  Fe  Fe5  1  0.20932454  0.20061939  0.45874665  1
  Fe  Fe6  1  0.78969832  0.80469963  0.54213130  1
  Fe  Fe7  1  0.70598914  0.19764015  0.95669571  1
  P  P8  1  0.08689046  0.72914442  0.33910712  1
  P  P9  1  0.41654980  0.27492460  0.16218233  1
  P  P10  1  0.58385360  0.73483066  0.83687793  1
  P  P11  1  0.91183324  0.27484744  0.66242338  1
  C  C12  1  0.34811480  0.28677549  0.60661171  1
  C  C13  1  0.85449520  0.29303587  0.10263487  1
  C  C14  1  0.15410604  0.70342800  0.89263762  1
  C  C15  1  0.64495096  0.70412859  0.39941563  1
  O  O16  1  0.12663594  0.79275837  0.18884153  1
  O  O17  1  0.34307515  0.13897299  0.07893297  1
  O  O18  1  0.11531453  0.43496160  0.36607732  1
  O  O19  1  0.39163656  0.57019030  0.13457543  1
  O  O20  1  0.16075468  0.87908360  0.41370849  1
  O  O21  1  0.06146934  0.20825613  0.62918571  1
  O  O22  1  0.37657013  0.19995714  0.30947273  1
  O  O23  1  0.56629092  0.20082861  0.12522087  1
  O  O24  1  0.79088635  0.45906378  0.03994414  1
  O  O25  1  0.29577118  0.46767470  0.54153987  1
  O  O26  1  0.08438998  0.61736967  0.82763470  1
  O  O27  1  0.57805456  0.62084944  0.33058110  1
  O  O28  1  0.32794683  0.05446108  0.57877344  1
  O  O29  1  0.84169179  0.05059498  0.08863999  1
  O  O30  1  0.16103750  0.94610492  0.91336259  1
  O  O31  1  0.66242791  0.94571269  0.41211516  1
  O  O32  1  0.92204846  0.38054280  0.17008424  1
  O  O33  1  0.40956082  0.33356409  0.68733280  1
  O  O34  1  0.22463841  0.53813014  0.95046319  1
  O  O35  1  0.70651562  0.53627559  0.46313257  1
  O  O36  1  0.43841069  0.84083854  0.87808422  1
  O  O37  1  0.62952795  0.79958895  0.68960784  1
  O  O38  1  0.93655062  0.79249150  0.37391945  1
  O  O39  1  0.83872198  0.12840696  0.58489252  1
  O  O40  1  0.59166556  0.43424033  0.87087462  1
  O  O41  1  0.88586660  0.56903006  0.63348592  1
  O  O42  1  0.66614445  0.86564109  0.91303365  1
  O  O43  1  0.86908018  0.21158857  0.81238948  1
