# generated using pymatgen
data_Li3V3(BO5)2
_symmetry_space_group_name_H-M   'P 1'
_cell_length_a   9.26970468
_cell_length_b   12.22733491
_cell_length_c   3.03871779
_cell_angle_alpha   89.90915078
_cell_angle_beta   89.41154954
_cell_angle_gamma   89.75167322
_symmetry_Int_Tables_number   1
_chemical_formula_structural   Li3V3(BO5)2
_chemical_formula_sum   'Li6 V6 B4 O20'
_cell_volume   344.39796353
_cell_formula_units_Z   2
loop_
 _symmetry_equiv_pos_site_id
 _symmetry_equiv_pos_as_xyz
  1  'x, y, z'
loop_
 _atom_site_type_symbol
 _atom_site_label
 _atom_site_symmetry_multiplicity
 _atom_site_fract_x
 _atom_site_fract_y
 _atom_site_fract_z
 _atom_site_occupancy
  Li  Li0  1  0.00520078  0.99837771  0.00172100  1
  Li  Li1  1  0.97700054  0.50870756  0.49993376  1
  Li  Li2  1  0.51806336  0.50684954  0.00253504  1
  Li  Li3  1  0.49840027  0.00020811  0.49929020  1
  Li  Li4  1  0.73050434  0.40055964  0.49917358  1
  Li  Li5  1  0.98598002  0.70963885  0.00156875  1
  V  V6  1  0.99334665  0.29021768  0.00003761  1
  V  V7  1  0.23802721  0.10735043  0.50071470  1
  V  V8  1  0.24940252  0.61198016  0.52062457  1
  V  V9  1  0.50026027  0.78414610  0.99800731  1
  V  V10  1  0.50790675  0.21991370  0.99959280  1
  V  V11  1  0.76565087  0.88468777  0.47103418  1
  B  B12  1  0.22789276  0.85747147  0.49889912  1
  B  B13  1  0.27467216  0.36230926  0.49717869  1
  B  B14  1  0.72969509  0.63378779  0.50166613  1
  B  B15  1  0.77903140  0.13653077  0.50407223  1
  O  O16  1  0.10716693  0.15459582  0.00006380  1
  O  O17  1  0.13380821  0.57451198  0.97994327  1
  O  O18  1  0.12425050  0.34658969  0.49658818  1
  O  O19  1  0.15705720  0.76002307  0.49528661  1
  O  O20  1  0.15572892  0.95681455  0.49986667  1
  O  O21  1  0.33984454  0.45938126  0.49683920  1
  O  O22  1  0.35764363  0.26250265  0.50088758  1
  O  O23  1  0.38150093  0.85648422  0.49587708  1
  O  O24  1  0.38560965  0.08567428  0.00242145  1
  O  O25  1  0.38459760  0.65203071  0.01137164  1
  O  O26  1  0.59266556  0.34130921  0.99814680  1
  O  O27  1  0.62270405  0.92112262  0.99131311  1
  O  O28  1  0.62637277  0.14907727  0.49689398  1
  O  O29  1  0.64675905  0.74252387  0.49737774  1
  O  O30  1  0.64613168  0.54531527  0.49882536  1
  O  O31  1  0.84181890  0.03688119  0.51730360  1
  O  O32  1  0.86456457  0.23038307  0.50296127  1
  O  O33  1  0.87344697  0.64545107  0.50594591  1
  O  O34  1  0.89692909  0.41142787  0.00098548  1
  O  O35  1  0.88036327  0.85516278  0.01505259  1
