# generated using pymatgen
data_Li2FeH12(SO7)2
_symmetry_space_group_name_H-M   'P 1'
_cell_length_a   8.92982491
_cell_length_b   11.79557001
_cell_length_c   5.96759300
_cell_angle_alpha   90.00000000
_cell_angle_beta   101.74340682
_cell_angle_gamma   90.00000000
_symmetry_Int_Tables_number   1
_chemical_formula_structural   Li2FeH12(SO7)2
_chemical_formula_sum   'Li4 Fe2 H24 S4 O28'
_cell_volume   615.42385595
_cell_formula_units_Z   2
loop_
 _symmetry_equiv_pos_site_id
 _symmetry_equiv_pos_as_xyz
  1  'x, y, z'
loop_
 _atom_site_type_symbol
 _atom_site_label
 _atom_site_symmetry_multiplicity
 _atom_site_fract_x
 _atom_site_fract_y
 _atom_site_fract_z
 _atom_site_occupancy
  Li  Li0  1  0.13357146  0.38620273  0.30564351  1
  Li  Li1  1  0.36642854  0.88620273  0.69435649  1
  Li  Li2  1  0.63357146  0.11379727  0.30564351  1
  Li  Li3  1  0.86642854  0.61379727  0.69435649  1
  Fe  Fe4  1  0.00000000  0.00000000  0.00000000  1
  Fe  Fe5  1  0.50000000  0.50000000  0.00000000  1
  H  H6  1  0.09974421  0.06118822  0.64850961  1
  H  H7  1  0.03531101  0.84682336  0.35161920  1
  H  H8  1  0.21788524  0.40157780  0.92657577  1
  H  H9  1  0.25567817  0.64063737  0.90219259  1
  H  H10  1  0.34405205  0.30760252  0.01838945  1
  H  H11  1  0.20714955  0.10215557  0.33123540  1
  H  H12  1  0.29285045  0.60215557  0.66876460  1
  H  H13  1  0.15594795  0.80760252  0.98161055  1
  H  H14  1  0.24432183  0.14063737  0.09780741  1
  H  H15  1  0.28211476  0.90157780  0.07342423  1
  H  H16  1  0.46468899  0.34682336  0.64838080  1
  H  H17  1  0.40025579  0.56118822  0.35149039  1
  H  H18  1  0.59974421  0.43881178  0.64850961  1
  H  H19  1  0.53531101  0.65317664  0.35161920  1
  H  H20  1  0.71788524  0.09842220  0.92657577  1
  H  H21  1  0.75567817  0.85936263  0.90219259  1
  H  H22  1  0.84405205  0.19239748  0.01838945  1
  H  H23  1  0.70714955  0.39784443  0.33123540  1
  H  H24  1  0.79285045  0.89784443  0.66876460  1
  H  H25  1  0.65594795  0.69239748  0.98161055  1
  H  H26  1  0.74432183  0.35936263  0.09780741  1
  H  H27  1  0.78211476  0.59842220  0.07342423  1
  H  H28  1  0.96468899  0.15317664  0.64838080  1
  H  H29  1  0.90025579  0.93881178  0.35149039  1
  S  S30  1  0.08456141  0.62776896  0.27384981  1
  S  S31  1  0.41543859  0.12776896  0.72615019  1
  S  S32  1  0.58456141  0.87223104  0.27384981  1
  S  S33  1  0.91543859  0.37223104  0.72615019  1
  O  O34  1  0.99895866  0.07342397  0.69056732  1
  O  O35  1  0.06283617  0.43284257  0.73547855  1
  O  O36  1  0.19188635  0.88429664  0.94752073  1
  O  O37  1  0.09946474  0.72523556  0.43442147  1
  O  O38  1  0.09640966  0.66602323  0.03824043  1
  O  O39  1  0.15846015  0.13090545  0.17843439  1
  O  O40  1  0.28938571  0.04437178  0.63404317  1
  O  O41  1  0.21061429  0.54437178  0.36595683  1
  O  O42  1  0.34153985  0.63090545  0.82156561  1
  O  O43  1  0.40359034  0.16602323  0.96175957  1
  O  O44  1  0.40053526  0.22523556  0.56557853  1
  O  O45  1  0.30811365  0.38429664  0.05247927  1
  O  O46  1  0.49895866  0.42657603  0.69056732  1
  O  O47  1  0.56283617  0.06715743  0.73547855  1
  O  O48  1  0.43716383  0.93284257  0.26452145  1
  O  O49  1  0.50104134  0.57342397  0.30943268  1
  O  O50  1  0.69188635  0.61570336  0.94752073  1
  O  O51  1  0.59946474  0.77476444  0.43442147  1
  O  O52  1  0.59640966  0.83397677  0.03824043  1
  O  O53  1  0.65846015  0.36909455  0.17843439  1
  O  O54  1  0.78938571  0.45562822  0.63404317  1
  O  O55  1  0.71061429  0.95562822  0.36595683  1
  O  O56  1  0.84153985  0.86909455  0.82156561  1
  O  O57  1  0.90359034  0.33397677  0.96175957  1
  O  O58  1  0.90053526  0.27476444  0.56557853  1
  O  O59  1  0.80811365  0.11570336  0.05247927  1
  O  O60  1  0.93716383  0.56715743  0.26452145  1
  O  O61  1  0.00104134  0.92657603  0.30943268  1
