# generated using pymatgen
data_Li2BSbO4
_symmetry_space_group_name_H-M   'P 1'
_cell_length_a   7.54377967
_cell_length_b   4.93817529
_cell_length_c   10.34515834
_cell_angle_alpha   90.00000000
_cell_angle_beta   97.61291430
_cell_angle_gamma   90.00000000
_symmetry_Int_Tables_number   1
_chemical_formula_structural   Li2BSbO4
_chemical_formula_sum   'Li8 B4 Sb4 O16'
_cell_volume   381.98619664
_cell_formula_units_Z   4
loop_
 _symmetry_equiv_pos_site_id
 _symmetry_equiv_pos_as_xyz
  1  'x, y, z'
loop_
 _atom_site_type_symbol
 _atom_site_label
 _atom_site_symmetry_multiplicity
 _atom_site_fract_x
 _atom_site_fract_y
 _atom_site_fract_z
 _atom_site_occupancy
  Li  Li0  1  0.00345710  0.30946851  0.82777180  1
  Li  Li1  1  0.00345710  0.19053149  0.32777180  1
  Li  Li2  1  0.20028135  0.20728851  0.58393416  1
  Li  Li3  1  0.20028135  0.29271149  0.08393416  1
  Li  Li4  1  0.79971865  0.70728851  0.91606584  1
  Li  Li5  1  0.79971865  0.79271149  0.41606584  1
  Li  Li6  1  0.99654290  0.80946851  0.67222820  1
  Li  Li7  1  0.99654290  0.69053149  0.17222820  1
  B  B8  1  0.15346452  0.82640466  0.94059928  1
  B  B9  1  0.15346452  0.67359534  0.44059928  1
  B  B10  1  0.84653548  0.32640466  0.55940072  1
  B  B11  1  0.84653548  0.17359534  0.05940072  1
  Sb  Sb12  1  0.49664492  0.23624777  0.87600036  1
  Sb  Sb13  1  0.50335508  0.73624777  0.62399964  1
  Sb  Sb14  1  0.49664492  0.26375223  0.37600036  1
  Sb  Sb15  1  0.50335508  0.76375223  0.12399964  1
  O  O16  1  0.03163471  0.69853971  0.85338538  1
  O  O17  1  0.03163471  0.80146029  0.35338538  1
  O  O18  1  0.21103079  0.08952791  0.91969479  1
  O  O19  1  0.21103079  0.41047209  0.41969479  1
  O  O20  1  0.21936383  0.80125125  0.56222193  1
  O  O21  1  0.45252416  0.35470261  0.68401507  1
  O  O22  1  0.21936383  0.69874875  0.06222193  1
  O  O23  1  0.45252416  0.14529739  0.18401507  1
  O  O24  1  0.54747584  0.85470261  0.81598493  1
  O  O25  1  0.78063617  0.30125125  0.93777807  1
  O  O26  1  0.54747584  0.64529739  0.31598493  1
  O  O27  1  0.78063617  0.19874875  0.43777807  1
  O  O28  1  0.78896921  0.58952791  0.58030521  1
  O  O29  1  0.78896921  0.91047209  0.08030521  1
  O  O30  1  0.96836529  0.19853971  0.64661462  1
  O  O31  1  0.96836529  0.30146029  0.14661462  1
