# generated using pymatgen
data_Li8HfO6
_symmetry_space_group_name_H-M   'P 1'
_cell_length_a   5.72354565
_cell_length_b   5.72344315
_cell_length_c   10.91143015
_cell_angle_alpha   90.00023075
_cell_angle_beta   89.99948011
_cell_angle_gamma   120.00256918
_symmetry_Int_Tables_number   1
_chemical_formula_structural   Li8HfO6
_chemical_formula_sum   'Li16 Hf2 O12'
_cell_volume   309.54485437
_cell_formula_units_Z   2
loop_
 _symmetry_equiv_pos_site_id
 _symmetry_equiv_pos_as_xyz
  1  'x, y, z'
loop_
 _atom_site_type_symbol
 _atom_site_label
 _atom_site_symmetry_multiplicity
 _atom_site_fract_x
 _atom_site_fract_y
 _atom_site_fract_z
 _atom_site_occupancy
  Li  Li0  1  0.99997490  0.67771774  0.76848828  1
  Li  Li1  1  0.99998906  0.59060930  0.12734978  1
  Li  Li2  1  0.99997099  0.40937139  0.62734932  1
  Li  Li3  1  0.99999274  0.32227680  0.26849137  1
  Li  Li4  1  0.33333773  0.66666350  0.40726327  1
  Li  Li5  1  0.33332028  0.66667222  0.90726209  1
  Li  Li6  1  0.32224931  0.32225140  0.76848706  1
  Li  Li7  1  0.40938530  0.40940565  0.12734720  1
  Li  Li8  1  0.59059436  0.59060338  0.62734562  1
  Li  Li9  1  0.32226892  0.00001735  0.26848854  1
  Li  Li10  1  0.67772503  0.67774958  0.26848903  1
  Li  Li11  1  0.40939283  0.99998229  0.62734763  1
  Li  Li12  1  0.66665554  0.33333619  0.90726189  1
  Li  Li13  1  0.66666728  0.33332829  0.40726268  1
  Li  Li14  1  0.59059367  0.00001185  0.12734815  1
  Li  Li15  1  0.67771100  0.99997904  0.76848945  1
  Hf  Hf16  1  0.00014208  0.00011122  0.99556491  1
  Hf  Hf17  1  0.00000678  -0.00008496  0.49557086  1
  O  O18  1  0.99998282  0.67047079  0.94851525  1
  O  O19  1  0.00000291  0.32954915  0.44851294  1
  O  O20  1  0.33332061  0.66667242  0.21292123  1
  O  O21  1  -0.00000476  0.00003184  0.17665042  1
  O  O22  1  0.99997228  0.99997371  0.67664217  1
  O  O23  1  0.33331362  0.66665361  0.71291801  1
  O  O24  1  0.32946261  0.32947951  0.94851917  1
  O  O25  1  0.32952287  0.00000031  0.44851581  1
  O  O26  1  0.67050005  0.67049464  0.44851185  1
  O  O27  1  0.66665028  0.33332235  0.71292042  1
  O  O28  1  0.66666774  0.33334476  0.21292101  1
  O  O29  1  0.67043219  0.00000368  0.94850758  1
