# generated using pymatgen
data_Li3CrO3
_symmetry_space_group_name_H-M   'P 1'
_cell_length_a   9.44929203
_cell_length_b   5.45582497
_cell_length_c   9.81178802
_cell_angle_alpha   90.00104052
_cell_angle_beta   90.00211626
_cell_angle_gamma   149.99717137
_symmetry_Int_Tables_number   1
_chemical_formula_structural   Li3CrO3
_chemical_formula_sum   'Li12 Cr4 O12'
_cell_volume   252.93853142
_cell_formula_units_Z   4
loop_
 _symmetry_equiv_pos_site_id
 _symmetry_equiv_pos_as_xyz
  1  'x, y, z'
loop_
 _atom_site_type_symbol
 _atom_site_label
 _atom_site_symmetry_multiplicity
 _atom_site_fract_x
 _atom_site_fract_y
 _atom_site_fract_z
 _atom_site_occupancy
  Li  Li0  1  0.37257810  0.42531551  0.42222254  1
  Li  Li1  1  0.31483459  0.25348415  0.92202228  1
  Li  Li2  1  0.05045950  0.42103106  0.92260545  1
  Li  Li3  1  0.67415086  0.72565421  0.07801078  1
  Li  Li4  1  0.94051977  0.25622090  0.42251157  1
  Li  Li5  1  0.61824750  0.55769554  0.57832365  1
  Li  Li6  1  0.31625900  0.68883658  0.57791258  1
  Li  Li7  1  0.67606564  0.29661320  0.42222989  1
  Li  Li8  1  0.61903122  0.29487017  0.92200944  1
  Li  Li9  1  0.37194902  0.68805001  0.07784601  1
  Li  Li10  1  0.93816456  0.55629068  0.07794755  1
  Li  Li11  1  0.05121151  0.72668473  0.57783622  1
  Cr  Cr12  1  0.66194239  0.99109556  0.74999343  1
  Cr  Cr13  1  0.32870968  0.99120300  0.24992046  1
  Cr  Cr14  1  0.99548194  0.99124644  0.24972440  1
  Cr  Cr15  1  0.99543956  0.99131542  0.74987994  1
  O  O16  1  0.33345229  0.37309037  0.63183213  1
  O  O17  1  0.28916196  0.24058993  0.13154223  1
  O  O18  1  0.70045228  0.73981551  0.86783358  1
  O  O19  1  0.65756975  0.61002909  0.36786677  1
  O  O20  1  0.95176906  0.24200440  0.63177763  1
  O  O21  1  0.03880406  0.37236412  0.13175812  1
  O  O22  1  0.65688775  0.35818221  0.13167159  1
  O  O23  1  0.29078749  0.62522412  0.36772791  1
  O  O24  1  0.70099178  0.35877865  0.63180261  1
  O  O25  1  0.33335956  0.62331203  0.86809897  1
  O  O26  1  0.95110161  0.60809625  0.86802393  1
  O  O27  1  0.03968157  0.74125218  0.36813436  1
