# generated using pymatgen
data_LiMnAlO4
_symmetry_space_group_name_H-M   'P 1'
_cell_length_a   5.74701094
_cell_length_b   5.74701094
_cell_length_c   8.04832172
_cell_angle_alpha   90.00000000
_cell_angle_beta   90.00000000
_cell_angle_gamma   90.00000000
_symmetry_Int_Tables_number   1
_chemical_formula_structural   LiMnAlO4
_chemical_formula_sum   'Li4 Mn4 Al4 O16'
_cell_volume   265.82105424
_cell_formula_units_Z   4
loop_
 _symmetry_equiv_pos_site_id
 _symmetry_equiv_pos_as_xyz
  1  'x, y, z'
loop_
 _atom_site_type_symbol
 _atom_site_label
 _atom_site_symmetry_multiplicity
 _atom_site_fract_x
 _atom_site_fract_y
 _atom_site_fract_z
 _atom_site_occupancy
  Li  Li0  1  0.00000000  0.22745289  0.00000000  1
  Li  Li1  1  0.00000000  0.77254711  0.50000000  1
  Li  Li2  1  0.22745289  0.00000000  0.25000000  1
  Li  Li3  1  0.77254711  0.00000000  0.75000000  1
  Mn  Mn4  1  0.23414599  0.50000000  0.25000000  1
  Mn  Mn5  1  0.50000000  0.23414599  0.00000000  1
  Mn  Mn6  1  0.50000000  0.76585401  0.50000000  1
  Mn  Mn7  1  0.76585401  0.50000000  0.75000000  1
  Al  Al8  1  0.25636515  0.25636515  0.62500000  1
  Al  Al9  1  0.25636515  0.74363485  0.87500000  1
  Al  Al10  1  0.74363485  0.25636515  0.37500000  1
  Al  Al11  1  0.74363485  0.74363485  0.12500000  1
  O  O12  1  0.00698135  0.26738984  0.26005084  1
  O  O13  1  0.00698135  0.73261016  0.23994916  1
  O  O14  1  0.26738984  0.00698135  0.98994916  1
  O  O15  1  0.26738984  0.99301865  0.51005084  1
  O  O16  1  0.26377616  0.48852733  0.01035669  1
  O  O17  1  0.26377616  0.51147267  0.48964331  1
  O  O18  1  0.48852733  0.26377616  0.23964331  1
  O  O19  1  0.48852733  0.73622384  0.26035669  1
  O  O20  1  0.51147267  0.26377616  0.76035669  1
  O  O21  1  0.51147267  0.73622384  0.73964331  1
  O  O22  1  0.73622384  0.51147267  0.51035669  1
  O  O23  1  0.73622384  0.48852733  0.98964331  1
  O  O24  1  0.73261016  0.99301865  0.48994916  1
  O  O25  1  0.73261016  0.00698135  0.01005084  1
  O  O26  1  0.99301865  0.26738984  0.73994916  1
  O  O27  1  0.99301865  0.73261016  0.76005084  1
