# generated using pymatgen
data_Li2Si4NiO10
_symmetry_space_group_name_H-M   'P 1'
_cell_length_a   9.63993073
_cell_length_b   7.52037165
_cell_length_c   6.92442574
_cell_angle_alpha   63.45554820
_cell_angle_beta   76.72362039
_cell_angle_gamma   100.08287709
_symmetry_Int_Tables_number   1
_chemical_formula_structural   Li2Si4NiO10
_chemical_formula_sum   'Li4 Si8 Ni2 O20'
_cell_volume   414.24670075
_cell_formula_units_Z   2
loop_
 _symmetry_equiv_pos_site_id
 _symmetry_equiv_pos_as_xyz
  1  'x, y, z'
loop_
 _atom_site_type_symbol
 _atom_site_label
 _atom_site_symmetry_multiplicity
 _atom_site_fract_x
 _atom_site_fract_y
 _atom_site_fract_z
 _atom_site_occupancy
  Li  Li0  1  0.04373203  0.24153204  0.61591645  1
  Li  Li1  1  0.57318357  0.68924187  0.80161358  1
  Li  Li2  1  0.42681643  0.31075813  0.19838642  1
  Li  Li3  1  0.95626797  0.75846796  0.38408355  1
  Si  Si4  1  0.19480573  0.95461622  0.75052764  1
  Si  Si5  1  0.25787725  0.64112620  0.60781825  1
  Si  Si6  1  0.24203236  0.61567333  0.19055431  1
  Si  Si7  1  0.13968476  0.27718040  0.10208289  1
  Si  Si8  1  0.86031524  0.72281960  0.89791711  1
  Si  Si9  1  0.75796764  0.38432667  0.80944569  1
  Si  Si10  1  0.74212275  0.35887380  0.39218175  1
  Si  Si11  1  0.80519427  0.04538378  0.24947236  1
  Ni  Ni12  1  0.42610779  0.31685794  0.74669494  1
  Ni  Ni13  1  0.57389221  0.68314206  0.25330506  1
  O  O14  1  0.01453159  0.92641154  0.77195659  1
  O  O15  1  0.19732056  0.80318416  0.00651712  1
  O  O16  1  0.13361854  0.45496730  0.85825140  1
  O  O17  1  0.26754814  0.87070407  0.58222188  1
  O  O18  1  0.17892328  0.62763736  0.42513440  1
  O  O19  1  0.12561245  0.38297606  0.26932819  1
  O  O20  1  0.42239148  0.61542647  0.56476662  1
  O  O21  1  0.26747605  0.19913283  0.64659540  1
  O  O22  1  0.71062502  0.78382499  0.93086585  1
  O  O23  1  0.58649307  0.37718772  0.88917632  1
  O  O24  1  0.41350693  0.62281228  0.11082368  1
  O  O25  1  0.28937498  0.21617501  0.06913415  1
  O  O26  1  0.73252395  0.80086717  0.35340460  1
  O  O27  1  0.57760852  0.38457353  0.43523338  1
  O  O28  1  0.87438655  0.61702394  0.73067181  1
  O  O29  1  0.82107672  0.37236264  0.57486560  1
  O  O30  1  0.73245186  0.12929593  0.41777812  1
  O  O31  1  0.86638146  0.54503270  0.14174860  1
  O  O32  1  0.80267944  0.19681584  0.99348288  1
  O  O33  1  0.98546841  0.07358846  0.22804341  1
