# generated using pymatgen
data_BaLaCl5
_symmetry_space_group_name_H-M   'P 1'
_cell_length_a   7.79738575
_cell_length_b   14.09299717
_cell_length_c   10.74138484
_cell_angle_alpha   90.00000000
_cell_angle_beta   109.79688761
_cell_angle_gamma   90.00000000
_symmetry_Int_Tables_number   1
_chemical_formula_structural   BaLaCl5
_chemical_formula_sum   'Ba4 La4 Cl20'
_cell_volume   1110.59508308
_cell_formula_units_Z   4
loop_
 _symmetry_equiv_pos_site_id
 _symmetry_equiv_pos_as_xyz
  1  'x, y, z'
loop_
 _atom_site_type_symbol
 _atom_site_label
 _atom_site_symmetry_multiplicity
 _atom_site_fract_x
 _atom_site_fract_y
 _atom_site_fract_z
 _atom_site_occupancy
  Ba  Ba0  1  0.46863625  0.02061680  0.74333867  1
  Ba  Ba1  1  0.53136375  0.52061680  0.75666133  1
  Ba  Ba2  1  0.46863625  0.47938320  0.24333867  1
  Ba  Ba3  1  0.53136375  0.97938320  0.25666133  1
  La  La4  1  0.10600361  0.25338968  0.90005378  1
  La  La5  1  0.10600361  0.24661032  0.40005378  1
  La  La6  1  0.89399539  0.75338968  0.59994622  1
  La  La7  1  0.89399539  0.74661032  0.09994622  1
  Cl  Cl8  1  0.12542037  0.90207712  0.69225894  1
  Cl  Cl9  1  0.16332587  0.19648245  0.66536362  1
  Cl  Cl10  1  0.17994597  0.63292440  0.64026178  1
  Cl  Cl11  1  0.36548357  0.10697702  0.99598865  1
  Cl  Cl12  1  0.39623222  0.38663700  0.94688486  1
  Cl  Cl13  1  0.12542037  0.59792288  0.19225894  1
  Cl  Cl14  1  0.16332587  0.30351755  0.16536362  1
  Cl  Cl15  1  0.17994597  0.86707560  0.14026178  1
  Cl  Cl16  1  0.36548357  0.39302298  0.49598865  1
  Cl  Cl17  1  0.39623222  0.11336300  0.44688486  1
  Cl  Cl18  1  0.60376778  0.88663700  0.55311514  1
  Cl  Cl19  1  0.63451643  0.60697702  0.50401135  1
  Cl  Cl20  1  0.82005403  0.13292440  0.85973822  1
  Cl  Cl21  1  0.83667413  0.69648245  0.83463638  1
  Cl  Cl22  1  0.87457963  0.40207712  0.80774106  1
  Cl  Cl23  1  0.60376778  0.61336300  0.05311514  1
  Cl  Cl24  1  0.63451643  0.89302298  0.00401135  1
  Cl  Cl25  1  0.82005403  0.36707560  0.35973822  1
  Cl  Cl26  1  0.83667413  0.80351755  0.33463638  1
  Cl  Cl27  1  0.87457963  0.09792288  0.30774106  1
