# generated using pymatgen
data_Li9V12Fe7O48
_symmetry_space_group_name_H-M   'P 1'
_cell_length_a   5.10463889
_cell_length_b   10.18038522
_cell_length_c   17.40312314
_cell_angle_alpha   89.85665402
_cell_angle_beta   89.31323185
_cell_angle_gamma   90.02192394
_symmetry_Int_Tables_number   1
_chemical_formula_structural   Li9V12Fe7O48
_chemical_formula_sum   'Li9 V12 Fe7 O48'
_cell_volume   904.32353778
_cell_formula_units_Z   1
loop_
 _symmetry_equiv_pos_site_id
 _symmetry_equiv_pos_as_xyz
  1  'x, y, z'
loop_
 _atom_site_type_symbol
 _atom_site_label
 _atom_site_symmetry_multiplicity
 _atom_site_fract_x
 _atom_site_fract_y
 _atom_site_fract_z
 _atom_site_occupancy
  Li  Li0  1  0.09627370  0.25131179  0.25150092  1
  Li  Li1  1  0.24897802  0.41589222  0.97115665  1
  Li  Li2  1  0.25409982  0.58130557  0.47212433  1
  Li  Li3  1  0.25660609  0.91868028  0.47289731  1
  Li  Li4  1  0.23483024  0.25135754  0.80231630  1
  Li  Li5  1  0.75886452  0.75164348  0.19063854  1
  Li  Li6  1  0.74962746  0.91799804  0.02826244  1
  Li  Li7  1  0.74328696  0.25028657  0.70106358  1
  Li  Li8  1  0.90410531  0.75131485  0.74814530  1
  V  V9  1  0.21974282  0.74786053  0.94246174  1
  V  V10  1  0.22452926  0.02981566  0.65477644  1
  V  V11  1  0.22067992  0.47023698  0.65348493  1
  V  V12  1  0.28855962  0.52651523  0.15238826  1
  V  V13  1  0.28308796  0.97439755  0.15668707  1
  V  V14  1  0.28871010  0.25084097  0.44308559  1
  V  V15  1  0.71810081  0.74985502  0.55929640  1
  V  V16  1  0.71526435  0.47529681  0.84445052  1
  V  V17  1  0.71283404  0.02616462  0.84792787  1
  V  V18  1  0.77283645  0.53071154  0.34358659  1
  V  V19  1  0.77265786  0.96969259  0.34482254  1
  V  V20  1  0.78009193  0.24819767  0.05709395  1
  Fe  Fe21  1  0.23955743  0.75102956  0.29820033  1
  Fe  Fe22  1  0.23796603  0.06930205  0.97523065  1
  Fe  Fe23  1  0.40378820  0.75050683  0.75029882  1
  Fe  Fe24  1  0.59676737  0.24972535  0.24875962  1
  Fe  Fe25  1  0.75926004  0.07086857  0.52779133  1
  Fe  Fe26  1  0.75601990  0.42947293  0.52671359  1
  Fe  Fe27  1  0.76047663  0.56928336  0.02362323  1
  O  O28  1  0.06146838  0.23741879  0.99486987  1
  O  O29  1  0.06243058  0.61879682  0.36495387  1
  O  O30  1  0.06073349  0.88111213  0.36729181  1
  O  O31  1  0.11049292  0.63405707  0.21120778  1
  O  O32  1  0.08832049  0.87028515  0.21585978  1
  O  O33  1  0.08934809  0.11834186  0.46646612  1
  O  O34  1  0.08808267  0.38364964  0.46525813  1
  O  O35  1  0.08864156  0.00793344  0.07526919  1
  O  O36  1  0.08305541  0.49194053  0.07596034  1
  O  O37  1  0.16266203  0.74744667  0.84376167  1
  O  O38  1  0.16508374  0.61685149  0.70314180  1
  O  O39  1  0.16584638  0.88237625  0.70421635  1
  O  O40  1  0.35295575  0.11817091  0.20745236  1
  O  O41  1  0.35852692  0.38488142  0.20373560  1
  O  O42  1  0.36021153  0.25218669  0.34567260  1
  O  O43  1  0.42834218  0.50011625  0.57361017  1
  O  O44  1  0.43214001  0.00300875  0.57504720  1
  O  O45  1  0.39888438  0.88958286  0.96589708  1
  O  O46  1  0.43303826  0.62109082  0.96405387  1
  O  O47  1  0.39268663  0.13142774  0.71352295  1
  O  O48  1  0.40030678  0.36884264  0.71000660  1
  O  O49  1  0.42409996  0.11354256  0.87919477  1
  O  O50  1  0.44355625  0.38528348  0.87047474  1
  O  O51  1  0.45386865  0.74982410  0.49981205  1
  O  O52  1  0.58039526  0.24985856  0.50708554  1
  O  O53  1  0.57788040  0.61116094  0.12103829  1
  O  O54  1  0.55881311  0.89068615  0.13041246  1
  O  O55  1  0.56359740  0.63060458  0.29087741  1
  O  O56  1  0.55679534  0.86940903  0.29510821  1
  O  O57  1  0.56733166  0.12259597  0.03482094  1
  O  O58  1  0.60232029  0.39073411  0.03330986  1
  O  O59  1  0.60190001  0.01222396  0.42827610  1
  O  O60  1  0.59958525  0.48961103  0.42708594  1
  O  O61  1  0.64163440  0.75130372  0.65752417  1
  O  O62  1  0.64267347  0.61843980  0.79277161  1
  O  O63  1  0.64236714  0.88465969  0.79591313  1
  O  O64  1  0.83344486  0.11445800  0.29380989  1
  O  O65  1  0.83489243  0.38632135  0.29288622  1
  O  O66  1  0.83516221  0.24849281  0.15589474  1
  O  O67  1  0.91395661  0.51048536  0.92652602  1
  O  O68  1  0.92066121  0.99025675  0.92540405  1
  O  O69  1  0.91349943  0.60936854  0.53802672  1
  O  O70  1  0.91321043  0.89017712  0.53767131  1
  O  O71  1  0.88601815  0.13029813  0.78945004  1
  O  O72  1  0.90958136  0.37668540  0.78702833  1
  O  O73  1  0.93297085  0.11253149  0.62505455  1
  O  O74  1  0.93183018  0.38460329  0.62357737  1
  O  O75  1  0.93708968  0.73730104  0.00492755  1
