# generated using pymatgen
data_Li3Ni(BO3)2
_symmetry_space_group_name_H-M   'P 1'
_cell_length_a   6.66269088
_cell_length_b   4.97306317
_cell_length_c   8.22976567
_cell_angle_alpha   90.55395987
_cell_angle_beta   69.98749363
_cell_angle_gamma   91.12178119
_symmetry_Int_Tables_number   1
_chemical_formula_structural   Li3Ni(BO3)2
_chemical_formula_sum   'Li6 Ni2 B4 O12'
_cell_volume   256.16925159
_cell_formula_units_Z   2
loop_
 _symmetry_equiv_pos_site_id
 _symmetry_equiv_pos_as_xyz
  1  'x, y, z'
loop_
 _atom_site_type_symbol
 _atom_site_label
 _atom_site_symmetry_multiplicity
 _atom_site_fract_x
 _atom_site_fract_y
 _atom_site_fract_z
 _atom_site_occupancy
  Li  Li0  1  0.25805744  0.88594728  0.16064688  1
  Li  Li1  1  0.40344740  0.65804328  0.42740231  1
  Li  Li2  1  0.43512793  0.84992124  0.72337894  1
  Li  Li3  1  0.56487207  0.15007876  0.27662106  1
  Li  Li4  1  0.59655260  0.34195672  0.57259769  1
  Li  Li5  1  0.74194256  0.11405272  0.83935312  1
  Ni  Ni6  1  0.04146573  0.61817423  0.77941523  1
  Ni  Ni7  1  0.95853427  0.38182577  0.22058477  1
  B  B8  1  0.18407095  0.14858884  0.59149127  1
  B  B9  1  0.68120422  0.66538878  0.07941305  1
  B  B10  1  0.31879578  0.33461122  0.92058695  1
  B  B11  1  0.81592905  0.85141116  0.40850873  1
  O  O12  1  0.99630155  0.72030221  0.29981399  1
  O  O13  1  0.21300522  0.23239900  0.08519191  1
  O  O14  1  0.19097158  0.86984291  0.60920961  1
  O  O15  1  0.35092969  0.28103150  0.47788989  1
  O  O16  1  0.51795694  0.80105424  0.19245001  1
  O  O17  1  0.25336041  0.58362406  0.87982347  1
  O  O18  1  0.74663959  0.41637594  0.12017653  1
  O  O19  1  0.48204306  0.19894576  0.80754999  1
  O  O20  1  0.64907031  0.71896850  0.52211011  1
  O  O21  1  0.80902842  0.13015709  0.39079039  1
  O  O22  1  0.78699478  0.76760100  0.91480809  1
  O  O23  1  0.00369845  0.27969779  0.70018601  1
