# generated using pymatgen
data_LiBiCSO7
_symmetry_space_group_name_H-M   'P 1'
_cell_length_a   9.20961849
_cell_length_b   6.97212418
_cell_length_c   5.44503182
_cell_angle_alpha   90.00000000
_cell_angle_beta   90.85177461
_cell_angle_gamma   90.00000000
_symmetry_Int_Tables_number   1
_chemical_formula_structural   LiBiCSO7
_chemical_formula_sum   'Li2 Bi2 C2 S2 O14'
_cell_volume   349.59014618
_cell_formula_units_Z   2
loop_
 _symmetry_equiv_pos_site_id
 _symmetry_equiv_pos_as_xyz
  1  'x, y, z'
loop_
 _atom_site_type_symbol
 _atom_site_label
 _atom_site_symmetry_multiplicity
 _atom_site_fract_x
 _atom_site_fract_y
 _atom_site_fract_z
 _atom_site_occupancy
  Li  Li0  1  0.17480177  0.50032977  0.26866422  1
  Li  Li1  1  0.82519823  0.00032977  0.73133578  1
  Bi  Bi2  1  0.35300481  0.75318905  0.77704808  1
  Bi  Bi3  1  0.64699519  0.25318905  0.22295192  1
  C  C4  1  0.06465619  0.73461988  0.72049975  1
  C  C5  1  0.93534381  0.23461988  0.27950025  1
  S  S6  1  0.40704222  0.25971590  0.72493845  1
  S  S7  1  0.59295778  0.75971590  0.27506155  1
  O  O8  1  0.06558698  0.27445512  0.30709490  1
  O  O9  1  0.13342232  0.73710585  0.93994986  1
  O  O10  1  0.15331585  0.69407528  0.53464377  1
  O  O11  1  0.32073404  0.08814783  0.79551584  1
  O  O12  1  0.35239610  0.42260355  0.87864611  1
  O  O13  1  0.43355001  0.72949185  0.21509795  1
  O  O14  1  0.39256318  0.30411493  0.46117059  1
  O  O15  1  0.60743682  0.80411493  0.53882941  1
  O  O16  1  0.56644999  0.22949185  0.78490205  1
  O  O17  1  0.64760390  0.92260355  0.12135389  1
  O  O18  1  0.67926596  0.58814783  0.20448416  1
  O  O19  1  0.84668415  0.19407528  0.46535623  1
  O  O20  1  0.86657768  0.23710585  0.06005014  1
  O  O21  1  0.93441302  0.77445512  0.69290510  1
