# generated using pymatgen
data_Ca2CeO4
_symmetry_space_group_name_H-M   'P 1'
_cell_length_a   6.04634708
_cell_length_b   6.12014065
_cell_length_c   11.94470321
_cell_angle_alpha   90.00000000
_cell_angle_beta   90.00000000
_cell_angle_gamma   90.00000000
_symmetry_Int_Tables_number   1
_chemical_formula_structural   Ca2CeO4
_chemical_formula_sum   'Ca8 Ce4 O16'
_cell_volume   442.00770482
_cell_formula_units_Z   4
loop_
 _symmetry_equiv_pos_site_id
 _symmetry_equiv_pos_as_xyz
  1  'x, y, z'
loop_
 _atom_site_type_symbol
 _atom_site_label
 _atom_site_symmetry_multiplicity
 _atom_site_fract_x
 _atom_site_fract_y
 _atom_site_fract_z
 _atom_site_occupancy
  Ca  Ca0  1  0.02606032  0.05146705  0.34202365  1
  Ca  Ca1  1  0.02606032  0.44853295  0.84202365  1
  Ca  Ca2  1  0.47393968  0.55146705  0.34202365  1
  Ca  Ca3  1  0.47393968  0.94853295  0.84202365  1
  Ca  Ca4  1  0.52606032  0.05146705  0.15797635  1
  Ca  Ca5  1  0.52606032  0.44853295  0.65797635  1
  Ca  Ca6  1  0.97393968  0.55146705  0.15797635  1
  Ca  Ca7  1  0.97393968  0.94853295  0.65797635  1
  Ce  Ce8  1  0.00000000  0.00000000  0.00000000  1
  Ce  Ce9  1  0.00000000  0.50000000  0.50000000  1
  Ce  Ce10  1  0.50000000  0.50000000  0.00000000  1
  Ce  Ce11  1  0.50000000  0.00000000  0.50000000  1
  O  O12  1  0.11115431  0.43377548  0.32533295  1
  O  O13  1  0.11115431  0.06622452  0.82533295  1
  O  O14  1  0.17607247  0.32328965  0.03772335  1
  O  O15  1  0.17607247  0.17671035  0.53772335  1
  O  O16  1  0.32392753  0.82328965  0.03772335  1
  O  O17  1  0.32392753  0.67671035  0.53772335  1
  O  O18  1  0.38884569  0.56622452  0.82533295  1
  O  O19  1  0.38884569  0.93377548  0.32533295  1
  O  O20  1  0.61115431  0.43377548  0.17466705  1
  O  O21  1  0.61115431  0.06622452  0.67466705  1
  O  O22  1  0.67607247  0.32328965  0.46227665  1
  O  O23  1  0.67607247  0.17671035  0.96227665  1
  O  O24  1  0.82392753  0.82328965  0.46227665  1
  O  O25  1  0.82392753  0.67671035  0.96227665  1
  O  O26  1  0.88884569  0.93377548  0.17466705  1
  O  O27  1  0.88884569  0.56622452  0.67466705  1
