# generated using pymatgen
data_Li3Ti(CoO2)4
_symmetry_space_group_name_H-M   'P 1'
_cell_length_a   5.93743362
_cell_length_b   5.93743344
_cell_length_c   5.97839314
_cell_angle_alpha   90.64214723
_cell_angle_beta   60.33955617
_cell_angle_gamma   60.63032332
_symmetry_Int_Tables_number   1
_chemical_formula_structural   Li3Ti(CoO2)4
_chemical_formula_sum   'Li3 Ti1 Co4 O8'
_cell_volume   150.36519819
_cell_formula_units_Z   1
loop_
 _symmetry_equiv_pos_site_id
 _symmetry_equiv_pos_as_xyz
  1  'x, y, z'
loop_
 _atom_site_type_symbol
 _atom_site_label
 _atom_site_symmetry_multiplicity
 _atom_site_fract_x
 _atom_site_fract_y
 _atom_site_fract_z
 _atom_site_occupancy
  Li  Li0  1  0.00000000  0.00000000  0.50000000  1
  Li  Li1  1  0.50000000  0.00000000  0.50000000  1
  Li  Li2  1  0.50000000  0.50000000  0.50000000  1
  Ti  Ti3  1  0.50000000  0.50000000  0.00000000  1
  Co  Co4  1  0.00000000  0.50000000  0.50000000  1
  Co  Co5  1  0.00000000  0.00000000  0.00000000  1
  Co  Co6  1  0.50000000  0.00000000  0.00000000  1
  Co  Co7  1  0.00000000  0.50000000  0.00000000  1
  O  O8  1  0.48979416  0.26329488  0.77350172  1
  O  O9  1  0.97388500  0.26182630  0.76236096  1
  O  O10  1  0.49946534  0.73624496  0.76236096  1
  O  O11  1  0.98527175  0.75094234  0.76567059  1
  O  O12  1  0.01472825  0.24905766  0.23432941  1
  O  O13  1  0.50053466  0.26375504  0.23763904  1
  O  O14  1  0.02611500  0.73817370  0.23763904  1
  O  O15  1  0.51020584  0.73670512  0.22649828  1
