# generated using pymatgen
data_Li17(CoO4)4
_symmetry_space_group_name_H-M   'P 1'
_cell_length_a   7.89324012
_cell_length_b   7.44153156
_cell_length_c   6.66081315
_cell_angle_alpha   90.00000000
_cell_angle_beta   90.00000000
_cell_angle_gamma   88.76757659
_symmetry_Int_Tables_number   1
_chemical_formula_structural   Li17(CoO4)4
_chemical_formula_sum   'Li17 Co4 O16'
_cell_volume   391.15097549
_cell_formula_units_Z   1
loop_
 _symmetry_equiv_pos_site_id
 _symmetry_equiv_pos_as_xyz
  1  'x, y, z'
loop_
 _atom_site_type_symbol
 _atom_site_label
 _atom_site_symmetry_multiplicity
 _atom_site_fract_x
 _atom_site_fract_y
 _atom_site_fract_z
 _atom_site_occupancy
  Li  Li0  1  0.98490407  0.50201921  0.24771587  1
  Li  Li1  1  0.98490407  0.50201921  0.75228413  1
  Li  Li2  1  0.06674391  0.76578021  0.50000000  1
  Li  Li3  1  0.16041042  0.98370847  0.24468347  1
  Li  Li4  1  0.16041042  0.98370847  0.75531653  1
  Li  Li5  1  0.33824860  0.46713268  0.25603464  1
  Li  Li6  1  0.33824860  0.46713268  0.74396536  1
  Li  Li7  1  0.45357693  0.24194160  0.00000000  1
  Li  Li8  1  0.50917550  0.00669929  0.72547244  1
  Li  Li9  1  0.50917550  0.00669929  0.27452756  1
  Li  Li10  1  0.53717894  0.75347374  0.00000000  1
  Li  Li11  1  0.66936838  0.49527833  0.23456063  1
  Li  Li12  1  0.66936838  0.49527833  0.76543937  1
  Li  Li13  1  0.72226431  0.75266088  0.50000000  1
  Li  Li14  1  0.82587627  0.03709942  0.75921078  1
  Li  Li15  1  0.82587627  0.03709942  0.24078922  1
  Li  Li16  1  0.94906393  0.25243982  0.50000000  1
  Co  Co17  1  0.12237461  0.23666604  0.00000000  1
  Co  Co18  1  0.38324998  0.72688672  0.50000000  1
  Co  Co19  1  0.62104381  0.27081831  0.50000000  1
  Co  Co20  1  0.87339438  0.77380448  0.00000000  1
  O  O21  1  0.00860323  0.21163074  0.23093738  1
  O  O22  1  0.00860323  0.21163074  0.76906262  1
  O  O23  1  0.22173641  0.44972360  0.00000000  1
  O  O24  1  0.22022100  0.55725194  0.50000000  1
  O  O25  1  0.28393918  0.05315203  0.00000000  1
  O  O26  1  0.27871589  0.94322286  0.50000000  1
  O  O27  1  0.51174079  0.70448089  0.27870837  1
  O  O28  1  0.51174079  0.70448089  0.72129163  1
  O  O29  1  0.52257703  0.28947941  0.25664646  1
  O  O30  1  0.52257703  0.28947941  0.74335354  1
  O  O31  1  0.70464433  0.02647394  0.50000000  1
  O  O32  1  0.70165828  0.94498848  0.00000000  1
  O  O33  1  0.79559139  0.46513616  0.50000000  1
  O  O34  1  0.80062961  0.54762896  0.00000000  1
  O  O35  1  0.97638676  0.80114169  0.23863186  1
  O  O36  1  0.97638676  0.80114169  0.76136814  1
