# generated using pymatgen
data_Fe7P12WO48
_symmetry_space_group_name_H-M   'P 1'
_cell_length_a   8.79641649
_cell_length_b   8.79029401
_cell_length_c   12.24194035
_cell_angle_alpha   90.14537695
_cell_angle_beta   89.86247324
_cell_angle_gamma   90.05463436
_symmetry_Int_Tables_number   1
_chemical_formula_structural   Fe7P12WO48
_chemical_formula_sum   'Fe7 P12 W1 O48'
_cell_volume   946.57842271
_cell_formula_units_Z   1
loop_
 _symmetry_equiv_pos_site_id
 _symmetry_equiv_pos_as_xyz
  1  'x, y, z'
loop_
 _atom_site_type_symbol
 _atom_site_label
 _atom_site_symmetry_multiplicity
 _atom_site_fract_x
 _atom_site_fract_y
 _atom_site_fract_z
 _atom_site_occupancy
  Fe  Fe0  1  0.25018255  0.96420877  0.61868064  1
  Fe  Fe1  1  0.25068413  0.53408712  0.38311369  1
  Fe  Fe2  1  0.24953315  0.03602451  0.11935657  1
  Fe  Fe3  1  0.24914354  0.46516582  0.88094875  1
  Fe  Fe4  1  0.75151585  0.53718839  0.11895297  1
  Fe  Fe5  1  0.75180299  0.96399760  0.88069212  1
  Fe  Fe6  1  0.74956409  0.03534511  0.38104992  1
  P  P7  1  0.03529681  0.24580803  0.49883310  1
  P  P8  1  0.10684420  0.39348898  0.14505456  1
  P  P9  1  0.10886631  0.10604887  0.85556596  1
  P  P10  1  0.38906015  0.60654881  0.64474025  1
  P  P11  1  0.39195249  0.89374361  0.35535558  1
  P  P12  1  0.46738588  0.75051595  0.00132639  1
  P  P13  1  0.53395452  0.25071177  0.00152481  1
  P  P14  1  0.60712666  0.39239758  0.35221990  1
  P  P15  1  0.60647475  0.10491235  0.64377306  1
  P  P16  1  0.89345267  0.60951880  0.85660736  1
  P  P17  1  0.89119970  0.89431253  0.14506834  1
  P  P18  1  0.96644707  0.75135590  0.49718371  1
  W  W19  1  0.74929061  0.46539017  0.61598053  1
  O  O20  1  0.06294838  0.65081297  0.42289606  1
  O  O21  1  0.06243019  0.84189096  0.57858226  1
  O  O22  1  0.06562906  0.90803340  0.14810949  1
  O  O23  1  0.06471709  0.59067732  0.85273021  1
  O  O24  1  0.12821759  0.14963103  0.57770242  1
  O  O25  1  0.14049862  0.34712250  0.43200214  1
  O  O26  1  0.17019045  0.44274790  0.03386982  1
  O  O27  1  0.16935171  0.05771058  0.96790104  1
  O  O28  1  0.14933301  0.22721031  0.16787201  1
  O  O29  1  0.15154562  0.27277359  0.83343709  1
  O  O30  1  0.17456666  0.49932930  0.23207252  1
  O  O31  1  0.18067084  0.99820860  0.77087406  1
  O  O32  1  0.32045181  0.99969637  0.27008781  1
  O  O33  1  0.32138811  0.50206798  0.73076477  1
  O  O34  1  0.36063190  0.77606108  0.66562932  1
  O  O35  1  0.34941358  0.72636984  0.33312911  1
  O  O36  1  0.33522418  0.55811677  0.53128898  1
  O  O37  1  0.33188671  0.94332025  0.46809124  1
  O  O38  1  0.36197128  0.84898671  0.07209664  1
  O  O39  1  0.36748951  0.64817358  0.92960826  1
  O  O40  1  0.43301605  0.09962529  0.64936763  1
  O  O41  1  0.43496680  0.40981573  0.34772209  1
  O  O42  1  0.43626919  0.15056390  0.07668523  1
  O  O43  1  0.43646363  0.34701112  0.92394477  1
  O  O44  1  0.56566178  0.65529538  0.07907779  1
  O  O45  1  0.56473492  0.84931343  0.92501926  1
  O  O46  1  0.56885454  0.58130406  0.65001363  1
  O  O47  1  0.56552931  0.90837765  0.34892740  1
  O  O48  1  0.63154264  0.35230041  0.07506554  1
  O  O49  1  0.63969333  0.15304871  0.93047727  1
  O  O50  1  0.66686389  0.06027919  0.53211674  1
  O  O51  1  0.66449913  0.43566967  0.47205673  1
  O  O52  1  0.65056887  0.22694983  0.33154769  1
  O  O53  1  0.65517991  0.27781891  0.66528466  1
  O  O54  1  0.68609028  0.50315026  0.27448030  1
  O  O55  1  0.67734961  0.00507405  0.73147163  1
  O  O56  1  0.82128030  0.00145721  0.22982231  1
  O  O57  1  0.82515420  0.50373592  0.76093022  1
  O  O58  1  0.85118849  0.72761112  0.16782641  1
  O  O59  1  0.84902928  0.77275481  0.82947050  1
  O  O60  1  0.82454221  0.55463117  0.96339989  1
  O  O61  1  0.83203268  0.94114466  0.03201159  1
  O  O62  1  0.85712049  0.64473265  0.56672023  1
  O  O63  1  0.86180058  0.85088368  0.42918231  1
  O  O64  1  0.93508470  0.09202320  0.85238610  1
  O  O65  1  0.93310091  0.40624841  0.14581064  1
  O  O66  1  0.93731501  0.15143628  0.42192245  1
  O  O67  1  0.92673385  0.34803258  0.57248652  1
