# generated using pymatgen
data_Li2MnVO4
_symmetry_space_group_name_H-M   'P 1'
_cell_length_a   5.14119610
_cell_length_b   6.10945616
_cell_length_c   7.77976755
_cell_angle_alpha   81.59783384
_cell_angle_beta   72.00232128
_cell_angle_gamma   88.30836038
_symmetry_Int_Tables_number   1
_chemical_formula_structural   Li2MnVO4
_chemical_formula_sum   'Li6 Mn3 V3 O12'
_cell_volume   229.87879216
_cell_formula_units_Z   3
loop_
 _symmetry_equiv_pos_site_id
 _symmetry_equiv_pos_as_xyz
  1  'x, y, z'
loop_
 _atom_site_type_symbol
 _atom_site_label
 _atom_site_symmetry_multiplicity
 _atom_site_fract_x
 _atom_site_fract_y
 _atom_site_fract_z
 _atom_site_occupancy
  Li  Li0  1  0.99268738  0.48731605  0.00622941  1
  Li  Li1  1  0.99712985  0.31925173  0.67550091  1
  Li  Li2  1  0.99907504  0.99810834  0.99898978  1
  Li  Li3  1  0.00683943  0.67878601  0.32728952  1
  Li  Li4  1  0.00116934  0.16883544  0.33411430  1
  Li  Li5  1  0.00238403  0.84656910  0.65831116  1
  Mn  Mn6  1  0.50622119  0.74968316  0.99963458  1
  Mn  Mn7  1  0.49413882  0.41712089  0.33427170  1
  Mn  Mn8  1  0.50032231  0.58288027  0.66623929  1
  V  V9  1  0.49502642  0.24689559  0.99878422  1
  V  V10  1  0.50491983  0.91988734  0.33455079  1
  V  V11  1  0.50009618  0.08365797  0.66643631  1
  O  O12  1  0.28170949  0.95882651  0.15463264  1
  O  O13  1  0.26183662  0.44908261  0.17337406  1
  O  O14  1  0.25988625  0.11501146  0.50145694  1
  O  O15  1  0.28389253  0.63482189  0.49049785  1
  O  O16  1  0.25533847  0.28318020  0.83810936  1
  O  O17  1  0.29122781  0.79773435  0.82186060  1
  O  O18  1  0.73790988  0.71763762  0.15988180  1
  O  O19  1  0.71832270  0.20803353  0.17851929  1
  O  O20  1  0.70873359  0.36915501  0.51133998  1
  O  O21  1  0.74475711  0.88356491  0.49521989  1
  O  O22  1  0.71615636  0.53216594  0.84284876  1
  O  O23  1  0.74022037  0.05179207  0.83190588  1
