# generated using pymatgen
data_Li3Zn2Fe19O32
_symmetry_space_group_name_H-M   'P 1'
_cell_length_a   6.01247364
_cell_length_b   6.02377620
_cell_length_c   19.93264397
_cell_angle_alpha   98.76395547
_cell_angle_beta   89.95491432
_cell_angle_gamma   120.05354260
_symmetry_Int_Tables_number   1
_chemical_formula_structural   Li3Zn2Fe19O32
_chemical_formula_sum   'Li3 Zn2 Fe19 O32'
_cell_volume   615.15367107
_cell_formula_units_Z   1
loop_
 _symmetry_equiv_pos_site_id
 _symmetry_equiv_pos_as_xyz
  1  'x, y, z'
loop_
 _atom_site_type_symbol
 _atom_site_label
 _atom_site_symmetry_multiplicity
 _atom_site_fract_x
 _atom_site_fract_y
 _atom_site_fract_z
 _atom_site_occupancy
  Li  Li0  1  0.44065251  0.87886363  0.31224563  1
  Li  Li1  1  0.18535649  0.37112437  0.56180802  1
  Li  Li2  1  0.93916706  0.88035985  0.81387423  1
  Zn  Zn3  1  0.22378756  0.93835825  0.15774966  1
  Zn  Zn4  1  0.34538150  0.68971781  0.03151709  1
  Fe  Fe5  1  0.99853113  0.99969537  0.99814133  1
  Fe  Fe6  1  0.22465962  0.44581427  0.15718814  1
  Fe  Fe7  1  0.71568647  0.93639752  0.15717168  1
  Fe  Fe8  1  0.69489068  0.37461516  0.06468097  1
  Fe  Fe9  1  0.09565518  0.19402817  0.28580568  1
  Fe  Fe10  1  0.74512812  0.50664402  0.25257627  1
  Fe  Fe11  1  0.97542071  0.94978994  0.40625401  1
  Fe  Fe12  1  0.46070208  0.43426844  0.40640183  1
  Fe  Fe13  1  0.20853216  0.93276917  0.65523068  1
  Fe  Fe14  1  0.84017508  0.68314000  0.53371123  1
  Fe  Fe15  1  0.97487254  0.43319405  0.40638591  1
  Fe  Fe16  1  0.72255756  0.93084429  0.65499060  1
  Fe  Fe17  1  0.49886624  0.99489710  0.49935352  1
  Fe  Fe18  1  0.25179958  0.50254558  0.74798646  1
  Fe  Fe19  1  0.72419182  0.44650040  0.65537576  1
  Fe  Fe20  1  0.47003550  0.94095191  0.90376727  1
  Fe  Fe21  1  0.46962096  0.43487752  0.90422332  1
  Fe  Fe22  1  0.59825701  0.19444258  0.78337698  1
  Fe  Fe23  1  0.96491246  0.43690375  0.90472885  1
  O  O24  1  0.04817927  0.56269892  0.09536950  1
  O  O25  1  0.53111401  0.57068643  0.09734429  1
  O  O26  1  0.41136786  0.80173303  0.20909295  1
  O  O27  1  0.03170483  0.06857169  0.09713864  1
  O  O28  1  0.38601997  0.31203904  0.21951325  1
  O  O29  1  0.13515571  0.80050567  0.46804064  1
  O  O30  1  0.90957811  0.83502090  0.22021364  1
  O  O31  1  0.27625830  0.53858039  0.34988362  1
  O  O32  1  0.53851268  0.05162800  0.09484720  1
  O  O33  1  0.01866058  0.57762515  0.59661593  1
  O  O34  1  0.16095981  0.31058882  0.46035894  1
  O  O35  1  0.27126536  0.08889180  0.34861098  1
  O  O36  1  0.91471958  0.30737380  0.21792636  1
  O  O37  1  0.77748377  0.56618580  0.35176146  1
  O  O38  1  0.66089308  0.79307221  0.46686515  1
  O  O39  1  0.65680332  0.32668797  0.46620913  1
  O  O40  1  0.41765181  0.83403654  0.71723069  1
  O  O41  1  0.01603771  0.03307430  0.59615509  1
  O  O42  1  0.55828878  0.57482884  0.59699604  1
  O  O43  1  0.81029491  0.08198644  0.34823540  1
  O  O44  1  0.90320473  0.80842883  0.71109094  1
  O  O45  1  0.28183309  0.56512852  0.84684292  1
  O  O46  1  0.41450993  0.30283558  0.71703926  1
  O  O47  1  0.16306414  0.80379202  0.96336068  1
  O  O48  1  0.53444208  0.06504947  0.59938118  1
  O  O49  1  0.16301909  0.32459931  0.96338411  1
  O  O50  1  0.88994339  0.30670334  0.71690623  1
  O  O51  1  0.63916509  0.80244137  0.96262788  1
  O  O52  1  0.76797758  0.53714084  0.84707933  1
  O  O53  1  0.31503599  0.08186020  0.84647489  1
  O  O54  1  0.76813638  0.08404721  0.84673332  1
  O  O55  1  0.65647904  0.31242145  0.96444821  1
