# generated using pymatgen
data_Sr3(AsO4)2
_symmetry_space_group_name_H-M   'P 1'
_cell_length_a   7.35720035
_cell_length_b   10.29619606
_cell_length_c   12.67592004
_cell_angle_alpha   90.00000000
_cell_angle_beta   89.40842969
_cell_angle_gamma   90.00000000
_symmetry_Int_Tables_number   1
_chemical_formula_structural   Sr3(AsO4)2
_chemical_formula_sum   'Sr12 As8 O32'
_cell_volume   960.16468542
_cell_formula_units_Z   4
loop_
 _symmetry_equiv_pos_site_id
 _symmetry_equiv_pos_as_xyz
  1  'x, y, z'
loop_
 _atom_site_type_symbol
 _atom_site_label
 _atom_site_symmetry_multiplicity
 _atom_site_fract_x
 _atom_site_fract_y
 _atom_site_fract_z
 _atom_site_occupancy
  Sr  Sr0  1  0.09255338  0.79692939  0.57393372  1
  Sr  Sr1  1  0.09255338  0.70307061  0.07393372  1
  Sr  Sr2  1  0.24218719  0.15526731  0.64470915  1
  Sr  Sr3  1  0.24218719  0.34473269  0.14470915  1
  Sr  Sr4  1  0.39382921  0.53823055  0.63788548  1
  Sr  Sr5  1  0.39382921  0.96176945  0.13788548  1
  Sr  Sr6  1  0.60617079  0.03823055  0.86211452  1
  Sr  Sr7  1  0.60617079  0.46176945  0.36211452  1
  Sr  Sr8  1  0.75781281  0.65526731  0.85529085  1
  Sr  Sr9  1  0.75781281  0.84473269  0.35529085  1
  Sr  Sr10  1  0.90744662  0.29692939  0.92606628  1
  Sr  Sr11  1  0.90744662  0.20307061  0.42606628  1
  As  As12  1  0.10465953  0.94848646  0.85877705  1
  As  As13  1  0.10465953  0.55151354  0.35877705  1
  As  As14  1  0.40257119  0.38562253  0.86831270  1
  As  As15  1  0.40257119  0.11437747  0.36831270  1
  As  As16  1  0.59742881  0.88562253  0.63168730  1
  As  As17  1  0.59742881  0.61437747  0.13168730  1
  As  As18  1  0.89534047  0.44848646  0.64122295  1
  As  As19  1  0.89534047  0.05151354  0.14122295  1
  O  O20  1  0.02680213  0.79758745  0.89533131  1
  O  O21  1  0.02680213  0.70241255  0.39533131  1
  O  O22  1  0.05562686  0.57040417  0.62444162  1
  O  O23  1  0.05562686  0.92959583  0.12444162  1
  O  O24  1  0.14565175  0.94888377  0.72424080  1
  O  O25  1  0.14565175  0.55111623  0.22424080  1
  O  O26  1  0.21886544  0.38310324  0.95482069  1
  O  O27  1  0.21886544  0.11689676  0.45482069  1
  O  O28  1  0.30025207  0.98549268  0.92684371  1
  O  O29  1  0.33397139  0.33538124  0.74533907  1
  O  O30  1  0.30025207  0.51450732  0.42684371  1
  O  O31  1  0.33397139  0.16461876  0.24533907  1
  O  O32  1  0.43311023  0.77955885  0.58775028  1
  O  O33  1  0.43311023  0.72044115  0.08775028  1
  O  O34  1  0.46608341  0.54337561  0.84622540  1
  O  O35  1  0.46608341  0.95662439  0.34622540  1
  O  O36  1  0.53391659  0.04337561  0.65377460  1
  O  O37  1  0.53391659  0.45662439  0.15377460  1
  O  O38  1  0.56688977  0.27955885  0.91224972  1
  O  O39  1  0.56688977  0.22044115  0.41224972  1
  O  O40  1  0.66602861  0.83538124  0.75466093  1
  O  O41  1  0.69974793  0.48549268  0.57315629  1
  O  O42  1  0.66602861  0.66461876  0.25466093  1
  O  O43  1  0.69974793  0.01450732  0.07315629  1
  O  O44  1  0.78113456  0.88310324  0.54517931  1
  O  O45  1  0.78113456  0.61689676  0.04517931  1
  O  O46  1  0.85434825  0.44888377  0.77575920  1
  O  O47  1  0.85434825  0.05111623  0.27575920  1
  O  O48  1  0.94437314  0.07040417  0.87555838  1
  O  O49  1  0.94437314  0.42959583  0.37555838  1
  O  O50  1  0.97319787  0.29758745  0.60466869  1
  O  O51  1  0.97319787  0.20241255  0.10466869  1
