# generated using pymatgen
data_Li9(CoO4)2
_symmetry_space_group_name_H-M   'P 1'
_cell_length_a   7.87154674
_cell_length_b   7.24019879
_cell_length_c   6.75527857
_cell_angle_alpha   90.00000000
_cell_angle_beta   90.00000000
_cell_angle_gamma   88.68110728
_symmetry_Int_Tables_number   1
_chemical_formula_structural   Li9(CoO4)2
_chemical_formula_sum   'Li18 Co4 O16'
_cell_volume   384.89189044
_cell_formula_units_Z   2
loop_
 _symmetry_equiv_pos_site_id
 _symmetry_equiv_pos_as_xyz
  1  'x, y, z'
loop_
 _atom_site_type_symbol
 _atom_site_label
 _atom_site_symmetry_multiplicity
 _atom_site_fract_x
 _atom_site_fract_y
 _atom_site_fract_z
 _atom_site_occupancy
  Li  Li0  1  0.00000000  0.50000000  0.26583370  1
  Li  Li1  1  0.00000000  0.50000000  0.73416630  1
  Li  Li2  1  0.07413024  0.76521793  0.50000000  1
  Li  Li3  1  0.16456042  0.96791475  0.23873951  1
  Li  Li4  1  0.16456042  0.96791475  0.76126049  1
  Li  Li5  1  0.27081553  0.24682794  0.50000000  1
  Li  Li6  1  0.33895538  0.50063767  0.23910536  1
  Li  Li7  1  0.33895538  0.50063767  0.76089464  1
  Li  Li8  1  0.45486171  0.24372994  0.00000000  1
  Li  Li9  1  0.50000000  0.00000000  0.73460637  1
  Li  Li10  1  0.50000000  0.00000000  0.26539363  1
  Li  Li11  1  0.54513829  0.75627006  0.00000000  1
  Li  Li12  1  0.66104462  0.49936233  0.23910536  1
  Li  Li13  1  0.66104462  0.49936233  0.76089464  1
  Li  Li14  1  0.72918447  0.75317206  0.50000000  1
  Li  Li15  1  0.83543958  0.03208525  0.76126049  1
  Li  Li16  1  0.83543958  0.03208525  0.23873951  1
  Li  Li17  1  0.92586976  0.23478207  0.50000000  1
  Co  Co18  1  0.12570800  0.23522344  0.00000000  1
  Co  Co19  1  0.38648913  0.73013667  0.50000000  1
  Co  Co20  1  0.61351087  0.26986333  0.50000000  1
  Co  Co21  1  0.87429200  0.76477656  0.00000000  1
  O  O22  1  0.02221789  0.21047558  0.23764239  1
  O  O23  1  0.02221789  0.21047558  0.76235761  1
  O  O24  1  0.21664211  0.45896476  0.00000000  1
  O  O25  1  0.21579875  0.53735075  0.50000000  1
  O  O26  1  0.28859056  0.04814619  0.00000000  1
  O  O27  1  0.27512655  0.96476937  0.50000000  1
  O  O28  1  0.50205376  0.71258053  0.26842094  1
  O  O29  1  0.50205376  0.71258053  0.73157906  1
  O  O30  1  0.49794624  0.28741947  0.26842094  1
  O  O31  1  0.49794624  0.28741947  0.73157906  1
  O  O32  1  0.72487345  0.03523063  0.50000000  1
  O  O33  1  0.71140944  0.95185381  0.00000000  1
  O  O34  1  0.78420125  0.46264925  0.50000000  1
  O  O35  1  0.78335789  0.54103524  0.00000000  1
  O  O36  1  0.97778211  0.78952442  0.23764239  1
  O  O37  1  0.97778211  0.78952442  0.76235761  1
