# generated using pymatgen
data_Ti2Ni(PO4)3
_symmetry_space_group_name_H-M   'P 1'
_cell_length_a   8.46932579
_cell_length_b   8.46932521
_cell_length_c   8.46932528
_cell_angle_alpha   60.90578832
_cell_angle_beta   60.90578698
_cell_angle_gamma   60.90578739
_symmetry_Int_Tables_number   1
_chemical_formula_structural   Ti2Ni(PO4)3
_chemical_formula_sum   'Ti4 Ni2 P6 O24'
_cell_volume   438.33747921
_cell_formula_units_Z   2
loop_
 _symmetry_equiv_pos_site_id
 _symmetry_equiv_pos_as_xyz
  1  'x, y, z'
loop_
 _atom_site_type_symbol
 _atom_site_label
 _atom_site_symmetry_multiplicity
 _atom_site_fract_x
 _atom_site_fract_y
 _atom_site_fract_z
 _atom_site_occupancy
  Ti  Ti0  1  0.14374073  0.14374073  0.14374073  1
  Ti  Ti1  1  0.35625927  0.35625927  0.35625927  1
  Ti  Ti2  1  0.64374073  0.64374073  0.64374073  1
  Ti  Ti3  1  0.85625927  0.85625927  0.85625927  1
  Ni  Ni4  1  0.00000000  0.00000000  0.00000000  1
  Ni  Ni5  1  0.50000000  0.50000000  0.50000000  1
  P  P6  1  0.04527983  0.75000000  0.45472017  1
  P  P7  1  0.45472017  0.04527983  0.75000000  1
  P  P8  1  0.75000000  0.45472017  0.04527983  1
  P  P9  1  0.25000000  0.54527983  0.95472017  1
  P  P10  1  0.54527983  0.95472017  0.25000000  1
  P  P11  1  0.95472017  0.25000000  0.54527983  1
  O  O12  1  0.11431678  0.31848176  0.50019503  1
  O  O13  1  0.31848176  0.50019503  0.11431678  1
  O  O14  1  0.05737315  0.91123336  0.25713108  1
  O  O15  1  0.50019503  0.11431678  0.31848176  1
  O  O16  1  0.00019503  0.81848176  0.61431578  1
  O  O17  1  0.24286892  0.58876664  0.44262685  1
  O  O18  1  0.25713108  0.05737315  0.91123336  1
  O  O19  1  0.44262685  0.24286892  0.58876664  1
  O  O20  1  0.18151824  0.38568422  -0.00019503  1
  O  O21  1  0.58876664  0.44262685  0.24286892  1
  O  O22  1  0.08876664  0.74286892  0.94262685  1
  O  O23  1  0.38568422  -0.00019503  0.18151824  1
  O  O24  1  0.61431578  0.00019503  0.81848176  1
  O  O25  1  0.91123336  0.25713108  0.05737315  1
  O  O26  1  0.41123336  0.55737315  0.75713108  1
  O  O27  1  0.81848176  0.61431578  0.00019503  1
  O  O28  1  0.55737315  0.75713108  0.41123336  1
  O  O29  1  0.74286892  0.94262685  0.08876664  1
  O  O30  1  0.75713108  0.41123336  0.55737315  1
  O  O31  1  -0.00019503  0.18151824  0.38568422  1
  O  O32  1  0.49980497  0.88568422  0.68151824  1
  O  O33  1  0.94262685  0.08876664  0.74286892  1
  O  O34  1  0.68151824  0.49980497  0.88568422  1
  O  O35  1  0.88568422  0.68151824  0.49980497  1
