# generated using pymatgen
data_Li6V3W3O16
_symmetry_space_group_name_H-M   'P 1'
_cell_length_a   6.07480711
_cell_length_b   6.09818360
_cell_length_c   10.11696540
_cell_angle_alpha   89.87405109
_cell_angle_beta   90.98440006
_cell_angle_gamma   120.20412642
_symmetry_Int_Tables_number   1
_chemical_formula_structural   Li6V3W3O16
_chemical_formula_sum   'Li6 V3 W3 O16'
_cell_volume   323.84762521
_cell_formula_units_Z   1
loop_
 _symmetry_equiv_pos_site_id
 _symmetry_equiv_pos_as_xyz
  1  'x, y, z'
loop_
 _atom_site_type_symbol
 _atom_site_label
 _atom_site_symmetry_multiplicity
 _atom_site_fract_x
 _atom_site_fract_y
 _atom_site_fract_z
 _atom_site_occupancy
  Li  Li0  1  0.32999829  0.66228250  0.51506233  1
  Li  Li1  1  0.33144764  0.66818909  0.88774473  1
  Li  Li2  1  0.99084273  0.99478055  0.99651154  1
  Li  Li3  1  0.98581691  0.99054582  0.50044779  1
  Li  Li4  1  0.65856996  0.33045687  0.00846477  1
  Li  Li5  1  0.66651521  0.33405662  0.39544479  1
  V  V6  1  0.66688428  0.83373290  0.21356479  1
  V  V7  1  0.83712698  0.66455226  0.71430711  1
  V  V8  1  0.83277666  0.16750839  0.71446628  1
  W  W9  1  0.17215264  0.83100451  0.21561662  1
  W  W10  1  0.17141469  0.34079722  0.21555859  1
  W  W11  1  0.34217955  0.17202259  0.71498700  1
  O  O12  1  0.16388599  0.85769452  0.60803282  1
  O  O13  1  0.02446659  0.51162494  0.32936830  1
  O  O14  1  0.32402877  0.66258860  0.09856897  1
  O  O15  1  0.01309514  0.00619557  0.32112255  1
  O  O16  1  0.02126626  0.00312470  0.81767485  1
  O  O17  1  0.15776522  0.30205949  0.60905584  1
  O  O18  1  0.48334703  0.97543989  0.31924474  1
  O  O19  1  0.48277855  0.50763748  0.31879394  1
  O  O20  1  0.30603989  0.15366594  0.10287599  1
  O  O21  1  0.70005818  0.83384992  0.61655563  1
  O  O22  1  0.50364604  0.47745040  0.82034537  1
  O  O23  1  0.50790068  0.02938223  0.82035392  1
  O  O24  1  0.64613851  0.33051257  0.60285584  1
  O  O25  1  0.85527377  0.69484152  0.10937872  1
  O  O26  1  0.96893092  0.50287261  0.81309431  1
  O  O27  1  0.85565391  0.16143031  0.10834086  1
