# generated using pymatgen
data_Li4FeNi5O12
_symmetry_space_group_name_H-M   'P 1'
_cell_length_a   5.01881723
_cell_length_b   4.97178530
_cell_length_c   10.06183819
_cell_angle_alpha   89.36143664
_cell_angle_beta   88.73346955
_cell_angle_gamma   59.68594040
_symmetry_Int_Tables_number   1
_chemical_formula_structural   Li4FeNi5O12
_chemical_formula_sum   'Li4 Fe1 Ni5 O12'
_cell_volume   216.68680904
_cell_formula_units_Z   1
loop_
 _symmetry_equiv_pos_site_id
 _symmetry_equiv_pos_as_xyz
  1  'x, y, z'
loop_
 _atom_site_type_symbol
 _atom_site_label
 _atom_site_symmetry_multiplicity
 _atom_site_fract_x
 _atom_site_fract_y
 _atom_site_fract_z
 _atom_site_occupancy
  Li  Li0  1  0.15924126  0.50207424  0.74972101  1
  Li  Li1  1  0.33867908  0.50208357  0.25027672  1
  Li  Li2  1  0.66411695  0.49737463  0.74916288  1
  Li  Li3  1  0.83850955  0.49737606  0.25083741  1
  Fe  Fe4  1  0.99633148  0.00733844  0.99999942  1
  Ni  Ni5  1  0.16414632  0.67168762  0.49999255  1
  Ni  Ni6  1  0.66571363  0.66856729  0.00000329  1
  Ni  Ni7  1  0.33813248  0.32373310  -0.00000046  1
  Ni  Ni8  1  0.83587954  0.32825675  0.49999513  1
  Ni  Ni9  1  0.50004123  0.99991867  0.49999629  1
  O  O10  1  0.99621931  0.64864820  0.10154472  1
  O  O11  1  0.35513846  0.64864020  0.89845910  1
  O  O12  1  0.14485468  0.36068186  0.39733040  1
  O  O13  1  0.50488559  0.63963960  0.39791251  1
  O  O14  1  0.49446434  0.36068371  0.60267087  1
  O  O15  1  0.14053437  0.99981919  0.59888463  1
  O  O16  1  0.85547302  0.63964701  0.60208857  1
  O  O17  1  0.66807032  0.35870686  0.10981304  1
  O  O18  1  0.34881480  0.99331575  0.10063418  1
  O  O19  1  0.97321982  0.35870418  0.89019016  1
  O  O20  1  0.65787194  0.99330103  0.89937123  1
  O  O21  1  0.85966181  0.99980102  0.40111736  1
