# generated using pymatgen
data_Mn3VO8
_symmetry_space_group_name_H-M   'P 1'
_cell_length_a   5.79006973
_cell_length_b   5.79215373
_cell_length_c   8.95734211
_cell_angle_alpha   89.77762241
_cell_angle_beta   90.11123094
_cell_angle_gamma   120.01191159
_symmetry_Int_Tables_number   1
_chemical_formula_structural   Mn3VO8
_chemical_formula_sum   'Mn6 V2 O16'
_cell_volume   260.12270137
_cell_formula_units_Z   2
loop_
 _symmetry_equiv_pos_site_id
 _symmetry_equiv_pos_as_xyz
  1  'x, y, z'
loop_
 _atom_site_type_symbol
 _atom_site_label
 _atom_site_symmetry_multiplicity
 _atom_site_fract_x
 _atom_site_fract_y
 _atom_site_fract_z
 _atom_site_occupancy
  Mn  Mn0  1  0.16705569  0.83151894  0.21074427  1
  Mn  Mn1  1  0.16811710  0.33539537  0.21290311  1
  Mn  Mn2  1  0.66411756  0.83096573  0.21157328  1
  Mn  Mn3  1  0.33588244  0.16684818  0.71157328  1
  Mn  Mn4  1  0.83294431  0.66446325  0.71074427  1
  Mn  Mn5  1  0.83188290  0.16727827  0.71290311  1
  V  V6  1  0.33340216  0.66732623  0.49281998  1
  V  V7  1  0.66659784  0.33392407  0.99281998  1
  O  O8  1  0.16817417  0.83244729  0.59995517  1
  O  O9  1  0.04170246  0.52212665  0.33747720  1
  O  O10  1  0.33303977  0.66675078  0.10226311  1
  O  O11  1  0.99988729  0.99851047  0.31623322  1
  O  O12  1  0.00011271  0.99862319  0.81623322  1
  O  O13  1  0.16793816  0.33665707  0.59960222  1
  O  O14  1  0.47814804  0.95729851  0.33769113  1
  O  O15  1  0.48022133  0.52132343  0.33688358  1
  O  O16  1  0.33546595  0.16841487  0.09971273  1
  O  O17  1  0.66453405  0.83294892  0.59971273  1
  O  O18  1  0.52185196  0.47915047  0.83769113  1
  O  O19  1  0.51977867  0.04110210  0.83688358  1
  O  O20  1  0.66696023  0.33371100  0.60226311  1
  O  O21  1  0.83182583  0.66427212  0.09995517  1
  O  O22  1  0.95829754  0.48042419  0.83747720  1
  O  O23  1  0.83206184  0.16871890  0.09960222  1
