# generated using pymatgen
data_Na3SiSnCO7
_symmetry_space_group_name_H-M   'P 1'
_cell_length_a   9.33967505
_cell_length_b   6.91975840
_cell_length_c   5.22338855
_cell_angle_alpha   90.00000000
_cell_angle_beta   90.73451089
_cell_angle_gamma   90.00000000
_symmetry_Int_Tables_number   1
_chemical_formula_structural   Na3SiSnCO7
_chemical_formula_sum   'Na6 Si2 Sn2 C2 O14'
_cell_volume   337.55095656
_cell_formula_units_Z   2
loop_
 _symmetry_equiv_pos_site_id
 _symmetry_equiv_pos_as_xyz
  1  'x, y, z'
loop_
 _atom_site_type_symbol
 _atom_site_label
 _atom_site_symmetry_multiplicity
 _atom_site_fract_x
 _atom_site_fract_y
 _atom_site_fract_z
 _atom_site_occupancy
  Na  Na0  1  0.08554050  0.25000000  0.76238590  1
  Na  Na1  1  0.25631403  0.00741848  0.25055188  1
  Na  Na2  1  0.25631403  0.49258152  0.25055188  1
  Na  Na3  1  0.74368597  0.50741848  0.74944812  1
  Na  Na4  1  0.74368597  0.99258152  0.74944812  1
  Na  Na5  1  0.91445950  0.75000000  0.23761410  1
  Si  Si6  1  0.41016899  0.25000000  0.70571461  1
  Si  Si7  1  0.58983101  0.75000000  0.29428539  1
  Sn  Sn8  1  0.36570710  0.75000000  0.77750203  1
  Sn  Sn9  1  0.63429290  0.25000000  0.22249797  1
  C  C10  1  0.05466426  0.75000000  0.73332828  1
  C  C11  1  0.94533574  0.25000000  0.26667172  1
  O  O12  1  0.08347460  0.25000000  0.28161239  1
  O  O13  1  0.11974661  0.75000000  0.95680922  1
  O  O14  1  0.13015726  0.75000000  0.52446106  1
  O  O15  1  0.31396266  0.06227734  0.79794229  1
  O  O16  1  0.31396266  0.43772266  0.79794229  1
  O  O17  1  0.41945035  0.25000000  0.38843730  1
  O  O18  1  0.42350366  0.75000000  0.17841238  1
  O  O19  1  0.57649634  0.25000000  0.82158762  1
  O  O20  1  0.58054965  0.75000000  0.61156270  1
  O  O21  1  0.68603734  0.56227734  0.20205771  1
  O  O22  1  0.68603734  0.93772266  0.20205771  1
  O  O23  1  0.86984274  0.25000000  0.47553894  1
  O  O24  1  0.88025339  0.25000000  0.04319078  1
  O  O25  1  0.91652540  0.75000000  0.71838761  1
