# generated using pymatgen
data_Na2CoSiCO7
_symmetry_space_group_name_H-M   'P 1'
_cell_length_a   9.01975989
_cell_length_b   6.33386164
_cell_length_c   5.15538396
_cell_angle_alpha   90.00000000
_cell_angle_beta   87.89576629
_cell_angle_gamma   90.00000000
_symmetry_Int_Tables_number   1
_chemical_formula_structural   Na2CoSiCO7
_chemical_formula_sum   'Na4 Co2 Si2 C2 O14'
_cell_volume   294.32802362
_cell_formula_units_Z   2
loop_
 _symmetry_equiv_pos_site_id
 _symmetry_equiv_pos_as_xyz
  1  'x, y, z'
loop_
 _atom_site_type_symbol
 _atom_site_label
 _atom_site_symmetry_multiplicity
 _atom_site_fract_x
 _atom_site_fract_y
 _atom_site_fract_z
 _atom_site_occupancy
  Na  Na0  1  0.24270518  0.01362808  0.23740503  1
  Na  Na1  1  0.24270518  0.48637192  0.23740503  1
  Na  Na2  1  0.75729482  0.51362808  0.76259497  1
  Na  Na3  1  0.75729482  0.98637192  0.76259497  1
  Co  Co4  1  0.34230161  0.75000000  0.79037682  1
  Co  Co5  1  0.65769839  0.25000000  0.20962318  1
  Si  Si6  1  0.43232577  0.25000000  0.71165593  1
  Si  Si7  1  0.56767423  0.75000000  0.28834407  1
  C  C8  1  0.07999873  0.75000000  0.72559511  1
  C  C9  1  0.92000127  0.25000000  0.27440489  1
  O  O10  1  0.05617734  0.25000000  0.30432228  1
  O  O11  1  0.14219333  0.75000000  0.95034212  1
  O  O12  1  0.18124306  0.75000000  0.53493379  1
  O  O13  1  0.32531719  0.04555511  0.78523413  1
  O  O14  1  0.32531719  0.45444489  0.78523413  1
  O  O15  1  0.41502998  0.75000000  0.12710454  1
  O  O16  1  0.46992536  0.25000000  0.39568467  1
  O  O17  1  0.53007464  0.75000000  0.60431533  1
  O  O18  1  0.58497002  0.25000000  0.87289546  1
  O  O19  1  0.67468281  0.54555511  0.21476587  1
  O  O20  1  0.67468281  0.95444489  0.21476587  1
  O  O21  1  0.81875694  0.25000000  0.46506621  1
  O  O22  1  0.85780667  0.25000000  0.04965788  1
  O  O23  1  0.94382266  0.75000000  0.69567772  1
