# generated using pymatgen
data_BaSrI4
_symmetry_space_group_name_H-M   'P 1'
_cell_length_a   19.27963106
_cell_length_b   11.34103204
_cell_length_c   10.93873275
_cell_angle_alpha   90.00000000
_cell_angle_beta   83.18940907
_cell_angle_gamma   90.00000000
_symmetry_Int_Tables_number   1
_chemical_formula_structural   BaSrI4
_chemical_formula_sum   'Ba8 Sr8 I32'
_cell_volume   2374.88667577
_cell_formula_units_Z   8
loop_
 _symmetry_equiv_pos_site_id
 _symmetry_equiv_pos_as_xyz
  1  'x, y, z'
loop_
 _atom_site_type_symbol
 _atom_site_label
 _atom_site_symmetry_multiplicity
 _atom_site_fract_x
 _atom_site_fract_y
 _atom_site_fract_z
 _atom_site_occupancy
  Ba  Ba0  1  0.15446958  0.97320221  0.59842960  1
  Ba  Ba1  1  0.13608821  0.72099130  0.17469795  1
  Ba  Ba2  1  0.34553042  0.47320221  0.90157040  1
  Ba  Ba3  1  0.36391179  0.22099130  0.32530205  1
  Ba  Ba4  1  0.63608821  0.77900870  0.67469795  1
  Ba  Ba5  1  0.65446958  0.52679779  0.09842960  1
  Ba  Ba6  1  0.86391179  0.27900870  0.82530205  1
  Ba  Ba7  1  0.84553042  0.02679779  0.40157040  1
  Sr  Sr8  1  0.08808358  0.44977340  0.63127293  1
  Sr  Sr9  1  0.08216512  0.17796143  0.07773803  1
  Sr  Sr10  1  0.41191642  0.94977340  0.86872707  1
  Sr  Sr11  1  0.41783488  0.67796143  0.42226197  1
  Sr  Sr12  1  0.58216512  0.32203857  0.57773803  1
  Sr  Sr13  1  0.58808358  0.05022660  0.13127293  1
  Sr  Sr14  1  0.91783488  0.82203857  0.92226197  1
  Sr  Sr15  1  0.91191642  0.55022660  0.36872707  1
  I  I16  1  0.04953402  0.45062333  0.17378384  1
  I  I17  1  0.05779017  0.21085915  0.79242175  1
  I  I18  1  0.04639285  0.68867921  0.49042524  1
  I  I19  1  0.09177786  0.88896669  0.91257786  1
  I  I20  1  0.10078144  0.99949987  0.30279119  1
  I  I21  1  0.18706456  0.55125768  0.82523254  1
  I  I22  1  0.19572257  0.26645886  0.47270222  1
  I  I23  1  0.24790669  0.24752403  0.07403366  1
  I  I24  1  0.25209331  0.74752403  0.42596634  1
  I  I25  1  0.30427743  0.76645886  0.02729778  1
  I  I26  1  0.31293644  0.05125768  0.67476746  1
  I  I27  1  0.39921856  0.49949987  0.19720881  1
  I  I28  1  0.40822214  0.38896669  0.58742214  1
  I  I29  1  0.44220983  0.71085915  0.70757825  1
  I  I30  1  0.45360715  0.18867921  0.00957476  1
  I  I31  1  0.45046598  0.95062333  0.32621616  1
  I  I32  1  0.54953402  0.04937667  0.67378384  1
  I  I33  1  0.54639285  0.81132079  0.99042524  1
  I  I34  1  0.55779017  0.28914085  0.29242175  1
  I  I35  1  0.59177786  0.61103331  0.41257786  1
  I  I36  1  0.60078144  0.50050013  0.80279119  1
  I  I37  1  0.68706456  0.94874232  0.32523254  1
  I  I38  1  0.69572257  0.23354114  0.97270222  1
  I  I39  1  0.74790669  0.25247597  0.57403366  1
  I  I40  1  0.75209331  0.75247597  0.92596634  1
  I  I41  1  0.80427743  0.73354114  0.52729778  1
  I  I42  1  0.81293544  0.44874232  0.17476746  1
  I  I43  1  0.89921856  0.00050013  0.69720881  1
  I  I44  1  0.90822214  0.11103331  0.08742214  1
  I  I45  1  0.95360715  0.31132079  0.50957476  1
  I  I46  1  0.94220983  0.78914085  0.20757825  1
  I  I47  1  0.95046598  0.54937667  0.82621616  1
