# generated using pymatgen
data_Li4Ti3Mn2Ni3O16
_symmetry_space_group_name_H-M   'P 1'
_cell_length_a   5.86290739
_cell_length_b   5.83923266
_cell_length_c   9.43493173
_cell_angle_alpha   90.00093408
_cell_angle_beta   91.40476782
_cell_angle_gamma   119.87033140
_symmetry_Int_Tables_number   1
_chemical_formula_structural   Li4Ti3Mn2Ni3O16
_chemical_formula_sum   'Li4 Ti3 Mn2 Ni3 O16'
_cell_volume   279.98221653
_cell_formula_units_Z   1
loop_
 _symmetry_equiv_pos_site_id
 _symmetry_equiv_pos_as_xyz
  1  'x, y, z'
loop_
 _atom_site_type_symbol
 _atom_site_label
 _atom_site_symmetry_multiplicity
 _atom_site_fract_x
 _atom_site_fract_y
 _atom_site_fract_z
 _atom_site_occupancy
  Li  Li0  1  0.33359269  0.66679557  0.89427977  1
  Li  Li1  1  0.97359532  0.98681980  0.99029839  1
  Li  Li2  1  0.99246655  0.99622423  0.49488875  1
  Li  Li3  1  0.67288927  0.33646326  0.40002389  1
  Ti  Ti4  1  0.17520573  0.83580645  0.21221880  1
  Ti  Ti5  1  0.17521235  0.33943132  0.21221850  1
  Ti  Ti6  1  0.33814820  0.16907719  0.71531539  1
  Mn  Mn7  1  0.34041712  0.67021484  0.48607531  1
  Mn  Mn8  1  0.67698575  0.33850518  0.98110621  1
  Ni  Ni9  1  0.65699234  0.82850490  0.21135758  1
  Ni  Ni10  1  0.82648889  0.65883013  0.71042006  1
  Ni  Ni11  1  0.82656960  0.16772640  0.71039212  1
  O  O12  1  0.18686861  0.84342837  0.59856947  1
  O  O13  1  0.04486379  0.52243420  0.34189432  1
  O  O14  1  0.31457985  0.65731943  0.10085906  1
  O  O15  1  0.00771348  0.00385915  0.30590201  1
  O  O16  1  0.98927886  0.99461303  0.80081297  1
  O  O17  1  0.18686879  0.34345663  0.59858051  1
  O  O18  1  0.47068082  0.95855618  0.34996172  1
  O  O19  1  0.47064834  0.51211662  0.34997084  1
  O  O20  1  0.34091509  0.17048077  0.10364817  1
  O  O21  1  0.66922125  0.83462037  0.59410782  1
  O  O22  1  0.50955942  0.46899982  0.84944078  1
  O  O23  1  0.50953331  0.04056022  0.84942965  1
  O  O24  1  0.66947868  0.33479197  0.60841400  1
  O  O25  1  0.84355620  0.66242974  0.09657125  1
  O  O26  1  0.95409206  0.47706019  0.84451572  1
  O  O27  1  0.84357764  0.18117605  0.09656697  1
