# generated using pymatgen
data_Li3V4NiO12
_symmetry_space_group_name_H-M   'P 1'
_cell_length_a   5.38967322
_cell_length_b   10.75277152
_cell_length_c   9.51789535
_cell_angle_alpha   27.80484453
_cell_angle_beta   50.29134034
_cell_angle_gamma   55.71940054
_symmetry_Int_Tables_number   1
_chemical_formula_structural   Li3V4NiO12
_chemical_formula_sum   'Li3 V4 Ni1 O12'
_cell_volume   197.93884439
_cell_formula_units_Z   1
loop_
 _symmetry_equiv_pos_site_id
 _symmetry_equiv_pos_as_xyz
  1  'x, y, z'
loop_
 _atom_site_type_symbol
 _atom_site_label
 _atom_site_symmetry_multiplicity
 _atom_site_fract_x
 _atom_site_fract_y
 _atom_site_fract_z
 _atom_site_occupancy
  Li  Li0  1  0.28708361  0.49908719  0.28723591  1
  Li  Li1  1  0.79119796  0.00190913  0.77993587  1
  Li  Li2  1  0.78136940  0.49637103  0.79175717  1
  V  V3  1  0.01766088  0.00107055  0.99993989  1
  V  V4  1  0.99008847  0.49149587  0.01712701  1
  V  V5  1  0.49086528  0.99359574  0.51911216  1
  V  V6  1  0.51278323  0.50247904  0.49847553  1
  Ni  Ni7  1  0.29171077  0.00246678  0.29414993  1
  O  O8  1  0.36049116  0.30463306  0.10851126  1
  O  O9  1  0.22585384  0.11737454  0.61822159  1
  O  O10  1  0.10952255  0.30907495  0.73097010  1
  O  O11  1  0.85464292  0.18145139  0.23427614  1
  O  O12  1  0.35067279  0.81039682  0.11047054  1
  O  O13  1  0.71467868  0.38567268  0.35386544  1
  O  O14  1  0.23172627  0.63139920  0.59401522  1
  O  O15  1  0.59779118  0.18931869  0.85552820  1
  O  O16  1  0.12938693  0.82483797  0.70852920  1
  O  O17  1  0.85176177  0.68982057  0.22927846  1
  O  O18  1  0.72973014  0.87697775  0.34779905  1
  O  O19  1  0.61058218  0.69056705  0.85039934  1
