# generated using pymatgen
data_Li3Mn3SbO8
_symmetry_space_group_name_H-M   'P 1'
_cell_length_a   10.55007220
_cell_length_b   10.55102285
_cell_length_c   14.89130544
_cell_angle_alpha   19.82292415
_cell_angle_beta   19.82606719
_cell_angle_gamma   34.14315740
_symmetry_Int_Tables_number   1
_chemical_formula_structural   Li3Mn3SbO8
_chemical_formula_sum   'Li3 Mn3 Sb1 O8'
_cell_volume   165.26401344
_cell_formula_units_Z   1
loop_
 _symmetry_equiv_pos_site_id
 _symmetry_equiv_pos_as_xyz
  1  'x, y, z'
loop_
 _atom_site_type_symbol
 _atom_site_label
 _atom_site_symmetry_multiplicity
 _atom_site_fract_x
 _atom_site_fract_y
 _atom_site_fract_z
 _atom_site_occupancy
  Li  Li0  1  0.99997958  0.49999810  0.50001176  1
  Li  Li1  1  0.49998533  0.99998645  0.50002073  1
  Li  Li2  1  0.50000002  0.50001430  0.49998883  1
  Mn  Mn3  1  0.99998146  0.50001048  0.00000357  1
  Mn  Mn4  1  0.50001536  0.99999511  0.99998049  1
  Mn  Mn5  1  0.50007069  0.50000502  0.99996757  1
  Sb  Sb6  1  0.99998957  0.99996987  0.00002598  1
  O  O7  1  0.99802311  0.99790522  0.27298415  1
  O  O8  1  0.00142227  0.54072773  0.22803974  1
  O  O9  1  0.54041918  0.00115897  0.22845450  1
  O  O10  1  0.00197216  0.00212150  0.72700259  1
  O  O11  1  0.46185713  0.46210602  0.30766949  1
  O  O12  1  0.99859279  0.45925809  0.77195940  1
  O  O13  1  0.45958455  0.99885186  0.77153649  1
  O  O14  1  0.53810780  0.53789129  0.69235271  1
