# generated using pymatgen
data_Sr2YI7
_symmetry_space_group_name_H-M   'P 1'
_cell_length_a   8.31070076
_cell_length_b   14.61040858
_cell_length_c   14.91182810
_cell_angle_alpha   90.00000000
_cell_angle_beta   100.62065356
_cell_angle_gamma   90.00000000
_symmetry_Int_Tables_number   1
_chemical_formula_structural   Sr2YI7
_chemical_formula_sum   'Sr8 Y4 I28'
_cell_volume   1779.61690175
_cell_formula_units_Z   4
loop_
 _symmetry_equiv_pos_site_id
 _symmetry_equiv_pos_as_xyz
  1  'x, y, z'
loop_
 _atom_site_type_symbol
 _atom_site_label
 _atom_site_symmetry_multiplicity
 _atom_site_fract_x
 _atom_site_fract_y
 _atom_site_fract_z
 _atom_site_occupancy
  Sr  Sr0  1  0.24905524  0.46224051  0.77165899  1
  Sr  Sr1  1  0.24177419  0.87228938  0.65524752  1
  Sr  Sr2  1  0.22880625  0.20348236  0.15795199  1
  Sr  Sr3  1  0.37882266  0.63051997  0.26650445  1
  Sr  Sr4  1  0.62117734  0.13051997  0.73349555  1
  Sr  Sr5  1  0.77119375  0.70348236  0.84204801  1
  Sr  Sr6  1  0.75822581  0.37228938  0.34475248  1
  Sr  Sr7  1  0.75094476  0.96224051  0.22834101  1
  Y  Y8  1  0.14792691  0.15416967  0.55416308  1
  Y  Y9  1  0.15727396  0.92502952  0.05400887  1
  Y  Y10  1  0.84272604  0.42502952  0.94599113  1
  Y  Y11  1  0.85207309  0.65416967  0.44583692  1
  I  I12  1  0.11361542  0.30464905  0.90404885  1
  I  I13  1  0.07430543  0.58118838  0.99704679  1
  I  I14  1  0.04532301  0.48788368  0.51162767  1
  I  I15  1  0.11622035  0.83619959  0.86645927  1
  I  I16  1  0.15523819  0.74687117  0.40442203  1
  I  I17  1  0.12000645  0.25037573  0.37125825  1
  I  I18  1  0.20761026  0.08188569  0.74951399  1
  I  I19  1  0.16540385  0.99663083  0.25094254  1
  I  I20  1  0.39347384  0.65983335  0.70118945  1
  I  I21  1  0.39640016  0.41197007  0.19974044  1
  I  I22  1  0.38530398  0.31020499  0.62745540  1
  I  I23  1  0.57755235  0.28356678  0.88796671  1
  I  I24  1  0.44879976  0.03338852  0.53951880  1
  I  I25  1  0.55632040  0.55456776  0.95280515  1
  I  I26  1  0.44367960  0.05456776  0.04719485  1
  I  I27  1  0.55120024  0.53338852  0.46048120  1
  I  I28  1  0.42244765  0.78356678  0.11203329  1
  I  I29  1  0.61469602  0.81020499  0.37254460  1
  I  I30  1  0.60359984  0.91197007  0.80025956  1
  I  I31  1  0.60652616  0.15983335  0.29881055  1
  I  I32  1  0.83459615  0.49663083  0.74905746  1
  I  I33  1  0.79238974  0.58188569  0.25048601  1
  I  I34  1  0.87999355  0.75037573  0.62874175  1
  I  I35  1  0.84476181  0.24687117  0.59557797  1
  I  I36  1  0.88377965  0.33619959  0.13354073  1
  I  I37  1  0.95467699  0.98788368  0.48837233  1
  I  I38  1  0.92569457  0.08118838  0.00295321  1
  I  I39  1  0.88638458  0.80464905  0.09595115  1
