# generated using pymatgen
data_Sr3YI9
_symmetry_space_group_name_H-M   'P 1'
_cell_length_a   8.35583838
_cell_length_b   32.98526378
_cell_length_c   7.71417001
_cell_angle_alpha   90.00000000
_cell_angle_beta   90.00000000
_cell_angle_gamma   91.70165716
_symmetry_Int_Tables_number   1
_chemical_formula_structural   Sr3YI9
_chemical_formula_sum   'Sr12 Y4 I36'
_cell_volume   2125.23829541
_cell_formula_units_Z   4
loop_
 _symmetry_equiv_pos_site_id
 _symmetry_equiv_pos_as_xyz
  1  'x, y, z'
loop_
 _atom_site_type_symbol
 _atom_site_label
 _atom_site_symmetry_multiplicity
 _atom_site_fract_x
 _atom_site_fract_y
 _atom_site_fract_z
 _atom_site_occupancy
  Sr  Sr0  1  0.32941360  0.93288324  0.96711836  1
  Sr  Sr1  1  0.29907537  0.69167618  0.00126423  1
  Sr  Sr2  1  0.32941360  0.43288324  0.03288164  1
  Sr  Sr3  1  0.29907537  0.19167618  0.99873577  1
  Sr  Sr4  1  0.67679946  0.56928301  0.98471053  1
  Sr  Sr5  1  0.71122480  0.80971779  0.97973240  1
  Sr  Sr6  1  0.67679946  0.06928301  0.01528947  1
  Sr  Sr7  1  0.71122480  0.30971779  0.02026760  1
  Sr  Sr8  1  0.78992224  0.69176263  0.52701024  1
  Sr  Sr9  1  0.83103394  0.93149475  0.51801467  1
  Sr  Sr10  1  0.78992224  0.19176263  0.47298976  1
  Sr  Sr11  1  0.83103394  0.43149475  0.48198533  1
  Y  Y12  1  0.19886195  0.80683790  0.51931638  1
  Y  Y13  1  0.17116106  0.56655186  0.54672779  1
  Y  Y14  1  0.19886195  0.30683790  0.48068362  1
  Y  Y15  1  0.17116106  0.06655186  0.45327221  1
  I  I16  1  0.01794399  0.86857872  0.79862826  1
  I  I17  1  0.01479662  0.75263148  0.82027700  1
  I  I18  1  0.00851479  0.62742793  0.81588223  1
  I  I19  1  0.01794399  0.36857872  0.20137174  1
  I  I20  1  0.01479662  0.25263148  0.17972300  1
  I  I21  1  0.11317121  0.99302750  0.70526690  1
  I  I22  1  0.00851479  0.12742793  0.18411777  1
  I  I23  1  0.15437394  0.89382080  0.32743000  1
  I  I24  1  0.11317121  0.49302750  0.29473310  1
  I  I25  1  0.15687760  0.70663103  0.39228939  1
  I  I26  1  0.15437394  0.39382080  0.67257000  1
  I  I27  1  0.15687760  0.20663103  0.60771061  1
  I  I28  1  0.35820848  0.79644801  0.16713127  1
  I  I29  1  0.34929558  0.59824169  0.21575650  1
  I  I30  1  0.35820848  0.29644801  0.83286873  1
  I  I31  1  0.34929558  0.09824169  0.78424350  1
  I  I32  1  0.40508078  0.51177313  0.74474734  1
  I  I33  1  0.48829145  0.86679679  0.67720602  1
  I  I34  1  0.48675109  0.75202082  0.69085502  1
  I  I35  1  0.47705029  0.62870912  0.70113791  1
  I  I36  1  0.40508078  0.01177313  0.25525266  1
  I  I37  1  0.48829145  0.36679679  0.32279398  1
  I  I38  1  0.48675109  0.25202082  0.30914498  1
  I  I39  1  0.47705029  0.12870912  0.29886209  1
  I  I40  1  0.61031853  0.98909024  0.76564420  1
  I  I41  1  0.61031853  0.48909024  0.23435580  1
  I  I42  1  0.65771830  0.90082992  0.15786715  1
  I  I43  1  0.67411470  0.69866533  0.11946147  1
  I  I44  1  0.65771830  0.40082992  0.84213285  1
  I  I45  1  0.67411470  0.19866533  0.88053853  1
  I  I46  1  0.85503709  0.79775299  0.38437340  1
  I  I47  1  0.87199782  0.59847553  0.35201835  1
  I  I48  1  0.85503709  0.29775299  0.61562660  1
  I  I49  1  0.87199782  0.09847553  0.64798165  1
  I  I50  1  0.92369933  0.51068562  0.75391865  1
  I  I51  1  0.92369933  0.01068562  0.24608135  1
