# generated using pymatgen
data_Li3Ti4MnO12
_symmetry_space_group_name_H-M   'P 1'
_cell_length_a   5.45675238
_cell_length_b   10.91135081
_cell_length_c   9.68384452
_cell_angle_alpha   27.46962821
_cell_angle_beta   49.95706670
_cell_angle_gamma   55.25270529
_symmetry_Int_Tables_number   1
_chemical_formula_structural   Li3Ti4MnO12
_chemical_formula_sum   'Li3 Ti4 Mn1 O12'
_cell_volume   203.61184015
_cell_formula_units_Z   1
loop_
 _symmetry_equiv_pos_site_id
 _symmetry_equiv_pos_as_xyz
  1  'x, y, z'
loop_
 _atom_site_type_symbol
 _atom_site_label
 _atom_site_symmetry_multiplicity
 _atom_site_fract_x
 _atom_site_fract_y
 _atom_site_fract_z
 _atom_site_occupancy
  Li  Li0  1  0.27272614  0.49972020  0.29122453  1
  Li  Li1  1  0.79880963  0.99739143  0.78186525  1
  Li  Li2  1  0.77565822  0.49832517  0.78246243  1
  Ti  Ti3  1  0.02145474  0.00668905  0.98001192  1
  Ti  Ti4  1  0.97063948  0.49175270  0.01817673  1
  Ti  Ti5  1  0.50417691  0.98692756  0.52118505  1
  Ti  Ti6  1  0.50247969  0.52021719  0.46994649  1
  Mn  Mn7  1  0.31012482  0.00060973  0.29884032  1
  O  O8  1  0.35994164  0.29148994  0.11733792  1
  O  O9  1  0.22352612  0.12182447  0.61486874  1
  O  O10  1  0.10825780  0.32113020  0.72300752  1
  O  O11  1  0.90027659  0.17427536  0.23027082  1
  O  O12  1  0.36229373  0.80837342  0.11107578  1
  O  O13  1  0.72926905  0.37546134  0.36418340  1
  O  O14  1  0.23153914  0.66749534  0.56848061  1
  O  O15  1  0.56851049  0.17790472  0.89292400  1
  O  O16  1  0.12316048  0.82462815  0.70408813  1
  O  O17  1  0.85685943  0.69465501  0.22329802  1
  O  O18  1  0.69959209  0.87772880  0.35937303  1
  O  O19  1  0.61030282  0.66340222  0.87697831  1
