# generated using pymatgen
data_Li3Mn(SbO3)4
_symmetry_space_group_name_H-M   'P 1'
_cell_length_a   5.58754184
_cell_length_b   11.17498796
_cell_length_c   9.84218879
_cell_angle_alpha   28.32834495
_cell_angle_beta   51.42958759
_cell_angle_gamma   56.71422358
_symmetry_Int_Tables_number   1
_chemical_formula_structural   Li3Mn(SbO3)4
_chemical_formula_sum   'Li3 Mn1 Sb4 O12'
_cell_volume   228.00101463
_cell_formula_units_Z   1
loop_
 _symmetry_equiv_pos_site_id
 _symmetry_equiv_pos_as_xyz
  1  'x, y, z'
loop_
 _atom_site_type_symbol
 _atom_site_label
 _atom_site_symmetry_multiplicity
 _atom_site_fract_x
 _atom_site_fract_y
 _atom_site_fract_z
 _atom_site_occupancy
  Li  Li0  1  0.27429257  0.49959820  0.28365313  1
  Li  Li1  1  0.78384446  0.00038532  0.78351206  1
  Li  Li2  1  0.78196431  0.49933391  0.78138525  1
  Mn  Mn3  1  0.28500431  0.00010145  0.27673445  1
  Sb  Sb4  1  0.00833571  0.99949860  0.99042430  1
  Sb  Sb5  1  0.98360765  0.50013733  0.00314089  1
  Sb  Sb6  1  0.48985317  0.99815559  0.50294605  1
  Sb  Sb7  1  0.49961548  0.50208941  0.48767229  1
  O  O8  1  0.36544023  0.30015018  0.11770864  1
  O  O9  1  0.21954641  0.13346696  0.61119168  1
  O  O10  1  0.11679406  0.32421254  0.72407815  1
  O  O11  1  0.86707140  0.19854215  0.22126054  1
  O  O12  1  0.38141678  0.80470477  0.10892495  1
  O  O13  1  0.71798412  0.36425697  0.38101368  1
  O  O14  1  0.21846224  0.62231230  0.61964150  1
  O  O15  1  0.62327547  0.17842894  0.86309730  1
  O  O16  1  0.11005282  0.82998637  0.71445180  1
  O  O17  1  0.87483800  0.69915588  0.21519269  1
  O  O18  1  0.71889799  0.87525672  0.36599217  1
  O  O19  1  0.60930481  0.67022641  0.87757748  1
