# generated using pymatgen
data_LiSnAsCO7
_symmetry_space_group_name_H-M   'P 1'
_cell_length_a   9.20655547
_cell_length_b   6.74529718
_cell_length_c   5.25579858
_cell_angle_alpha   90.00000000
_cell_angle_beta   86.28936330
_cell_angle_gamma   90.00000000
_symmetry_Int_Tables_number   1
_chemical_formula_structural   LiSnAsCO7
_chemical_formula_sum   'Li2 Sn2 As2 C2 O14'
_cell_volume   325.70586184
_cell_formula_units_Z   2
loop_
 _symmetry_equiv_pos_site_id
 _symmetry_equiv_pos_as_xyz
  1  'x, y, z'
loop_
 _atom_site_type_symbol
 _atom_site_label
 _atom_site_symmetry_multiplicity
 _atom_site_fract_x
 _atom_site_fract_y
 _atom_site_fract_z
 _atom_site_occupancy
  Li  Li0  1  0.18046077  0.50331431  0.23242035  1
  Li  Li1  1  0.81953923  0.00331431  0.76757965  1
  Sn  Sn2  1  0.33316946  0.75392102  0.78881123  1
  Sn  Sn3  1  0.66683054  0.25392102  0.21118877  1
  As  As4  1  0.42591942  0.24961493  0.72557196  1
  As  As5  1  0.57408058  0.74961493  0.27442804  1
  C  C6  1  0.06234967  0.74370735  0.72257744  1
  C  C7  1  0.93765033  0.24370735  0.27742256  1
  O  O8  1  0.06712666  0.27401086  0.31555968  1
  O  O9  1  0.11710013  0.74169103  0.95269722  1
  O  O10  1  0.16689611  0.71737300  0.53224007  1
  O  O11  1  0.31253343  0.05620153  0.80169646  1
  O  O12  1  0.32521152  0.44677557  0.83917944  1
  O  O13  1  0.40451403  0.74111590  0.15548941  1
  O  O14  1  0.46294092  0.27012249  0.39818263  1
  O  O15  1  0.53705908  0.77012249  0.60181737  1
  O  O16  1  0.59548597  0.24111590  0.84451059  1
  O  O17  1  0.67478848  0.94677557  0.16082056  1
  O  O18  1  0.68746657  0.55620153  0.19830354  1
  O  O19  1  0.83310389  0.21737300  0.46775993  1
  O  O20  1  0.88289987  0.24169103  0.04730278  1
  O  O21  1  0.93287334  0.77401086  0.68444032  1
