# generated using pymatgen
data_Li2SbAsCO7
_symmetry_space_group_name_H-M   'P 1'
_cell_length_a   9.37014878
_cell_length_b   6.97704468
_cell_length_c   5.23751477
_cell_angle_alpha   90.00000000
_cell_angle_beta   93.61764786
_cell_angle_gamma   90.00000000
_symmetry_Int_Tables_number   1
_chemical_formula_structural   Li2SbAsCO7
_chemical_formula_sum   'Li4 Sb2 As2 C2 O14'
_cell_volume   341.72518520
_cell_formula_units_Z   2
loop_
 _symmetry_equiv_pos_site_id
 _symmetry_equiv_pos_as_xyz
  1  'x, y, z'
loop_
 _atom_site_type_symbol
 _atom_site_label
 _atom_site_symmetry_multiplicity
 _atom_site_fract_x
 _atom_site_fract_y
 _atom_site_fract_z
 _atom_site_occupancy
  Li  Li0  1  0.21851891  0.43932798  0.22019120  1
  Li  Li1  1  0.21851891  0.06067202  0.22019120  1
  Li  Li2  1  0.78148109  0.56067202  0.77980880  1
  Li  Li3  1  0.78148109  0.93932798  0.77980880  1
  Sb  Sb4  1  0.34859924  0.75000000  0.79541204  1
  Sb  Sb5  1  0.65140076  0.25000000  0.20458796  1
  As  As6  1  0.38756187  0.25000000  0.73714934  1
  As  As7  1  0.61243813  0.75000000  0.26285066  1
  C  C8  1  0.06667523  0.75000000  0.73978501  1
  C  C9  1  0.93332477  0.25000000  0.26021499  1
  O  O10  1  0.06722730  0.25000000  0.25603372  1
  O  O11  1  0.14944379  0.75000000  0.96036637  1
  O  O12  1  0.13765970  0.75000000  0.53393535  1
  O  O13  1  0.31173924  0.05628090  0.88434469  1
  O  O14  1  0.31173924  0.44371910  0.88434469  1
  O  O15  1  0.42734589  0.75000000  0.19470569  1
  O  O16  1  0.35321787  0.25000000  0.41583509  1
  O  O17  1  0.64678213  0.75000000  0.58416491  1
  O  O18  1  0.57265411  0.25000000  0.80529431  1
  O  O19  1  0.68826076  0.55628090  0.11565531  1
  O  O20  1  0.68826076  0.94371910  0.11565531  1
  O  O21  1  0.86234030  0.25000000  0.46606465  1
  O  O22  1  0.85055621  0.25000000  0.03963363  1
  O  O23  1  0.93277270  0.75000000  0.74396628  1
