# generated using pymatgen
data_Li2VFe3O8
_symmetry_space_group_name_H-M   'P 1'
_cell_length_a   5.98205920
_cell_length_b   5.98205948
_cell_length_c   5.98205938
_cell_angle_alpha   60.29198000
_cell_angle_beta   60.29198063
_cell_angle_gamma   60.29197722
_symmetry_Int_Tables_number   1
_chemical_formula_structural   Li2VFe3O8
_chemical_formula_sum   'Li2 V1 Fe3 O8'
_cell_volume   152.36926145
_cell_formula_units_Z   1
loop_
 _symmetry_equiv_pos_site_id
 _symmetry_equiv_pos_as_xyz
  1  'x, y, z'
loop_
 _atom_site_type_symbol
 _atom_site_label
 _atom_site_symmetry_multiplicity
 _atom_site_fract_x
 _atom_site_fract_y
 _atom_site_fract_z
 _atom_site_occupancy
  Li  Li0  1  0.12976145  0.12976145  0.12976145  1
  Li  Li1  1  0.87023855  0.87023855  0.87023855  1
  V  V2  1  0.50000000  0.50000000  0.50000000  1
  Fe  Fe3  1  0.00000000  0.50000000  0.50000000  1
  Fe  Fe4  1  0.50000000  0.00000000  0.50000000  1
  Fe  Fe5  1  0.50000000  0.50000000  0.00000000  1
  O  O6  1  0.26447214  0.26447214  0.26447214  1
  O  O7  1  0.27234617  0.27234617  0.71464633  1
  O  O8  1  0.27234617  0.71464633  0.27234617  1
  O  O9  1  0.71464633  0.27234617  0.27234617  1
  O  O10  1  0.28535367  0.72765383  0.72765383  1
  O  O11  1  0.72765383  0.28535367  0.72765383  1
  O  O12  1  0.72765383  0.72765383  0.28535367  1
  O  O13  1  0.73552786  0.73552786  0.73552786  1
