# generated using pymatgen
data_Li4Nb3Cr5O16
_symmetry_space_group_name_H-M   'P 1'
_cell_length_a   6.02065593
_cell_length_b   5.97489144
_cell_length_c   9.76293155
_cell_angle_alpha   89.99985444
_cell_angle_beta   89.69064637
_cell_angle_gamma   119.74895402
_symmetry_Int_Tables_number   1
_chemical_formula_structural   Li4Nb3Cr5O16
_chemical_formula_sum   'Li4 Nb3 Cr5 O16'
_cell_volume   304.90840087
_cell_formula_units_Z   1
loop_
 _symmetry_equiv_pos_site_id
 _symmetry_equiv_pos_as_xyz
  1  'x, y, z'
loop_
 _atom_site_type_symbol
 _atom_site_label
 _atom_site_symmetry_multiplicity
 _atom_site_fract_x
 _atom_site_fract_y
 _atom_site_fract_z
 _atom_site_occupancy
  Li  Li0  1  0.33478010  0.66740440  0.89701088  1
  Li  Li1  1  0.02221022  0.01111057  0.99543061  1
  Li  Li2  1  0.01072489  0.00536838  0.49490564  1
  Li  Li3  1  0.66798847  0.33400547  0.38645477  1
  Nb  Nb4  1  0.66349064  0.83175863  0.21154246  1
  Nb  Nb5  1  0.83179628  0.64451119  0.71129429  1
  Nb  Nb6  1  0.83179760  0.18730855  0.71129224  1
  Cr  Cr7  1  0.17155723  0.83174437  0.21451375  1
  Cr  Cr8  1  0.33234021  0.66617345  0.48071738  1
  Cr  Cr9  1  0.17156328  0.33984743  0.21450885  1
  Cr  Cr10  1  0.33371164  0.16686916  0.71396941  1
  Cr  Cr11  1  0.65740700  0.32871315  0.98963380  1
  O  O12  1  0.15872021  0.82949597  0.60133817  1
  O  O13  1  0.04223202  0.52112370  0.33842224  1
  O  O14  1  0.33975082  0.66989199  0.10320200  1
  O  O15  1  0.00030505  0.00016797  0.31210194  1
  O  O16  1  0.00717751  0.00360079  0.81297373  1
  O  O17  1  0.15871996  0.32923851  0.60133343  1
  O  O18  1  0.48215290  0.96033091  0.34012516  1
  O  O19  1  0.48215114  0.52184300  0.34012234  1
  O  O20  1  0.32569438  0.16285908  0.10171571  1
  O  O21  1  0.66597100  0.83299517  0.59931760  1
  O  O22  1  0.52200136  0.48013394  0.84069892  1
  O  O23  1  0.52201009  0.04189366  0.84069968  1
  O  O24  1  0.64016082  0.32009090  0.58849037  1
  O  O25  1  0.82845504  0.66925053  0.10352565  1
  O  O26  1  0.96667044  0.48334404  0.85897492  1
  O  O27  1  0.82845770  0.15922608  0.10352406  1
