# generated using pymatgen
data_NaMg14Nb
_symmetry_space_group_name_H-M   'P 1'
_cell_length_a   6.44388400
_cell_length_b   6.44388347
_cell_length_c   10.04501850
_cell_angle_alpha   90.00000000
_cell_angle_beta   90.00000000
_cell_angle_gamma   120.00000273
_symmetry_Int_Tables_number   1
_chemical_formula_structural   NaMg14Nb
_chemical_formula_sum   'Na1 Mg14 Nb1'
_cell_volume   361.22412903
_cell_formula_units_Z   1
loop_
 _symmetry_equiv_pos_site_id
 _symmetry_equiv_pos_as_xyz
  1  'x, y, z'
loop_
 _atom_site_type_symbol
 _atom_site_label
 _atom_site_symmetry_multiplicity
 _atom_site_fract_x
 _atom_site_fract_y
 _atom_site_fract_z
 _atom_site_occupancy
  Na  Na0  1  0.16666700  0.33333300  0.12500000  1
  Mg  Mg1  1  0.16958073  0.83478986  0.12500000  1
  Mg  Mg2  1  0.16843253  0.83421577  0.62500000  1
  Mg  Mg3  1  0.66521014  0.33041927  0.12500000  1
  Mg  Mg4  1  0.66578423  0.33156747  0.62500000  1
  Mg  Mg5  1  0.66521014  0.83478986  0.12500000  1
  Mg  Mg6  1  0.66578423  0.83421577  0.62500000  1
  Mg  Mg7  1  0.33038325  0.16961675  0.38316960  1
  Mg  Mg8  1  0.33038325  0.16961675  0.86683040  1
  Mg  Mg9  1  0.33038325  0.66076751  0.38316960  1
  Mg  Mg10  1  0.33038325  0.66076751  0.86683040  1
  Mg  Mg11  1  0.83923249  0.16961675  0.38316960  1
  Mg  Mg12  1  0.83923249  0.16961675  0.86683040  1
  Mg  Mg13  1  0.83333300  0.66666700  0.37499900  1
  Mg  Mg14  1  0.83333300  0.66666700  0.87500100  1
  Nb  Nb15  1  0.16666700  0.33333300  0.62500000  1
