# generated using pymatgen
data_Li3MgNi3O8
_symmetry_space_group_name_H-M   'P 1'
_cell_length_a   5.08321834
_cell_length_b   20.50511381
_cell_length_c   9.82539691
_cell_angle_alpha   16.37923743
_cell_angle_beta   28.31696693
_cell_angle_gamma   32.38780472
_symmetry_Int_Tables_number   1
_chemical_formula_structural   Li3MgNi3O8
_chemical_formula_sum   'Li3 Mg1 Ni3 O8'
_cell_volume   136.98979002
_cell_formula_units_Z   1
loop_
 _symmetry_equiv_pos_site_id
 _symmetry_equiv_pos_as_xyz
  1  'x, y, z'
loop_
 _atom_site_type_symbol
 _atom_site_label
 _atom_site_symmetry_multiplicity
 _atom_site_fract_x
 _atom_site_fract_y
 _atom_site_fract_z
 _atom_site_occupancy
  Li  Li0  1  0.50785192  0.74667227  0.50420858  1
  Li  Li1  1  0.51182504  0.49087804  0.51456561  1
  Li  Li2  1  0.50317215  0.01861236  0.46384644  1
  Mg  Mg3  1  0.00494328  0.74854703  0.00220231  1
  Ni  Ni4  1  0.00558097  0.49587906  0.00711576  1
  Ni  Ni5  1  0.00591659  0.25292765  0.99351632  1
  Ni  Ni6  1  0.00617077  0.00169918  0.99569401  1
  O  O7  1  0.79679539  0.73328356  0.75071883  1
  O  O8  1  0.21779720  0.73169491  0.31395071  1
  O  O9  1  0.28325466  0.48619709  0.28367964  1
  O  O10  1  0.72626469  0.48526647  0.77237101  1
  O  O11  1  0.28971302  0.25941867  0.23289707  1
  O  O12  1  0.71727559  0.26129106  0.72722046  1
  O  O13  1  0.27662034  0.01373476  0.23213953  1
  O  O14  1  0.73484238  0.01198889  0.71515073  1
