# generated using pymatgen
data_Li2Fe(Si2O5)2
_symmetry_space_group_name_H-M   'P 1'
_cell_length_a   6.90632039
_cell_length_b   7.86522692
_cell_length_c   9.78956546
_cell_angle_alpha   101.09164973
_cell_angle_beta   76.49535644
_cell_angle_gamma   62.78448410
_symmetry_Int_Tables_number   1
_chemical_formula_structural   Li2Fe(Si2O5)2
_chemical_formula_sum   'Li4 Fe2 Si8 O20'
_cell_volume   431.42203747
_cell_formula_units_Z   2
loop_
 _symmetry_equiv_pos_site_id
 _symmetry_equiv_pos_as_xyz
  1  'x, y, z'
loop_
 _atom_site_type_symbol
 _atom_site_label
 _atom_site_symmetry_multiplicity
 _atom_site_fract_x
 _atom_site_fract_y
 _atom_site_fract_z
 _atom_site_occupancy
  Li  Li0  1  0.23447672  0.29620232  0.41488978  1
  Li  Li1  1  0.34587704  0.83200689  0.04952623  1
  Li  Li2  1  0.65412296  0.16799311  0.95047377  1
  Li  Li3  1  0.76552328  0.70379768  0.58511022  1
  Fe  Fe4  1  0.24235318  0.70334620  0.58213626  1
  Fe  Fe5  1  0.75764682  0.29665380  0.41786374  1
  Si  Si6  1  0.11120721  0.27834317  0.13165339  1
  Si  Si7  1  0.26436614  0.05800669  0.79408485  1
  Si  Si8  1  0.18319476  0.61595670  0.24767139  1
  Si  Si9  1  0.39107075  0.37042669  0.74120462  1
  Si  Si10  1  0.60892925  0.62957331  0.25879538  1
  Si  Si11  1  0.81680524  0.38404330  0.75232861  1
  Si  Si12  1  0.73563386  0.94199331  0.20591515  1
  Si  Si13  1  0.88879279  0.72165683  0.86834661  1
  O  O14  1  0.09576533  0.18737761  0.26414205  1
  O  O15  1  0.99831157  0.20241964  0.79983048  1
  O  O16  1  0.26907694  0.38718575  0.13132168  1
  O  O17  1  0.24954230  0.08290582  0.97107295  1
  O  O18  1  0.09436759  0.63404692  0.42032770  1
  O  O19  1  0.13883362  0.55324531  0.87170550  1
  O  O20  1  0.42172451  0.14729287  0.72440314  1
  O  O21  1  0.42217450  0.40741500  0.58487794  1
  O  O22  1  0.41203820  0.63820589  0.18745281  1
  O  O23  1  0.61717797  0.17721299  0.29656034  1
  O  O24  1  0.38282203  0.82278701  0.70343966  1
  O  O25  1  0.58796180  0.36179411  0.81254719  1
  O  O26  1  0.57782550  0.59258500  0.41512206  1
  O  O27  1  0.57827549  0.85270713  0.27559686  1
  O  O28  1  0.86116638  0.44675469  0.12829450  1
  O  O29  1  0.90563241  0.36595308  0.57967230  1
  O  O30  1  0.75045770  0.91709418  0.02892705  1
  O  O31  1  0.73092306  0.61281425  0.86867832  1
  O  O32  1  0.00168843  0.79758036  0.20016952  1
  O  O33  1  0.90423467  0.81262239  0.73585795  1
