# generated using pymatgen
data_NbCo3(PO4)4
_symmetry_space_group_name_H-M   'P 1'
_cell_length_a   4.96534447
_cell_length_b   9.99391762
_cell_length_c   6.00103692
_cell_angle_alpha   90.00000000
_cell_angle_beta   90.00000000
_cell_angle_gamma   90.76367125
_symmetry_Int_Tables_number   1
_chemical_formula_structural   NbCo3(PO4)4
_chemical_formula_sum   'Nb1 Co3 P4 O16'
_cell_volume   297.76446576
_cell_formula_units_Z   1
loop_
 _symmetry_equiv_pos_site_id
 _symmetry_equiv_pos_as_xyz
  1  'x, y, z'
loop_
 _atom_site_type_symbol
 _atom_site_label
 _atom_site_symmetry_multiplicity
 _atom_site_fract_x
 _atom_site_fract_y
 _atom_site_fract_z
 _atom_site_occupancy
  Nb  Nb0  1  0.97262263  0.27874466  0.25000000  1
  Co  Co1  1  0.02999142  0.73518165  0.75000000  1
  Co  Co2  1  0.46185315  0.22344118  0.75000000  1
  Co  Co3  1  0.54394458  0.76862331  0.25000000  1
  P  P4  1  0.08000402  0.60819762  0.25000000  1
  P  P5  1  0.39153500  0.09135632  0.25000000  1
  P  P6  1  0.59720961  0.89901359  0.75000000  1
  P  P7  1  0.93526182  0.41002358  0.75000000  1
  O  O8  1  0.14850108  0.44699874  0.25000000  1
  O  O9  1  0.22565812  0.66692414  0.04482032  1
  O  O10  1  0.22565812  0.66692414  0.45517968  1
  O  O11  1  0.23405599  0.38370183  0.75000000  1
  O  O12  1  0.28769013  0.87166132  0.75000000  1
  O  O13  1  0.24460906  0.17050736  0.05443558  1
  O  O14  1  0.24460906  0.17050736  0.44556442  1
  O  O15  1  0.34224761  0.94527663  0.25000000  1
  O  O16  1  0.64034341  0.05050314  0.75000000  1
  O  O17  1  0.74274902  0.82926783  0.54949178  1
  O  O18  1  0.74274902  0.82926783  0.95050822  1
  O  O19  1  0.69285233  0.13403055  0.25000000  1
  O  O20  1  0.77666888  0.60687783  0.25000000  1
  O  O21  1  0.79486358  0.32944750  0.54549507  1
  O  O22  1  0.79486358  0.32944750  0.95450493  1
  O  O23  1  0.84945879  0.55407538  0.75000000  1
