# generated using pymatgen
data_La(HO)3
_symmetry_space_group_name_H-M   'P 1'
_cell_length_a   11.56137866
_cell_length_b   6.77434202
_cell_length_c   10.86601693
_cell_angle_alpha   90.00000000
_cell_angle_beta   93.66184409
_cell_angle_gamma   90.00000000
_symmetry_Int_Tables_number   1
_chemical_formula_structural   La(HO)3
_chemical_formula_sum   'La8 H24 O24'
_cell_volume   849.29691748
_cell_formula_units_Z   8
loop_
 _symmetry_equiv_pos_site_id
 _symmetry_equiv_pos_as_xyz
  1  'x, y, z'
loop_
 _atom_site_type_symbol
 _atom_site_label
 _atom_site_symmetry_multiplicity
 _atom_site_fract_x
 _atom_site_fract_y
 _atom_site_fract_z
 _atom_site_occupancy
  La  La0  1  0.16772495  0.53436132  0.99887690  1
  La  La1  1  0.16654102  0.52836159  0.50146463  1
  La  La2  1  0.33345898  0.02836159  0.99853537  1
  La  La3  1  0.33227505  0.03436132  0.50112310  1
  La  La4  1  0.66772495  0.96563868  0.49887690  1
  La  La5  1  0.66654102  0.97163841  0.00146463  1
  La  La6  1  0.83345898  0.47163841  0.49853537  1
  La  La7  1  0.83227505  0.46563868  0.00112310  1
  H  H8  1  0.00151540  0.36115839  0.30027810  1
  H  H9  1  0.03236915  0.21319362  0.11250810  1
  H  H10  1  0.10104182  0.15238312  0.86974210  1
  H  H11  1  0.09549439  0.92471382  0.39366665  1
  H  H12  1  0.19923624  0.22217010  0.70638356  1
  H  H13  1  0.18108279  0.85050999  0.19736988  1
  H  H14  1  0.30076376  0.72217010  0.79361644  1
  H  H15  1  0.31891721  0.35050999  0.30263012  1
  H  H16  1  0.39895818  0.65238312  0.63025790  1
  H  H17  1  0.40450561  0.42471382  0.10633335  1
  H  H18  1  0.50151540  0.13884161  0.80027810  1
  H  H19  1  0.46763085  0.71319362  0.38749190  1
  H  H20  1  0.53236915  0.28680638  0.61250810  1
  H  H21  1  0.49848460  0.86115839  0.19972190  1
  H  H22  1  0.59549439  0.57528618  0.89366665  1
  H  H23  1  0.60104182  0.34761688  0.36974210  1
  H  H24  1  0.68108279  0.64949001  0.69736988  1
  H  H25  1  0.69923624  0.27782990  0.20638356  1
  H  H26  1  0.81891721  0.14949001  0.80263012  1
  H  H27  1  0.80076376  0.77782990  0.29361644  1
  H  H28  1  0.90450561  0.07528618  0.60633335  1
  H  H29  1  0.89895818  0.84761688  0.13025790  1
  H  H30  1  0.96763085  0.78680638  0.88749190  1
  H  H31  1  0.99848460  0.63884161  0.69972190  1
  O  O32  1  -0.00001664  0.61754735  0.61058877  1
  O  O33  1  0.01637758  0.35445381  0.10739954  1
  O  O34  1  0.17555301  0.21822530  0.88424773  1
  O  O35  1  0.16912702  0.85394932  0.39492863  1
  O  O36  1  0.21009198  0.23007650  0.61733311  1
  O  O37  1  0.18763950  0.84530134  0.10783431  1
  O  O38  1  0.28990802  0.73007650  0.88266689  1
  O  O39  1  0.32444699  0.71822530  0.61575227  1
  O  O40  1  0.31236050  0.34530134  0.39216569  1
  O  O41  1  0.33087298  0.35394932  0.10507137  1
  O  O42  1  0.50001664  0.11754735  0.88941123  1
  O  O43  1  0.48362242  0.85445381  0.39260046  1
  O  O44  1  0.51637758  0.14554619  0.60739954  1
  O  O45  1  0.49998336  0.88245265  0.11058877  1
  O  O46  1  0.66912702  0.64605068  0.89492863  1
  O  O47  1  0.68763950  0.65469866  0.60783431  1
  O  O48  1  0.67555301  0.28177470  0.38424773  1
  O  O49  1  0.71009198  0.26992350  0.11733311  1
  O  O50  1  0.81236050  0.15469866  0.89216569  1
  O  O51  1  0.78990802  0.76992350  0.38266689  1
  O  O52  1  0.83087298  0.14605068  0.60507137  1
  O  O53  1  0.82444699  0.78177470  0.11575227  1
  O  O54  1  0.98362242  0.64554619  0.89260046  1
  O  O55  1  0.00001664  0.38245265  0.38941123  1
