# generated using pymatgen
data_Co3SnO8
_symmetry_space_group_name_H-M   'P 1'
_cell_length_a   5.67630658
_cell_length_b   5.67464716
_cell_length_c   9.39117031
_cell_angle_alpha   89.99472454
_cell_angle_beta   90.00263923
_cell_angle_gamma   119.99033048
_symmetry_Int_Tables_number   1
_chemical_formula_structural   Co3SnO8
_chemical_formula_sum   'Co6 Sn2 O16'
_cell_volume   261.99762918
_cell_formula_units_Z   2
loop_
 _symmetry_equiv_pos_site_id
 _symmetry_equiv_pos_as_xyz
  1  'x, y, z'
loop_
 _atom_site_type_symbol
 _atom_site_label
 _atom_site_symmetry_multiplicity
 _atom_site_fract_x
 _atom_site_fract_y
 _atom_site_fract_z
 _atom_site_occupancy
  Co  Co0  1  0.16694158  0.83183031  0.21281078  1
  Co  Co1  1  0.16819123  0.33509239  0.21285537  1
  Co  Co2  1  0.66500921  0.83314747  0.21281020  1
  Co  Co3  1  0.33499079  0.16813826  0.71281020  1
  Co  Co4  1  0.83305842  0.66488973  0.71281178  1
  Co  Co5  1  0.83180877  0.16690016  0.71285537  1
  Sn  Sn6  1  0.33338136  0.66671254  0.49147318  1
  Sn  Sn7  1  0.66661864  0.33333118  0.99147318  1
  O  O8  1  0.15666669  0.84356125  0.60907689  1
  O  O9  1  0.03209126  0.51556485  0.32534072  1
  O  O10  1  0.33343892  0.66668888  0.10901186  1
  O  O11  1  0.00001321  0.99996792  0.31597314  1
  O  O12  1  -0.00001321  0.99995471  0.81597314  1
  O  O13  1  0.15638648  0.31299764  0.60902842  1
  O  O14  1  0.48344284  0.96790053  0.32523673  1
  O  O15  1  0.48436110  0.51662350  0.32527443  1
  O  O16  1  0.31293796  0.15644415  0.10896828  1
  O  O17  1  0.68706204  0.84350619  0.60896828  1
  O  O18  1  0.51655716  0.48445769  0.82523673  1
  O  O19  1  0.51563890  0.03226240  0.82527443  1
  O  O20  1  0.66656108  0.33324896  0.60901186  1
  O  O21  1  0.84333331  0.68689456  0.10907689  1
  O  O22  1  0.96790874  0.48347360  0.82534072  1
  O  O23  1  0.84361352  0.15661116  0.10902842  1
