# generated using pymatgen
data_Li4V3Fe5O16
_symmetry_space_group_name_H-M   'P 1'
_cell_length_a   5.91953537
_cell_length_b   5.94985889
_cell_length_c   9.58991929
_cell_angle_alpha   89.95398050
_cell_angle_beta   88.93227683
_cell_angle_gamma   120.08988865
_symmetry_Int_Tables_number   1
_chemical_formula_structural   Li4V3Fe5O16
_chemical_formula_sum   'Li4 V3 Fe5 O16'
_cell_volume   292.17328246
_cell_formula_units_Z   1
loop_
 _symmetry_equiv_pos_site_id
 _symmetry_equiv_pos_as_xyz
  1  'x, y, z'
loop_
 _atom_site_type_symbol
 _atom_site_label
 _atom_site_symmetry_multiplicity
 _atom_site_fract_x
 _atom_site_fract_y
 _atom_site_fract_z
 _atom_site_occupancy
  Li  Li0  1  0.33354665  0.66598431  0.89199671  1
  Li  Li1  1  0.00102322  -0.00077412  0.99682828  1
  Li  Li2  1  -0.00628527  -0.00137450  0.49568234  1
  Li  Li3  1  0.67727026  0.33861352  0.39485250  1
  V  V4  1  0.65940438  0.82880326  0.21436030  1
  V  V5  1  0.82766867  0.66122809  0.71493470  1
  V  V6  1  0.82714780  0.16702468  0.71529351  1
  Fe  Fe7  1  0.17100642  0.83156886  0.21469250  1
  Fe  Fe8  1  0.32926648  0.66498362  0.49068265  1
  Fe  Fe9  1  0.16973227  0.33807711  0.21441790  1
  Fe  Fe10  1  0.33793657  0.16968434  0.71225200  1
  Fe  Fe11  1  0.66305285  0.33072128  0.99111385  1
  O  O12  1  0.14909682  0.82779376  0.60089910  1
  O  O13  1  0.04508551  0.52121000  0.33960422  1
  O  O14  1  0.35919433  0.68056333  0.10337121  1
  O  O15  1  0.98303954  -0.00980613  0.30981184  1
  O  O16  1  -0.00693464  -0.00311721  0.81101442  1
  O  O17  1  0.15001829  0.32294362  0.60141239  1
  O  O18  1  0.49855482  0.96355254  0.33642629  1
  O  O19  1  0.49822937  0.53544093  0.33601216  1
  O  O20  1  0.32389115  0.16301160  0.09844904  1
  O  O21  1  0.66768402  0.83430843  0.60427177  1
  O  O22  1  0.53035625  0.49057891  0.83581260  1
  O  O23  1  0.52859424  0.03960024  0.83566040  1
  O  O24  1  0.67783818  0.33883825  0.60324599  1
  O  O25  1  0.82132250  0.67195014  0.10339110  1
  O  O26  1  0.96075265  0.48008171  0.83810948  1
  O  O27  1  0.82250765  0.14880942  0.10323976  1
