# generated using pymatgen
data_Li4MnSn3(PO4)4
_symmetry_space_group_name_H-M   'P 1'
_cell_length_a   4.87788332
_cell_length_b   11.05747334
_cell_length_c   6.72340210
_cell_angle_alpha   90.00000000
_cell_angle_beta   90.00000000
_cell_angle_gamma   90.90856614
_symmetry_Int_Tables_number   1
_chemical_formula_structural   Li4MnSn3(PO4)4
_chemical_formula_sum   'Li4 Mn1 Sn3 P4 O16'
_cell_volume   362.59498084
_cell_formula_units_Z   1
loop_
 _symmetry_equiv_pos_site_id
 _symmetry_equiv_pos_as_xyz
  1  'x, y, z'
loop_
 _atom_site_type_symbol
 _atom_site_label
 _atom_site_symmetry_multiplicity
 _atom_site_fract_x
 _atom_site_fract_y
 _atom_site_fract_z
 _atom_site_occupancy
  Li  Li0  1  0.98454644  0.99352506  0.01199818  1
  Li  Li1  1  0.98454644  0.99352506  0.48800182  1
  Li  Li2  1  0.50235525  0.50687725  0.49888958  1
  Li  Li3  1  0.50235525  0.50687725  0.00111042  1
  Mn  Mn4  1  0.04131828  0.72099052  0.75000000  1
  Sn  Sn5  1  0.46915245  0.21613476  0.75000000  1
  Sn  Sn6  1  0.53849224  0.78574062  0.25000000  1
  Sn  Sn7  1  0.95768552  0.29529372  0.25000000  1
  P  P8  1  0.08808642  0.58576690  0.25000000  1
  P  P9  1  0.38894781  0.07328513  0.25000000  1
  P  P10  1  0.62008125  0.90473362  0.75000000  1
  P  P11  1  0.90675005  0.43653861  0.75000000  1
  O  O12  1  0.24252602  0.46005730  0.25000000  1
  O  O13  1  0.19628533  0.65628230  0.06180785  1
  O  O14  1  0.19628533  0.65628230  0.43819215  1
  O  O15  1  0.22081244  0.44200169  0.75000000  1
  O  O16  1  0.30526291  0.89227077  0.75000000  1
  O  O17  1  0.27752255  0.14317242  0.06397886  1
  O  O18  1  0.27752255  0.14317242  0.43602114  1
  O  O19  1  0.23571834  0.94701504  0.25000000  1
  O  O20  1  0.73042357  0.03952484  0.75000000  1
  O  O21  1  0.75676917  0.84224082  0.56729191  1
  O  O22  1  0.75676917  0.84224082  0.93270809  1
  O  O23  1  0.70041541  0.05755518  0.25000000  1
  O  O24  1  0.77704282  0.56400163  0.25000000  1
  O  O25  1  0.78375044  0.36534793  0.56592265  1
  O  O26  1  0.78375044  0.36534793  0.93407735  1
  O  O27  1  0.77482413  0.56419812  0.75000000  1
