# generated using pymatgen
data_LiCo8O9
_symmetry_space_group_name_H-M   'P 1'
_cell_length_a   5.21617448
_cell_length_b   6.71394377
_cell_length_c   5.21450714
_cell_angle_alpha   83.06063044
_cell_angle_beta   99.23888848
_cell_angle_gamma   104.84821063
_symmetry_Int_Tables_number   1
_chemical_formula_structural   LiCo8O9
_chemical_formula_sum   'Li1 Co8 O9'
_cell_volume   173.62130765
_cell_formula_units_Z   1
loop_
 _symmetry_equiv_pos_site_id
 _symmetry_equiv_pos_as_xyz
  1  'x, y, z'
loop_
 _atom_site_type_symbol
 _atom_site_label
 _atom_site_symmetry_multiplicity
 _atom_site_fract_x
 _atom_site_fract_y
 _atom_site_fract_z
 _atom_site_occupancy
  Li  Li0  1  0.00000000  0.00000000  0.00000000  1
  Co  Co1  1  0.10984586  0.44320141  0.77825119  1
  Co  Co2  1  0.55544824  0.21880609  0.89075750  1
  Co  Co3  1  0.22122562  0.89174369  0.55953991  1
  Co  Co4  1  0.67345637  0.67212562  0.66633906  1
  Co  Co5  1  0.77877438  0.10825631  0.44046009  1
  Co  Co6  1  0.32654363  0.32787438  0.33366094  1
  Co  Co7  1  0.89015414  0.55679859  0.22174881  1
  Co  Co8  1  0.44455176  0.78119391  0.10924250  1
  O  O9  1  0.05942926  0.71644515  0.88799453  1
  O  O10  1  0.16730707  0.17033669  0.66142793  1
  O  O11  1  0.72028757  0.38811437  0.55614803  1
  O  O12  1  0.60272798  0.94404561  0.77387382  1
  O  O13  1  0.27971243  0.61188563  0.44385197  1
  O  O14  1  0.39727202  0.05595439  0.22612618  1
  O  O15  1  0.83269293  0.82966331  0.33857207  1
  O  O16  1  0.50000000  0.50000000  0.00000000  1
  O  O17  1  0.94057074  0.28355485  0.11200547  1
