# generated using pymatgen
data_Li3Ni3SbO8
_symmetry_space_group_name_H-M   'P 1'
_cell_length_a   10.41826387
_cell_length_b   10.42318573
_cell_length_c   14.76829062
_cell_angle_alpha   19.23641944
_cell_angle_beta   19.23278829
_cell_angle_gamma   33.11107528
_symmetry_Int_Tables_number   1
_chemical_formula_structural   Li3Ni3SbO8
_chemical_formula_sum   'Li3 Ni3 Sb1 O8'
_cell_volume   151.10477233
_cell_formula_units_Z   1
loop_
 _symmetry_equiv_pos_site_id
 _symmetry_equiv_pos_as_xyz
  1  'x, y, z'
loop_
 _atom_site_type_symbol
 _atom_site_label
 _atom_site_symmetry_multiplicity
 _atom_site_fract_x
 _atom_site_fract_y
 _atom_site_fract_z
 _atom_site_occupancy
  Li  Li0  1  0.99999563  0.50000808  0.49999799  1
  Li  Li1  1  0.50001045  -0.00000129  0.49999506  1
  Li  Li2  1  0.49998615  0.49998971  0.50001658  1
  Ni  Ni3  1  0.00000889  0.50002584  -0.00000867  1
  Ni  Ni4  1  0.50001997  0.00000211  0.99997298  1
  Ni  Ni5  1  0.49998717  0.49998421  0.00002679  1
  Sb  Sb6  1  -0.00000004  -0.00000100  0.99999919  1
  O  O7  1  0.99424647  0.99634908  0.27287264  1
  O  O8  1  0.00564692  0.52427489  0.23683580  1
  O  O9  1  0.52427895  0.00251771  0.23850378  1
  O  O10  1  0.00574879  0.00365048  0.72712861  1
  O  O11  1  0.48137271  0.48093390  0.28339288  1
  O  O12  1  0.99435423  0.47572266  0.76316251  1
  O  O13  1  0.47571600  0.99747930  0.76149969  1
  O  O14  1  0.51862871  0.51906432  0.71660518  1
