# generated using pymatgen
data_Li5Mn3Nb2O10
_symmetry_space_group_name_H-M   'P 1'
_cell_length_a   5.36331517
_cell_length_b   5.33610017
_cell_length_c   8.20580405
_cell_angle_alpha   109.89593546
_cell_angle_beta   101.29295037
_cell_angle_gamma   100.39982791
_symmetry_Int_Tables_number   1
_chemical_formula_structural   Li5Mn3Nb2O10
_chemical_formula_sum   'Li5 Mn3 Nb2 O10'
_cell_volume   208.62684943
_cell_formula_units_Z   1
loop_
 _symmetry_equiv_pos_site_id
 _symmetry_equiv_pos_as_xyz
  1  'x, y, z'
loop_
 _atom_site_type_symbol
 _atom_site_label
 _atom_site_symmetry_multiplicity
 _atom_site_fract_x
 _atom_site_fract_y
 _atom_site_fract_z
 _atom_site_occupancy
  Li  Li0  1  0.22665978  0.91360713  0.40165205  1
  Li  Li1  1  0.39155071  0.29761757  0.78612869  1
  Li  Li2  1  0.50000000  0.50000000  0.50000000  1
  Li  Li3  1  0.60844929  0.70238243  0.21387131  1
  Li  Li4  1  0.77334022  0.08639287  0.59834795  1
  Mn  Mn5  1  0.00000000  0.50000000  0.00000000  1
  Mn  Mn6  1  0.69230619  0.89173043  0.89674782  1
  Mn  Mn7  1  0.30769381  0.10826957  0.10325218  1
  Nb  Nb8  1  0.09596403  0.69899437  0.68574677  1
  Nb  Nb9  1  0.90403597  0.30100563  0.31425323  1
  O  O10  1  0.04964408  0.07895151  0.84040089  1
  O  O11  1  0.32970616  0.69398173  0.92924592  1
  O  O12  1  0.15135389  0.30819725  0.54443179  1
  O  O13  1  0.22283834  0.49456864  0.25592601  1
  O  O14  1  0.42175985  0.88810302  0.65142913  1
  O  O15  1  0.57824015  0.11189698  0.34857087  1
  O  O16  1  0.77716166  0.50543136  0.74407399  1
  O  O17  1  0.84864611  0.69180275  0.45556821  1
  O  O18  1  0.67029384  0.30601827  0.07075408  1
  O  O19  1  0.95035592  0.92104849  0.15959911  1
