# generated using pymatgen
data_LiZn2Fe9O16
_symmetry_space_group_name_H-M   'P 1'
_cell_length_a   6.04339990
_cell_length_b   6.05239183
_cell_length_c   12.09369414
_cell_angle_alpha   59.73296420
_cell_angle_beta   60.01885622
_cell_angle_gamma   60.04913382
_symmetry_Int_Tables_number   1
_chemical_formula_structural   LiZn2Fe9O16
_chemical_formula_sum   'Li1 Zn2 Fe9 O16'
_cell_volume   312.31312103
_cell_formula_units_Z   1
loop_
 _symmetry_equiv_pos_site_id
 _symmetry_equiv_pos_as_xyz
  1  'x, y, z'
loop_
 _atom_site_type_symbol
 _atom_site_label
 _atom_site_symmetry_multiplicity
 _atom_site_fract_x
 _atom_site_fract_y
 _atom_site_fract_z
 _atom_site_occupancy
  Li  Li0  1  0.25132652  0.24873821  0.62430438  1
  Zn  Zn1  1  0.62184808  0.12814219  0.31408083  1
  Zn  Zn2  1  0.62566751  0.62318034  0.06274282  1
  Fe  Fe3  1  0.00332985  0.00095032  0.99619449  1
  Fe  Fe4  1  0.24240053  0.25653870  0.12933013  1
  Fe  Fe5  1  0.00452236  0.99327807  0.49883861  1
  Fe  Fe6  1  0.13026703  0.62288657  0.31336235  1
  Fe  Fe7  1  0.62012271  0.62288657  0.31336235  1
  Fe  Fe8  1  0.62462489  0.12950198  0.81062462  1
  Fe  Fe9  1  0.62190199  0.61774578  0.56922513  1
  Fe  Fe10  1  0.13181724  0.62368305  0.80946893  1
  Fe  Fe11  1  0.62556186  0.62368305  0.80946893  1
  O  O12  1  0.36764140  0.39058473  0.19127652  1
  O  O13  1  0.85922181  0.39058473  0.19127652  1
  O  O14  1  0.37354641  0.86330347  0.19480235  1
  O  O15  1  0.38306928  0.40021778  0.41682182  1
  O  O16  1  0.87302559  0.86446066  0.19474458  1
  O  O17  1  0.86804703  0.39364067  0.43513214  1
  O  O18  1  0.87345738  0.85519094  0.43852188  1
  O  O19  1  0.39430792  0.85519094  0.43852188  1
  O  O20  1  0.38609321  0.38252730  0.69687975  1
  O  O21  1  0.83761999  0.38252730  0.69687975  1
  O  O22  1  0.38823741  0.83616129  0.69368194  1
  O  O23  1  0.37787959  0.38418105  0.93002938  1
  O  O24  1  0.86992817  0.86462702  0.69775782  1
  O  O25  1  0.87354421  0.39510431  0.92890363  1
  O  O26  1  0.39675149  0.87524349  0.92688374  1
  O  O27  1  0.87423755  0.87524349  0.92688374  1
