# generated using pymatgen
data_Li3MnO4
_symmetry_space_group_name_H-M   'P 1'
_cell_length_a   5.08478533
_cell_length_b   10.19265189
_cell_length_c   9.77349052
_cell_angle_alpha   16.25605971
_cell_angle_beta   29.44616257
_cell_angle_gamma   33.33149531
_symmetry_Int_Tables_number   1
_chemical_formula_structural   Li3MnO4
_chemical_formula_sum   'Li3 Mn1 O4'
_cell_volume   69.70657128
_cell_formula_units_Z   1
loop_
 _symmetry_equiv_pos_site_id
 _symmetry_equiv_pos_as_xyz
  1  'x, y, z'
loop_
 _atom_site_type_symbol
 _atom_site_label
 _atom_site_symmetry_multiplicity
 _atom_site_fract_x
 _atom_site_fract_y
 _atom_site_fract_z
 _atom_site_occupancy
  Li  Li0  1  0.99099456  0.99482446  0.00995475  1
  Li  Li1  1  0.99692049  0.51393785  0.98624184  1
  Li  Li2  1  0.50233256  0.01030634  0.48848321  1
  Mn  Mn3  1  0.49882149  0.50345633  0.49587093  1
  O  O4  1  0.28036588  0.00150922  0.21957409  1
  O  O5  1  0.18692411  0.50473607  0.26539485  1
  O  O6  1  0.72098794  0.00478021  0.77041461  1
  O  O7  1  0.80777398  0.50244151  0.72783873  1
