# generated using pymatgen
data_Li4Co5NiO12
_symmetry_space_group_name_H-M   'P 1'
_cell_length_a   4.92132460
_cell_length_b   4.88074744
_cell_length_c   9.89738166
_cell_angle_alpha   90.12944706
_cell_angle_beta   90.25676719
_cell_angle_gamma   59.72460711
_symmetry_Int_Tables_number   1
_chemical_formula_structural   Li4Co5NiO12
_chemical_formula_sum   'Li4 Co5 Ni1 O12'
_cell_volume   205.30666503
_cell_formula_units_Z   1
loop_
 _symmetry_equiv_pos_site_id
 _symmetry_equiv_pos_as_xyz
  1  'x, y, z'
loop_
 _atom_site_type_symbol
 _atom_site_label
 _atom_site_symmetry_multiplicity
 _atom_site_fract_x
 _atom_site_fract_y
 _atom_site_fract_z
 _atom_site_occupancy
  Li  Li0  1  0.16244946  0.49863609  0.74919494  1
  Li  Li1  1  0.33891445  0.49863609  0.25080506  1
  Li  Li2  1  0.66108555  0.50136391  0.74919494  1
  Li  Li3  1  0.83755054  0.50136391  0.25080506  1
  Co  Co4  1  0.16482617  0.67034866  0.50000000  1
  Co  Co5  1  0.66428180  0.67143739  1.00000000  1
  Co  Co6  1  0.33571820  0.32856261  0.00000000  1
  Co  Co7  1  0.83517383  0.32965134  0.50000000  1
  Co  Co8  1  0.50000000  0.00000000  0.50000000  1
  Ni  Ni9  1  0.00000000  0.00000000  0.00000000  1
  O  O10  1  0.00384628  0.66688291  0.10198549  1
  O  O11  1  0.32927081  0.66688291  0.89801451  1
  O  O12  1  0.16726029  0.33512727  0.39785292  1
  O  O13  1  0.50238656  0.66487273  0.39785292  1
  O  O14  1  0.49761344  0.33512727  0.60214708  1
  O  O15  1  0.17481124  0.00000000  0.59774024  1
  O  O16  1  0.83273971  0.66487273  0.60214708  1
  O  O17  1  0.67072919  0.33311709  0.10198549  1
  O  O18  1  0.32911071  0.00000000  0.09900908  1
  O  O19  1  0.99615372  0.33311709  0.89801451  1
  O  O20  1  0.67088929  1.00000000  0.90099092  1
  O  O21  1  0.82518876  1.00000000  0.40225976  1
