# generated using pymatgen
data_Li2CuPO4
_symmetry_space_group_name_H-M   'P 1'
_cell_length_a   6.18804832
_cell_length_b   5.42859936
_cell_length_c   10.08805748
_cell_angle_alpha   90.03076271
_cell_angle_beta   89.96715672
_cell_angle_gamma   89.66267095
_symmetry_Int_Tables_number   1
_chemical_formula_structural   Li2CuPO4
_chemical_formula_sum   'Li8 Cu4 P4 O16'
_cell_volume   338.87643842
_cell_formula_units_Z   4
loop_
 _symmetry_equiv_pos_site_id
 _symmetry_equiv_pos_as_xyz
  1  'x, y, z'
loop_
 _atom_site_type_symbol
 _atom_site_label
 _atom_site_symmetry_multiplicity
 _atom_site_fract_x
 _atom_site_fract_y
 _atom_site_fract_z
 _atom_site_occupancy
  Li  Li0  1  0.99950306  0.15228503  0.74700642  1
  Li  Li1  1  0.99922488  0.15602588  0.24575702  1
  Li  Li2  1  0.24563204  0.32906234  0.49499027  1
  Li  Li3  1  0.24726405  0.32638042  0.99846653  1
  Li  Li4  1  0.25408749  0.67263000  0.24495705  1
  Li  Li5  1  0.50001584  0.84622627  0.99740743  1
  Li  Li6  1  0.50079229  0.84623783  0.49482728  1
  Li  Li7  1  0.74622845  0.67491136  0.24470994  1
  Cu  Cu8  1  0.25532206  0.65963473  0.75323147  1
  Cu  Cu9  1  0.74375160  0.65905171  0.74943027  1
  Cu  Cu10  1  0.75719239  0.34043123  0.49621913  1
  Cu  Cu11  1  0.75604761  0.33212822  0.99914668  1
  P  P12  1  0.00417809  0.82820174  0.00615116  1
  P  P13  1  0.00467296  0.82990639  0.49231969  1
  P  P14  1  0.49508121  0.17174263  0.24950399  1
  P  P15  1  0.49475748  0.17090915  0.74817129  1
  O  O16  1  0.00026408  0.83960268  0.64765058  1
  O  O17  1  0.01359282  0.09993485  0.43892380  1
  O  O18  1  0.00130947  0.82810342  0.15985759  1
  O  O19  1  0.01368090  0.09541610  0.94853697  1
  O  O20  1  0.20797222  0.68335690  0.44315745  1
  O  O21  1  0.20921373  0.68054102  0.95832012  1
  O  O22  1  0.29146574  0.31239476  0.19524092  1
  O  O23  1  0.28885356  0.30386181  0.69152550  1
  O  O24  1  0.48684627  0.16515227  0.90253228  1
  O  O25  1  0.49805554  0.90569486  0.68848385  1
  O  O26  1  0.48817935  0.17097798  0.40464102  1
  O  O27  1  0.49853049  0.90064518  0.19765273  1
  O  O28  1  0.70930071  0.29900396  0.70268013  1
  O  O29  1  0.70542422  0.31163843  0.20548152  1
  O  O30  1  0.79314378  0.70471211  0.43953158  1
  O  O31  1  0.79041563  0.70319976  0.95608234  1
