# generated using pymatgen
data_LiCo6O7
_symmetry_space_group_name_H-M   'P 1'
_cell_length_a   21.19507512
_cell_length_b   10.88517981
_cell_length_c   5.22406490
_cell_angle_alpha   28.11424668
_cell_angle_beta   29.78607472
_cell_angle_gamma   13.80372494
_symmetry_Int_Tables_number   1
_chemical_formula_structural   LiCo6O7
_chemical_formula_sum   'Li1 Co6 O7'
_cell_volume   134.81965713
_cell_formula_units_Z   1
loop_
 _symmetry_equiv_pos_site_id
 _symmetry_equiv_pos_as_xyz
  1  'x, y, z'
loop_
 _atom_site_type_symbol
 _atom_site_label
 _atom_site_symmetry_multiplicity
 _atom_site_fract_x
 _atom_site_fract_y
 _atom_site_fract_z
 _atom_site_occupancy
  Li  Li0  1  0.00032954  0.99940044  0.00019141  1
  Co  Co1  1  0.28287399  0.00461400  0.99955186  1
  Co  Co2  1  0.14023717  0.00223523  0.00593455  1
  Co  Co3  1  0.42845501  0.00338599  0.99675817  1
  Co  Co4  1  0.57119886  0.99784471  0.00211770  1
  Co  Co5  1  0.71691103  0.99578365  0.00074152  1
  Co  Co6  1  0.86002019  0.99696456  0.99492733  1
  O  O7  1  0.07139414  0.49053814  0.51280816  1
  O  O8  1  0.50038100  0.49889045  0.50106318  1
  O  O9  1  0.22070704  0.48781750  0.50863899  1
  O  O10  1  0.92790032  0.51113322  0.48586610  1
  O  O11  1  0.36745242  0.48465720  0.48860490  1
  O  O12  1  0.63287964  0.51457488  0.51106594  1
  O  O13  1  0.77925866  0.51216003  0.49173018  1
