# generated using pymatgen
data_Li2Si12(NiO6)5
_symmetry_space_group_name_H-M   'P 1'
_cell_length_a   10.15020302
_cell_length_b   10.15066434
_cell_length_c   14.38804151
_cell_angle_alpha   90.00044391
_cell_angle_beta   90.00050747
_cell_angle_gamma   120.00224535
_symmetry_Int_Tables_number   1
_chemical_formula_structural   Li2Si12(NiO6)5
_chemical_formula_sum   'Li4 Si24 Ni10 O60'
_cell_volume   1283.78318412
_cell_formula_units_Z   2
loop_
 _symmetry_equiv_pos_site_id
 _symmetry_equiv_pos_as_xyz
  1  'x, y, z'
loop_
 _atom_site_type_symbol
 _atom_site_label
 _atom_site_symmetry_multiplicity
 _atom_site_fract_x
 _atom_site_fract_y
 _atom_site_fract_z
 _atom_site_occupancy
  Li  Li0  1  0.33331948  0.66673700  0.00001979  1
  Li  Li1  1  0.99998701  0.99997085  0.74995918  1
  Li  Li2  1  0.00000410  0.00002218  0.25002760  1
  Li  Li3  1  0.66668950  0.33341873  0.49999307  1
  Si  Si4  1  0.11464269  0.75962013  0.61083547  1
  Si  Si5  1  0.11463146  0.75963595  0.38916603  1
  Si  Si6  1  0.23745743  0.88297469  0.11060230  1
  Si  Si7  1  0.23743055  0.88294363  0.88937335  1
  Si  Si8  1  0.11702292  0.35447426  0.11061367  1
  Si  Si9  1  0.11702043  0.35449587  0.88938042  1
  Si  Si10  1  0.24036726  0.35498724  0.38915364  1
  Si  Si11  1  0.24038329  0.35501131  0.61083252  1
  Si  Si12  1  0.64501214  0.88536517  0.38917439  1
  Si  Si13  1  0.64507249  0.88540060  0.61083157  1
  Si  Si14  1  0.35499155  0.24034324  0.11082939  1
  Si  Si15  1  0.35493758  0.24029778  0.88917735  1
  Si  Si16  1  0.64554250  0.76257327  0.88939729  1
  Si  Si17  1  0.64552945  0.76256510  0.11062296  1
  Si  Si18  1  0.35443202  0.11700361  0.61060660  1
  Si  Si19  1  0.35445289  0.11701070  0.38937263  1
  Si  Si20  1  0.76252559  0.64552094  0.38940217  1
  Si  Si21  1  0.76253856  0.64552961  0.61063548  1
  Si  Si22  1  0.88534551  0.64500010  0.11083268  1
  Si  Si23  1  0.88531814  0.64495922  0.88917137  1
  Si  Si24  1  0.75963528  0.11463894  0.11083562  1
  Si  Si25  1  0.75963515  0.11464489  0.88916302  1
  Si  Si26  1  0.88299622  0.23746334  0.38937989  1
  Si  Si27  1  0.88301651  0.23751414  0.61061983  1
  Ni  Ni28  1  0.00000383  0.48825519  0.75001095  1
  Ni  Ni29  1  -0.00000088  0.48820504  0.24999294  1
  Ni  Ni30  1  0.33333816  0.66667019  0.25133738  1
  Ni  Ni31  1  0.33337227  0.66667729  0.74864886  1
  Ni  Ni32  1  0.51179917  0.51178439  0.24998148  1
  Ni  Ni33  1  0.51174581  0.51173155  0.75006993  1
  Ni  Ni34  1  0.66665972  0.33333175  0.24867814  1
  Ni  Ni35  1  0.66662867  0.33330353  0.75131990  1
  Ni  Ni36  1  0.48820627  0.99999185  0.25001362  1
  Ni  Ni37  1  0.48822435  0.99999700  0.74995183  1
  O  O38  1  0.05670872  0.78581509  0.86273183  1
  O  O39  1  0.05672926  0.78591529  0.13724550  1
  O  O40  1  0.22512143  0.94124764  0.63515459  1
  O  O41  1  0.22513747  0.94125149  0.36483624  1
  O  O42  1  0.12496788  0.73402266  0.49999579  1
  O  O43  1  0.15316858  0.65277409  0.32673416  1
  O  O44  1  0.15320932  0.65276876  0.67325000  1
  O  O45  1  0.25935863  0.85599260  -0.00000991  1
  O  O46  1  0.16219080  0.50870925  0.16579867  1
  O  O47  1  0.16221841  0.50872908  0.83418887  1
  O  O48  1  0.05874856  0.28389451  0.36481972  1
  O  O49  1  0.05878275  0.28400187  0.63517266  1
  O  O50  1  0.34653169  0.83782340  0.16579494  1
  O  O51  1  0.34652897  0.83785295  0.83416272  1
  O  O52  1  0.14396717  0.40330970  0.00000102  1
  O  O53  1  0.26599194  0.39091316  0.49998851  1
  O  O54  1  0.49964792  0.84682109  0.67325032  1
  O  O55  1  0.49959853  0.84682402  0.32674700  1
  O  O56  1  0.21407993  0.27080734  0.13725373  1
  O  O57  1  0.21405444  0.27080237  0.86275042  1
  O  O58  1  0.34730760  0.50042017  0.67324255  1
  O  O59  1  0.34725270  0.50040888  0.32674146  1
  O  O60  1  0.27078245  0.21405387  0.36270566  1
  O  O61  1  0.27073843  0.21403080  0.63726618  1
  O  O62  1  0.60905692  0.87502868  0.50000298  1
  O  O63  1  0.49129096  0.65348716  0.83422341  1
  O  O64  1  0.49128820  0.65347379  0.16580122  1
  O  O65  1  0.28386792  0.05872218  0.13513135  1
  O  O66  1  0.28373423  0.05866904  0.86487799  1
  O  O67  1  0.59669226  0.74070997  0.00001035  1
  O  O68  1  0.39096966  0.26597469  0.00000300  1
  O  O69  1  0.72919731  0.94328197  0.13727714  1
  O  O70  1  0.72925152  0.94329553  0.86274321  1
  O  O71  1  0.50039835  0.34721049  0.17326386  1
  O  O72  1  0.50034457  0.34711971  0.82673859  1
  O  O73  1  0.40324414  0.14397332  0.49998981  1
  O  O74  1  0.71613448  0.77486789  0.36486595  1
  O  O75  1  0.71627920  0.77498012  0.63514285  1
  O  O76  1  0.65344717  0.49128713  0.33421467  1
  O  O77  1  0.65342966  0.49132539  0.66583023  1
  O  O78  1  0.77485423  0.71613118  0.13514456  1
  O  O79  1  0.77484782  0.71611680  0.86487211  1
  O  O80  1  0.50871154  0.16217612  0.33421122  1
  O  O81  1  0.50870085  0.16217630  0.66576143  1
  O  O82  1  0.74062258  0.59666431  0.50001665  1
  O  O83  1  0.87500331  0.60900938  0.00000719  1
  O  O84  1  0.65276664  0.15317094  0.17326871  1
  O  O85  1  0.65274184  0.15313552  0.82672796  1
  O  O86  1  0.94325272  0.72917842  0.36275398  1
  O  O87  1  0.94326124  0.72910355  0.63728022  1
  O  O88  1  0.84680556  0.49961347  0.17327695  1
  O  O89  1  0.84675073  0.49956284  0.82673273  1
  O  O90  1  0.73399463  0.12494786  0.00000327  1
  O  O91  1  0.83781938  0.34652797  0.33420389  1
  O  O92  1  0.83781466  0.34655919  0.66579526  1
  O  O93  1  0.85608507  0.25936007  0.49999568  1
  O  O94  1  0.78593016  0.05673619  0.36274271  1
  O  O95  1  0.78596803  0.05678711  0.63725840  1
  O  O96  1  0.94126151  0.22515582  0.13515515  1
  O  O97  1  0.94124531  0.22522057  0.86484139  1
