# generated using pymatgen
data_Na8Bi5O14
_symmetry_space_group_name_H-M   'P 1'
_cell_length_a   11.55700554
_cell_length_b   9.16189980
_cell_length_c   9.21003646
_cell_angle_alpha   112.36637288
_cell_angle_beta   105.27947545
_cell_angle_gamma   100.77184119
_symmetry_Int_Tables_number   1
_chemical_formula_structural   Na8Bi5O14
_chemical_formula_sum   'Na16 Bi10 O28'
_cell_volume   823.64389969
_cell_formula_units_Z   2
loop_
 _symmetry_equiv_pos_site_id
 _symmetry_equiv_pos_as_xyz
  1  'x, y, z'
loop_
 _atom_site_type_symbol
 _atom_site_label
 _atom_site_symmetry_multiplicity
 _atom_site_fract_x
 _atom_site_fract_y
 _atom_site_fract_z
 _atom_site_occupancy
  Na  Na0  1  0.01746252  0.44990580  0.67892038  1
  Na  Na1  1  0.00000000  0.00000000  0.00000000  1
  Na  Na2  1  0.18935123  0.19411578  0.67407605  1
  Na  Na3  1  0.17114664  0.30665318  0.37659701  1
  Na  Na4  1  0.10642369  0.38050674  0.01466722  1
  Na  Na5  1  0.27968094  0.69757920  0.40968319  1
  Na  Na6  1  0.37642387  0.11212101  0.46674260  1
  Na  Na7  1  0.43007552  0.56985098  0.14669395  1
  Na  Na8  1  0.50000000  0.50000000  0.50000000  1
  Na  Na9  1  0.56992448  0.43014902  0.85330605  1
  Na  Na10  1  0.62357613  0.88787899  0.53325740  1
  Na  Na11  1  0.72031906  0.30242080  0.59031681  1
  Na  Na12  1  0.89357631  0.61949326  0.98533278  1
  Na  Na13  1  0.82885336  0.69334682  0.62340299  1
  Na  Na14  1  0.81064877  0.80588422  0.32592395  1
  Na  Na15  1  0.98253748  0.55009420  0.32107962  1
  Bi  Bi16  1  0.13971451  0.84941194  0.71069961  1
  Bi  Bi17  1  0.20229366  0.77308462  0.08102073  1
  Bi  Bi18  1  0.34161324  0.60322753  0.76807230  1
  Bi  Bi19  1  0.31911838  0.18965812  0.11100798  1
  Bi  Bi20  1  0.46772095  0.03730746  0.80972526  1
  Bi  Bi21  1  0.53227905  0.96269254  0.19027474  1
  Bi  Bi22  1  0.68088162  0.81034188  0.88899202  1
  Bi  Bi23  1  0.65838676  0.39677247  0.23192770  1
  Bi  Bi24  1  0.79770634  0.22691538  0.91897927  1
  Bi  Bi25  1  0.86028549  0.15058806  0.28930039  1
  O  O26  1  0.97511139  0.79820451  0.52617982  1
  O  O27  1  0.04610496  0.74717890  0.84687797  1
  O  O28  1  0.16820994  0.61590699  0.57752969  1
  O  O29  1  0.23059739  0.53689345  0.91390861  1
  O  O30  1  0.09772535  0.65416127  0.17936826  1
  O  O31  1  0.15262702  0.10650539  0.88373229  1
  O  O32  1  0.27894390  0.96433662  0.62185899  1
  O  O33  1  0.32136525  0.92855979  0.94139466  1
  O  O34  1  0.35173521  0.36769568  0.62666837  1
  O  O35  1  0.21126516  0.05539610  0.20422299  1
  O  O36  1  0.30048031  0.41768970  0.24733129  1
  O  O37  1  0.55716762  0.71030851  0.99488578  1
  O  O38  1  0.50846624  0.77972248  0.69207650  1
  O  O39  1  0.40645176  0.84126073  0.28776423  1
  O  O40  1  0.59354824  0.15873927  0.71223577  1
  O  O41  1  0.49153376  0.22027752  0.30792350  1
  O  O42  1  0.44283238  0.28969149  0.00511422  1
  O  O43  1  0.69951969  0.58231030  0.75266971  1
  O  O44  1  0.78873484  0.94460390  0.79577701  1
  O  O45  1  0.64826479  0.63230432  0.37333163  1
  O  O46  1  0.67863475  0.07144021  0.05860534  1
  O  O47  1  0.72105610  0.03566338  0.37814101  1
  O  O48  1  0.84737298  0.89349461  0.11626771  1
  O  O49  1  0.90227465  0.34583873  0.82063174  1
  O  O50  1  0.76940261  0.46310655  0.08609139  1
  O  O51  1  0.83179006  0.38409301  0.42247031  1
  O  O52  1  0.95389504  0.25282110  0.15312203  1
  O  O53  1  0.02488861  0.20179549  0.47382018  1
