# generated using pymatgen
data_Li5Nb2Fe5O12
_symmetry_space_group_name_H-M   'P 1'
_cell_length_a   5.31216993
_cell_length_b   5.32667400
_cell_length_c   10.25164440
_cell_angle_alpha   84.03126485
_cell_angle_beta   95.93824553
_cell_angle_gamma   58.63900110
_symmetry_Int_Tables_number   1
_chemical_formula_structural   Li5Nb2Fe5O12
_chemical_formula_sum   'Li5 Nb2 Fe5 O12'
_cell_volume   242.08259904
_cell_formula_units_Z   1
loop_
 _symmetry_equiv_pos_site_id
 _symmetry_equiv_pos_as_xyz
  1  'x, y, z'
loop_
 _atom_site_type_symbol
 _atom_site_label
 _atom_site_symmetry_multiplicity
 _atom_site_fract_x
 _atom_site_fract_y
 _atom_site_fract_z
 _atom_site_occupancy
  Li  Li0  1  0.16804946  0.67933364  0.50327328  1
  Li  Li1  1  0.31984202  0.82663913  0.99372179  1
  Li  Li2  1  0.68198897  0.16502794  0.99792256  1
  Li  Li3  1  0.82095070  0.32766444  0.50747205  1
  Li  Li4  1  0.91913938  0.91949929  0.74944338  1
  Nb  Nb5  1  0.25481141  0.23979278  0.74950218  1
  Nb  Nb6  1  0.74533005  0.73495989  0.24898727  1
  Fe  Fe7  1  0.09651493  0.07992965  0.24983797  1
  Fe  Fe8  1  0.00664667  0.50432684  0.99404019  1
  Fe  Fe9  1  0.49996849  0.00183849  0.50234033  1
  Fe  Fe10  1  0.41498225  0.43032852  0.25128093  1
  Fe  Fe11  1  0.57798514  0.58424684  0.75171161  1
  O  O12  1  0.98651146  0.20414566  0.86753519  1
  O  O13  1  0.19988729  0.98503229  0.63070477  1
  O  O14  1  0.12394571  0.37362121  0.37689474  1
  O  O15  1  0.36750619  0.12806646  0.12617027  1
  O  O16  1  0.30070379  0.51991683  0.86279403  1
  O  O17  1  0.51529388  0.29328611  0.63366099  1
  O  O18  1  0.47963491  0.70125982  0.38074729  1
  O  O19  1  0.70230163  0.48870388  0.12351634  1
  O  O20  1  0.61792012  0.88578765  0.87122724  1
  O  O21  1  0.87595236  0.61345722  0.63565570  1
  O  O22  1  0.79070276  0.02379249  0.36170813  1
  O  O23  1  0.03343145  0.78934492  0.12985275  1
