# generated using pymatgen
data_H48PtW6C8(NO)24
_symmetry_space_group_name_H-M   'P 1'
_cell_length_a   10.61527445
_cell_length_b   10.61526950
_cell_length_c   10.61523388
_cell_angle_alpha   76.32295962
_cell_angle_beta   76.32260243
_cell_angle_gamma   76.32297591
_symmetry_Int_Tables_number   1
_chemical_formula_structural   H48PtW6C8(NO)24
_chemical_formula_sum   'H48 Pt1 W6 C8 N24 O24'
_cell_volume   1108.44903676
_cell_formula_units_Z   1
loop_
 _symmetry_equiv_pos_site_id
 _symmetry_equiv_pos_as_xyz
  1  'x, y, z'
loop_
 _atom_site_type_symbol
 _atom_site_label
 _atom_site_symmetry_multiplicity
 _atom_site_fract_x
 _atom_site_fract_y
 _atom_site_fract_z
 _atom_site_occupancy
  H  H0  1  0.04227726  0.86274001  0.72146541  1
  H  H1  1  0.17112819  0.85478793  0.35042651  1
  H  H2  1  0.20968727  0.88538739  0.49311086  1
  H  H3  1  0.27853424  0.95772388  0.13725932  1
  H  H4  1  0.14521129  0.64957405  0.82887075  1
  H  H5  1  0.00691437  0.47845239  0.36196119  1
  H  H6  1  0.11461137  0.50689040  0.79031239  1
  H  H7  1  0.55242557  0.92316974  0.67875541  1
  H  H8  1  0.63803940  0.99308670  0.52154747  1
  H  H9  1  0.59826950  0.95373718  0.86503158  1
  H  H10  1  0.27307176  0.58041612  0.38123414  1
  H  H11  1  0.46602595  0.76150291  0.52932728  1
  H  H12  1  0.50688808  0.79031250  0.11461221  1
  H  H13  1  0.07683056  0.32124463  0.44757506  1
  H  H14  1  0.13497028  0.40173002  0.04626224  1
  H  H15  1  0.23851125  0.47066879  0.53396594  1
  H  H16  1  0.41957144  0.61875983  0.72694575  1
  H  H17  1  0.64957191  0.82887191  0.14521185  1
  H  H18  1  0.13725988  0.27853436  0.95772281  1
  H  H19  1  0.61875687  0.72693285  0.41958529  1
  H  H20  1  0.32124457  0.44757454  0.07683111  1
  H  H21  1  0.04626158  0.13496954  0.40173035  1
  H  H22  1  0.52154813  0.63803931  0.99308539  1
  H  H23  1  0.47068080  0.53396944  0.23849230  1
  H  H24  1  0.52931920  0.46603056  0.76150770  1
  H  H25  1  0.47845187  0.36196069  0.00691461  1
  H  H26  1  0.95373842  0.86503046  0.59826965  1
  H  H27  1  0.67875543  0.55242546  0.92316889  1
  H  H28  1  0.38124313  0.27306715  0.58041471  1
  H  H29  1  0.86274012  0.72146564  0.04227719  1
  H  H30  1  0.35042809  0.17112809  0.85478815  1
  H  H31  1  0.58042856  0.38124017  0.27305425  1
  H  H32  1  0.76148875  0.52933121  0.46603406  1
  H  H33  1  0.86502972  0.59826998  0.95373776  1
  H  H34  1  0.92316944  0.67875537  0.55242494  1
  H  H35  1  0.49311192  0.20968750  0.88538779  1
  H  H36  1  0.53397405  0.23849709  0.47067272  1
  H  H37  1  0.72692824  0.41958388  0.61876586  1
  H  H38  1  0.40173050  0.04626282  0.13496842  1
  H  H39  1  0.36196060  0.00691330  0.47845253  1
  H  H40  1  0.44757443  0.07683026  0.32124459  1
  H  H41  1  0.88538863  0.49310960  0.20968761  1
  H  H42  1  0.99308563  0.52154761  0.63803881  1
  H  H43  1  0.85478871  0.35042595  0.17112925  1
  H  H44  1  0.72146576  0.04227612  0.86274068  1
  H  H45  1  0.79031273  0.11461261  0.50688914  1
  H  H46  1  0.82887181  0.14521207  0.64957349  1
  H  H47  1  0.95772274  0.13725999  0.27853459  1
  Pt  Pt48  1  0.00000000  0.00000000  0.00000000  1
  W  W49  1  0.28709773  0.89656666  0.81995582  1
  W  W50  1  0.18004521  0.71290522  0.10343554  1
  W  W51  1  0.10343437  0.18004469  0.71290216  1
  W  W52  1  0.89656563  0.81995531  0.28709784  1
  W  W53  1  0.81995479  0.28709478  0.89656446  1
  W  W54  1  0.71290227  0.10343334  0.18004418  1
  C  C55  1  0.31299017  0.96863761  0.31876364  1
  C  C56  1  0.03136217  0.68123585  0.68700936  1
  C  C57  1  0.68123704  0.68701019  0.03136106  1
  C  C58  1  0.58499825  0.58500124  0.58500957  1
  C  C59  1  0.41500175  0.41499876  0.41499043  1
  C  C60  1  0.31876296  0.31298981  0.96863894  1
  C  C61  1  0.96863783  0.31876415  0.31299064  1
  C  C62  1  0.68700983  0.03136239  0.68123636  1
  N  N63  1  0.01181955  0.81299373  0.66481225  1
  N  N64  1  0.22346727  0.89839634  0.39303213  1
  N  N65  1  0.33518665  0.98818079  0.18700663  1
  N  N66  1  0.10160247  0.60696942  0.77653162  1
  N  N67  1  0.61632288  0.98154616  0.62159391  1
  N  N68  1  0.01845629  0.37840486  0.38367843  1
  N  N69  1  0.30131307  0.49790776  0.44737487  1
  N  N70  1  0.60696585  0.77653644  0.10160142  1
  N  N71  1  0.55260797  0.69870467  0.50209285  1
  N  N72  1  0.18700918  0.33518632  0.98818036  1
  N  N73  1  0.50208069  0.55263230  0.69871696  1
  N  N74  1  0.37840616  0.38367720  0.01845496  1
  N  N75  1  0.62159384  0.61632280  0.98154504  1
  N  N76  1  0.49791931  0.44736770  0.30128204  1
  N  N77  1  0.81299082  0.66481368  0.01181964  1
  N  N78  1  0.44739203  0.30129533  0.49790715  1
  N  N79  1  0.39303415  0.22346356  0.89839858  1
  N  N80  1  0.69868693  0.50209224  0.55262513  1
  N  N81  1  0.98154371  0.62159514  0.61632157  1
  N  N82  1  0.38367712  0.01845384  0.37840609  1
  N  N83  1  0.89839753  0.39303058  0.22346838  1
  N  N84  1  0.66481335  0.01181921  0.81299337  1
  N  N85  1  0.77653273  0.10160366  0.60696787  1
  N  N86  1  0.98818045  0.18700627  0.33518775  1
  O  O87  1  0.08088707  0.97791634  0.80972438  1
  O  O88  1  0.19027393  0.91911624  0.02208488  1
  O  O89  1  0.09131513  0.76692699  0.27508070  1
  O  O90  1  0.32539558  0.85409981  0.65798211  1
  O  O91  1  0.23307573  0.72492248  0.90868465  1
  O  O92  1  0.44570172  0.87052630  0.86293194  1
  O  O93  1  0.13706941  0.55430114  0.12947503  1
  O  O94  1  0.34201668  0.67460634  0.14590292  1
  O  O95  1  0.14590099  0.34201594  0.67460301  1
  O  O96  1  0.72491971  0.90868323  0.23307550  1
  O  O97  1  0.02208378  0.19027511  0.91911387  1
  O  O98  1  0.12947524  0.13706778  0.55429742  1
  O  O99  1  0.87052476  0.86293222  0.44570258  1
  O  O100  1  0.97791622  0.80972489  0.08088613  1
  O  O101  1  0.27508029  0.09131677  0.76692450  1
  O  O102  1  0.85409901  0.65798406  0.32539699  1
  O  O103  1  0.65798332  0.32539366  0.85409708  1
  O  O104  1  0.86293059  0.44569886  0.87052497  1
  O  O105  1  0.55429828  0.12947370  0.13706806  1
  O  O106  1  0.76692427  0.27507752  0.09131535  1
  O  O107  1  0.67460442  0.14590019  0.34201789  1
  O  O108  1  0.90868487  0.23307301  0.72491930  1
  O  O109  1  0.80972607  0.08088376  0.97791512  1
  O  O110  1  0.91911293  0.02208366  0.19027562  1
