# generated using pymatgen
data_K2Li2NiO4
_symmetry_space_group_name_H-M   'P 1'
_cell_length_a   5.57038374
_cell_length_b   8.93794180
_cell_length_c   11.05532816
_cell_angle_alpha   87.31736497
_cell_angle_beta   111.64834486
_cell_angle_gamma   89.33037319
_symmetry_Int_Tables_number   1
_chemical_formula_structural   K2Li2NiO4
_chemical_formula_sum   'K8 Li8 Ni4 O16'
_cell_volume   510.78730287
_cell_formula_units_Z   4
loop_
 _symmetry_equiv_pos_site_id
 _symmetry_equiv_pos_as_xyz
  1  'x, y, z'
loop_
 _atom_site_type_symbol
 _atom_site_label
 _atom_site_symmetry_multiplicity
 _atom_site_fract_x
 _atom_site_fract_y
 _atom_site_fract_z
 _atom_site_occupancy
  K  K0  1  0.25621756  0.78115007  0.87641019  1
  K  K1  1  0.33320005  0.46320010  0.68273001  1
  K  K2  1  0.25491900  0.70249771  0.38254208  1
  K  K3  1  0.64897279  0.03902701  0.85305857  1
  K  K4  1  0.28225175  0.99699021  0.13760876  1
  K  K5  1  0.78704584  0.22163774  0.62585391  1
  K  K6  1  0.72749569  0.49172367  0.37475166  1
  K  K7  1  0.77089785  0.29927017  0.09706456  1
  Li  Li8  1  0.33323221  0.97294871  0.55950979  1
  Li  Li9  1  0.61082649  0.75675775  0.69544670  1
  Li  Li10  1  0.38778586  0.24265870  0.29611661  1
  Li  Li11  1  0.61650745  -0.00054045  0.42651295  1
  Li  Li12  1  0.35470099  0.51690808  0.07885712  1
  Li  Li13  1  0.87761859  0.53371267  0.81388269  1
  Li  Li14  1  0.61339626  0.75333256  0.19823538  1
  Li  Li15  1  0.89500433  0.97711547  0.29285553  1
  Ni  Ni16  1  0.13736264  0.29058537  0.93748679  1
  Ni  Ni17  1  0.10674479  0.20841918  0.43070577  1
  Ni  Ni18  1  0.89184143  0.77808977  0.56053933  1
  Ni  Ni19  1  0.88711744  0.71503254  0.06115844  1
  O  O20  1  0.18807910  0.10685256  0.90273327  1
  O  O21  1  0.23868110  0.47109871  0.89725266  1
  O  O22  1  0.25007687  0.17788951  0.60143244  1
  O  O23  1  0.23940423  0.78265750  0.62137516  1
  O  O24  1  0.24273278  0.37837929  0.39851219  1
  O  O25  1  0.24693940  0.05105135  0.36608045  1
  O  O26  1  0.79761317  0.32533494  0.84750318  1
  O  O27  1  0.77688506  0.71851889  0.88474686  1
  O  O28  1  0.28999595  0.30126396  0.11404274  1
  O  O29  1  0.24104235  0.70075821  0.13016560  1
  O  O30  1  0.70959997  0.92604148  0.60937439  1
  O  O31  1  0.78419468  0.60451352  0.62102736  1
  O  O32  1  0.75955557  0.17466602  0.35916879  1
  O  O33  1  0.75223206  0.81230166  0.37725430  1
  O  O34  1  0.73839828  0.58223827  0.13767782  1
  O  O35  1  0.78401641  0.89443809  0.11166897  1
