# generated using pymatgen
data_Li4V3P4O15
_symmetry_space_group_name_H-M   'P 1'
_cell_length_a   17.44770930
_cell_length_b   6.65454917
_cell_length_c   10.68133056
_cell_angle_alpha   90.00000000
_cell_angle_beta   90.00000000
_cell_angle_gamma   90.00000000
_symmetry_Int_Tables_number   1
_chemical_formula_structural   Li4V3P4O15
_chemical_formula_sum   'Li16 V12 P16 O60'
_cell_volume   1240.17339608
_cell_formula_units_Z   4
loop_
 _symmetry_equiv_pos_site_id
 _symmetry_equiv_pos_as_xyz
  1  'x, y, z'
loop_
 _atom_site_type_symbol
 _atom_site_label
 _atom_site_symmetry_multiplicity
 _atom_site_fract_x
 _atom_site_fract_y
 _atom_site_fract_z
 _atom_site_occupancy
  Li  Li0  1  0.00390697  0.32224173  0.48205369  1
  Li  Li1  1  0.03380410  0.19684996  0.04814852  1
  Li  Li2  1  0.09412903  0.92513746  0.82172171  1
  Li  Li3  1  0.20705254  0.35371859  0.24428606  1
  Li  Li4  1  0.29294746  0.85371859  0.74428606  1
  Li  Li5  1  0.40587097  0.42513746  0.32172171  1
  Li  Li6  1  0.46619590  0.69684996  0.54814852  1
  Li  Li7  1  0.49609303  0.82224173  0.98205369  1
  Li  Li8  1  0.50390697  0.32224173  0.01794631  1
  Li  Li9  1  0.53380410  0.19684996  0.45185148  1
  Li  Li10  1  0.59412903  0.92513746  0.67827829  1
  Li  Li11  1  0.70705254  0.35371859  0.25571394  1
  Li  Li12  1  0.79294746  0.85371859  0.75571394  1
  Li  Li13  1  0.90587097  0.42513746  0.17827829  1
  Li  Li14  1  0.96619590  0.69684996  0.95185148  1
  Li  Li15  1  0.99609303  0.82224173  0.51794631  1
  V  V16  1  0.13500644  0.58889076  0.49221479  1
  V  V17  1  0.16709442  0.59907027  0.99834428  1
  V  V18  1  0.24600614  0.32104483  0.73990925  1
  V  V19  1  0.25399386  0.82104483  0.23990925  1
  V  V20  1  0.33290558  0.09907027  0.49834528  1
  V  V21  1  0.36499356  0.08889076  0.99221479  1
  V  V22  1  0.63500644  0.58889076  0.00778521  1
  V  V23  1  0.66709442  0.59907027  0.50165572  1
  V  V24  1  0.74600614  0.32104483  0.76009075  1
  V  V25  1  0.75399386  0.82104483  0.26009075  1
  V  V26  1  0.83290558  0.09907027  0.00165472  1
  V  V27  1  0.86499356  0.08889076  0.50778521  1
  P  P28  1  0.04996687  0.64205965  0.22734086  1
  P  P29  1  0.06042096  0.46874877  0.75746551  1
  P  P30  1  0.17006849  0.08376681  0.48371984  1
  P  P31  1  0.20264665  0.09585537  0.00399738  1
  P  P32  1  0.29735335  0.59585537  0.50399738  1
  P  P33  1  0.32993151  0.58376681  0.98371984  1
  P  P34  1  0.43957904  0.96874877  0.25746551  1
  P  P35  1  0.45003313  0.14205965  0.72734086  1
  P  P36  1  0.54996687  0.64205965  0.27265914  1
  P  P37  1  0.56042096  0.46874877  0.74253449  1
  P  P38  1  0.67006849  0.08376681  0.01628016  1
  P  P39  1  0.70264665  0.09585537  0.49600262  1
  P  P40  1  0.79735335  0.59585537  0.99600262  1
  P  P41  1  0.82993151  0.58376681  0.51628016  1
  P  P42  1  0.93957904  0.96874877  0.24253449  1
  P  P43  1  0.95003313  0.14205965  0.77265914  1
  O  O44  1  0.00682432  0.50775783  0.13422685  1
  O  O45  1  0.02109649  0.87147937  0.19667969  1
  O  O46  1  0.03397334  0.59874774  0.36577790  1
  O  O47  1  0.04461853  0.56112572  0.62834904  1
  O  O48  1  0.07283339  0.63188785  0.85899200  1
  O  O49  1  0.12126236  0.30549031  0.76087377  1
  O  O50  1  0.11690540  0.90283615  0.49964074  1
  O  O51  1  0.13628050  0.64573294  0.19712262  1
  O  O52  1  0.12258842  0.27536645  0.46181517  1
  O  O53  1  0.14886050  0.91657851  0.98288607  1
  O  O54  1  0.15212020  0.28060450  0.03587756  1
  O  O55  1  0.22567315  0.09513460  0.60006593  1
  O  O56  1  0.22887802  0.06714743  0.37011689  1
  O  O57  1  0.23821804  0.56750747  0.61251830  1
  O  O58  1  0.24395644  0.61089993  0.38587060  1
  O  O59  1  0.25604356  0.11089993  0.88587060  1
  O  O60  1  0.26178196  0.06750747  0.11251830  1
  O  O61  1  0.27112198  0.56714743  0.87011689  1
  O  O62  1  0.27432685  0.59513460  0.10006593  1
  O  O63  1  0.34787980  0.78060550  0.53587756  1
  O  O64  1  0.35113950  0.41657851  0.48288607  1
  O  O65  1  0.37741158  0.77536645  0.96181517  1
  O  O66  1  0.36371950  0.14573294  0.69712262  1
  O  O67  1  0.38309460  0.40283615  0.99964074  1
  O  O68  1  0.37873764  0.80549031  0.26087377  1
  O  O69  1  0.42716561  0.13188785  0.35899200  1
  O  O70  1  0.45538147  0.06112572  0.12834904  1
  O  O71  1  0.46602666  0.09874774  0.86577790  1
  O  O72  1  0.47890351  0.37147937  0.69667969  1
  O  O73  1  0.49317568  0.00775783  0.63422685  1
  O  O74  1  0.50682432  0.50775783  0.36577315  1
  O  O75  1  0.52109649  0.87147937  0.30332031  1
  O  O76  1  0.53397334  0.59874774  0.13422210  1
  O  O77  1  0.54461853  0.56112572  0.87165096  1
  O  O78  1  0.57283339  0.63188785  0.64100800  1
  O  O79  1  0.62126236  0.30549031  0.73912623  1
  O  O80  1  0.61690540  0.90283615  0.00035926  1
  O  O81  1  0.63628050  0.64573294  0.30287738  1
  O  O82  1  0.62258842  0.27536645  0.03818483  1
  O  O83  1  0.64886050  0.91657851  0.51711393  1
  O  O84  1  0.65212020  0.28060450  0.46412244  1
  O  O85  1  0.72567315  0.09513460  0.89993407  1
  O  O86  1  0.72887802  0.06714743  0.12988311  1
  O  O87  1  0.73821804  0.56750747  0.88748170  1
  O  O88  1  0.74395644  0.61089993  0.11412940  1
  O  O89  1  0.75604356  0.11089993  0.61412940  1
  O  O90  1  0.76178196  0.06750747  0.38748170  1
  O  O91  1  0.77112198  0.56714743  0.62988311  1
  O  O92  1  0.77432685  0.59513460  0.39993407  1
  O  O93  1  0.84787980  0.78060550  0.96412244  1
  O  O94  1  0.85113950  0.41657851  0.01711393  1
  O  O95  1  0.87741158  0.77536645  0.53818483  1
  O  O96  1  0.86371950  0.14573294  0.80287738  1
  O  O97  1  0.88309460  0.40283615  0.50035926  1
  O  O98  1  0.87873764  0.80549031  0.23912623  1
  O  O99  1  0.92716661  0.13188785  0.14100800  1
  O  O100  1  0.95538147  0.06112572  0.37165096  1
  O  O101  1  0.96602666  0.09874774  0.63422210  1
  O  O102  1  0.97890351  0.37147937  0.80332031  1
  O  O103  1  0.99317568  0.00775783  0.86577315  1
