# generated using pymatgen
data_Ba10LiW7O30
_symmetry_space_group_name_H-M   'P 1'
_cell_length_a   5.89751886
_cell_length_b   5.89812087
_cell_length_c   24.94210646
_cell_angle_alpha   89.96826952
_cell_angle_beta   89.96590925
_cell_angle_gamma   60.16786941
_symmetry_Int_Tables_number   1
_chemical_formula_structural   Ba10LiW7O30
_chemical_formula_sum   'Ba10 Li1 W7 O30'
_cell_volume   752.62532091
_cell_formula_units_Z   1
loop_
 _symmetry_equiv_pos_site_id
 _symmetry_equiv_pos_as_xyz
  1  'x, y, z'
loop_
 _atom_site_type_symbol
 _atom_site_label
 _atom_site_symmetry_multiplicity
 _atom_site_fract_x
 _atom_site_fract_y
 _atom_site_fract_z
 _atom_site_occupancy
  Ba  Ba0  1  0.33429822  0.33433517  0.46069555  1
  Ba  Ba1  1  0.33201864  0.33157622  0.03104090  1
  Ba  Ba2  1  0.33327079  0.33337915  0.75950464  1
  Ba  Ba3  1  0.99972673  0.99947448  0.14802064  1
  Ba  Ba4  1  0.00153022  0.00166846  0.35171961  1
  Ba  Ba5  1  0.00006643  0.00013461  0.64945817  1
  Ba  Ba6  1  0.99985634  0.99988149  0.85890363  1
  Ba  Ba7  1  0.66698381  0.66703403  0.25103841  1
  Ba  Ba8  1  0.66716040  0.66725877  0.55097693  1
  Ba  Ba9  1  0.66624138  0.66615719  0.94244223  1
  Li  Li10  1  0.66690372  0.66701514  0.81881361  1
  W  W11  1  0.33418999  0.33425195  0.19628240  1
  W  W12  1  0.33319738  0.33321501  0.89724553  1
  W  W13  1  0.66603880  0.66560768  0.10034461  1
  W  W14  1  0.66816606  0.66836733  0.40032939  1
  W  W15  1  0.66652632  0.66655821  0.70089717  1
  W  W16  1  0.33349642  0.33358240  0.30511429  1
  W  W17  1  0.33350797  0.33358302  0.59992865  1
  O  O18  1  0.99722841  0.50141013  0.64772225  1
  O  O19  1  0.01810655  0.49078752  0.85057139  1
  O  O20  1  0.51056039  0.98329769  0.34719868  1
  O  O21  1  0.50207984  0.99464248  0.15631721  1
  O  O22  1  0.35584189  0.82149566  0.73840970  1
  O  O23  1  0.17701953  0.64384423  0.24775933  1
  O  O24  1  0.35560302  0.82203953  0.06447762  1
  O  O25  1  0.35497640  0.82063540  0.43754592  1
  O  O26  1  0.18203676  0.63768939  0.55819895  1
  O  O27  1  0.18064104  0.63820161  0.94298691  1
  O  O28  1  0.50328256  0.50349771  0.34708827  1
  O  O29  1  0.18013597  0.18012217  0.94295069  1
  O  O30  1  0.82285993  0.82271237  0.06527696  1
  O  O31  1  0.82228552  0.82210690  0.43892462  1
  O  O32  1  0.18126589  0.18136377  0.55817763  1
  O  O33  1  0.50491062  0.50485389  0.15590983  1
  O  O34  1  0.50127676  0.50127504  0.64780873  1
  O  O35  1  0.49111582  0.49112081  0.85060023  1
  O  O36  1  0.82213530  0.82211099  0.73843587  1
  O  O37  1  0.17955497  0.17945222  0.24977563  1
  O  O38  1  0.82226509  0.35541797  0.06442557  1
  O  O39  1  0.82069170  0.35496594  0.43749966  1
  O  O40  1  0.63765825  0.18207768  0.55820263  1
  O  O41  1  0.63825671  0.18059185  0.94298196  1
  O  O42  1  0.82151637  0.35585727  0.73839673  1
  O  O43  1  0.64375454  0.17702223  0.24786096  1
  O  O44  1  0.50143851  0.99714157  0.64771294  1
  O  O45  1  0.49072179  0.01816987  0.85056615  1
  O  O46  1  0.99426021  0.50229012  0.15630383  1
  O  O47  1  0.98359507  0.51047468  0.34715881  1
