# generated using pymatgen
data_Li4Co3TeO8
_symmetry_space_group_name_H-M   'P 1'
_cell_length_a   10.36727745
_cell_length_b   10.36841529
_cell_length_c   14.62555817
_cell_angle_alpha   19.86588668
_cell_angle_beta   19.86225876
_cell_angle_gamma   34.23141411
_symmetry_Int_Tables_number   1
_chemical_formula_structural   Li4Co3TeO8
_chemical_formula_sum   'Li4 Co3 Te1 O8'
_cell_volume   157.15771151
_cell_formula_units_Z   1
loop_
 _symmetry_equiv_pos_site_id
 _symmetry_equiv_pos_as_xyz
  1  'x, y, z'
loop_
 _atom_site_type_symbol
 _atom_site_label
 _atom_site_symmetry_multiplicity
 _atom_site_fract_x
 _atom_site_fract_y
 _atom_site_fract_z
 _atom_site_occupancy
  Li  Li0  1  -0.00000188  -0.00000609  0.50000481  1
  Li  Li1  1  0.00000132  0.49999890  0.49999961  1
  Li  Li2  1  0.50000464  0.00000437  0.49999311  1
  Li  Li3  1  0.49999388  0.49999692  0.50000472  1
  Co  Co4  1  -0.00000563  0.49999813  0.00000461  1
  Co  Co5  1  0.49998696  -0.00002005  0.00002320  1
  Co  Co6  1  0.50001363  0.49999880  -0.00000695  1
  Te  Te7  1  0.00002044  0.00007671  -0.00005577  1
  O  O8  1  0.00028198  0.00021084  0.26066413  1
  O  O9  1  0.99731883  0.54132993  0.22933409  1
  O  O10  1  0.54392327  0.00229253  0.22427989  1
  O  O11  1  0.99971969  -0.00021012  0.73933389  1
  O  O12  1  0.45824417  0.45566768  0.31249081  1
  O  O13  1  0.00267875  0.45863786  0.77068142  1
  O  O14  1  0.45607218  0.99770093  0.77572606  1
  O  O15  1  0.54174777  0.54431966  0.68752337  1
