# generated using pymatgen
data_LiFe4(BO3)4
_symmetry_space_group_name_H-M   'P 1'
_cell_length_a   5.27212214
_cell_length_b   5.23037034
_cell_length_c   10.09707178
_cell_angle_alpha   90.87882489
_cell_angle_beta   91.00643353
_cell_angle_gamma   60.78873115
_symmetry_Int_Tables_number   1
_chemical_formula_structural   LiFe4(BO3)4
_chemical_formula_sum   'Li1 Fe4 B4 O12'
_cell_volume   242.97468056
_cell_formula_units_Z   1
loop_
 _symmetry_equiv_pos_site_id
 _symmetry_equiv_pos_as_xyz
  1  'x, y, z'
loop_
 _atom_site_type_symbol
 _atom_site_label
 _atom_site_symmetry_multiplicity
 _atom_site_fract_x
 _atom_site_fract_y
 _atom_site_fract_z
 _atom_site_occupancy
  Li  Li0  1  0.35619193  0.66644678  0.84275420  1
  Fe  Fe1  1  0.97925757  0.67946929  0.62307469  1
  Fe  Fe2  1  0.68489013  0.00641543  0.87692996  1
  Fe  Fe3  1  0.32824562  0.00093941  0.11999653  1
  Fe  Fe4  1  0.00387674  0.32584481  0.36904695  1
  B  B5  1  0.00496809  0.33792454  0.87178329  1
  B  B6  1  0.32871633  0.01048381  0.62566842  1
  B  B7  1  0.65994653  0.99916094  0.37121889  1
  B  B8  1  0.99649327  0.66379392  0.12248390  1
  O  O9  1  0.12072976  0.27149542  0.56662108  1
  O  O10  1  0.25687874  0.08938044  0.91857552  1
  O  O11  1  0.03295087  0.57563705  0.82473042  1
  O  O12  1  0.59214158  0.98447013  0.66696455  1
  O  O13  1  0.23520581  0.69793903  0.11523861  1
  O  O14  1  0.27043049  0.78813565  0.64850850  1
  O  O15  1  0.70426721  0.23227784  0.36570756  1
  O  O16  1  0.74170318  0.35114302  0.87035981  1
  O  O17  1  0.40295968  0.00878926  0.32475056  1
  O  O18  1  0.01838734  0.40173487  0.17002665  1
  O  O19  1  0.72734714  0.88089056  0.07866058  1
  O  O20  1  0.87573600  0.73261380  0.42474131  1
