# generated using pymatgen
data_FeNi(PO4)2
_symmetry_space_group_name_H-M   'P 1'
_cell_length_a   9.92182851
_cell_length_b   5.84471272
_cell_length_c   4.83496158
_cell_angle_alpha   90.00000000
_cell_angle_beta   89.80700585
_cell_angle_gamma   90.00000000
_symmetry_Int_Tables_number   1
_chemical_formula_structural   FeNi(PO4)2
_chemical_formula_sum   'Fe2 Ni2 P4 O16'
_cell_volume   280.37897858
_cell_formula_units_Z   2
loop_
 _symmetry_equiv_pos_site_id
 _symmetry_equiv_pos_as_xyz
  1  'x, y, z'
loop_
 _atom_site_type_symbol
 _atom_site_label
 _atom_site_symmetry_multiplicity
 _atom_site_fract_x
 _atom_site_fract_y
 _atom_site_fract_z
 _atom_site_occupancy
  Fe  Fe0  1  0.27304823  0.25000000  0.96623318  1
  Fe  Fe1  1  0.72695177  0.75000000  0.03376682  1
  Ni  Ni2  1  0.22611178  0.75000000  0.45668977  1
  Ni  Ni3  1  0.77388822  0.25000000  0.54331023  1
  P  P4  1  0.09352217  0.25000000  0.41480729  1
  P  P5  1  0.40218453  0.75000000  0.91760154  1
  P  P6  1  0.59781547  0.25000000  0.08239846  1
  P  P7  1  0.90647783  0.75000000  0.58519271  1
  O  O8  1  0.05567166  0.75000000  0.66171186  1
  O  O9  1  0.11446096  0.25000000  0.72605365  1
  O  O10  1  0.16965661  0.04753673  0.26418194  1
  O  O11  1  0.16965661  0.45246327  0.26418194  1
  O  O12  1  0.32851402  0.95642867  0.77564030  1
  O  O13  1  0.32851402  0.54357133  0.77564030  1
  O  O14  1  0.39073724  0.75000000  0.23316163  1
  O  O15  1  0.44735318  0.25000000  0.15732813  1
  O  O16  1  0.55264682  0.75000000  0.84267187  1
  O  O17  1  0.60926276  0.25000000  0.76683837  1
  O  O18  1  0.67148598  0.04357133  0.22435970  1
  O  O19  1  0.67148598  0.45642867  0.22435970  1
  O  O20  1  0.83034339  0.54753673  0.73581806  1
  O  O21  1  0.83034339  0.95246327  0.73581806  1
  O  O22  1  0.88553904  0.75000000  0.27394635  1
  O  O23  1  0.94432834  0.25000000  0.33828814  1
