# generated using pymatgen
data_Li2MnF4
_symmetry_space_group_name_H-M   'P 1'
_cell_length_a   9.94308498
_cell_length_b   7.34957529
_cell_length_c   10.12079531
_cell_angle_alpha   90.00000000
_cell_angle_beta   63.17734919
_cell_angle_gamma   90.00000000
_symmetry_Int_Tables_number   1
_chemical_formula_structural   Li2MnF4
_chemical_formula_sum   'Li16 Mn8 F32'
_cell_volume   660.02631136
_cell_formula_units_Z   8
loop_
 _symmetry_equiv_pos_site_id
 _symmetry_equiv_pos_as_xyz
  1  'x, y, z'
loop_
 _atom_site_type_symbol
 _atom_site_label
 _atom_site_symmetry_multiplicity
 _atom_site_fract_x
 _atom_site_fract_y
 _atom_site_fract_z
 _atom_site_occupancy
  Li  Li0  1  0.34088687  0.98070348  0.07913255  1
  Li  Li1  1  0.12435716  0.63653536  0.43927231  1
  Li  Li2  1  0.35442389  0.59226024  0.05617199  1
  Li  Li3  1  0.15515693  0.00479748  0.41466359  1
  Li  Li4  1  0.34088687  0.51929652  0.57913255  1
  Li  Li5  1  0.12435716  0.86346464  0.93927231  1
  Li  Li6  1  0.35442389  0.90773976  0.55617199  1
  Li  Li7  1  0.15515693  0.49520252  0.91466359  1
  Li  Li8  1  0.84484307  0.50479748  0.08533641  1
  Li  Li9  1  0.64557611  0.09226024  0.44382801  1
  Li  Li10  1  0.87564284  0.13653536  0.06072769  1
  Li  Li11  1  0.65911313  0.48070348  0.42086745  1
  Li  Li12  1  0.84484307  0.99520252  0.58533641  1
  Li  Li13  1  0.64557611  0.40773976  0.94382801  1
  Li  Li14  1  0.87564284  0.36346464  0.56072769  1
  Li  Li15  1  0.65911313  0.01929652  0.92086745  1
  Mn  Mn16  1  0.03836853  0.27948946  0.23285961  1
  Mn  Mn17  1  0.03836853  0.22051054  0.73285961  1
  Mn  Mn18  1  0.48071093  0.22013584  0.24979540  1
  Mn  Mn19  1  0.51928907  0.72013584  0.25020460  1
  Mn  Mn20  1  0.48071093  0.27986416  0.74979540  1
  Mn  Mn21  1  0.51928907  0.77986416  0.75020460  1
  Mn  Mn22  1  0.96163147  0.77948946  0.26714039  1
  Mn  Mn23  1  0.96163147  0.72051054  0.76714039  1
  F  F24  1  0.03707651  0.02576451  0.12130034  1
  F  F25  1  0.99170742  0.16468673  0.43690043  1
  F  F26  1  0.21088938  0.41470167  0.06539760  1
  F  F27  1  0.17792552  0.79133850  0.26168072  1
  F  F28  1  0.03707651  0.47423549  0.62129934  1
  F  F29  1  0.99170742  0.33531327  0.93690043  1
  F  F30  1  0.28605767  0.14220741  0.24365180  1
  F  F31  1  0.21088938  0.08529833  0.56539760  1
  F  F32  1  0.51143038  0.85701470  0.07843803  1
  F  F33  1  0.17792552  0.70866150  0.76168072  1
  F  F34  1  0.31611383  0.69190130  0.44480846  1
  F  F35  1  0.47480956  0.48226177  0.14996437  1
  F  F36  1  0.52519044  0.98226177  0.35003563  1
  F  F37  1  0.28605767  0.35779259  0.74365180  1
  F  F38  1  0.68388617  0.19190130  0.05519154  1
  F  F39  1  0.48856962  0.35701470  0.42156197  1
  F  F40  1  0.51143038  0.64298530  0.57843803  1
  F  F41  1  0.31611383  0.80809870  0.94480846  1
  F  F42  1  0.71394233  0.64220741  0.25634820  1
  F  F43  1  0.47480956  0.01773823  0.64996437  1
  F  F44  1  0.52519044  0.51773823  0.85003563  1
  F  F45  1  0.68388617  0.30809870  0.55519154  1
  F  F46  1  0.82207448  0.29133850  0.23831928  1
  F  F47  1  0.48856962  0.14298530  0.92156197  1
  F  F48  1  0.78911062  0.91470167  0.43460240  1
  F  F49  1  0.71394233  0.85779259  0.75634820  1
  F  F50  1  0.00829258  0.66468673  0.06309957  1
  F  F51  1  0.96292349  0.52576451  0.37870066  1
  F  F52  1  0.82207448  0.20866150  0.73831928  1
  F  F53  1  0.78911062  0.58529833  0.93460240  1
  F  F54  1  0.00829258  0.83531327  0.56309957  1
  F  F55  1  0.96292349  0.97423549  0.87870066  1
