# generated using pymatgen
data_Li2V3FeO8
_symmetry_space_group_name_H-M   'P 1'
_cell_length_a   5.95026357
_cell_length_b   5.95026315
_cell_length_c   5.95026313
_cell_angle_alpha   59.89224344
_cell_angle_beta   59.89224481
_cell_angle_gamma   59.89224457
_symmetry_Int_Tables_number   1
_chemical_formula_structural   Li2V3FeO8
_chemical_formula_sum   'Li2 V3 Fe1 O8'
_cell_volume   148.60400405
_cell_formula_units_Z   1
loop_
 _symmetry_equiv_pos_site_id
 _symmetry_equiv_pos_as_xyz
  1  'x, y, z'
loop_
 _atom_site_type_symbol
 _atom_site_label
 _atom_site_symmetry_multiplicity
 _atom_site_fract_x
 _atom_site_fract_y
 _atom_site_fract_z
 _atom_site_occupancy
  Li  Li0  1  0.12101787  0.12101787  0.12101787  1
  Li  Li1  1  0.50061048  0.50061048  0.50061048  1
  V  V2  1  0.01435983  0.49595970  0.49595970  1
  V  V3  1  0.49595970  0.01435983  0.49595970  1
  V  V4  1  0.49595970  0.49595970  0.01435983  1
  Fe  Fe5  1  0.87989416  0.87989416  0.87989416  1
  O  O6  1  0.25815863  0.25815863  0.25815863  1
  O  O7  1  0.24947912  0.24947912  0.71481689  1
  O  O8  1  0.24947912  0.71481689  0.24947912  1
  O  O9  1  0.71481689  0.24947912  0.24947912  1
  O  O10  1  0.27481075  0.75006678  0.75006678  1
  O  O11  1  0.75006678  0.27481075  0.75006678  1
  O  O12  1  0.75006678  0.75006678  0.27481075  1
  O  O13  1  0.74532018  0.74532018  0.74532018  1
