# generated using pymatgen
data_VFe3(PO4)6
_symmetry_space_group_name_H-M   'P 1'
_cell_length_a   8.86278262
_cell_length_b   8.86278284
_cell_length_c   8.86278273
_cell_angle_alpha   58.45220886
_cell_angle_beta   58.45220604
_cell_angle_gamma   58.45220852
_symmetry_Int_Tables_number   1
_chemical_formula_structural   VFe3(PO4)6
_chemical_formula_sum   'V1 Fe3 P6 O24'
_cell_volume   474.82668012
_cell_formula_units_Z   1
loop_
 _symmetry_equiv_pos_site_id
 _symmetry_equiv_pos_as_xyz
  1  'x, y, z'
loop_
 _atom_site_type_symbol
 _atom_site_label
 _atom_site_symmetry_multiplicity
 _atom_site_fract_x
 _atom_site_fract_y
 _atom_site_fract_z
 _atom_site_occupancy
  V  V0  1  0.85903290  0.85903290  0.85903290  1
  Fe  Fe1  1  0.14346343  0.14346343  0.14346343  1
  Fe  Fe2  1  0.35790935  0.35790935  0.35790935  1
  Fe  Fe3  1  0.64216463  0.64216463  0.64216463  1
  P  P4  1  0.03353673  0.75020573  0.46787377  1
  P  P5  1  0.46787377  0.03353673  0.75020573  1
  P  P6  1  0.75020573  0.46787377  0.03353673  1
  P  P7  1  0.24936466  0.53495884  0.96550784  1
  P  P8  1  0.53495884  0.96550784  0.24936466  1
  P  P9  1  0.96550784  0.24936466  0.53495884  1
  O  O10  1  0.13816724  0.26650264  0.51567270  1
  O  O11  1  0.26650264  0.51567270  0.13816724  1
  O  O12  1  0.06033474  0.92134485  0.28814725  1
  O  O13  1  0.51567270  0.13816724  0.26650264  1
  O  O14  1  0.21005914  0.57556029  0.45216446  1
  O  O15  1  0.99454691  0.78662692  0.64123037  1
  O  O16  1  0.28814725  0.06033474  0.92134485  1
  O  O17  1  0.45216446  0.21005914  0.57556029  1
  O  O18  1  0.57556029  0.45216446  0.21005914  1
  O  O19  1  0.22554135  0.36411859  0.98926025  1
  O  O20  1  0.07100917  0.71500852  0.93201619  1
  O  O21  1  0.36411859  0.98926025  0.22554135  1
  O  O22  1  0.64123037  0.99454691  0.78662692  1
  O  O23  1  0.92134485  0.28814725  0.06033474  1
  O  O24  1  0.78662692  0.64123037  0.99454691  1
  O  O25  1  0.41895961  0.56348413  0.78677609  1
  O  O26  1  0.56348413  0.78677609  0.41895961  1
  O  O27  1  0.71500852  0.93201619  0.07100917  1
  O  O28  1  0.98926025  0.22554135  0.36411859  1
  O  O29  1  0.78677609  0.41895961  0.56348413  1
  O  O30  1  0.49011914  0.86235979  0.72697279  1
  O  O31  1  0.93201619  0.07100917  0.71500852  1
  O  O32  1  0.72697279  0.49011914  0.86235979  1
  O  O33  1  0.86235979  0.72697279  0.49011914  1
