# generated using pymatgen
data_Fe5(OF4)2
_symmetry_space_group_name_H-M   'P 1'
_cell_length_a   4.84766832
_cell_length_b   7.96787903
_cell_length_c   10.13270718
_cell_angle_alpha   108.89913330
_cell_angle_beta   91.89777965
_cell_angle_gamma   89.11386077
_symmetry_Int_Tables_number   1
_chemical_formula_structural   Fe5(OF4)2
_chemical_formula_sum   'Fe10 O4 F16'
_cell_volume   370.07518295
_cell_formula_units_Z   2
loop_
 _symmetry_equiv_pos_site_id
 _symmetry_equiv_pos_as_xyz
  1  'x, y, z'
loop_
 _atom_site_type_symbol
 _atom_site_label
 _atom_site_symmetry_multiplicity
 _atom_site_fract_x
 _atom_site_fract_y
 _atom_site_fract_z
 _atom_site_occupancy
  Fe  Fe0  1  0.49833054  0.30152734  0.89475284  1
  Fe  Fe1  1  0.51174814  0.09032709  0.30601447  1
  Fe  Fe2  1  0.49579239  0.90203609  0.69653315  1
  Fe  Fe3  1  0.53169312  0.68904418  0.10831338  1
  Fe  Fe4  1  0.51082740  0.50583717  0.51108564  1
  Fe  Fe5  1  0.97229292  0.60744186  0.78641639  1
  Fe  Fe6  1  0.02459038  0.19727052  0.61057208  1
  Fe  Fe7  1  0.98251996  0.80673349  0.39314608  1
  Fe  Fe8  1  0.98094194  0.40191655  0.19156101  1
  Fe  Fe9  1  0.00562726  0.99344872  0.00140862  1
  O  O10  1  0.67871556  0.68678354  0.68004133  1
  O  O11  1  0.69581734  0.45186717  0.07298699  1
  O  O12  1  0.69114632  0.84919510  0.26850476  1
  O  O13  1  0.32228092  0.13900598  0.73639045  1
  F  F14  1  0.78637062  0.75611318  0.97999396  1
  F  F15  1  0.78831659  0.96437481  0.58260900  1
  F  F16  1  0.81572512  0.54335912  0.36714306  1
  F  F17  1  0.79200422  0.36323257  0.78576796  1
  F  F18  1  0.81732666  0.17211467  0.18292620  1
  F  F19  1  0.70360777  0.06622556  0.88642487  1
  F  F20  1  0.70873944  0.26122666  0.48625145  1
  F  F21  1  0.28810511  0.75395369  0.51806700  1
  F  F22  1  0.29971152  0.34162270  0.31785824  1
  F  F23  1  0.30008587  0.91759655  0.11247468  1
  F  F24  1  0.30026317  0.53759868  0.92248681  1
  F  F25  1  0.19321495  0.44176677  0.62154462  1
  F  F26  1  0.19275820  0.04496390  0.42013003  1
  F  F27  1  0.20552488  0.84494946  0.81958716  1
  F  F28  1  0.20368065  0.24816373  0.02962941  1
  F  F29  1  0.20224203  0.62030212  0.20937836  1
