# generated using pymatgen
data_Fe5(OF4)2
_symmetry_space_group_name_H-M   'P 1'
_cell_length_a   4.80366143
_cell_length_b   13.54452587
_cell_length_c   5.80071749
_cell_angle_alpha   101.15726886
_cell_angle_beta   88.86104968
_cell_angle_gamma   90.85342311
_symmetry_Int_Tables_number   1
_chemical_formula_structural   Fe5(OF4)2
_chemical_formula_sum   'Fe10 O4 F16'
_cell_volume   370.18405825
_cell_formula_units_Z   2
loop_
 _symmetry_equiv_pos_site_id
 _symmetry_equiv_pos_as_xyz
  1  'x, y, z'
loop_
 _atom_site_type_symbol
 _atom_site_label
 _atom_site_symmetry_multiplicity
 _atom_site_fract_x
 _atom_site_fract_y
 _atom_site_fract_z
 _atom_site_occupancy
  Fe  Fe0  1  0.48065704  0.01017740  0.50204962  1
  Fe  Fe1  1  0.52704527  0.40267753  0.28997636  1
  Fe  Fe2  1  0.48984746  0.19724070  0.88754727  1
  Fe  Fe3  1  0.50982086  0.60428168  0.69272665  1
  Fe  Fe4  1  0.51047134  0.80231090  0.09501384  1
  Fe  Fe5  1  0.99800505  0.40565181  0.81347868  1
  Fe  Fe6  1  0.96362012  0.79502725  0.61860136  1
  Fe  Fe7  1  0.02113931  0.19753910  0.40718548  1
  Fe  Fe8  1  0.97223937  0.59782555  0.21897520  1
  Fe  Fe9  1  0.98939355  0.99036150  0.99351869  1
  O  O10  1  0.80488801  0.85353951  0.90445148  1
  O  O11  1  0.80910093  0.66138441  0.50934166  1
  O  O12  1  0.80327452  0.46537804  0.13374067  1
  O  O13  1  0.30790292  0.13173913  0.57843903  1
  F  F14  1  0.81005742  0.26411516  0.72409729  1
  F  F15  1  0.79239015  0.05793043  0.31638329  1
  F  F16  1  0.70318017  0.05379689  0.80245254  1
  F  F17  1  0.68513716  0.45447322  0.60915695  1
  F  F18  1  0.70774343  0.65648005  0.02258320  1
  F  F19  1  0.70339807  0.86911990  0.42741093  1
  F  F20  1  0.69373732  0.26551726  0.22639098  1
  F  F21  1  0.31497169  0.34527021  0.99775092  1
  F  F22  1  0.28974694  0.74053341  0.77262268  1
  F  F23  1  0.30552279  0.94545100  0.19636573  1
  F  F24  1  0.29816653  0.53413662  0.37126089  1
  F  F25  1  0.18718416  0.13841802  0.07767190  1
  F  F26  1  0.20728384  0.92846052  0.65940547  1
  F  F27  1  0.20145062  0.54745280  0.89690865  1
  F  F28  1  0.21500262  0.34718451  0.47725348  1
  F  F29  1  0.19762334  0.73652548  0.27723811  1
