# generated using pymatgen
data_LiVSiO4
_symmetry_space_group_name_H-M   'P 1'
_cell_length_a   10.04366449
_cell_length_b   10.24638849
_cell_length_c   17.28046904
_cell_angle_alpha   105.87261088
_cell_angle_beta   106.89432389
_cell_angle_gamma   60.65235000
_symmetry_Int_Tables_number   1
_chemical_formula_structural   LiVSiO4
_chemical_formula_sum   'Li16 V16 Si16 O64'
_cell_volume   1464.79538086
_cell_formula_units_Z   16
loop_
 _symmetry_equiv_pos_site_id
 _symmetry_equiv_pos_as_xyz
  1  'x, y, z'
loop_
 _atom_site_type_symbol
 _atom_site_label
 _atom_site_symmetry_multiplicity
 _atom_site_fract_x
 _atom_site_fract_y
 _atom_site_fract_z
 _atom_site_occupancy
  Li  Li0  1  0.62687302  0.99508901  0.18447185  1
  Li  Li1  1  0.06475559  0.98883863  0.68731348  1
  Li  Li2  1  0.81793219  0.88246284  0.43605635  1
  Li  Li3  1  0.38200199  0.81994684  0.43670850  1
  Li  Li4  1  0.73701231  0.88340022  0.93602254  1
  Li  Li5  1  0.23515014  0.82001337  0.93724618  1
  Li  Li6  1  0.11890424  0.56502107  0.18796700  1
  Li  Li7  1  0.63371926  0.48883863  0.18731348  1
  Li  Li8  1  0.00555472  0.55527928  0.68788307  1
  Li  Li9  1  0.56251081  0.49508901  0.68447185  1
  Li  Li10  1  0.31561001  0.38340022  0.43602254  1
  Li  Li11  1  0.88208167  0.32001337  0.43724618  1
  Li  Li12  1  0.73566033  0.38246284  0.93605635  1
  Li  Li13  1  0.23475967  0.31994684  0.93670850  1
  Li  Li14  1  0.12704807  0.05527928  0.18788307  1
  Li  Li15  1  0.50404269  0.06502107  0.68796700  1
  V  V16  1  0.49847268  0.94178737  0.31255856  1
  V  V17  1  0.37440845  0.00104857  0.81359733  1
  V  V18  1  0.86935504  0.94489215  0.81328516  1
  V  V19  1  0.76408153  0.67949253  0.06257782  1
  V  V20  1  0.26159921  0.61498465  0.06448116  1
  V  V21  1  0.12079443  0.68172486  0.56314044  1
  V  V22  1  0.68752750  0.61430170  0.56364681  1
  V  V23  1  0.43814032  0.50104857  0.31359733  1
  V  V24  1  0.99903798  0.44489215  0.31328516  1
  V  V25  1  0.37020440  0.50610062  0.81292260  1
  V  V26  1  0.87229851  0.44178737  0.81255856  1
  V  V27  1  0.76062115  0.18172486  0.06314044  1
  V  V28  1  0.26181760  0.11430070  0.06364681  1
  V  V29  1  0.61900476  0.17949253  0.56257782  1
  V  V30  1  0.18789729  0.11498465  0.56448116  1
  V  V31  1  0.93661759  0.00610062  0.31292260  1
  Si  Si32  1  0.93889205  0.87251232  0.12216939  1
  Si  Si33  1  0.44090288  0.80984840  0.12396681  1
  Si  Si34  1  0.81295633  0.86911140  0.62294474  1
  Si  Si35  1  0.37346555  0.81409296  0.62440692  1
  Si  Si36  1  0.12518950  0.68797655  0.37381669  1
  Si  Si37  1  0.68558623  0.62592455  0.37478606  1
  Si  Si38  1  0.56336382  0.68373517  0.87374427  1
  Si  Si39  1  0.06154162  0.62837197  0.87540399  1
  Si  Si40  1  0.94087700  0.36911140  0.12294474  1
  Si  Si41  1  0.43684841  0.31409296  0.12440692  1
  Si  Si42  1  0.31076501  0.37251232  0.62216939  1
  Si  Si43  1  0.87321454  0.30984840  0.62396681  1
  Si  Si44  1  0.62664629  0.18373517  0.37374427  1
  Si  Si45  1  0.18549139  0.12837197  0.37540399  1
  Si  Si46  1  0.56064964  0.18797655  0.87381669  1
  Si  Si47  1  0.06327428  0.12592455  0.87478606  1
  O  O48  1  0.36461065  0.99351881  0.38888742  1
  O  O49  1  0.32324906  0.89776135  0.04579956  1
  O  O50  1  0.85956889  0.92596250  0.20359198  1
  O  O51  1  0.37000505  0.91965601  0.20616611  1
  O  O52  1  0.82218438  0.82293493  0.04477994  1
  O  O53  1  0.61625432  0.79418908  0.13496415  1
  O  O54  1  0.98760674  0.86273237  0.38366580  1
  O  O55  1  0.03158467  0.99189312  0.88873566  1
  O  O56  1  0.32290837  0.89838712  0.54432309  1
  O  O57  1  0.41467410  0.93130856  0.70304688  1
  O  O58  1  0.92124013  0.91405284  0.70738270  1
  O  O59  1  0.11099051  0.72627412  0.13583900  1
  O  O60  1  0.90166789  0.82578465  0.54639618  1
  O  O61  1  0.68571460  0.77564412  0.35715068  1
  O  O62  1  0.22738584  0.79499755  0.63614183  1
  O  O63  1  0.44914069  0.64115032  0.11072146  1
  O  O64  1  0.54017002  0.85741841  0.88301629  1
  O  O65  1  0.27853159  0.68968929  0.35848117  1
  O  O66  1  0.80048047  0.72199345  0.63486797  1
  O  O67  1  0.60584273  0.66636192  0.45454271  1
  O  O68  1  0.89336866  0.77827368  0.85765900  1
  O  O69  1  0.07169155  0.57750539  0.29573847  1
  O  O70  1  0.57843562  0.56511224  0.29656993  1
  O  O71  1  0.16700753  0.60823718  0.45428122  1
  O  O72  1  0.95239901  0.51385629  0.10663575  1
  O  O73  1  0.52079563  0.64557935  0.61199295  1
  O  O74  1  0.39013656  0.69212043  0.85904110  1
  O  O75  1  0.18087786  0.66816197  0.95523888  1
  O  O76  1  0.86525887  0.49189312  0.38873566  1
  O  O77  1  0.32302661  0.39838712  0.04432309  1
  O  O78  1  0.35706323  0.43130856  0.20304688  1
  O  O79  1  0.87208874  0.41405284  0.20738270  1
  O  O80  1  0.14753868  0.57120247  0.79585548  1
  O  O81  1  0.64913091  0.56896215  0.79663105  1
  O  O82  1  0.13770021  0.51600991  0.60514895  1
  O  O83  1  0.67951608  0.60554041  0.95489990  1
  O  O84  1  0.81894265  0.32578465  0.04639618  1
  O  O85  1  0.61375844  0.29499755  0.13614183  1
  O  O86  1  0.03075797  0.49351881  0.88888742  1
  O  O87  1  0.48542786  0.35741841  0.38301629  1
  O  O88  1  0.82479015  0.39776135  0.54579956  1
  O  O89  1  0.41806059  0.42596250  0.70359198  1
  O  O90  1  0.91650505  0.41965601  0.70616611  1
  O  O91  1  0.11239406  0.22199345  0.13486797  1
  O  O92  1  0.18601666  0.27827368  0.35765900  1
  O  O93  1  0.39966164  0.32293493  0.54477994  1
  O  O94  1  0.44561797  0.14557935  0.11199295  1
  O  O95  1  0.72452075  0.29418908  0.63496415  1
  O  O96  1  0.53332770  0.36273237  0.88366580  1
  O  O97  1  0.77678311  0.19212043  0.35904110  1
  O  O98  1  0.29857437  0.22627412  0.63583900  1
  O  O99  1  0.10619904  0.16816297  0.45523888  1
  O  O100  1  0.89579196  0.27564412  0.85715068  1
  O  O101  1  0.07711434  0.07120247  0.29585548  1
  O  O102  1  0.57853799  0.06896215  0.29663105  1
  O  O103  1  0.95143883  0.01600991  0.10514895  1
  O  O104  1  0.66984241  0.10554041  0.45489990  1
  O  O105  1  0.02043045  0.14115032  0.61072146  1
  O  O106  1  0.39026030  0.18968929  0.85848117  1
  O  O107  1  0.18233806  0.16636192  0.95454271  1
  O  O108  1  0.64654153  0.07750539  0.79573847  1
  O  O109  1  0.15302107  0.06511224  0.79656993  1
  O  O110  1  0.67903652  0.10823718  0.95428122  1
  O  O111  1  0.64038045  0.01385729  0.60663575  1
