# generated using pymatgen
data_Li8Mg3Cu9(SiO3)16
_symmetry_space_group_name_H-M   'P 1'
_cell_length_a   8.42263940
_cell_length_b   8.28610442
_cell_length_c   14.20866924
_cell_angle_alpha   74.21205523
_cell_angle_beta   76.13785423
_cell_angle_gamma   72.84744448
_symmetry_Int_Tables_number   1
_chemical_formula_structural   Li8Mg3Cu9(SiO3)16
_chemical_formula_sum   'Li8 Mg3 Cu9 Si16 O48'
_cell_volume   897.98864220
_cell_formula_units_Z   1
loop_
 _symmetry_equiv_pos_site_id
 _symmetry_equiv_pos_as_xyz
  1  'x, y, z'
loop_
 _atom_site_type_symbol
 _atom_site_label
 _atom_site_symmetry_multiplicity
 _atom_site_fract_x
 _atom_site_fract_y
 _atom_site_fract_z
 _atom_site_occupancy
  Li  Li0  1  0.23487369  0.04725742  0.35549947  1
  Li  Li1  1  0.48467348  0.54726489  0.10551838  1
  Li  Li2  1  0.01532652  0.45273511  0.39448162  1
  Li  Li3  1  0.26512631  0.95274258  0.14450053  1
  Li  Li4  1  0.73432236  0.04756641  0.85580420  1
  Li  Li5  1  0.98632004  0.54743556  0.60491659  1
  Li  Li6  1  0.51367996  0.45256444  0.89508341  1
  Li  Li7  1  0.76567764  0.95243359  0.64419580  1
  Mg  Mg8  1  0.99992155  0.00008898  0.00057417  1
  Mg  Mg9  1  0.50007945  -0.00008898  0.49942583  1
  Mg  Mg10  1  0.75000000  0.50000000  0.25000000  1
  Cu  Cu11  1  0.52642544  0.25595324  0.29041578  1
  Cu  Cu12  1  0.77669031  0.75595214  0.04050703  1
  Cu  Cu13  1  0.72330969  0.24404786  0.45949297  1
  Cu  Cu14  1  0.97357456  0.74404676  0.20958422  1
  Cu  Cu15  1  0.02600096  0.25632006  0.79065787  1
  Cu  Cu16  1  0.27669297  0.75510951  0.54015111  1
  Cu  Cu17  1  0.25000000  0.50000000  0.75000000  1
  Cu  Cu18  1  0.22330703  0.24489049  0.95984889  1
  Cu  Cu19  1  0.47399904  0.74367994  0.70934213  1
  Si  Si20  1  0.58938263  0.14722995  0.03794122  1
  Si  Si21  1  0.81358410  0.40865250  0.00091700  1
  Si  Si22  1  0.93670801  0.09120041  0.24924995  1
  Si  Si23  1  0.16075168  0.35267852  0.21235671  1
  Si  Si24  1  0.08953005  0.14704772  0.53783732  1
  Si  Si25  1  0.33924832  0.64732148  0.28764329  1
  Si  Si26  1  0.31367283  0.40852565  0.49928812  1
  Si  Si27  1  0.43677515  0.09185075  0.74907882  1
  Si  Si28  1  0.56329199  0.90879959  0.25075005  1
  Si  Si29  1  0.68641590  0.59134750  0.49908300  1
  Si  Si30  1  0.65959749  0.35288460  0.71160578  1
  Si  Si31  1  0.91061737  0.85277005  0.46205878  1
  Si  Si32  1  0.84040251  0.64711540  0.78839422  1
  Si  Si33  1  0.06322485  0.90814925  0.75092118  1
  Si  Si34  1  0.18632717  0.59147435  0.00071188  1
  Si  Si35  1  0.41046995  0.85295228  0.96216268  1
  O  O36  1  0.50497717  0.05861982  0.15072048  1
  O  O37  1  0.64451337  0.32355696  0.04387832  1
  O  O38  1  0.10551661  0.17657913  0.20609355  1
  O  O39  1  0.56836983  0.00358905  0.33590454  1
  O  O40  1  0.24620757  0.44166335  0.10026273  1
  O  O41  1  0.81810394  0.50376053  0.08601331  1
  O  O42  1  0.77214452  0.24044674  0.28087994  1
  O  O43  1  0.28698183  0.27976854  0.29233877  1
  O  O44  1  0.25755049  0.00893894  0.49521289  1
  O  O45  1  0.02185172  0.74150962  0.03145942  1
  O  O46  1  0.53727801  0.78029765  0.04184337  1
  O  O47  1  0.99237768  0.49077513  0.25502172  1
  O  O48  1  0.50762232  0.50922487  0.24497828  1
  O  O49  1  0.96272199  0.21970235  0.45815663  1
  O  O50  1  0.47814828  0.25849038  0.46854058  1
  O  O51  1  0.24244951  0.99106106  0.00478711  1
  O  O52  1  0.21301817  0.72023146  0.20766123  1
  O  O53  1  0.00556434  0.05789187  0.65087545  1
  O  O54  1  0.72785548  0.75955326  0.21912006  1
  O  O55  1  0.68189606  0.49623947  0.41398669  1
  O  O56  1  0.14453058  0.32325999  0.54389653  1
  O  O57  1  0.25379243  0.55833665  0.39973727  1
  O  O58  1  0.93163017  0.99641095  0.16409546  1
  O  O59  1  0.60554609  0.17634877  0.70593848  1
  O  O60  1  0.39448339  0.82342087  0.29390645  1
  O  O61  1  0.06892078  0.00387852  0.83549956  1
  O  O62  1  0.74463811  0.44164562  0.59933505  1
  O  O63  1  0.85548663  0.67644304  0.45612168  1
  O  O64  1  0.32196358  0.50518307  0.58173704  1
  O  O65  1  0.27138049  0.24240201  0.78074609  1
  O  O66  1  0.99502283  0.94138018  0.34927952  1
  O  O67  1  0.78588160  0.28157006  0.79168859  1
  O  O68  1  0.75764454  0.00928580  0.99494142  1
  O  O69  1  0.52249036  0.74074729  0.53117914  1
  O  O70  1  0.03659661  0.78040415  0.54219260  1
  O  O71  1  0.49011186  0.49096671  0.75539007  1
  O  O72  1  0.00988814  0.50903329  0.74460993  1
  O  O73  1  0.46340339  0.21959585  0.95780740  1
  O  O74  1  0.97750964  0.25925271  0.96882086  1
  O  O75  1  0.74235546  0.99071420  0.50505858  1
  O  O76  1  0.71411840  0.71842994  0.70831141  1
  O  O77  1  0.22861951  0.75759799  0.71925391  1
  O  O78  1  0.17803642  0.49481693  0.91826296  1
  O  O79  1  0.75536189  0.55835438  0.90066495  1
  O  O80  1  0.43107922  0.99612148  0.66450044  1
  O  O81  1  0.89445391  0.82365123  0.79406152  1
  O  O82  1  0.35547042  0.67674001  0.95610347  1
  O  O83  1  0.49443566  0.94210813  0.84912455  1
