# generated using pymatgen
data_Li4Cr3Sn3(SbO8)2
_symmetry_space_group_name_H-M   'P 1'
_cell_length_a   6.19363684
_cell_length_b   6.22664458
_cell_length_c   10.12999185
_cell_angle_alpha   90.00223085
_cell_angle_beta   89.55825797
_cell_angle_gamma   120.17681136
_symmetry_Int_Tables_number   1
_chemical_formula_structural   Li4Cr3Sn3(SbO8)2
_chemical_formula_sum   'Li4 Cr3 Sn3 Sb2 O16'
_cell_volume   337.71148225
_cell_formula_units_Z   1
loop_
 _symmetry_equiv_pos_site_id
 _symmetry_equiv_pos_as_xyz
  1  'x, y, z'
loop_
 _atom_site_type_symbol
 _atom_site_label
 _atom_site_symmetry_multiplicity
 _atom_site_fract_x
 _atom_site_fract_y
 _atom_site_fract_z
 _atom_site_occupancy
  Li  Li0  1  0.33873128  0.66939734  0.89022252  1
  Li  Li1  1  0.98401244  0.99201815  0.99110563  1
  Li  Li2  1  0.98608437  0.99303525  0.49901123  1
  Li  Li3  1  0.66761900  0.33383385  0.39784767  1
  Cr  Cr4  1  0.66126775  0.83066534  0.21534518  1
  Cr  Cr5  1  0.83165364  0.66226513  0.71575547  1
  Cr  Cr6  1  0.83164268  0.16937809  0.71573926  1
  Sn  Sn7  1  0.16791935  0.83159639  0.21573161  1
  Sn  Sn8  1  0.16793629  0.33636089  0.21573765  1
  Sn  Sn9  1  0.33568684  0.16783462  0.71508727  1
  Sb  Sb10  1  0.34707549  0.67353143  0.50227480  1
  Sb  Sb11  1  0.68091986  0.34047634  0.98361066  1
  O  O12  1  0.15094264  0.84268473  0.60145252  1
  O  O13  1  0.02327975  0.51166860  0.33357660  1
  O  O14  1  0.34028291  0.67014227  0.10515553  1
  O  O15  1  0.99010821  0.99508960  0.31701194  1
  O  O16  1  0.99185676  0.99595965  0.81136118  1
  O  O17  1  0.15093547  0.30823523  0.60141847  1
  O  O18  1  0.49019326  0.97099405  0.33039625  1
  O  O19  1  0.49021869  0.51926981  0.33038686  1
  O  O20  1  0.30802451  0.15401349  0.09657163  1
  O  O21  1  0.68900935  0.84449159  0.60868314  1
  O  O22  1  0.52262684  0.48787545  0.83582723  1
  O  O23  1  0.52264007  0.03478742  0.83582116  1
  O  O24  1  0.67343921  0.33672838  0.61053922  1
  O  O25  1  0.84378413  0.69420917  0.10174195  1
  O  O26  1  0.96833809  0.48415972  0.82867189  1
  O  O27  1  0.84376912  0.14959902  0.10175649  1
