# generated using pymatgen
data_Cr3Fe(PO4)6
_symmetry_space_group_name_H-M   'P 1'
_cell_length_a   8.82019183
_cell_length_b   8.82019135
_cell_length_c   8.82019152
_cell_angle_alpha   58.38213291
_cell_angle_beta   58.38212764
_cell_angle_gamma   58.38213396
_symmetry_Int_Tables_number   1
_chemical_formula_structural   Cr3Fe(PO4)6
_chemical_formula_sum   'Cr3 Fe1 P6 O24'
_cell_volume   467.22898897
_cell_formula_units_Z   1
loop_
 _symmetry_equiv_pos_site_id
 _symmetry_equiv_pos_as_xyz
  1  'x, y, z'
loop_
 _atom_site_type_symbol
 _atom_site_label
 _atom_site_symmetry_multiplicity
 _atom_site_fract_x
 _atom_site_fract_y
 _atom_site_fract_z
 _atom_site_occupancy
  Cr  Cr0  1  0.14288812  0.14288812  0.14288812  1
  Cr  Cr1  1  0.35725811  0.35725811  0.35725811  1
  Cr  Cr2  1  0.64270674  0.64270674  0.64270674  1
  Fe  Fe3  1  0.85693760  0.85693760  0.85693760  1
  P  P4  1  0.03427978  0.75058391  0.46418151  1
  P  P5  1  0.46418151  0.03427978  0.75058391  1
  P  P6  1  0.75058391  0.46418151  0.03427978  1
  P  P7  1  0.25215234  0.53236611  0.96674340  1
  P  P8  1  0.53236611  0.96674340  0.25215234  1
  P  P9  1  0.96674340  0.25215234  0.53236611  1
  O  O10  1  0.13609121  0.28700191  0.50192692  1
  O  O11  1  0.28700191  0.50192692  0.13609121  1
  O  O12  1  0.06296324  0.92284450  0.28058971  1
  O  O13  1  0.50192692  0.13609121  0.28700191  1
  O  O14  1  0.21860706  0.57875959  0.42986581  1
  O  O15  1  0.01507702  0.77248065  0.63452825  1
  O  O16  1  0.28058971  0.06296324  0.92284450  1
  O  O17  1  0.42986581  0.21860706  0.57875959  1
  O  O18  1  0.57875959  0.42986581  0.21860706  1
  O  O19  1  0.22276237  0.36192680  0.99211270  1
  O  O20  1  0.08099521  0.71432324  0.94235933  1
  O  O21  1  0.36192680  0.99211270  0.22276237  1
  O  O22  1  0.63452825  0.01507702  0.77248065  1
  O  O23  1  0.92284450  0.28058971  0.06296324  1
  O  O24  1  0.77248065  0.63452825  0.01507702  1
  O  O25  1  0.42617183  0.55931366  0.78389463  1
  O  O26  1  0.55931366  0.78389463  0.42617183  1
  O  O27  1  0.71432324  0.94235933  0.08099521  1
  O  O28  1  0.99211270  0.22276237  0.36192680  1
  O  O29  1  0.78389463  0.42617183  0.55931366  1
  O  O30  1  0.49107520  0.86296437  0.72126719  1
  O  O31  1  0.94235933  0.08099521  0.71432324  1
  O  O32  1  0.72126719  0.49107520  0.86296437  1
  O  O33  1  0.86296437  0.72126719  0.49107520  1
