# generated using pymatgen
data_Li8NbO6
_symmetry_space_group_name_H-M   'P 1'
_cell_length_a   5.53880116
_cell_length_b   6.10127533
_cell_length_c   5.43109000
_cell_angle_alpha   117.31810470
_cell_angle_beta   119.18760782
_cell_angle_gamma   63.14123686
_symmetry_Int_Tables_number   1
_chemical_formula_structural   Li8NbO6
_chemical_formula_sum   'Li8 Nb1 O6'
_cell_volume   136.07403166
_cell_formula_units_Z   1
loop_
 _symmetry_equiv_pos_site_id
 _symmetry_equiv_pos_as_xyz
  1  'x, y, z'
loop_
 _atom_site_type_symbol
 _atom_site_label
 _atom_site_symmetry_multiplicity
 _atom_site_fract_x
 _atom_site_fract_y
 _atom_site_fract_z
 _atom_site_occupancy
  Li  Li0  1  0.23586132  0.36187263  0.49254498  1
  Li  Li1  1  0.10112170  0.64482971  0.23285537  1
  Li  Li2  1  0.49680552  0.63489710  0.89884629  1
  Li  Li3  1  0.36335327  0.96701566  0.66891504  1
  Li  Li4  1  0.63664673  0.03298434  0.33108496  1
  Li  Li5  1  0.50319448  0.36510290  0.10115371  1
  Li  Li6  1  0.89887830  0.35517029  0.76714463  1
  Li  Li7  1  0.76413868  0.63812737  0.50745502  1
  Nb  Nb8  1  0.00000000  0.00000000  0.00000000  1
  O  O9  1  0.09436868  0.75583579  0.62389064  1
  O  O10  1  0.23722280  0.24384844  0.08970656  1
  O  O11  1  0.61085870  0.24176140  0.76054935  1
  O  O12  1  0.38914130  0.75823860  0.23945065  1
  O  O13  1  0.76277720  0.75615156  0.91029344  1
  O  O14  1  0.90563032  0.24416421  0.37610936  1
