# generated using pymatgen
data_TbZr4O10
_symmetry_space_group_name_H-M   'P 1'
_cell_length_a   6.37894122
_cell_length_b   5.19435928
_cell_length_c   6.37894122
_cell_angle_alpha   114.02586581
_cell_angle_beta   80.45801310
_cell_angle_gamma   114.02586581
_symmetry_Int_Tables_number   1
_chemical_formula_structural   TbZr4O10
_chemical_formula_sum   'Tb1 Zr4 O10'
_cell_volume   176.32537762
_cell_formula_units_Z   1
loop_
 _symmetry_equiv_pos_site_id
 _symmetry_equiv_pos_as_xyz
  1  'x, y, z'
loop_
 _atom_site_type_symbol
 _atom_site_label
 _atom_site_symmetry_multiplicity
 _atom_site_fract_x
 _atom_site_fract_y
 _atom_site_fract_z
 _atom_site_occupancy
  Tb  Tb0  1  0.20000000  0.80000000  0.40000000  1
  Zr  Zr1  1  0.39764460  0.59993777  0.80223093  1
  Zr  Zr2  1  0.00235540  0.00006223  0.99776907  1
  Zr  Zr3  1  0.79776907  0.19770684  0.59764460  1
  Zr  Zr4  1  0.60223093  0.40229316  0.20235540  1
  O  O5  1  0.09367036  0.64328868  0.70931642  1
  O  O6  1  0.09367036  0.15969911  0.70931642  1
  O  O7  1  0.70000000  0.05000000  0.90000000  1
  O  O8  1  0.30632964  0.44030089  0.09068358  1
  O  O9  1  0.70000000  0.55000000  0.90000000  1
  O  O10  1  0.50931642  0.74961731  0.50632964  1
  O  O11  1  0.50931642  0.26602774  0.50632964  1
  O  O12  1  0.30632964  0.95671132  0.09068358  1
  O  O13  1  0.89068358  0.33397226  0.29367036  1
  O  O14  1  0.89068358  0.85038269  0.29367036  1
