# generated using pymatgen
data_Li2MnPHO5
_symmetry_space_group_name_H-M   'P 1'
_cell_length_a   5.23353757
_cell_length_b   5.68815932
_cell_length_c   7.92997220
_cell_angle_alpha   69.70663744
_cell_angle_beta   72.79400176
_cell_angle_gamma   95.35214023
_symmetry_Int_Tables_number   1
_chemical_formula_structural   Li2MnPHO5
_chemical_formula_sum   'Li4 Mn2 P2 H2 O10'
_cell_volume   206.39075360
_cell_formula_units_Z   2
loop_
 _symmetry_equiv_pos_site_id
 _symmetry_equiv_pos_as_xyz
  1  'x, y, z'
loop_
 _atom_site_type_symbol
 _atom_site_label
 _atom_site_symmetry_multiplicity
 _atom_site_fract_x
 _atom_site_fract_y
 _atom_site_fract_z
 _atom_site_occupancy
  Li  Li0  1  0.01596473  0.37502423  0.20339620  1
  Li  Li1  1  0.39896009  0.68861601  0.19176760  1
  Li  Li2  1  0.90714892  0.52506451  0.84901446  1
  Li  Li3  1  0.16887442  0.01734853  0.58957919  1
  Mn  Mn4  1  0.00728958  0.99804252  0.99470243  1
  Mn  Mn5  1  0.52105300  0.49725023  0.52629049  1
  P  P6  1  0.44658870  0.15621801  0.21962990  1
  P  P7  1  0.56513981  0.86113480  0.76297525  1
  H  H8  1  0.96003925  0.29949744  0.66525158  1
  H  H9  1  0.00098064  0.73412305  0.33805790  1
  O  O10  1  0.76013553  0.24252101  0.11355450  1
  O  O11  1  0.29641997  0.19394890  0.07512277  1
  O  O12  1  0.67053624  0.14700939  0.62062846  1
  O  O13  1  0.34261490  0.32357462  0.33660130  1
  O  O14  1  0.10799743  0.31228195  0.71744590  1
  O  O15  1  0.91702764  0.66454337  0.26510787  1
  O  O16  1  0.70650556  0.68953533  0.66406617  1
  O  O17  1  0.36558823  0.86970669  0.36647377  1
  O  O18  1  0.65474456  0.81266585  0.94098603  1
  O  O19  1  0.24547079  0.78786156  0.82638125  1
