# generated using pymatgen
data_NaV5O8
_symmetry_space_group_name_H-M   'P 1'
_cell_length_a   8.64831903
_cell_length_b   8.64831903
_cell_length_c   8.64831903
_cell_angle_alpha   90.00000000
_cell_angle_beta   90.00000000
_cell_angle_gamma   90.00000000
_symmetry_Int_Tables_number   1
_chemical_formula_structural   NaV5O8
_chemical_formula_sum   'Na4 V20 O32'
_cell_volume   646.83737519
_cell_formula_units_Z   4
loop_
 _symmetry_equiv_pos_site_id
 _symmetry_equiv_pos_as_xyz
  1  'x, y, z'
loop_
 _atom_site_type_symbol
 _atom_site_label
 _atom_site_symmetry_multiplicity
 _atom_site_fract_x
 _atom_site_fract_y
 _atom_site_fract_z
 _atom_site_occupancy
  Na  Na0  1  0.12500000  0.87500000  0.37500000  1
  Na  Na1  1  0.37500000  0.12500000  0.87500000  1
  Na  Na2  1  0.62500000  0.62500000  0.62500000  1
  Na  Na3  1  0.87500000  0.37500000  0.12500000  1
  V  V4  1  0.99978917  0.99978917  0.99978917  1
  V  V5  1  0.00021083  0.49978917  0.50021083  1
  V  V6  1  0.12566230  0.12433770  0.62500000  1
  V  V7  1  0.12433770  0.62500000  0.12566230  1
  V  V8  1  0.12500000  0.37433770  0.87566230  1
  V  V9  1  0.25021083  0.25021083  0.25021083  1
  V  V10  1  0.24978917  0.74978917  0.75021083  1
  V  V11  1  0.37566230  0.37500000  0.62566230  1
  V  V12  1  0.37500000  0.62566230  0.37566230  1
  V  V13  1  0.37433770  0.87566230  0.12500000  1
  V  V14  1  0.50021083  0.00021083  0.49978917  1
  V  V15  1  0.49978917  0.50021083  0.00021083  1
  V  V16  1  0.62500000  0.12566230  0.12433770  1
  V  V17  1  0.62566230  0.37566230  0.37500000  1
  V  V18  1  0.62433770  0.87500000  0.87433770  1
  V  V19  1  0.75021083  0.24978917  0.74978917  1
  V  V20  1  0.74978917  0.75021083  0.24978917  1
  V  V21  1  0.87566230  0.12500000  0.37433770  1
  V  V22  1  0.87433770  0.62433770  0.87500000  1
  V  V23  1  0.87500000  0.87433770  0.62433770  1
  O  O24  1  0.14119941  0.38560615  0.10803017  1
  O  O25  1  0.14196983  0.86439385  0.10880059  1
  O  O26  1  0.13473281  0.36526719  0.63473281  1
  O  O27  1  0.10803017  0.14119941  0.38560615  1
  O  O28  1  0.11439385  0.89196983  0.64119941  1
  O  O29  1  0.10880059  0.14196983  0.86439385  1
  O  O30  1  0.13560615  0.60880059  0.35803017  1
  O  O31  1  0.11526719  0.61526719  0.88473281  1
  O  O32  1  0.38560615  0.10803017  0.14119941  1
  O  O33  1  0.38473281  0.38473281  0.38473281  1
  O  O34  1  0.35803017  0.13560615  0.60880059  1
  O  O35  1  0.36439385  0.39119941  0.85803017  1
  O  O36  1  0.36526719  0.63473281  0.13473281  1
  O  O37  1  0.39119941  0.85803017  0.36439385  1
  O  O38  1  0.35880059  0.61439385  0.60803017  1
  O  O39  1  0.39196983  0.85880059  0.88560615  1
  O  O40  1  0.63473281  0.13473281  0.36526719  1
  O  O41  1  0.60880059  0.35803017  0.13560615  1
  O  O42  1  0.60803017  0.35880059  0.61439385  1
  O  O43  1  0.61439385  0.60803017  0.35880059  1
  O  O44  1  0.64119941  0.11439385  0.89196983  1
  O  O45  1  0.64196983  0.63560615  0.89119941  1
  O  O46  1  0.61526719  0.88473281  0.11526719  1
  O  O47  1  0.63560615  0.89119941  0.64196983  1
  O  O48  1  0.86439385  0.10880059  0.14196983  1
  O  O49  1  0.88473281  0.11526719  0.61526719  1
  O  O50  1  0.85803017  0.36439385  0.39119941  1
  O  O51  1  0.89196983  0.64119941  0.11439385  1
  O  O52  1  0.89119941  0.64196983  0.63560615  1
  O  O53  1  0.88560615  0.39196983  0.85880059  1
  O  O54  1  0.85880059  0.88560615  0.39196983  1
  O  O55  1  0.86526719  0.86526719  0.86526719  1
