# generated using pymatgen
data_BaNb3NO7
_symmetry_space_group_name_H-M   'P 1'
_cell_length_a   9.11065671
_cell_length_b   10.75143991
_cell_length_c   3.89540933
_cell_angle_alpha   79.71422188
_cell_angle_beta   89.90050550
_cell_angle_gamma   90.64385662
_symmetry_Int_Tables_number   1
_chemical_formula_structural   BaNb3NO7
_chemical_formula_sum   'Ba2 Nb6 N2 O14'
_cell_volume   375.40736069
_cell_formula_units_Z   2
loop_
 _symmetry_equiv_pos_site_id
 _symmetry_equiv_pos_as_xyz
  1  'x, y, z'
loop_
 _atom_site_type_symbol
 _atom_site_label
 _atom_site_symmetry_multiplicity
 _atom_site_fract_x
 _atom_site_fract_y
 _atom_site_fract_z
 _atom_site_occupancy
  Ba  Ba0  1  0.24716058  0.96452546  0.01314512  1
  Ba  Ba1  1  0.75196656  0.03335004  0.98108231  1
  Nb  Nb2  1  0.04754118  0.27176830  0.36302757  1
  Nb  Nb3  1  0.24541914  0.47938361  0.76054644  1
  Nb  Nb4  1  0.43956117  0.26145038  0.36585646  1
  Nb  Nb5  1  0.56370486  0.72956005  0.64121128  1
  Nb  Nb6  1  0.75064787  0.51608492  0.23749825  1
  Nb  Nb7  1  0.92892178  0.72992079  0.62676900  1
  N  N8  1  0.74678542  0.58575091  0.70220819  1
  N  N9  1  0.90479648  0.40114349  0.30309642  1
  O  O10  1  0.06339089  0.86438790  0.55792862  1
  O  O11  1  0.10051721  0.30567988  0.84600780  1
  O  O12  1  0.09482103  0.59191653  0.70678622  1
  O  O13  1  0.25067682  0.42483423  0.28705558  1
  O  O14  1  0.25637896  0.15829273  0.41355560  1
  O  O15  1  0.40235095  0.59304867  0.70370722  1
  O  O16  1  0.40683157  0.30601881  0.84362940  1
  O  O17  1  0.43682416  0.86564914  0.56838071  1
  O  O18  1  0.57045430  0.13223439  0.42960315  1
  O  O19  1  0.58545359  0.70052943  0.14954289  1
  O  O20  1  0.58484105  0.40741670  0.29260763  1
  O  O21  1  0.75185650  0.84572105  0.57330591  1
  O  O22  1  0.91299080  0.69389477  0.14722262  1
  O  O23  1  0.93080113  0.12670781  0.43792460  1
