# generated using pymatgen
data_Li2MnV4FeO12
_symmetry_space_group_name_H-M   'P 1'
_cell_length_a   6.99287581
_cell_length_b   6.99287520
_cell_length_c   5.82796470
_cell_angle_alpha   74.53045167
_cell_angle_beta   105.46954162
_cell_angle_gamma   96.82539977
_symmetry_Int_Tables_number   1
_chemical_formula_structural   Li2MnV4FeO12
_chemical_formula_sum   'Li2 Mn1 V4 Fe1 O12'
_cell_volume   264.36502639
_cell_formula_units_Z   1
loop_
 _symmetry_equiv_pos_site_id
 _symmetry_equiv_pos_as_xyz
  1  'x, y, z'
loop_
 _atom_site_type_symbol
 _atom_site_label
 _atom_site_symmetry_multiplicity
 _atom_site_fract_x
 _atom_site_fract_y
 _atom_site_fract_z
 _atom_site_occupancy
  Li  Li0  1  0.24336919  0.24336919  0.25000000  1
  Li  Li1  1  0.75458925  0.75458925  0.75000000  1
  Mn  Mn2  1  0.91198332  0.91198332  0.25000000  1
  V  V3  1  0.19036768  0.60539466  0.76885859  1
  V  V4  1  0.39036348  0.79469923  0.27242800  1
  V  V5  1  0.60539466  0.19036768  0.73114141  1
  V  V6  1  0.79469923  0.39036348  0.22757200  1
  Fe  Fe7  1  0.08511847  0.08511847  0.75000000  1
  O  O8  1  0.01868474  0.79994589  0.65164489  1
  O  O9  1  0.10888653  0.35856340  0.84177292  1
  O  O10  1  0.21282623  0.97595358  0.15754227  1
  O  O11  1  0.36530370  0.64915787  0.56071748  1
  O  O12  1  0.35856340  0.10888653  0.65822708  1
  O  O13  1  0.36152877  0.64421955  0.06528117  1
  O  O14  1  0.64915787  0.36530370  0.93928252  1
  O  O15  1  0.62693027  0.90211419  0.32506267  1
  O  O16  1  0.64421955  0.36152877  0.43471883  1
  O  O17  1  0.79994589  0.01868474  0.84835511  1
  O  O18  1  0.90211419  0.62693027  0.17493733  1
  O  O19  1  0.97595358  0.21282623  0.34245773  1
