# generated using pymatgen
data_YNb2NO5
_symmetry_space_group_name_H-M   'P 1'
_cell_length_a   15.02838260
_cell_length_b   5.79674687
_cell_length_c   5.30567717
_cell_angle_alpha   90.27408296
_cell_angle_beta   89.72334335
_cell_angle_gamma   90.27351453
_symmetry_Int_Tables_number   1
_chemical_formula_structural   YNb2NO5
_chemical_formula_sum   'Y4 Nb8 N4 O20'
_cell_volume   462.19204614
_cell_formula_units_Z   4
loop_
 _symmetry_equiv_pos_site_id
 _symmetry_equiv_pos_as_xyz
  1  'x, y, z'
loop_
 _atom_site_type_symbol
 _atom_site_label
 _atom_site_symmetry_multiplicity
 _atom_site_fract_x
 _atom_site_fract_y
 _atom_site_fract_z
 _atom_site_occupancy
  Y  Y0  1  0.00203744  0.27372453  0.25223234  1
  Y  Y1  1  0.00225174  0.71357505  0.75630838  1
  Y  Y2  1  0.49936573  0.23991895  0.75453814  1
  Y  Y3  1  0.50130903  0.78801598  0.25589439  1
  Nb  Nb4  1  0.17028691  0.17607242  0.68930119  1
  Nb  Nb5  1  0.16910613  0.81390763  0.20549732  1
  Nb  Nb6  1  0.33085648  0.31324685  0.20208697  1
  Nb  Nb7  1  0.34098508  0.68329186  0.72041756  1
  Nb  Nb8  1  0.67259540  0.31577548  0.29049086  1
  Nb  Nb9  1  0.66506362  0.69730297  0.80425314  1
  Nb  Nb10  1  0.82987864  0.18538587  0.80432874  1
  Nb  Nb11  1  0.83966749  0.80803936  0.30113850  1
  N  N12  1  0.23945947  0.12495045  0.37167057  1
  N  N13  1  0.40640755  0.57496998  0.99502520  1
  N  N14  1  0.75288608  0.13322091  0.10559954  1
  N  N15  1  0.91791563  0.59348579  0.40892527  1
  O  O16  1  0.08736120  0.58591605  0.09041015  1
  O  O17  1  0.08582943  0.39537757  0.59137816  1
  O  O18  1  0.09222424  0.05279052  0.98285611  1
  O  O19  1  0.09086254  0.91902264  0.48901213  1
  O  O20  1  0.24120822  0.86449857  0.87345678  1
  O  O21  1  0.25619918  0.62599277  0.36782579  1
  O  O22  1  0.25666814  0.36183737  0.87604904  1
  O  O23  1  0.40315387  0.42958731  0.49625830  1
  O  O24  1  0.41570041  0.09789690  0.08782141  1
  O  O25  1  0.41841697  0.91160242  0.58934493  1
  O  O26  1  0.58219806  0.11203053  0.41371459  1
  O  O27  1  0.58366786  0.91823051  0.91562663  1
  O  O28  1  0.59404020  0.44193854  0.01104703  1
  O  O29  1  0.59229492  0.58590505  0.52285584  1
  O  O30  1  0.74152920  0.37362528  0.61936651  1
  O  O31  1  0.73884035  0.63148849  0.12565939  1
  O  O32  1  0.75708148  0.86720447  0.62805422  1
  O  O33  1  0.90206596  0.07612344  0.49657423  1
  O  O34  1  0.90389567  0.91989544  0.99027687  1
  O  O35  1  0.91668667  0.39415508  0.91470381  1
