# generated using pymatgen
data_La2Nb2N2O5
_symmetry_space_group_name_H-M   'P 1'
_cell_length_a   4.04539849
_cell_length_b   13.51432170
_cell_length_c   5.69880071
_cell_angle_alpha   90.00000000
_cell_angle_beta   90.00000000
_cell_angle_gamma   98.60784900
_symmetry_Int_Tables_number   1
_chemical_formula_structural   La2Nb2N2O5
_chemical_formula_sum   'La4 Nb4 N4 O10'
_cell_volume   308.04866286
_cell_formula_units_Z   2
loop_
 _symmetry_equiv_pos_site_id
 _symmetry_equiv_pos_as_xyz
  1  'x, y, z'
loop_
 _atom_site_type_symbol
 _atom_site_label
 _atom_site_symmetry_multiplicity
 _atom_site_fract_x
 _atom_site_fract_y
 _atom_site_fract_z
 _atom_site_occupancy
  La  La0  1  0.29452676  0.58905253  0.54749711  1
  La  La1  1  0.44716443  0.89432785  0.97396918  1
  La  La2  1  0.55283557  0.10567215  0.47396918  1
  La  La3  1  0.70547324  0.41094747  0.04749711  1
  Nb  Nb4  1  0.05822581  0.11645262  0.97523772  1
  Nb  Nb5  1  0.16181412  0.32362725  0.50115053  1
  Nb  Nb6  1  0.83818588  0.67637275  0.00115053  1
  Nb  Nb7  1  0.94177419  0.88354738  0.47523772  1
  N  N8  1  0.45397430  0.90794861  0.43805089  1
  N  N9  1  0.34640848  0.69281595  0.95558034  1
  N  N10  1  0.54602570  0.09205139  0.93805089  1
  N  N11  1  0.65359152  0.30718405  0.45558034  1
  O  O12  1  0.01432988  0.02866076  0.26232436  1
  O  O13  1  0.09029223  0.18058446  0.64367335  1
  O  O14  1  0.22022683  0.44045365  0.27955100  1
  O  O15  1  0.11766125  0.23532250  0.15579387  1
  O  O16  1  0.20361998  0.40724096  0.77758965  1
  O  O17  1  0.77977317  0.55954635  0.77955100  1
  O  O18  1  0.79638002  0.59276004  0.27758965  1
  O  O19  1  0.88233875  0.76467750  0.65579387  1
  O  O20  1  0.90970777  0.81941554  0.14367335  1
  O  O21  1  0.98567012  0.97133924  0.76232436  1
