# generated using pymatgen
data_Li2Mn3NbO8
_symmetry_space_group_name_H-M   'P 1'
_cell_length_a   8.63314563
_cell_length_b   8.63586507
_cell_length_c   8.63434399
_cell_angle_alpha   90.00285528
_cell_angle_beta   90.00279667
_cell_angle_gamma   89.99872160
_symmetry_Int_Tables_number   1
_chemical_formula_structural   Li2Mn3NbO8
_chemical_formula_sum   'Li8 Mn12 Nb4 O32'
_cell_volume   643.73075840
_cell_formula_units_Z   4
loop_
 _symmetry_equiv_pos_site_id
 _symmetry_equiv_pos_as_xyz
  1  'x, y, z'
loop_
 _atom_site_type_symbol
 _atom_site_label
 _atom_site_symmetry_multiplicity
 _atom_site_fract_x
 _atom_site_fract_y
 _atom_site_fract_z
 _atom_site_occupancy
  Li  Li0  1  0.00717772  0.00729555  0.00721414  1
  Li  Li1  1  0.24278288  0.24276111  0.24272110  1
  Li  Li2  1  0.25725041  0.75721400  0.74285874  1
  Li  Li3  1  0.49268372  0.99273608  0.50734081  1
  Li  Li4  1  0.50735527  0.49280141  0.99281737  1
  Li  Li5  1  0.74276638  0.25726275  0.75715806  1
  Li  Li6  1  0.75724039  0.74280130  0.25733775  1
  Li  Li7  1  0.99287686  0.50719653  0.49269815  1
  Mn  Mn8  1  0.12306546  0.12684749  0.62503860  1
  Mn  Mn9  1  0.12512137  0.37695162  0.87317967  1
  Mn  Mn10  1  0.12656886  0.62533667  0.12299052  1
  Mn  Mn11  1  0.37286789  0.37532622  0.62340759  1
  Mn  Mn12  1  0.37503483  0.62313794  0.37313972  1
  Mn  Mn13  1  0.37672810  0.87300466  0.12487892  1
  Mn  Mn14  1  0.62313322  0.37320420  0.37484982  1
  Mn  Mn15  1  0.62522708  0.12301501  0.12668939  1
  Mn  Mn16  1  0.62692977  0.87520651  0.87659286  1
  Mn  Mn17  1  0.87343784  0.12530459  0.37697127  1
  Mn  Mn18  1  0.87516260  0.87668896  0.62705231  1
  Mn  Mn19  1  0.87693900  0.62676264  0.87489911  1
  Nb  Nb20  1  0.12497301  0.87491699  0.37512542  1
  Nb  Nb21  1  0.37489970  0.12503110  0.87511221  1
  Nb  Nb22  1  0.62511796  0.62482132  0.62504365  1
  Nb  Nb23  1  0.87505224  0.37501622  0.12488709  1
  O  O24  1  0.10338961  0.10843186  0.37229929  1
  O  O25  1  0.12742374  0.89622172  0.60846340  1
  O  O26  1  0.10870754  0.60949406  0.89107965  1
  O  O27  1  0.14141402  0.14673066  0.87746373  1
  O  O28  1  0.10867203  0.37236209  0.10276395  1
  O  O29  1  0.14136808  0.35989922  0.64136925  1
  O  O30  1  0.12240584  0.64137156  0.35265290  1
  O  O31  1  0.14606865  0.87763327  0.14171215  1
  O  O32  1  0.35239571  0.12231243  0.64136018  1
  O  O33  1  0.37770051  0.35832739  0.85386747  1
  O  O34  1  0.35912119  0.64169762  0.14033638  1
  O  O35  1  0.39155706  0.62751752  0.60352641  1
  O  O36  1  0.35860401  0.85266504  0.37778291  1
  O  O37  1  0.39065065  0.39154163  0.39051992  1
  O  O38  1  0.37225283  0.10233553  0.10874245  1
  O  O39  1  0.39690716  0.89147486  0.87252150  1
  O  O40  1  0.60236664  0.39125581  0.62765891  1
  O  O41  1  0.62771478  0.60288057  0.39142213  1
  O  O42  1  0.60983401  0.89132893  0.10870693  1
  O  O43  1  0.64142271  0.35259553  0.12219134  1
  O  O44  1  0.60841342  0.12767337  0.89640323  1
  O  O45  1  0.64104870  0.14125661  0.35939067  1
  O  O46  1  0.62226939  0.85840757  0.64690476  1
  O  O47  1  0.64731396  0.62239894  0.85869152  1
  O  O48  1  0.85330821  0.37769165  0.35840105  1
  O  O49  1  0.87767249  0.14146099  0.14714748  1
  O  O50  1  0.85937442  0.85933280  0.85831844  1
  O  O51  1  0.89118495  0.87234331  0.39780226  1
  O  O52  1  0.85835781  0.64597738  0.62241463  1
  O  O53  1  0.89172974  0.10982744  0.60907904  1
  O  O54  1  0.87246243  0.39659394  0.89146653  1
  O  O55  1  0.89649616  0.60845781  0.12767024  1
