# generated using pymatgen
data_Ni3(P2O7)2
_symmetry_space_group_name_H-M   'P 1'
_cell_length_a   9.00388340
_cell_length_b   12.59342009
_cell_length_c   10.26396539
_cell_angle_alpha   90.00000000
_cell_angle_beta   90.00000000
_cell_angle_gamma   90.00000000
_symmetry_Int_Tables_number   1
_chemical_formula_structural   Ni3(P2O7)2
_chemical_formula_sum   'Ni12 P16 O56'
_cell_volume   1163.82781369
_cell_formula_units_Z   4
loop_
 _symmetry_equiv_pos_site_id
 _symmetry_equiv_pos_as_xyz
  1  'x, y, z'
loop_
 _atom_site_type_symbol
 _atom_site_label
 _atom_site_symmetry_multiplicity
 _atom_site_fract_x
 _atom_site_fract_y
 _atom_site_fract_z
 _atom_site_occupancy
  Ni  Ni0  1  0.24596130  0.75000000  0.62077009  1
  Ni  Ni1  1  0.24793167  0.01649104  0.11893741  1
  Ni  Ni2  1  0.24793167  0.48350896  0.11893741  1
  Ni  Ni3  1  0.25206833  0.51649104  0.61893741  1
  Ni  Ni4  1  0.25206833  0.98350896  0.61893741  1
  Ni  Ni5  1  0.25403870  0.25000000  0.12077009  1
  Ni  Ni6  1  0.74596130  0.75000000  0.87922991  1
  Ni  Ni7  1  0.74793167  0.01649104  0.38106259  1
  Ni  Ni8  1  0.74793167  0.48350896  0.38106259  1
  Ni  Ni9  1  0.75206833  0.51649104  0.88106259  1
  Ni  Ni10  1  0.75206833  0.98350896  0.88106259  1
  Ni  Ni11  1  0.75403870  0.25000000  0.37922991  1
  P  P12  1  0.07329901  0.62944360  0.36624655  1
  P  P13  1  0.07329901  0.87055640  0.36624655  1
  P  P14  1  0.08573131  0.63534078  0.88051994  1
  P  P15  1  0.08573131  0.86465922  0.88051994  1
  P  P16  1  0.41426869  0.36465922  0.38051994  1
  P  P17  1  0.41426869  0.13534078  0.38051994  1
  P  P18  1  0.42670099  0.12944360  0.86624555  1
  P  P19  1  0.42670099  0.37055640  0.86624555  1
  P  P20  1  0.57329901  0.87055640  0.13375445  1
  P  P21  1  0.57329901  0.62944360  0.13375445  1
  P  P22  1  0.58573131  0.86465922  0.61948006  1
  P  P23  1  0.58573131  0.63534078  0.61948006  1
  P  P24  1  0.91426869  0.13534078  0.11948006  1
  P  P25  1  0.91426869  0.36465922  0.11948006  1
  P  P26  1  0.92670099  0.12944360  0.63375445  1
  P  P27  1  0.92670099  0.37055640  0.63375445  1
  O  O28  1  0.04598691  0.75000000  0.31818702  1
  O  O29  1  0.07765999  0.41892846  0.60750821  1
  O  O30  1  0.07765999  0.08107154  0.60750821  1
  O  O31  1  0.08546277  0.13502518  0.12945958  1
  O  O32  1  0.08546277  0.36497482  0.12945958  1
  O  O33  1  0.13042356  0.75000000  0.94106670  1
  O  O34  1  0.14483620  0.55041029  0.96821364  1
  O  O35  1  0.14483620  0.94958971  0.96821364  1
  O  O36  1  0.15433783  0.57336466  0.25727708  1
  O  O37  1  0.15433783  0.92663534  0.25727708  1
  O  O38  1  0.15648963  0.63154670  0.74337665  1
  O  O39  1  0.15648963  0.86845330  0.74337665  1
  O  O40  1  0.16690153  0.63535950  0.49213068  1
  O  O41  1  0.16690153  0.86464050  0.49213068  1
  O  O42  1  0.33309847  0.13535950  0.99213068  1
  O  O43  1  0.33309847  0.36464050  0.99213068  1
  O  O44  1  0.34351037  0.13154670  0.24337665  1
  O  O45  1  0.34351037  0.36845330  0.24337665  1
  O  O46  1  0.34566217  0.07336466  0.75727708  1
  O  O47  1  0.34566217  0.42663534  0.75727708  1
  O  O48  1  0.35516380  0.05041029  0.46821364  1
  O  O49  1  0.35516380  0.44958971  0.46821364  1
  O  O50  1  0.36957644  0.25000000  0.44106670  1
  O  O51  1  0.41453723  0.63502518  0.62945958  1
  O  O52  1  0.41453723  0.86497482  0.62945958  1
  O  O53  1  0.42234001  0.58107154  0.10750821  1
  O  O54  1  0.42234001  0.91892846  0.10750821  1
  O  O55  1  0.45401309  0.25000000  0.81818702  1
  O  O56  1  0.54598691  0.75000000  0.18181298  1
  O  O57  1  0.57765999  0.08107154  0.89249179  1
  O  O58  1  0.57765999  0.41892846  0.89249179  1
  O  O59  1  0.58546277  0.13502518  0.37054042  1
  O  O60  1  0.58546277  0.36497482  0.37054042  1
  O  O61  1  0.63042356  0.75000000  0.55893330  1
  O  O62  1  0.64483620  0.55041029  0.53178636  1
  O  O63  1  0.64483620  0.94958971  0.53178636  1
  O  O64  1  0.65433783  0.57336466  0.24272292  1
  O  O65  1  0.65433783  0.92663534  0.24272292  1
  O  O66  1  0.65648963  0.86845330  0.75662335  1
  O  O67  1  0.65648963  0.63154670  0.75662335  1
  O  O68  1  0.66690153  0.86464050  0.00786932  1
  O  O69  1  0.66690153  0.63535950  0.00786932  1
  O  O70  1  0.83309847  0.13535950  0.50786932  1
  O  O71  1  0.83309847  0.36464050  0.50786932  1
  O  O72  1  0.84351037  0.13154670  0.25662335  1
  O  O73  1  0.84351037  0.36845330  0.25662335  1
  O  O74  1  0.84566217  0.07336466  0.74272292  1
  O  O75  1  0.84566217  0.42663534  0.74272292  1
  O  O76  1  0.85516380  0.05041029  0.03178636  1
  O  O77  1  0.85516380  0.44958971  0.03178636  1
  O  O78  1  0.86957644  0.25000000  0.05893330  1
  O  O79  1  0.91453723  0.63502518  0.87054042  1
  O  O80  1  0.91453723  0.86497482  0.87054042  1
  O  O81  1  0.92234001  0.91892846  0.39249179  1
  O  O82  1  0.92234001  0.58107154  0.39249179  1
  O  O83  1  0.95401309  0.25000000  0.68181298  1
