# generated using pymatgen
data_Li4Ti5Co3O16
_symmetry_space_group_name_H-M   'P 1'
_cell_length_a   5.80639998
_cell_length_b   5.85515427
_cell_length_c   9.51549169
_cell_angle_alpha   89.94442964
_cell_angle_beta   89.71146451
_cell_angle_gamma   120.32037042
_symmetry_Int_Tables_number   1
_chemical_formula_structural   Li4Ti5Co3O16
_chemical_formula_sum   'Li4 Ti5 Co3 O16'
_cell_volume   279.24600370
_cell_formula_units_Z   1
loop_
 _symmetry_equiv_pos_site_id
 _symmetry_equiv_pos_as_xyz
  1  'x, y, z'
loop_
 _atom_site_type_symbol
 _atom_site_label
 _atom_site_symmetry_multiplicity
 _atom_site_fract_x
 _atom_site_fract_y
 _atom_site_fract_z
 _atom_site_occupancy
  Li  Li0  1  0.33439587  0.66692047  0.89222921  1
  Li  Li1  1  0.97881350  0.98984504  0.99192319  1
  Li  Li2  1  0.99302822  0.99570183  0.49543434  1
  Li  Li3  1  0.67138808  0.33615473  0.40189640  1
  Ti  Ti4  1  0.35212478  0.17519058  0.72654823  1
  Ti  Ti5  1  0.18864959  0.84011960  0.22111737  1
  Ti  Ti6  1  0.33469852  0.66713232  0.50350160  1
  Ti  Ti7  1  0.18857826  0.34875216  0.22060397  1
  Ti  Ti8  1  0.69324185  0.34693587  0.99418251  1
  Co  Co9  1  0.65616084  0.82884940  0.20920698  1
  Co  Co10  1  0.82891273  0.65788251  0.71194563  1
  Co  Co11  1  0.82912289  0.17092412  0.71176461  1
  O  O12  1  0.16058005  0.82689785  0.59742083  1
  O  O13  1  0.03354878  0.51666022  0.33507695  1
  O  O14  1  0.32322674  0.66204994  0.10152013  1
  O  O15  1  0.99538740  0.99769675  0.30487734  1
  O  O16  1  0.99396417  0.99697900  0.80349510  1
  O  O17  1  0.16031940  0.33305466  0.59692064  1
  O  O18  1  0.46652928  0.96587757  0.34919452  1
  O  O19  1  0.46798808  0.50334035  0.34807752  1
  O  O20  1  0.33530590  0.16820792  0.09583933  1
  O  O21  1  0.66479607  0.83216841  0.60086115  1
  O  O22  1  0.51951484  0.48441086  0.83716533  1
  O  O23  1  0.51984717  0.03429629  0.83709139  1
  O  O24  1  0.66884334  0.33450517  0.60684354  1
  O  O25  1  0.84198646  0.66160827  0.09110672  1
  O  O26  1  0.95849612  0.47896041  0.83011346  1
  O  O27  1  0.84055108  0.17917869  0.09188202  1
