# generated using pymatgen
data_Li4Mn3Cr3(WO8)2
_symmetry_space_group_name_H-M   'P 1'
_cell_length_a   6.02861577
_cell_length_b   6.03121158
_cell_length_c   9.78220434
_cell_angle_alpha   90.05637843
_cell_angle_beta   91.33804158
_cell_angle_gamma   119.96024027
_symmetry_Int_Tables_number   1
_chemical_formula_structural   Li4Mn3Cr3(WO8)2
_chemical_formula_sum   'Li4 Mn3 Cr3 W2 O16'
_cell_volume   308.03400438
_cell_formula_units_Z   1
loop_
 _symmetry_equiv_pos_site_id
 _symmetry_equiv_pos_as_xyz
  1  'x, y, z'
loop_
 _atom_site_type_symbol
 _atom_site_label
 _atom_site_symmetry_multiplicity
 _atom_site_fract_x
 _atom_site_fract_y
 _atom_site_fract_z
 _atom_site_occupancy
  Li  Li0  1  0.32798225  0.66388614  0.90949632  1
  Li  Li1  1  0.00681411  0.00364325  0.98728888  1
  Li  Li2  1  0.00737710  0.00363171  0.48833723  1
  Li  Li3  1  0.65842309  0.32888269  0.40546177  1
  Mn  Mn4  1  0.66327774  0.83134255  0.21176724  1
  Mn  Mn5  1  0.83528059  0.66201893  0.71260929  1
  Mn  Mn6  1  0.83526547  0.17366500  0.71247145  1
  Cr  Cr7  1  0.17194489  0.83198642  0.21351382  1
  Cr  Cr8  1  0.17176580  0.33981785  0.21355391  1
  Cr  Cr9  1  0.34314234  0.17177850  0.71509170  1
  W  W10  1  0.33612444  0.66782163  0.48572556  1
  W  W11  1  0.66594490  0.33294367  0.98607565  1
  O  O12  1  0.18812266  0.83623347  0.58689253  1
  O  O13  1  0.04183603  0.52125106  0.34020851  1
  O  O14  1  0.33200227  0.66562031  0.11231986  1
  O  O15  1  0.00265418  0.00150385  0.30279526  1
  O  O16  1  0.00793780  0.00506476  0.80149614  1
  O  O17  1  0.18772747  0.35194485  0.58720471  1
  O  O18  1  0.46776655  0.95631655  0.34871327  1
  O  O19  1  0.46696436  0.51005459  0.34922940  1
  O  O20  1  0.34218393  0.17089922  0.09932855  1
  O  O21  1  0.65883044  0.82978273  0.57506766  1
  O  O22  1  0.50300728  0.46507867  0.85487045  1
  O  O23  1  0.50336538  0.03806420  0.85458591  1
  O  O24  1  0.65899831  0.32866510  0.60999830  1
  O  O25  1  0.83085346  0.65687054  0.08942892  1
  O  O26  1  0.95311729  0.47600625  0.86469050  1
  O  O27  1  0.83129087  0.17552451  0.08961624  1
