# generated using pymatgen
data_LiCo3P4O15
_symmetry_space_group_name_H-M   'P 1'
_cell_length_a   17.54807191
_cell_length_b   6.35089069
_cell_length_c   10.48186219
_cell_angle_alpha   89.93695379
_cell_angle_beta   89.97813381
_cell_angle_gamma   90.21955479
_symmetry_Int_Tables_number   1
_chemical_formula_structural   LiCo3P4O15
_chemical_formula_sum   'Li4 Co12 P16 O60'
_cell_volume   1168.15105261
_cell_formula_units_Z   4
loop_
 _symmetry_equiv_pos_site_id
 _symmetry_equiv_pos_as_xyz
  1  'x, y, z'
loop_
 _atom_site_type_symbol
 _atom_site_label
 _atom_site_symmetry_multiplicity
 _atom_site_fract_x
 _atom_site_fract_y
 _atom_site_fract_z
 _atom_site_occupancy
  Li  Li0  1  0.46752096  0.68755042  0.54218100  1
  Li  Li1  1  0.50229038  0.32357273  0.03120877  1
  Li  Li2  1  0.96873784  0.68857340  0.96070386  1
  Li  Li3  1  0.99764753  0.82407169  0.52986540  1
  Co  Co4  1  0.13296093  0.57974849  0.49070143  1
  Co  Co5  1  0.15891638  0.60175077  0.01282752  1
  Co  Co6  1  0.24223658  0.31919229  0.74342705  1
  Co  Co7  1  0.25842791  0.81650223  0.24292839  1
  Co  Co8  1  0.34061701  0.10698721  0.50809785  1
  Co  Co9  1  0.36662000  0.08145467  0.99016851  1
  Co  Co10  1  0.63249665  0.59792169  0.00496057  1
  Co  Co11  1  0.65843185  0.60455597  0.48673755  1
  Co  Co12  1  0.74191390  0.31986436  0.75571907  1
  Co  Co13  1  0.75969597  0.81685097  0.25632789  1
  Co  Co14  1  0.84070909  0.10978919  0.99229158  1
  Co  Co15  1  0.86696188  0.09926118  0.50561934  1
  P  P16  1  0.04918804  0.64737403  0.22646073  1
  P  P17  1  0.07009461  0.46247655  0.76189312  1
  P  P18  1  0.17960689  0.08546115  0.48017572  1
  P  P19  1  0.20717225  0.09871530  0.00437271  1
  P  P20  1  0.29389758  0.60006294  0.50511155  1
  P  P21  1  0.32021941  0.58629086  0.98044449  1
  P  P22  1  0.42952232  0.96906190  0.25871135  1
  P  P23  1  0.44838574  0.13269399  0.72773628  1
  P  P24  1  0.54844913  0.64124979  0.27458608  1
  P  P25  1  0.57078599  0.45671370  0.73556499  1
  P  P26  1  0.67988438  0.08938026  0.01977300  1
  P  P27  1  0.70767114  0.09994906  0.49579149  1
  P  P28  1  0.79350216  0.60194016  0.99503117  1
  P  P29  1  0.82040975  0.58947599  0.52023408  1
  P  P30  1  0.92928617  0.96390904  0.23864028  1
  P  P31  1  0.94848705  0.12681076  0.77286372  1
  O  O32  1  0.01020031  0.50230442  0.13584582  1
  O  O33  1  0.01106664  0.87901076  0.19923703  1
  O  O34  1  0.04417596  0.61589446  0.37219971  1
  O  O35  1  0.05913536  0.58372533  0.63596538  1
  O  O36  1  0.08095653  0.60416273  0.87851896  1
  O  O37  1  0.13200337  0.29288981  0.75284484  1
  O  O38  1  0.12678543  0.89761206  0.50368610  1
  O  O39  1  0.13466297  0.68347554  0.18991515  1
  O  O40  1  0.13368596  0.28702716  0.45756636  1
  O  O41  1  0.15746010  0.90705279  0.97952742  1
  O  O42  1  0.16176975  0.29840432  0.03255046  1
  O  O43  1  0.23620255  0.11706790  0.59616350  1
  O  O44  1  0.23816954  0.04882472  0.36968558  1
  O  O45  1  0.23198439  0.55398538  0.61094827  1
  O  O46  1  0.23756220  0.63493259  0.38805148  1
  O  O47  1  0.26328391  0.13204756  0.88719983  1
  O  O48  1  0.26812359  0.05254124  0.11153525  1
  O  O49  1  0.26232895  0.54690477  0.86869626  1
  O  O50  1  0.26431107  0.61973681  0.09724966  1
  O  O51  1  0.34425221  0.79191406  0.53342860  1
  O  O52  1  0.34513534  0.41403899  0.48234644  1
  O  O53  1  0.36617686  0.78794745  0.95674060  1
  O  O54  1  0.36459202  0.18272285  0.68837215  1
  O  O55  1  0.37236606  0.39897957  0.00390584  1
  O  O56  1  0.36980116  0.79178284  0.24919250  1
  O  O57  1  0.41142639  0.10466824  0.37537311  1
  O  O58  1  0.43963337  0.09306714  0.13403219  1
  O  O59  1  0.45429762  0.11795439  0.87445829  1
  O  O60  1  0.49078728  0.35600979  0.69452271  1
  O  O61  1  0.48170049  0.96076637  0.64972208  1
  O  O62  1  0.50840005  0.50841038  0.37090237  1
  O  O63  1  0.51196604  0.87746072  0.28701985  1
  O  O64  1  0.54489776  0.58145193  0.13219992  1
  O  O65  1  0.55741546  0.55320926  0.86783772  1
  O  O66  1  0.58375967  0.61139897  0.62594662  1
  O  O67  1  0.63293216  0.28616775  0.73980386  1
  O  O68  1  0.62948956  0.89475614  0.99695963  1
  O  O69  1  0.63367292  0.68288028  0.31061527  1
  O  O70  1  0.62987368  0.28345430  0.03891305  1
  O  O71  1  0.65740012  0.90926969  0.51994796  1
  O  O72  1  0.66285952  0.30051432  0.46673616  1
  O  O73  1  0.73631187  0.12145557  0.90405935  1
  O  O74  1  0.73809979  0.05346604  0.13062118  1
  O  O75  1  0.73109494  0.55559328  0.88979443  1
  O  O76  1  0.73764901  0.63427148  0.11303612  1
  O  O77  1  0.76363009  0.13117128  0.61328464  1
  O  O78  1  0.76896051  0.05292571  0.38877431  1
  O  O79  1  0.76398216  0.55069687  0.63372188  1
  O  O80  1  0.76405119  0.62400662  0.40461047  1
  O  O81  1  0.84353181  0.79447468  0.96627452  1
  O  O82  1  0.84547478  0.41674531  0.01603477  1
  O  O83  1  0.87054553  0.78395287  0.53947367  1
  O  O84  1  0.86516106  0.18158607  0.81198179  1
  O  O85  1  0.87007312  0.39594571  0.49576348  1
  O  O86  1  0.86946877  0.78461819  0.24346108  1
  O  O87  1  0.90862910  0.11237298  0.12923095  1
  O  O88  1  0.94201203  0.06217259  0.36997986  1
  O  O89  1  0.95345992  0.08639334  0.62812413  1
  O  O90  1  0.98973424  0.35521649  0.79374500  1
  O  O91  1  0.98271927  0.96331946  0.85684788  1
