# generated using pymatgen
data_Li2Fe2Ni(PO4)3
_symmetry_space_group_name_H-M   'P 1'
_cell_length_a   8.35191748
_cell_length_b   8.44370952
_cell_length_c   8.44370947
_cell_angle_alpha   63.70482697
_cell_angle_beta   63.94258522
_cell_angle_gamma   63.94258210
_symmetry_Int_Tables_number   1
_chemical_formula_structural   Li2Fe2Ni(PO4)3
_chemical_formula_sum   'Li4 Fe4 Ni2 P6 O24'
_cell_volume   456.91484832
_cell_formula_units_Z   2
loop_
 _symmetry_equiv_pos_site_id
 _symmetry_equiv_pos_as_xyz
  1  'x, y, z'
loop_
 _atom_site_type_symbol
 _atom_site_label
 _atom_site_symmetry_multiplicity
 _atom_site_fract_x
 _atom_site_fract_y
 _atom_site_fract_z
 _atom_site_occupancy
  Li  Li0  1  0.75000000  0.14192044  0.35807956  1
  Li  Li1  1  0.25000000  0.84781915  0.65218085  1
  Li  Li2  1  0.64947552  0.24946170  0.84974267  1
  Li  Li3  1  0.85052448  0.65025733  0.25053830  1
  Fe  Fe4  1  0.14697764  0.14640000  0.14192393  1
  Fe  Fe5  1  0.35302236  0.35807607  0.35360000  1
  Fe  Fe6  1  0.65192837  0.65242811  0.65418578  1
  Fe  Fe7  1  0.84807163  0.84581422  0.84757189  1
  Ni  Ni8  1  0.00587063  0.99831494  0.99552469  1
  Ni  Ni9  1  0.49412937  0.50447531  0.50168506  1
  P  P10  1  0.06128563  0.74770104  0.44086109  1
  P  P11  1  0.43871437  0.05913891  0.75229896  1
  P  P12  1  0.75000000  0.44192446  0.05807554  1
  P  P13  1  0.25000000  0.54598561  0.95401439  1
  P  P14  1  0.55280364  0.95557487  0.25202721  1
  P  P15  1  0.94719636  0.24797279  0.54442513  1
  O  O16  1  0.11293638  0.31440521  0.48741241  1
  O  O17  1  0.32542179  0.50159230  0.10867516  1
  O  O18  1  0.06367347  0.91068173  0.25220684  1
  O  O19  1  0.53172783  0.10730344  0.32006352  1
  O  O20  1  0.03293067  0.81305773  0.59722058  1
  O  O21  1  0.25591744  0.59424457  0.42351398  1
  O  O22  1  0.24408256  0.07648602  0.90575543  1
  O  O23  1  0.43632653  0.24779316  0.58931827  1
  O  O24  1  0.17457821  0.39132484  0.99840770  1
  O  O25  1  0.60038289  0.41909217  0.25760601  1
  O  O26  1  0.10066730  0.74308635  0.93624760  1
  O  O27  1  0.38706362  0.01258759  0.18559479  1
  O  O28  1  0.59580288  0.02836263  0.81971563  1
  O  O29  1  0.89961711  0.24239399  0.08090783  1
  O  O30  1  0.39933270  0.56375240  0.75691365  1
  O  O31  1  0.81641045  0.59581007  0.03127084  1
  O  O32  1  0.56242158  0.76000017  0.40182795  1
  O  O33  1  0.74885647  0.93140044  0.09954223  1
  O  O34  1  0.75114353  0.40045777  0.56859956  1
  O  O35  1  0.96827217  0.17993648  0.39269656  1
  O  O36  1  0.46706933  0.90277942  0.68694227  1
  O  O37  1  0.93757842  0.09817205  0.73999983  1
  O  O38  1  0.68358955  0.46872916  0.90418993  1
  O  O39  1  0.90419712  0.68028437  0.47163737  1
