# generated using pymatgen
data_Li8SbS6
_symmetry_space_group_name_H-M   'P 1'
_cell_length_a   7.06673747
_cell_length_b   7.06647530
_cell_length_c   13.46171664
_cell_angle_alpha   90.00093375
_cell_angle_beta   90.00014746
_cell_angle_gamma   119.99967534
_symmetry_Int_Tables_number   1
_chemical_formula_structural   Li8SbS6
_chemical_formula_sum   'Li16 Sb2 S12'
_cell_volume   582.17600267
_cell_formula_units_Z   2
loop_
 _symmetry_equiv_pos_site_id
 _symmetry_equiv_pos_as_xyz
  1  'x, y, z'
loop_
 _atom_site_type_symbol
 _atom_site_label
 _atom_site_symmetry_multiplicity
 _atom_site_fract_x
 _atom_site_fract_y
 _atom_site_fract_z
 _atom_site_occupancy
  Li  Li0  1  0.99998963  0.67569094  0.76546067  1
  Li  Li1  1  0.99999848  0.61372906  0.13241222  1
  Li  Li2  1  0.99998257  0.38631419  0.63236611  1
  Li  Li3  1  0.99999599  0.32430983  0.26548977  1
  Li  Li4  1  0.33332842  0.66667265  0.39735086  1
  Li  Li5  1  0.33334356  0.66667736  0.89732137  1
  Li  Li6  1  0.32428913  0.32430702  0.76546068  1
  Li  Li7  1  0.38628683  0.38627980  0.13241164  1
  Li  Li8  1  0.61368201  0.61369830  0.63237812  1
  Li  Li9  1  0.32432023  0.00000474  0.26548587  1
  Li  Li10  1  0.67567974  0.67568913  0.26548748  1
  Li  Li11  1  0.38630243  0.99999822  0.63237073  1
  Li  Li12  1  0.66665871  0.33335798  0.89732114  1
  Li  Li13  1  0.66667272  0.33335754  0.39734997  1
  Li  Li14  1  0.61369683  0.99999252  0.13240843  1
  Li  Li15  1  0.67567352  0.00000723  0.76546153  1
  Sb  Sb16  1  0.99998262  0.99999197  0.99373725  1
  Sb  Sb17  1  0.00001299  0.00003166  0.49368701  1
  S  S18  1  0.00001492  0.65757734  0.95049562  1
  S  S19  1  0.99999003  0.34239416  0.45051528  1
  S  S20  1  0.33333320  0.66662315  0.21449542  1
  S  S21  1  0.99999494  0.99994183  0.18317075  1
  S  S22  1  0.99996415  0.99997444  0.68315146  1
  S  S23  1  0.33332082  0.66668687  0.71447290  1
  S  S24  1  0.34240475  0.34242304  0.95050586  1
  S  S25  1  0.34243095  0.00000308  0.45050608  1
  S  S26  1  0.65757956  0.65759155  0.45051640  1
  S  S27  1  0.66664717  0.33334560  0.71447234  1
  S  S28  1  0.66666434  0.33329527  0.21449599  1
  S  S29  1  0.65755875  0.00003555  0.95050007  1
