# generated using pymatgen
data_Na2Ni3O7
_symmetry_space_group_name_H-M   'P 1'
_cell_length_a   7.09093312
_cell_length_b   7.05327109
_cell_length_c   7.08947313
_cell_angle_alpha   64.40100703
_cell_angle_beta   64.18566438
_cell_angle_gamma   64.11790749
_symmetry_Int_Tables_number   1
_chemical_formula_structural   Na2Ni3O7
_chemical_formula_sum   'Na4 Ni6 O14'
_cell_volume   274.05762349
_cell_formula_units_Z   2
loop_
 _symmetry_equiv_pos_site_id
 _symmetry_equiv_pos_as_xyz
  1  'x, y, z'
loop_
 _atom_site_type_symbol
 _atom_site_label
 _atom_site_symmetry_multiplicity
 _atom_site_fract_x
 _atom_site_fract_y
 _atom_site_fract_z
 _atom_site_occupancy
  Na  Na0  1  0.56313762  0.13493219  0.28259462  1
  Na  Na1  1  0.35835256  0.19796947  0.95153478  1
  Na  Na2  1  0.83090586  0.02856815  0.63399551  1
  Na  Na3  1  0.86911299  0.42246583  0.20785526  1
  Ni  Ni4  1  0.14440047  0.28831167  0.57227096  1
  Ni  Ni5  1  0.28374158  0.57687985  0.14335259  1
  Ni  Ni6  1  0.00130686  0.00126288  0.99830007  1
  Ni  Ni7  1  0.42798588  0.85186178  0.71560789  1
  Ni  Ni8  1  0.71408681  0.43064022  0.85249922  1
  Ni  Ni9  1  0.86035245  0.71384434  0.42934567  1
  O  O10  1  0.22872897  0.30521252  0.27730903  1
  O  O11  1  0.00768217  0.29782671  0.87212110  1
  O  O12  1  0.15787532  0.57965478  0.43905914  1
  O  O13  1  0.29327813  0.87044982  0.00797924  1
  O  O14  1  0.42271007  0.14345967  0.62009435  1
  O  O15  1  0.13676511  0.99026335  0.70305381  1
  O  O16  1  0.57726978  0.47379964  0.12532576  1
  O  O17  1  0.41787097  0.55308521  0.85357908  1
  O  O18  1  0.56971708  0.79801325  0.44626868  1
  O  O19  1  0.72641658  0.13824457  0.94398998  1
  O  O20  1  0.85401013  0.41694612  0.55889401  1
  O  O21  1  0.72278315  0.72788549  0.72043711  1
  O  O22  1  0.98884214  0.71056001  0.13288619  1
  O  O23  1  0.90151034  0.99378546  0.29209695  1
