# generated using pymatgen
data_LiV2OF5
_symmetry_space_group_name_H-M   'P 1'
_cell_length_a   5.22843596
_cell_length_b   5.22844878
_cell_length_c   13.92648817
_cell_angle_alpha   90.00571656
_cell_angle_beta   90.00241124
_cell_angle_gamma   120.00413951
_symmetry_Int_Tables_number   1
_chemical_formula_structural   LiV2OF5
_chemical_formula_sum   'Li3 V6 O3 F15'
_cell_volume   329.68468697
_cell_formula_units_Z   3
loop_
 _symmetry_equiv_pos_site_id
 _symmetry_equiv_pos_as_xyz
  1  'x, y, z'
loop_
 _atom_site_type_symbol
 _atom_site_label
 _atom_site_symmetry_multiplicity
 _atom_site_fract_x
 _atom_site_fract_y
 _atom_site_fract_z
 _atom_site_occupancy
  Li  Li0  1  0.36021239  0.69349354  0.91671066  1
  Li  Li1  1  0.66666375  0.30641510  0.58333541  1
  Li  Li2  1  0.97296814  0.00021739  0.25006424  1
  V  V3  1  0.34286166  0.69118607  0.17016268  1
  V  V4  1  0.97581537  0.98522216  0.50328139  1
  V  V5  1  0.35801891  0.67629743  0.66342626  1
  V  V6  1  0.65153411  0.30834283  0.32990898  1
  V  V7  1  0.68155907  0.32377828  0.83680931  1
  V  V8  1  0.99001792  0.01498000  0.99657417  1
  O  O9  1  0.66661045  0.93695608  0.58329730  1
  O  O10  1  0.60327593  0.00012530  0.24981671  1
  O  O11  1  0.72982624  0.06308071  0.91656554  1
  F  F12  1  0.27178566  0.94162562  0.07535776  1
  F  F13  1  0.03268025  0.68262272  0.57757991  1
  F  F14  1  0.00368577  0.39490797  0.74218681  1
  F  F15  1  0.66574198  0.72691008  0.08356188  1
  F  F16  1  0.06140652  0.33587366  0.09107387  1
  F  F17  1  0.72537558  0.66377987  0.40890932  1
  F  F18  1  0.60806952  0.60518498  0.75763106  1
  F  F19  1  0.34812128  0.36541699  0.25585817  1
  F  F20  1  0.98397045  0.68345401  0.91079814  1
  F  F21  1  0.30113178  0.31640839  0.58914818  1
  F  F22  1  0.98318816  0.63393982  0.24408837  1
  F  F23  1  0.35028996  0.31815595  0.92245493  1
  F  F24  1  0.33085306  0.05892982  0.42450069  1
  F  F25  1  0.39446077  0.00047221  0.75008104  1
  F  F26  1  0.93986631  0.27221701  0.41683223  1
