# generated using pymatgen
data_Mn3(O2F)2
_symmetry_space_group_name_H-M   'P 1'
_cell_length_a   4.66012253
_cell_length_b   7.66061849
_cell_length_c   5.53168743
_cell_angle_alpha   94.75686227
_cell_angle_beta   93.74131407
_cell_angle_gamma   86.91342672
_symmetry_Int_Tables_number   1
_chemical_formula_structural   Mn3(O2F)2
_chemical_formula_sum   'Mn6 O8 F4'
_cell_volume   196.14537030
_cell_formula_units_Z   2
loop_
 _symmetry_equiv_pos_site_id
 _symmetry_equiv_pos_as_xyz
  1  'x, y, z'
loop_
 _atom_site_type_symbol
 _atom_site_label
 _atom_site_symmetry_multiplicity
 _atom_site_fract_x
 _atom_site_fract_y
 _atom_site_fract_z
 _atom_site_occupancy
  Mn  Mn0  1  0.47423996  0.99070429  0.51590735  1
  Mn  Mn1  1  0.50000000  0.66666700  0.16666700  1
  Mn  Mn2  1  0.52576004  0.34262971  0.81742565  1
  Mn  Mn3  1  0.00000000  0.66666700  0.66666700  1
  Mn  Mn4  1  0.98328575  0.33011620  0.34681008  1
  Mn  Mn5  1  0.01671425  0.00321780  0.98652292  1
  O  O6  1  0.80675746  0.43964326  0.63025530  1
  O  O7  1  0.69236972  0.10150322  0.79680256  1
  O  O8  1  0.69159377  0.76968676  0.46638385  1
  O  O9  1  0.69880290  0.43556331  0.12838276  1
  O  O10  1  0.30840623  0.56364724  0.86695015  1
  O  O11  1  0.30763028  0.23182978  0.53653044  1
  O  O12  1  0.30119710  0.89776969  0.20495024  1
  O  O13  1  0.19324254  0.89368974  0.70307770  1
  F  F14  1  0.80151903  0.76391062  0.96563991  1
  F  F15  1  0.80009368  0.08830593  0.28873628  1
  F  F16  1  0.19848097  0.56942238  0.36769309  1
  F  F17  1  0.19990632  0.24502707  0.04459672  1
