# generated using pymatgen
data_LiMn2F5
_symmetry_space_group_name_H-M   'P 1'
_cell_length_a   8.12174834
_cell_length_b   8.69112686
_cell_length_c   6.74227919
_cell_angle_alpha   90.00000000
_cell_angle_beta   90.00000000
_cell_angle_gamma   90.00000000
_symmetry_Int_Tables_number   1
_chemical_formula_structural   LiMn2F5
_chemical_formula_sum   'Li4 Mn8 F20'
_cell_volume   475.91823981
_cell_formula_units_Z   4
loop_
 _symmetry_equiv_pos_site_id
 _symmetry_equiv_pos_as_xyz
  1  'x, y, z'
loop_
 _atom_site_type_symbol
 _atom_site_label
 _atom_site_symmetry_multiplicity
 _atom_site_fract_x
 _atom_site_fract_y
 _atom_site_fract_z
 _atom_site_occupancy
  Li  Li0  1  0.16602876  0.31712948  0.75000000  1
  Li  Li1  1  0.33397124  0.81712948  0.75000000  1
  Li  Li2  1  0.66602876  0.18287052  0.25000000  1
  Li  Li3  1  0.83397124  0.68287052  0.25000000  1
  Mn  Mn4  1  0.00000000  0.00000000  0.00000000  1
  Mn  Mn5  1  0.00000000  0.00000000  0.50000000  1
  Mn  Mn6  1  0.10212728  0.33015084  0.25000000  1
  Mn  Mn7  1  0.39787272  0.83015084  0.25000000  1
  Mn  Mn8  1  0.50000000  0.50000000  0.00000000  1
  Mn  Mn9  1  0.50000000  0.50000000  0.50000000  1
  Mn  Mn10  1  0.60212728  0.16984916  0.75000000  1
  Mn  Mn11  1  0.89787272  0.66984916  0.75000000  1
  F  F12  1  0.04414399  0.49098610  0.75000000  1
  F  F13  1  0.13580769  0.20666382  0.51147890  1
  F  F14  1  0.13580769  0.20666382  0.98852110  1
  F  F15  1  0.10679391  0.87851748  0.75000000  1
  F  F16  1  0.15406982  0.92284961  0.25000000  1
  F  F17  1  0.34593018  0.42284961  0.25000000  1
  F  F18  1  0.39320609  0.37851748  0.75000000  1
  F  F19  1  0.36419231  0.70666382  0.51147890  1
  F  F20  1  0.36419231  0.70666382  0.98852110  1
  F  F21  1  0.45585601  0.99098610  0.75000000  1
  F  F22  1  0.54414399  0.00901390  0.25000000  1
  F  F23  1  0.63580769  0.29333618  0.01147890  1
  F  F24  1  0.63580769  0.29333618  0.48852110  1
  F  F25  1  0.60679391  0.62148252  0.25000000  1
  F  F26  1  0.65406982  0.57715039  0.75000000  1
  F  F27  1  0.84593018  0.07715039  0.75000000  1
  F  F28  1  0.89320609  0.12148252  0.25000000  1
  F  F29  1  0.86419231  0.79333618  0.01147890  1
  F  F30  1  0.86419231  0.79333618  0.48852110  1
  F  F31  1  0.95585601  0.50901390  0.25000000  1
