# generated using pymatgen
data_Li2BiBO4
_symmetry_space_group_name_H-M   'P 1'
_cell_length_a   7.18828121
_cell_length_b   5.02522712
_cell_length_c   11.11981761
_cell_angle_alpha   90.00000000
_cell_angle_beta   88.69433398
_cell_angle_gamma   90.00000000
_symmetry_Int_Tables_number   1
_chemical_formula_structural   Li2BiBO4
_chemical_formula_sum   'Li8 Bi4 B4 O16'
_cell_volume   401.57405193
_cell_formula_units_Z   4
loop_
 _symmetry_equiv_pos_site_id
 _symmetry_equiv_pos_as_xyz
  1  'x, y, z'
loop_
 _atom_site_type_symbol
 _atom_site_label
 _atom_site_symmetry_multiplicity
 _atom_site_fract_x
 _atom_site_fract_y
 _atom_site_fract_z
 _atom_site_occupancy
  Li  Li0  1  0.08505131  0.34795803  0.79947182  1
  Li  Li1  1  0.08505131  0.15204197  0.29947182  1
  Li  Li2  1  0.18765759  0.21948389  0.57224659  1
  Li  Li3  1  0.18765759  0.28051611  0.07224659  1
  Li  Li4  1  0.81234241  0.71948389  0.92775341  1
  Li  Li5  1  0.81234241  0.78051611  0.42775341  1
  Li  Li6  1  0.91494869  0.84795803  0.70052818  1
  Li  Li7  1  0.91494869  0.65204197  0.20052818  1
  Bi  Bi8  1  0.50306928  0.23499252  0.86819297  1
  Bi  Bi9  1  0.49693072  0.73499252  0.63180703  1
  Bi  Bi10  1  0.50306928  0.26500748  0.36819297  1
  Bi  Bi11  1  0.49693072  0.76500748  0.13180703  1
  B  B12  1  0.17360229  0.79297769  0.91776685  1
  B  B13  1  0.17360229  0.70702231  0.41776685  1
  B  B14  1  0.82639771  0.29297769  0.58223315  1
  B  B15  1  0.82639771  0.20702231  0.08223315  1
  O  O16  1  0.04447020  0.71806703  0.83540690  1
  O  O17  1  0.04447020  0.78193297  0.33540690  1
  O  O18  1  0.22587099  0.06626372  0.92294022  1
  O  O19  1  0.22587099  0.43373628  0.42294022  1
  O  O20  1  0.24997474  0.88581379  0.49697885  1
  O  O21  1  0.38497955  0.35005427  0.68988405  1
  O  O22  1  0.24997474  0.61418621  0.99697885  1
  O  O23  1  0.38497955  0.14994573  0.18988405  1
  O  O24  1  0.61502045  0.85005427  0.81011595  1
  O  O25  1  0.75002526  0.38581379  0.00302115  1
  O  O26  1  0.61502045  0.64994573  0.31011595  1
  O  O27  1  0.75002526  0.11418621  0.50302115  1
  O  O28  1  0.77412901  0.56626372  0.57705978  1
  O  O29  1  0.77412901  0.93373628  0.07705978  1
  O  O30  1  0.95552980  0.21806703  0.66459310  1
  O  O31  1  0.95552980  0.28193297  0.16459310  1
