# generated using pymatgen
data_Li4TiNi3Sn2(PO4)6
_symmetry_space_group_name_H-M   'P 1'
_cell_length_a   9.21931288
_cell_length_b   9.14065811
_cell_length_c   9.27269732
_cell_angle_alpha   55.11046178
_cell_angle_beta   54.31983174
_cell_angle_gamma   55.24223929
_symmetry_Int_Tables_number   1
_chemical_formula_structural   Li4TiNi3Sn2(PO4)6
_chemical_formula_sum   'Li4 Ti1 Ni3 Sn2 P6 O24'
_cell_volume   486.74522822
_cell_formula_units_Z   1
loop_
 _symmetry_equiv_pos_site_id
 _symmetry_equiv_pos_as_xyz
  1  'x, y, z'
loop_
 _atom_site_type_symbol
 _atom_site_label
 _atom_site_symmetry_multiplicity
 _atom_site_fract_x
 _atom_site_fract_y
 _atom_site_fract_z
 _atom_site_occupancy
  Li  Li0  1  0.79007396  0.13630175  0.39585613  1
  Li  Li1  1  0.28935703  0.90959394  0.63429609  1
  Li  Li2  1  0.64738570  0.28851179  0.90412006  1
  Li  Li3  1  0.89458174  0.65013447  0.29729193  1
  Ti  Ti4  1  0.85451118  0.84035200  0.85620885  1
  Ni  Ni5  1  0.15925720  0.15038933  0.15500591  1
  Ni  Ni6  1  0.33154186  0.34779997  0.32249999  1
  Ni  Ni7  1  0.64499436  0.65226391  0.65695796  1
  Sn  Sn8  1  0.04618170  0.01481981  0.00840311  1
  Sn  Sn9  1  0.44589817  0.50187789  0.47535859  1
  P  P10  1  0.03273707  0.74752181  0.45683440  1
  P  P11  1  0.46337970  0.03338465  0.75007201  1
  P  P12  1  0.24002860  0.54232136  0.95904046  1
  P  P13  1  0.53936529  0.95784873  0.24259530  1
  P  P14  1  0.95115273  0.24123707  0.53901513  1
  P  P15  1  0.74905778  0.45365549  0.03717182  1
  O  O16  1  0.15528228  0.18841470  0.51502126  1
  O  O17  1  0.18131390  0.54942539  0.15143011  1
  O  O18  1  0.10435868  0.90093139  0.26077384  1
  O  O19  1  0.53538254  0.15663098  0.18642785  1
  O  O20  1  0.99708402  0.79666677  0.61106064  1
  O  O21  1  0.19190218  0.54492888  0.46666113  1
  O  O22  1  0.26680653  0.12125193  0.89078349  1
  O  O23  1  0.50495053  0.19253143  0.54611752  1
  O  O24  1  0.20230374  0.38768662  0.98409637  1
  O  O25  1  0.54729826  0.47532794  0.20277449  1
  O  O26  1  0.11166626  0.74345918  0.85390288  1
  O  O27  1  0.38384608  0.96870039  0.21903626  1
  O  O28  1  0.62291255  0.96349336  0.81077086  1
  O  O29  1  0.88857222  0.25091899  0.11735391  1
  O  O30  1  0.44905764  0.52311310  0.82817390  1
  O  O31  1  0.81627464  0.60226546  0.99002465  1
  O  O32  1  0.53263475  0.82320439  0.44510306  1
  O  O33  1  0.74269283  0.86014493  0.10454486  1
  O  O34  1  0.82302835  0.44720046  0.52856016  1
  O  O35  1  0.95355961  0.20779493  0.39267690  1
  O  O36  1  0.44651050  0.87647784  0.74987180  1
  O  O37  1  0.85684627  0.10566942  0.74360658  1
  O  O38  1  0.75087041  0.46088788  0.86856073  1
  O  O39  1  0.85533717  0.76186067  0.46494000  1
