# generated using pymatgen
data_TiMn7(PO4)12
_symmetry_space_group_name_H-M   'P 1'
_cell_length_a   8.49955057
_cell_length_b   8.48697538
_cell_length_c   11.82520787
_cell_angle_alpha   89.94738934
_cell_angle_beta   89.95529731
_cell_angle_gamma   90.02184158
_symmetry_Int_Tables_number   1
_chemical_formula_structural   TiMn7(PO4)12
_chemical_formula_sum   'Ti1 Mn7 P12 O48'
_cell_volume   853.01632264
_cell_formula_units_Z   1
loop_
 _symmetry_equiv_pos_site_id
 _symmetry_equiv_pos_as_xyz
  1  'x, y, z'
loop_
 _atom_site_type_symbol
 _atom_site_label
 _atom_site_symmetry_multiplicity
 _atom_site_fract_x
 _atom_site_fract_y
 _atom_site_fract_z
 _atom_site_occupancy
  Ti  Ti0  1  0.75019936  0.46587271  0.62287968  1
  Mn  Mn1  1  0.24987708  0.96585309  0.61746617  1
  Mn  Mn2  1  0.25036953  0.53558297  0.38146526  1
  Mn  Mn3  1  0.24970004  0.03502238  0.11773273  1
  Mn  Mn4  1  0.24934075  0.46614741  0.88246716  1
  Mn  Mn5  1  0.75060754  0.53525255  0.11878219  1
  Mn  Mn6  1  0.75071383  0.96478402  0.88281229  1
  Mn  Mn7  1  0.74978071  0.03483547  0.38176343  1
  P  P8  1  0.03947715  0.24771986  0.49792000  1
  P  P9  1  0.46459010  0.75022537  0.00037792  1
  P  P10  1  0.53606080  0.25017555  0.99975938  1
  P  P11  1  0.96617767  0.75408293  0.49841581  1
  P  P12  1  0.10685112  0.39152963  0.14528232  1
  P  P13  1  0.10674546  0.10906860  0.85516430  1
  P  P14  1  0.38801773  0.61035918  0.64543839  1
  P  P15  1  0.39344862  0.89195036  0.35478115  1
  P  P16  1  0.60642254  0.10201788  0.64621781  1
  P  P17  1  0.60489909  0.39073456  0.35347697  1
  P  P18  1  0.89599901  0.60995154  0.85961385  1
  P  P19  1  0.89299736  0.89176094  0.14553113  1
  O  O20  1  0.06266277  0.64535088  0.42125906  1
  O  O21  1  0.06139151  0.86183858  0.57602820  1
  O  O22  1  0.07431575  0.90121751  0.15872161  1
  O  O23  1  0.07675443  0.60309852  0.84622100  1
  O  O24  1  0.14921432  0.15820039  0.57938572  1
  O  O25  1  0.14756064  0.34089300  0.41711877  1
  O  O26  1  0.15990805  0.43823226  0.02698281  1
  O  O27  1  0.15964364  0.06110376  0.97335280  1
  O  O28  1  0.15118757  0.22131523  0.17558536  1
  O  O29  1  0.15079957  0.27935160  0.82492206  1
  O  O30  1  0.17888908  0.51354695  0.22761828  1
  O  O31  1  0.17786348  0.98815640  0.77183943  1
  O  O32  1  0.32099823  0.01303482  0.27195320  1
  O  O33  1  0.31496948  0.48885294  0.72751383  1
  O  O34  1  0.34279300  0.77990503  0.67548249  1
  O  O35  1  0.34911388  0.72188435  0.32401586  1
  O  O36  1  0.33687995  0.56249981  0.52668093  1
  O  O37  1  0.34065884  0.93883412  0.47317429  1
  O  O38  1  0.35429806  0.84123284  0.08111487  1
  O  O39  1  0.35639768  0.65831450  0.91919287  1
  O  O40  1  0.42540422  0.09419408  0.65933465  1
  O  O41  1  0.42378361  0.40172342  0.33884611  1
  O  O42  1  0.43974346  0.14170722  0.07719906  1
  O  O43  1  0.43938603  0.35801400  0.92252826  1
  O  O44  1  0.56080351  0.64178412  0.07753323  1
  O  O45  1  0.56079831  0.85934863  0.92364623  1
  O  O46  1  0.56813360  0.59701825  0.65767633  1
  O  O47  1  0.57472436  0.90118912  0.34121807  1
  O  O48  1  0.64596696  0.34164457  0.08022586  1
  O  O49  1  0.64559808  0.15852777  0.91883128  1
  O  O50  1  0.65949742  0.05671958  0.52717046  1
  O  O51  1  0.65977826  0.43796076  0.47133308  1
  O  O52  1  0.65029256  0.22058650  0.32377028  1
  O  O53  1  0.65169778  0.27255746  0.67394285  1
  O  O54  1  0.67648939  0.51193818  0.27047270  1
  O  O55  1  0.67894475  0.98070454  0.72854056  1
  O  O56  1  0.82024084  0.01371230  0.22743105  1
  O  O57  1  0.82325103  0.49219467  0.77548895  1
  O  O58  1  0.84748886  0.72222077  0.17699792  1
  O  O59  1  0.85006042  0.77927370  0.82758123  1
  O  O60  1  0.84234434  0.56437532  0.97780457  1
  O  O61  1  0.84033625  0.93963094  0.02731640  1
  O  O62  1  0.85864787  0.65694042  0.57676254  1
  O  O63  1  0.85659892  0.84308399  0.41667972  1
  O  O64  1  0.92538024  0.09866679  0.84142358  1
  O  O65  1  0.92570422  0.40184841  0.15996154  1
  O  O66  1  0.94222794  0.13926165  0.42131017  1
  O  O67  1  0.93809533  0.35337935  0.57345995  1
