# generated using pymatgen
data_Li3BiB8O15
_symmetry_space_group_name_H-M   'P 1'
_cell_length_a   9.62513289
_cell_length_b   11.98834719
_cell_length_c   11.70694140
_cell_angle_alpha   90.00000000
_cell_angle_beta   89.38378399
_cell_angle_gamma   90.00000000
_symmetry_Int_Tables_number   1
_chemical_formula_structural   Li3BiB8O15
_chemical_formula_sum   'Li12 Bi4 B32 O60'
_cell_volume   1350.77922547
_cell_formula_units_Z   4
loop_
 _symmetry_equiv_pos_site_id
 _symmetry_equiv_pos_as_xyz
  1  'x, y, z'
loop_
 _atom_site_type_symbol
 _atom_site_label
 _atom_site_symmetry_multiplicity
 _atom_site_fract_x
 _atom_site_fract_y
 _atom_site_fract_z
 _atom_site_occupancy
  Li  Li0  1  0.07253111  0.06817717  0.59555951  1
  Li  Li1  1  0.10413426  0.69520999  0.54062840  1
  Li  Li2  1  0.07253111  0.43182283  0.09555951  1
  Li  Li3  1  0.10413426  0.80479001  0.04062840  1
  Li  Li4  1  0.49785599  0.23170120  0.68145249  1
  Li  Li5  1  0.49785599  0.26829880  0.18145249  1
  Li  Li6  1  0.50214401  0.73170120  0.81854751  1
  Li  Li7  1  0.50214401  0.76829880  0.31854751  1
  Li  Li8  1  0.89586574  0.19520999  0.95937160  1
  Li  Li9  1  0.92746889  0.56817717  0.90444049  1
  Li  Li10  1  0.89586574  0.30479001  0.45937160  1
  Li  Li11  1  0.92746889  0.93182283  0.40444049  1
  Bi  Bi12  1  0.25177970  0.14386407  0.95777100  1
  Bi  Bi13  1  0.25177970  0.35613593  0.45777100  1
  Bi  Bi14  1  0.74822030  0.64386407  0.54222900  1
  Bi  Bi15  1  0.74822030  0.85613593  0.04222900  1
  B  B16  1  0.11345357  0.35122028  0.89162016  1
  B  B17  1  0.11345357  0.14877972  0.39162016  1
  B  B18  1  0.13116364  0.73431037  0.77321200  1
  B  B19  1  0.13116364  0.76568963  0.27321200  1
  B  B20  1  0.17796681  0.53547622  0.80882851  1
  B  B21  1  0.17796681  0.96452378  0.30882851  1
  B  B22  1  0.18674727  0.90804812  0.87413269  1
  B  B23  1  0.24732189  0.36062509  0.71271693  1
  B  B24  1  0.18674727  0.59195188  0.37413269  1
  B  B25  1  0.24732189  0.13937491  0.21271693  1
  B  B26  1  0.26204637  0.88373147  0.67761447  1
  B  B27  1  0.26204637  0.61626853  0.17761447  1
  B  B28  1  0.32711128  0.60385177  0.97623426  1
  B  B29  1  0.32711128  0.89614823  0.47623426  1
  B  B30  1  0.53509479  0.28014511  0.89464093  1
  B  B31  1  0.53509479  0.21985489  0.39464093  1
  B  B32  1  0.46490521  0.78014511  0.60535907  1
  B  B33  1  0.46490521  0.71985489  0.10535907  1
  B  B34  1  0.67288772  0.10385177  0.52376574  1
  B  B35  1  0.67288772  0.39614823  0.02376574  1
  B  B36  1  0.73795363  0.38373147  0.82238553  1
  B  B37  1  0.73795363  0.11626853  0.32238553  1
  B  B38  1  0.75267811  0.86062509  0.78728307  1
  B  B39  1  0.81325273  0.40804812  0.62586731  1
  B  B40  1  0.75267811  0.63937491  0.28728307  1
  B  B41  1  0.81325273  0.09195188  0.12586731  1
  B  B42  1  0.82203319  0.03547622  0.69117149  1
  B  B43  1  0.82203319  0.46452378  0.19117149  1
  B  B44  1  0.86883636  0.23431037  0.72678800  1
  B  B45  1  0.86883636  0.26568963  0.22678800  1
  B  B46  1  0.88654643  0.85122028  0.60837984  1
  B  B47  1  0.88654643  0.64877972  0.10837984  1
  O  O48  1  0.09193632  0.46434822  0.88871993  1
  O  O49  1  0.08275450  0.28846638  0.98539256  1
  O  O50  1  0.08230995  0.62673242  0.77561671  1
  O  O51  1  0.09193632  0.03565178  0.38871993  1
  O  O52  1  0.08275450  0.21153362  0.48539256  1
  O  O53  1  0.08230995  0.87326758  0.27561671  1
  O  O54  1  0.15163170  0.79257298  0.87428133  1
  O  O55  1  0.18410604  0.29719564  0.80089564  1
  O  O56  1  0.15163170  0.70742702  0.37428133  1
  O  O57  1  0.18410604  0.20280436  0.30089564  1
  O  O58  1  0.17599482  0.95776511  0.97640852  1
  O  O59  1  0.17599482  0.54223489  0.47640852  1
  O  O60  1  0.15816477  0.78763146  0.67171351  1
  O  O61  1  0.22727762  0.47204848  0.71053402  1
  O  O62  1  0.15816477  0.71236854  0.17171351  1
  O  O63  1  0.22727762  0.02795152  0.21053402  1
  O  O64  1  0.32247313  0.30571299  0.62936514  1
  O  O65  1  0.25650215  0.94227974  0.56782095  1
  O  O66  1  0.32247313  0.19428701  0.12936514  1
  O  O67  1  0.22699446  0.95804563  0.77268147  1
  O  O68  1  0.25650215  0.55772026  0.06782095  1
  O  O69  1  0.22699446  0.54195437  0.27268147  1
  O  O70  1  0.30258748  0.58166348  0.86471612  1
  O  O71  1  0.30258748  0.91833652  0.36471612  1
  O  O72  1  0.44574649  0.19679086  0.87059869  1
  O  O73  1  0.44574649  0.30320914  0.37059869  1
  O  O74  1  0.39862717  0.83049446  0.69721731  1
  O  O75  1  0.43457072  0.68302866  0.99377629  1
  O  O76  1  0.39862717  0.66950554  0.19721731  1
  O  O77  1  0.43457072  0.81697134  0.49377629  1
  O  O78  1  0.56542928  0.18302866  0.50622371  1
  O  O79  1  0.60137283  0.33049446  0.80278269  1
  O  O80  1  0.56542928  0.31697134  0.00622371  1
  O  O81  1  0.60137283  0.16950554  0.30278269  1
  O  O82  1  0.55425351  0.69679086  0.62940131  1
  O  O83  1  0.55425351  0.80320914  0.12940131  1
  O  O84  1  0.69741252  0.08166348  0.63528388  1
  O  O85  1  0.69741252  0.41833652  0.13528388  1
  O  O86  1  0.77300554  0.45804563  0.72731853  1
  O  O87  1  0.74349785  0.44227974  0.93217905  1
  O  O88  1  0.77300554  0.04195437  0.22731853  1
  O  O89  1  0.67752687  0.80571299  0.87063486  1
  O  O90  1  0.74349785  0.05772026  0.43217905  1
  O  O91  1  0.67752687  0.69428701  0.37063486  1
  O  O92  1  0.77272238  0.97204848  0.78946598  1
  O  O93  1  0.84183523  0.28763146  0.82828649  1
  O  O94  1  0.77272238  0.52795152  0.28946598  1
  O  O95  1  0.84183523  0.21236854  0.32828649  1
  O  O96  1  0.82400518  0.45776511  0.52359148  1
  O  O97  1  0.82400518  0.04223489  0.02359148  1
  O  O98  1  0.81589396  0.79719564  0.69910436  1
  O  O99  1  0.84836830  0.29257298  0.62571867  1
  O  O100  1  0.81589396  0.70280436  0.19910436  1
  O  O101  1  0.84836830  0.20742702  0.12571867  1
  O  O102  1  0.91769005  0.12673242  0.72438329  1
  O  O103  1  0.91724550  0.78846638  0.51460744  1
  O  O104  1  0.90806368  0.96434822  0.61128007  1
  O  O105  1  0.91769005  0.37326758  0.22438329  1
  O  O106  1  0.91724550  0.71153362  0.01460744  1
  O  O107  1  0.90806368  0.53565178  0.11128007  1
