# generated using pymatgen
data_Li4V3OF11
_symmetry_space_group_name_H-M   'P 1'
_cell_length_a   5.30296200
_cell_length_b   5.51074466
_cell_length_c   16.17460901
_cell_angle_alpha   80.71848076
_cell_angle_beta   89.88220359
_cell_angle_gamma   89.26938081
_symmetry_Int_Tables_number   1
_chemical_formula_structural   Li4V3OF11
_chemical_formula_sum   'Li8 V6 O2 F22'
_cell_volume   466.44867224
_cell_formula_units_Z   2
loop_
 _symmetry_equiv_pos_site_id
 _symmetry_equiv_pos_as_xyz
  1  'x, y, z'
loop_
 _atom_site_type_symbol
 _atom_site_label
 _atom_site_symmetry_multiplicity
 _atom_site_fract_x
 _atom_site_fract_y
 _atom_site_fract_z
 _atom_site_occupancy
  Li  Li0  1  0.68541554  0.13379149  0.17628792  1
  Li  Li1  1  0.98818653  0.09254253  0.77463667  1
  Li  Li2  1  0.45958859  0.07800283  0.88969732  1
  Li  Li3  1  0.31633380  0.52084411  0.49205265  1
  Li  Li4  1  0.16495341  0.71178219  0.16003192  1
  Li  Li5  1  0.51838804  0.55114797  0.76740995  1
  Li  Li6  1  0.04185122  0.64092045  0.88356392  1
  Li  Li7  1  0.79688482  0.97631701  0.51287602  1
  V  V8  1  0.47991089  0.17091097  0.66575986  1
  V  V9  1  0.00838866  0.01524264  0.99205100  1
  V  V10  1  0.99975054  0.33270016  0.33385099  1
  V  V11  1  0.50473133  0.50687112  0.00236113  1
  V  V12  1  0.01144487  0.64130335  0.66721673  1
  V  V13  1  0.49964225  0.83264052  0.33372646  1
  O  O14  1  0.11324353  0.98904433  0.88610489  1
  O  O15  1  0.19471218  0.34557539  0.69695375  1
  F  F16  1  0.19753467  0.02025312  0.35265078  1
  F  F17  1  0.33855840  0.18497566  0.01604574  1
  F  F18  1  0.70293857  0.14415261  0.29938085  1
  F  F19  1  0.41887209  0.20195631  0.54735756  1
  F  F20  1  0.09246023  0.39787832  0.21813014  1
  F  F21  1  0.62535988  0.15343984  0.78397082  1
  F  F22  1  0.90766626  0.27128014  0.44932027  1
  F  F23  1  0.59499703  0.44934806  0.11592476  1
  F  F24  1  0.29708902  0.52094812  0.36753988  1
  F  F25  1  0.18790675  0.68149867  0.03505603  1
  F  F26  1  0.82834569  0.34466862  0.96526464  1
  F  F27  1  0.67667989  0.48806553  0.64546410  1
  F  F28  1  0.80172513  0.64629341  0.31277897  1
  F  F29  1  0.38711453  0.51707593  0.88387856  1
  F  F30  1  0.42163528  0.87717128  0.21466082  1
  F  F31  1  0.08125943  0.71397654  0.54839269  1
  F  F32  1  0.57602036  0.78790987  0.45213393  1
  F  F33  1  0.86859594  0.64498828  0.78197967  1
  F  F34  1  0.91642484  0.96846864  0.11434855  1
  F  F35  1  0.30902156  0.83630235  0.70566935  1
  F  F36  1  0.67159734  0.82749047  0.96770492  1
  F  F37  1  0.80397888  0.97462218  0.64186283  1
