# generated using pymatgen
data_Na3VO3
_symmetry_space_group_name_H-M   'P 1'
_cell_length_a   5.89107623
_cell_length_b   6.03074991
_cell_length_c   6.50249268
_cell_angle_alpha   64.33618222
_cell_angle_beta   89.04213430
_cell_angle_gamma   87.88528019
_symmetry_Int_Tables_number   1
_chemical_formula_structural   Na3VO3
_chemical_formula_sum   'Na6 V2 O6'
_cell_volume   208.08635808
_cell_formula_units_Z   2
loop_
 _symmetry_equiv_pos_site_id
 _symmetry_equiv_pos_as_xyz
  1  'x, y, z'
loop_
 _atom_site_type_symbol
 _atom_site_label
 _atom_site_symmetry_multiplicity
 _atom_site_fract_x
 _atom_site_fract_y
 _atom_site_fract_z
 _atom_site_occupancy
  Na  Na0  1  0.06552410  0.76177156  0.44780504  1
  Na  Na1  1  0.13905994  0.77503736  0.98261612  1
  Na  Na2  1  0.42873874  0.26869284  0.74658149  1
  Na  Na3  1  0.57126126  0.73130716  0.25341851  1
  Na  Na4  1  0.86094006  0.22496264  0.01738388  1
  Na  Na5  1  0.93447590  0.23822844  0.55219496  1
  V  V6  1  0.37075061  0.19150046  0.30600136  1
  V  V7  1  0.62924939  0.80849954  0.69399864  1
  O  O8  1  0.23684106  0.10549330  0.09490094  1
  O  O9  1  0.25281759  0.47372442  0.33963602  1
  O  O10  1  0.31136266  0.93169550  0.62730155  1
  O  O11  1  0.68863734  0.06830450  0.37269845  1
  O  O12  1  0.74718241  0.52627558  0.66036398  1
  O  O13  1  0.76315894  0.89450670  0.90509906  1
