# generated using pymatgen
data_Li2VF4
_symmetry_space_group_name_H-M   'P 1'
_cell_length_a   6.04925493
_cell_length_b   5.41575508
_cell_length_c   9.84083160
_cell_angle_alpha   90.00000000
_cell_angle_beta   90.00000000
_cell_angle_gamma   90.00000000
_symmetry_Int_Tables_number   1
_chemical_formula_structural   Li2VF4
_chemical_formula_sum   'Li8 V4 F16'
_cell_volume   322.39827016
_cell_formula_units_Z   4
loop_
 _symmetry_equiv_pos_site_id
 _symmetry_equiv_pos_as_xyz
  1  'x, y, z'
loop_
 _atom_site_type_symbol
 _atom_site_label
 _atom_site_symmetry_multiplicity
 _atom_site_fract_x
 _atom_site_fract_y
 _atom_site_fract_z
 _atom_site_occupancy
  Li  Li0  1  0.97499218  0.79752220  0.21693222  1
  Li  Li1  1  0.14089955  0.18578407  0.09092848  1
  Li  Li2  1  0.35910045  0.68578407  0.59092848  1
  Li  Li3  1  0.52500782  0.29752220  0.71693222  1
  Li  Li4  1  0.47499218  0.79752220  0.28306778  1
  Li  Li5  1  0.64089955  0.18578407  0.40907152  1
  Li  Li6  1  0.85910045  0.68578407  0.90907152  1
  Li  Li7  1  0.02500782  0.29752220  0.78306778  1
  V  V8  1  0.15884953  0.32969928  0.39036635  1
  V  V9  1  0.34115047  0.82969928  0.89036635  1
  V  V10  1  0.65884953  0.32969928  0.10963365  1
  V  V11  1  0.84115047  0.82969928  0.60963365  1
  F  F12  1  0.90601646  0.17043104  0.50923829  1
  F  F13  1  0.06914769  0.95046483  0.76318497  1
  F  F14  1  0.08229826  0.79980994  0.03230047  1
  F  F15  1  0.28435179  0.51028764  0.76854741  1
  F  F16  1  0.21564821  0.01028764  0.26854741  1
  F  F17  1  0.41770174  0.29980994  0.53230047  1
  F  F18  1  0.43085231  0.45046483  0.26318497  1
  F  F19  1  0.59398354  0.67043104  0.00923829  1
  F  F20  1  0.40601646  0.17043104  0.99076171  1
  F  F21  1  0.56914769  0.95046483  0.73681503  1
  F  F22  1  0.58229826  0.79980994  0.46769953  1
  F  F23  1  0.78435179  0.51028764  0.73145259  1
  F  F24  1  0.71564821  0.01028764  0.23145259  1
  F  F25  1  0.91770174  0.29980994  0.96769953  1
  F  F26  1  0.93085231  0.45046483  0.23681503  1
  F  F27  1  0.09398354  0.67043104  0.49076171  1
