# generated using pymatgen
data_Li4Cr2Fe3Sn3O16
_symmetry_space_group_name_H-M   'P 1'
_cell_length_a   6.12189299
_cell_length_b   6.11701673
_cell_length_c   9.66941777
_cell_angle_alpha   90.00049187
_cell_angle_beta   89.77451305
_cell_angle_gamma   119.97482832
_symmetry_Int_Tables_number   1
_chemical_formula_structural   Li4Cr2Fe3Sn3O16
_chemical_formula_sum   'Li4 Cr2 Fe3 Sn3 O16'
_cell_volume   313.66205775
_cell_formula_units_Z   1
loop_
 _symmetry_equiv_pos_site_id
 _symmetry_equiv_pos_as_xyz
  1  'x, y, z'
loop_
 _atom_site_type_symbol
 _atom_site_label
 _atom_site_symmetry_multiplicity
 _atom_site_fract_x
 _atom_site_fract_y
 _atom_site_fract_z
 _atom_site_occupancy
  Li  Li0  1  0.33868863  0.66933960  0.88814540  1
  Li  Li1  1  0.97720817  0.98860284  0.99131617  1
  Li  Li2  1  0.98198319  0.99099371  0.50019712  1
  Li  Li3  1  0.66847706  0.33426103  0.39545044  1
  Cr  Cr4  1  0.33812715  0.66910593  0.48970917  1
  Cr  Cr5  1  0.67645989  0.33824769  0.98245957  1
  Fe  Fe6  1  0.66239522  0.83121049  0.21526896  1
  Fe  Fe7  1  0.83006155  0.65960593  0.71442646  1
  Fe  Fe8  1  0.83004863  0.17046798  0.71441748  1
  Sn  Sn9  1  0.17068594  0.83163124  0.21293123  1
  Sn  Sn10  1  0.17068749  0.33907002  0.21293865  1
  Sn  Sn11  1  0.34177723  0.17090370  0.71252699  1
  O  O12  1  0.16405312  0.83393233  0.59685104  1
  O  O13  1  0.03956606  0.51979430  0.34756308  1
  O  O14  1  0.34365945  0.67183453  0.09768904  1
  O  O15  1  0.99341315  0.99670613  0.31507644  1
  O  O16  1  0.98979302  0.99491571  0.80596560  1
  O  O17  1  0.16406912  0.33018230  0.59685257  1
  O  O18  1  0.48248937  0.95865898  0.34567602  1
  O  O19  1  0.48248091  0.52387486  0.34568670  1
  O  O20  1  0.32647982  0.16324759  0.09400846  1
  O  O21  1  0.66439209  0.83222152  0.60259688  1
  O  O22  1  0.52666484  0.48407503  0.84433553  1
  O  O23  1  0.52663867  0.04257979  0.84432738  1
  O  O24  1  0.68105326  0.34053461  0.60194823  1
  O  O25  1  0.83450949  0.67140056  0.09933451  1
  O  O26  1  0.95961577  0.47980439  0.84081084  1
  O  O27  1  0.83452067  0.16309721  0.09933103  1
