# generated using pymatgen
data_Na4Ni7O16
_symmetry_space_group_name_H-M   'P 1'
_cell_length_a   7.51376485
_cell_length_b   7.14160980
_cell_length_c   7.09733960
_cell_angle_alpha   63.50405293
_cell_angle_beta   77.42331036
_cell_angle_gamma   68.71668727
_symmetry_Int_Tables_number   1
_chemical_formula_structural   Na4Ni7O16
_chemical_formula_sum   'Na4 Ni7 O16'
_cell_volume   316.88552531
_cell_formula_units_Z   1
loop_
 _symmetry_equiv_pos_site_id
 _symmetry_equiv_pos_as_xyz
  1  'x, y, z'
loop_
 _atom_site_type_symbol
 _atom_site_label
 _atom_site_symmetry_multiplicity
 _atom_site_fract_x
 _atom_site_fract_y
 _atom_site_fract_z
 _atom_site_occupancy
  Na  Na0  1  0.33148658  0.54020487  0.96268230  1
  Na  Na1  1  0.81330575  0.10318309  0.40179425  1
  Na  Na2  1  0.88079251  0.36741294  0.61772347  1
  Na  Na3  1  0.89730083  0.65237356  0.83767568  1
  Ni  Ni4  1  0.00301896  0.99565836  0.99937827  1
  Ni  Ni5  1  0.12472052  0.62843742  0.37599875  1
  Ni  Ni6  1  0.25657557  0.24491492  0.74741679  1
  Ni  Ni7  1  0.37291613  0.88010570  0.12783001  1
  Ni  Ni8  1  0.49552897  0.50536195  0.49916913  1
  Ni  Ni9  1  0.62498451  0.12416310  0.87532848  1
  Ni  Ni10  1  0.74679183  0.75557108  0.25000453  1
  O  O11  1  0.02051673  0.27752583  0.89414835  1
  O  O12  1  0.00639192  0.69636134  0.13290731  1
  O  O13  1  0.17188566  0.32785674  0.48945112  1
  O  O14  1  0.37131866  0.17441420  0.99474038  1
  O  O15  1  0.11864450  0.92809648  0.24357128  1
  O  O16  1  0.23687144  0.54589769  0.62773344  1
  O  O17  1  0.37657929  0.58682292  0.25270156  1
  O  O18  1  0.51499577  0.20328241  0.62596795  1
  O  O19  1  0.74791667  0.05327034  0.11551316  1
  O  O20  1  0.25971907  0.94433807  0.88370112  1
  O  O21  1  0.49293389  0.80337575  0.37109558  1
  O  O22  1  0.58811196  0.42505755  0.75332807  1
  O  O23  1  0.72806430  0.47554659  0.34810122  1
  O  O24  1  0.87956686  0.02848210  0.77787443  1
  O  O25  1  0.62570780  0.82861990  0.00835217  1
  O  O26  1  0.87035834  0.71471408  0.47406818  1
