# generated using pymatgen
data_Li2FeF4
_symmetry_space_group_name_H-M   'P 1'
_cell_length_a   8.61152056
_cell_length_b   8.62917752
_cell_length_c   3.25743020
_cell_angle_alpha   90.00855796
_cell_angle_beta   90.01012561
_cell_angle_gamma   90.02357615
_symmetry_Int_Tables_number   1
_chemical_formula_structural   Li2FeF4
_chemical_formula_sum   'Li4 Fe2 F8'
_cell_volume   242.06071743
_cell_formula_units_Z   2
loop_
 _symmetry_equiv_pos_site_id
 _symmetry_equiv_pos_as_xyz
  1  'x, y, z'
loop_
 _atom_site_type_symbol
 _atom_site_label
 _atom_site_symmetry_multiplicity
 _atom_site_fract_x
 _atom_site_fract_y
 _atom_site_fract_z
 _atom_site_occupancy
  Li  Li0  1  0.25376307  0.77053362  0.00002896  1
  Li  Li1  1  0.22915611  0.25404478  0.99993437  1
  Li  Li2  1  0.75373826  0.72953231  0.00006688  1
  Li  Li3  1  0.72908202  0.24592962  0.99996577  1
  Fe  Fe4  1  0.00022040  0.50045798  0.49998470  1
  Fe  Fe5  1  0.50023012  0.99952371  0.50001571  1
  F  F6  1  0.11174714  0.61463759  0.00002727  1
  F  F7  1  0.16568188  0.32988338  0.49990563  1
  F  F8  1  0.32929101  0.83390604  0.50013734  1
  F  F9  1  0.38511470  0.11174292  0.00003271  1
  F  F10  1  0.61169883  0.88540605  0.99998579  1
  F  F11  1  0.66567567  0.17014129  0.49984961  1
  F  F12  1  0.82930744  0.66607376  0.50010522  1
  F  F13  1  0.88505733  0.38818694  0.99996002  1
