# generated using pymatgen
data_LiMnF3
_symmetry_space_group_name_H-M   'P 1'
_cell_length_a   7.96669655
_cell_length_b   7.13011893
_cell_length_c   7.27453860
_cell_angle_alpha   89.95698174
_cell_angle_beta   95.14485216
_cell_angle_gamma   103.13989699
_symmetry_Int_Tables_number   1
_chemical_formula_structural   LiMnF3
_chemical_formula_sum   'Li6 Mn6 F18'
_cell_volume   400.69692973
_cell_formula_units_Z   6
loop_
 _symmetry_equiv_pos_site_id
 _symmetry_equiv_pos_as_xyz
  1  'x, y, z'
loop_
 _atom_site_type_symbol
 _atom_site_label
 _atom_site_symmetry_multiplicity
 _atom_site_fract_x
 _atom_site_fract_y
 _atom_site_fract_z
 _atom_site_occupancy
  Li  Li0  1  0.08322227  0.26279278  0.45176565  1
  Li  Li1  1  0.32490223  0.58843069  0.23788251  1
  Li  Li2  1  0.33024129  0.07371519  0.24545843  1
  Li  Li3  1  0.66975871  0.92628481  0.75454157  1
  Li  Li4  1  0.67509777  0.41156931  0.76211749  1
  Li  Li5  1  0.91677773  0.73720722  0.54823435  1
  Mn  Mn6  1  0.04120123  0.76209431  0.04132407  1
  Mn  Mn7  1  0.95879877  0.23790569  0.95867593  1
  Mn  Mn8  1  0.26736632  0.56405982  0.73780718  1
  Mn  Mn9  1  0.28908086  0.07791323  0.74880124  1
  Mn  Mn10  1  0.71091914  0.92208677  0.25119876  1
  Mn  Mn11  1  0.73263368  0.43594018  0.26219282  1
  F  F12  1  0.08865135  0.77709996  0.74959960  1
  F  F13  1  0.07788003  0.26648872  0.70835529  1
  F  F14  1  0.17104533  0.49926262  0.00773779  1
  F  F15  1  0.22648250  0.51268500  0.45541268  1
  F  F16  1  0.28444396  0.82176396  0.18841953  1
  F  F17  1  0.23898833  0.09834128  0.46698464  1
  F  F18  1  0.17761882  0.09024527  0.00997541  1
  F  F19  1  0.42848894  0.84862126  0.76359931  1
  F  F20  1  0.43564338  0.37181535  0.78134010  1
  F  F21  1  0.56435662  0.62818465  0.21865990  1
  F  F22  1  0.57151106  0.15137874  0.23640069  1
  F  F23  1  0.82238118  0.90975473  0.99002459  1
  F  F24  1  0.76101167  0.90165872  0.53301536  1
  F  F25  1  0.71555604  0.17823604  0.81158047  1
  F  F26  1  0.77351750  0.48731500  0.54458732  1
  F  F27  1  0.82895467  0.50073738  0.99226221  1
  F  F28  1  0.92211997  0.73351128  0.29164471  1
  F  F29  1  0.91134865  0.22290004  0.25040040  1
