# generated using pymatgen
data_Li2MnF4
_symmetry_space_group_name_H-M   'P 1'
_cell_length_a   7.23947923
_cell_length_b   8.72511247
_cell_length_c   10.60377137
_cell_angle_alpha   90.00000000
_cell_angle_beta   93.25963902
_cell_angle_gamma   90.00000000
_symmetry_Int_Tables_number   1
_chemical_formula_structural   Li2MnF4
_chemical_formula_sum   'Li16 Mn8 F32'
_cell_volume   668.70644648
_cell_formula_units_Z   8
loop_
 _symmetry_equiv_pos_site_id
 _symmetry_equiv_pos_as_xyz
  1  'x, y, z'
loop_
 _atom_site_type_symbol
 _atom_site_label
 _atom_site_symmetry_multiplicity
 _atom_site_fract_x
 _atom_site_fract_y
 _atom_site_fract_z
 _atom_site_occupancy
  Li  Li0  1  0.17553471  0.44432684  0.64261452  1
  Li  Li1  1  0.25421425  0.93993405  0.86798820  1
  Li  Li2  1  0.17553471  0.05567316  0.14261452  1
  Li  Li3  1  0.25421425  0.56006595  0.36798820  1
  Li  Li4  1  0.28982272  0.58736488  0.88916979  1
  Li  Li5  1  0.27119952  0.11246312  0.62523313  1
  Li  Li6  1  0.28982272  0.91263512  0.38916979  1
  Li  Li7  1  0.27119952  0.38753688  0.12523313  1
  Li  Li8  1  0.72880048  0.61246312  0.87476687  1
  Li  Li9  1  0.71017728  0.08736488  0.61083021  1
  Li  Li10  1  0.72880048  0.88753688  0.37476687  1
  Li  Li11  1  0.71017728  0.41263512  0.11083021  1
  Li  Li12  1  0.74578575  0.43993405  0.63201180  1
  Li  Li13  1  0.82446529  0.94432684  0.85738548  1
  Li  Li14  1  0.74578575  0.06006595  0.13201180  1
  Li  Li15  1  0.82446529  0.55567316  0.35738548  1
  Mn  Mn16  1  0.00427495  0.76799473  0.62450259  1
  Mn  Mn17  1  0.00427495  0.73200527  0.12450259  1
  Mn  Mn18  1  0.46094660  0.75815285  0.63448816  1
  Mn  Mn19  1  0.53905340  0.25815285  0.86551184  1
  Mn  Mn20  1  0.46094660  0.74184715  0.13448816  1
  Mn  Mn21  1  0.53905340  0.24184715  0.36551184  1
  Mn  Mn22  1  0.99572505  0.26799473  0.87549741  1
  Mn  Mn23  1  0.99572505  0.23200527  0.37549741  1
  F  F24  1  0.04097072  0.04823505  0.80867637  1
  F  F25  1  0.04097072  0.45176495  0.30867637  1
  F  F26  1  0.11114408  0.26613346  0.55708495  1
  F  F27  1  0.11114408  0.23386654  0.05708495  1
  F  F28  1  0.24688470  0.75544713  0.76931109  1
  F  F29  1  0.19349109  0.92259408  0.55468740  1
  F  F30  1  0.25328317  0.37679495  0.81386697  1
  F  F31  1  0.24688470  0.74455287  0.26931109  1
  F  F32  1  0.19349109  0.57740592  0.05468740  1
  F  F33  1  0.26843192  0.59915905  0.54160927  1
  F  F34  1  0.25328317  0.12320505  0.31386697  1
  F  F35  1  0.26843192  0.90084095  0.04160927  1
  F  F36  1  0.41685594  0.06628842  0.78080871  1
  F  F37  1  0.41685594  0.43371158  0.28080871  1
  F  F38  1  0.51763901  0.66559502  0.95999236  1
  F  F39  1  0.48236099  0.16559502  0.54000764  1
  F  F40  1  0.51763901  0.83440498  0.45999236  1
  F  F41  1  0.48236099  0.33440498  0.04000764  1
  F  F42  1  0.58314406  0.56628842  0.71919129  1
  F  F43  1  0.58314406  0.93371158  0.21919129  1
  F  F44  1  0.73156808  0.09915905  0.95839073  1
  F  F45  1  0.74671683  0.87679495  0.68613303  1
  F  F46  1  0.73156808  0.40084095  0.45839073  1
  F  F47  1  0.80650891  0.42259408  0.94531260  1
  F  F48  1  0.75311530  0.25544713  0.73068891  1
  F  F49  1  0.74671683  0.62320505  0.18613303  1
  F  F50  1  0.80650891  0.07740592  0.44531260  1
  F  F51  1  0.75311530  0.24455287  0.23068891  1
  F  F52  1  0.88885592  0.76613346  0.94291505  1
  F  F53  1  0.88885592  0.73386654  0.44291505  1
  F  F54  1  0.95902928  0.54823505  0.69132363  1
  F  F55  1  0.95902928  0.95176495  0.19132363  1
