# generated using pymatgen
data_Li4Cr7(PO4)6
_symmetry_space_group_name_H-M   'P 1'
_cell_length_a   9.13495894
_cell_length_b   9.13495894
_cell_length_c   6.48547754
_cell_angle_alpha   81.11467477
_cell_angle_beta   98.88532523
_cell_angle_gamma   80.03396929
_symmetry_Int_Tables_number   1
_chemical_formula_structural   Li4Cr7(PO4)6
_chemical_formula_sum   'Li4 Cr7 P6 O24'
_cell_volume   517.42397714
_cell_formula_units_Z   1
loop_
 _symmetry_equiv_pos_site_id
 _symmetry_equiv_pos_as_xyz
  1  'x, y, z'
loop_
 _atom_site_type_symbol
 _atom_site_label
 _atom_site_symmetry_multiplicity
 _atom_site_fract_x
 _atom_site_fract_y
 _atom_site_fract_z
 _atom_site_occupancy
  Li  Li0  1  0.23245627  0.76754373  0.49509925  1
  Li  Li1  1  0.43918970  0.30892432  0.54824919  1
  Li  Li2  1  0.69107568  0.56081030  0.54824919  1
  Li  Li3  1  0.93601785  0.06398215  0.54683930  1
  Cr  Cr4  1  0.02075338  0.36181771  0.18182442  1
  Cr  Cr5  1  0.63818229  0.97924662  0.18182442  1
  Cr  Cr6  1  0.37325207  0.37833861  0.98983098  1
  Cr  Cr7  1  0.62166139  0.62674793  0.98983098  1
  Cr  Cr8  1  0.98810221  0.01189779  0.00656225  1
  Cr  Cr9  1  0.34595762  0.00995851  0.81925678  1
  Cr  Cr10  1  0.99004149  0.65404238  0.81925678  1
  P  P11  1  0.10122910  0.28250535  0.71652292  1
  P  P12  1  0.71749465  0.89877090  0.71652292  1
  P  P13  1  0.32917444  0.67082556  0.05992379  1
  P  P14  1  0.68364643  0.31635357  0.90357090  1
  P  P15  1  0.28737579  0.08594941  0.29959997  1
  P  P16  1  0.91405059  0.71262421  0.29959997  1
  O  O17  1  0.40467401  0.77487607  0.91010858  1
  O  O18  1  0.22512393  0.59532599  0.91010858  1
  O  O19  1  0.25313409  0.74686591  0.21441470  1
  O  O20  1  0.04297557  0.38207513  0.86933632  1
  O  O21  1  0.61792487  0.95702443  0.86933632  1
  O  O22  1  0.88814933  0.91275504  0.76779577  1
  O  O23  1  0.08724496  0.11185067  0.76779577  1
  O  O24  1  0.27997288  0.26923141  0.74893631  1
  O  O25  1  0.73076859  0.72002712  0.74893631  1
  O  O26  1  0.46620488  0.53379512  0.16195094  1
  O  O27  1  0.57978082  0.42021918  0.69865872  1
  O  O28  1  0.88181291  0.89028262  0.21431735  1
  O  O29  1  0.10971738  0.11818709  0.21431735  1
  O  O30  1  0.75791410  0.67555906  0.32156061  1
  O  O31  1  0.32444094  0.24208590  0.32156061  1
  O  O32  1  0.31474776  0.97025283  0.51057695  1
  O  O33  1  0.02974717  0.68525224  0.51057695  1
  O  O34  1  0.80139540  0.19860460  0.84835570  1
  O  O35  1  0.38163828  0.01938316  0.14157762  1
  O  O36  1  0.98061684  0.61836172  0.14157762  1
  O  O37  1  0.57926396  0.23827424  0.03776419  1
  O  O38  1  0.76172576  0.42073604  0.03776419  1
  O  O39  1  0.01341682  0.34704920  0.49221477  1
  O  O40  1  0.65295080  0.98658318  0.49221477  1
