# generated using pymatgen
data_Li2Ti3SnO8
_symmetry_space_group_name_H-M   'P 1'
_cell_length_a   8.78538094
_cell_length_b   8.78521622
_cell_length_c   8.78538580
_cell_angle_alpha   90.00002792
_cell_angle_beta   90.00055095
_cell_angle_gamma   89.99838032
_symmetry_Int_Tables_number   1
_chemical_formula_structural   Li2Ti3SnO8
_chemical_formula_sum   'Li8 Ti12 Sn4 O32'
_cell_volume   678.06900036
_cell_formula_units_Z   4
loop_
 _symmetry_equiv_pos_site_id
 _symmetry_equiv_pos_as_xyz
  1  'x, y, z'
loop_
 _atom_site_type_symbol
 _atom_site_label
 _atom_site_symmetry_multiplicity
 _atom_site_fract_x
 _atom_site_fract_y
 _atom_site_fract_z
 _atom_site_occupancy
  Li  Li0  1  0.13082568  0.86916108  0.36917618  1
  Li  Li1  1  0.25161007  0.75161206  0.74840863  1
  Li  Li2  1  0.24839995  0.24840010  0.24840414  1
  Li  Li3  1  0.36916671  0.13081101  0.86918984  1
  Li  Li4  1  0.63080720  0.63082934  0.63080790  1
  Li  Li5  1  0.75160324  0.74839753  0.25160883  1
  Li  Li6  1  0.74840962  0.25160171  0.75160561  1
  Li  Li7  1  0.86919788  0.36918085  0.13080995  1
  Ti  Ti8  1  0.12834070  0.61846154  0.11608456  1
  Ti  Ti9  1  0.11848103  0.38389623  0.87165114  1
  Ti  Ti10  1  0.11611363  0.12832154  0.61848410  1
  Ti  Ti11  1  0.38389800  0.87170107  0.11848950  1
  Ti  Ti12  1  0.38153680  0.61607908  0.37163719  1
  Ti  Ti13  1  0.37164978  0.38153326  0.61609102  1
  Ti  Ti14  1  0.62833880  0.88154653  0.88392035  1
  Ti  Ti15  1  0.61849078  0.11612107  0.12834323  1
  Ti  Ti16  1  0.61611227  0.37163601  0.38154053  1
  Ti  Ti17  1  0.88389616  0.62833624  0.88151854  1
  Ti  Ti18  1  0.88151987  0.88391653  0.62835972  1
  Ti  Ti19  1  0.87168260  0.11847417  0.38390811  1
  Sn  Sn20  1  0.98598934  0.51402168  0.48599659  1
  Sn  Sn21  1  0.51397362  0.48603034  0.98602497  1
  Sn  Sn22  1  0.48598794  0.98598324  0.51400389  1
  Sn  Sn23  1  0.01401852  0.01401517  0.01401781  1
  O  O24  1  0.08696693  0.13293793  0.39291868  1
  O  O25  1  0.10707943  0.91302344  0.63296255  1
  O  O26  1  0.11703942  0.61701885  0.88294989  1
  O  O27  1  0.13294422  0.39289919  0.08694850  1
  O  O28  1  0.12033964  0.16668034  0.84067649  1
  O  O29  1  0.12690216  0.37310531  0.62687381  1
  O  O30  1  0.15931286  0.62032518  0.33329022  1
  O  O31  1  0.16669097  0.84067267  0.12035052  1
  O  O32  1  0.33331539  0.15928315  0.62035659  1
  O  O33  1  0.34069009  0.37960063  0.83331757  1
  O  O34  1  0.37310941  0.62688531  0.12689052  1
  O  O35  1  0.37959318  0.83330773  0.34068487  1
  O  O36  1  0.36704468  0.60706184  0.58695712  1
  O  O37  1  0.38296893  0.38296276  0.38295793  1
  O  O38  1  0.39291761  0.08698513  0.13296515  1
  O  O39  1  0.41303328  0.86709645  0.89293818  1
  O  O40  1  0.58695036  0.36701253  0.60707033  1
  O  O41  1  0.60707161  0.58695530  0.36705412  1
  O  O42  1  0.61702992  0.88298346  0.11704893  1
  O  O43  1  0.63296642  0.10710475  0.91305652  1
  O  O44  1  0.62037010  0.33334104  0.15931313  1
  O  O45  1  0.62689035  0.12690444  0.37312227  1
  O  O46  1  0.65930902  0.87968501  0.66670750  1
  O  O47  1  0.66668151  0.65934505  0.87964693  1
  O  O48  1  0.83333257  0.34069551  0.37964479  1
  O  O49  1  0.84068808  0.12037421  0.16668845  1
  O  O50  1  0.87311987  0.87313202  0.87312225  1
  O  O51  1  0.87959299  0.66669425  0.65932332  1
  O  O52  1  0.86705392  0.89293370  0.41304864  1
  O  O53  1  0.88297089  0.11702768  0.61702736  1
  O  O54  1  0.89292865  0.41304081  0.86701969  1
  O  O55  1  0.91304733  0.63293600  0.10706585  1
