# generated using pymatgen
data_LiMnF4
_symmetry_space_group_name_H-M   'P 1'
_cell_length_a   7.56191896
_cell_length_b   7.90189985
_cell_length_c   15.65563815
_cell_angle_alpha   90.00000000
_cell_angle_beta   90.00000000
_cell_angle_gamma   104.19525232
_symmetry_Int_Tables_number   1
_chemical_formula_structural   LiMnF4
_chemical_formula_sum   'Li12 Mn12 F48'
_cell_volume   906.91534653
_cell_formula_units_Z   12
loop_
 _symmetry_equiv_pos_site_id
 _symmetry_equiv_pos_as_xyz
  1  'x, y, z'
loop_
 _atom_site_type_symbol
 _atom_site_label
 _atom_site_symmetry_multiplicity
 _atom_site_fract_x
 _atom_site_fract_y
 _atom_site_fract_z
 _atom_site_occupancy
  Li  Li0  1  0.14600291  0.09574193  0.86337089  1
  Li  Li1  1  0.15387071  0.08522536  0.20331159  1
  Li  Li2  1  0.37267875  0.90069030  0.34804753  1
  Li  Li3  1  0.35835619  0.90181955  0.04014417  1
  Li  Li4  1  0.31984714  0.91039672  0.67603395  1
  Li  Li5  1  0.15810675  0.08237119  0.50240315  1
  Li  Li6  1  0.84189325  0.91762881  0.00240315  1
  Li  Li7  1  0.68015286  0.08960328  0.17603395  1
  Li  Li8  1  0.64164381  0.09818045  0.54014417  1
  Li  Li9  1  0.62732125  0.09930970  0.84804753  1
  Li  Li10  1  0.84612929  0.91477464  0.70331159  1
  Li  Li11  1  0.85399709  0.90425807  0.36337089  1
  Mn  Mn12  1  0.03658067  0.66935009  0.52283670  1
  Mn  Mn13  1  0.04634265  0.68709574  0.85442286  1
  Mn  Mn14  1  0.04982344  0.67958816  0.19183700  1
  Mn  Mn15  1  0.46025853  0.31332916  0.02310617  1
  Mn  Mn16  1  0.54763487  0.67456820  0.18797606  1
  Mn  Mn17  1  0.45542709  0.32635033  0.35569465  1
  Mn  Mn18  1  0.54457291  0.67364967  0.85569465  1
  Mn  Mn19  1  0.45236513  0.32543180  0.68797606  1
  Mn  Mn20  1  0.53974147  0.68667084  0.52310617  1
  Mn  Mn21  1  0.95017656  0.32041184  0.69183700  1
  Mn  Mn22  1  0.95365735  0.31290426  0.35442286  1
  Mn  Mn23  1  0.96341933  0.33064991  0.02283670  1
  F  F24  1  0.03587336  0.87917499  0.92536569  1
  F  F25  1  0.01390515  0.79416027  0.42505034  1
  F  F26  1  0.06443762  0.86007031  0.75286777  1
  F  F27  1  0.14033856  0.88637609  0.57877178  1
  F  F28  1  0.12824549  0.84815888  0.09853051  1
  F  F29  1  0.06225739  0.54356340  0.96795095  1
  F  F30  1  0.16352277  0.87647721  0.27025404  1
  F  F31  1  0.06873143  0.54092043  0.62105774  1
  F  F32  1  0.04993741  0.48538735  0.78955508  1
  F  F33  1  0.16627770  0.24678282  0.69603375  1
  F  F34  1  0.21053570  0.38836562  0.35905633  1
  F  F35  1  0.30677909  0.75613613  0.85691063  1
  F  F36  1  0.30581557  0.67077934  0.48137417  1
  F  F37  1  0.22406084  0.29733291  0.06365923  1
  F  F38  1  0.26424618  0.60565534  0.18824792  1
  F  F39  1  0.44433030  0.52568696  0.62255929  1
  F  F40  1  0.44655405  0.45047087  0.79155077  1
  F  F41  1  0.35638692  0.10623709  0.41900844  1
  F  F42  1  0.55246497  0.88314239  0.25111721  1
  F  F43  1  0.46572690  0.54216398  0.95434611  1
  F  F44  1  0.38903407  0.20833440  0.25565014  1
  F  F45  1  0.37416086  0.14968363  0.92869984  1
  F  F46  1  0.55653569  0.80217592  0.08743100  1
  F  F47  1  0.52190684  0.88784694  0.59685456  1
  F  F48  1  0.47809316  0.11215306  0.09685456  1
  F  F49  1  0.44346431  0.19782408  0.58743100  1
  F  F50  1  0.62583914  0.85031637  0.42869984  1
  F  F51  1  0.61096593  0.79166560  0.75565014  1
  F  F52  1  0.53427310  0.45783602  0.45434611  1
  F  F53  1  0.44753503  0.11685761  0.75111721  1
  F  F54  1  0.64361308  0.89376291  0.91900844  1
  F  F55  1  0.55344595  0.54952913  0.29155077  1
  F  F56  1  0.55566970  0.47431304  0.12255929  1
  F  F57  1  0.73575382  0.39434466  0.68824792  1
  F  F58  1  0.77593916  0.70266709  0.56365923  1
  F  F59  1  0.69418443  0.32922066  0.98137417  1
  F  F60  1  0.69322091  0.24386387  0.35691063  1
  F  F61  1  0.78946430  0.61163438  0.85905633  1
  F  F62  1  0.83372230  0.75321718  0.19603375  1
  F  F63  1  0.95006259  0.51461265  0.28955508  1
  F  F64  1  0.93126957  0.45907957  0.12105774  1
  F  F65  1  0.83647723  0.12352279  0.77025404  1
  F  F66  1  0.93774261  0.45643660  0.46795095  1
  F  F67  1  0.87175451  0.15184112  0.59853051  1
  F  F68  1  0.85966144  0.11362391  0.07877178  1
  F  F69  1  0.93556238  0.13992969  0.25286777  1
  F  F70  1  0.98609485  0.20583973  0.92505034  1
  F  F71  1  0.96412664  0.12082501  0.42536569  1
