# generated using pymatgen
data_Li2CuPO4
_symmetry_space_group_name_H-M   'P 1'
_cell_length_a   6.24568551
_cell_length_b   5.38854737
_cell_length_c   10.08389908
_cell_angle_alpha   90.17722777
_cell_angle_beta   89.89072279
_cell_angle_gamma   89.60546638
_symmetry_Int_Tables_number   1
_chemical_formula_structural   Li2CuPO4
_chemical_formula_sum   'Li8 Cu4 P4 O16'
_cell_volume   339.36505938
_cell_formula_units_Z   4
loop_
 _symmetry_equiv_pos_site_id
 _symmetry_equiv_pos_as_xyz
  1  'x, y, z'
loop_
 _atom_site_type_symbol
 _atom_site_label
 _atom_site_symmetry_multiplicity
 _atom_site_fract_x
 _atom_site_fract_y
 _atom_site_fract_z
 _atom_site_occupancy
  Li  Li0  1  0.99873475  0.15473657  0.74540048  1
  Li  Li1  1  0.99957755  0.15520944  0.24638297  1
  Li  Li2  1  0.24580145  0.32843029  0.49589169  1
  Li  Li3  1  0.24882842  0.32775234  0.99720538  1
  Li  Li4  1  0.25390302  0.67254163  0.24564873  1
  Li  Li5  1  0.25343358  0.67261821  0.74551218  1
  Li  Li6  1  0.50110460  0.84572219  0.49516708  1
  Li  Li7  1  0.74772608  0.67396989  0.24479956  1
  Cu  Cu8  1  0.49812975  0.82657464  0.99790256  1
  Cu  Cu9  1  0.73988619  0.66744514  0.74509476  1
  Cu  Cu10  1  0.75735614  0.33745884  0.49656419  1
  Cu  Cu11  1  0.75205820  0.32727985  0.00000125  1
  P  P12  1  0.00698511  0.82751247  0.00246656  1
  P  P13  1  0.00710150  0.82639450  0.49681395  1
  P  P14  1  0.49528441  0.17420931  0.25209029  1
  P  P15  1  0.49097292  0.17624889  0.74669677  1
  O  O16  1  0.00844163  0.82783202  0.65167716  1
  O  O17  1  0.01393117  0.09898863  0.44410362  1
  O  O18  1  0.00481302  0.82343637  0.15651028  1
  O  O19  1  0.01380184  0.09790024  0.94756605  1
  O  O20  1  0.20789907  0.68232554  0.44474739  1
  O  O21  1  0.20264081  0.67833694  0.94634476  1
  O  O22  1  0.29352839  0.31087678  0.19596422  1
  O  O23  1  0.29191527  0.31902442  0.69306354  1
  O  O24  1  0.48560611  0.18267206  0.90109878  1
  O  O25  1  0.48583158  0.90390641  0.69318829  1
  O  O26  1  0.48799292  0.17634435  0.40622577  1
  O  O27  1  0.49944608  0.89618856  0.20619646  1
  O  O28  1  0.70709366  0.29690008  0.70121021  1
  O  O29  1  0.70432233  0.31007767  0.20625649  1
  O  O30  1  0.79679344  0.70375464  0.44334947  1
  O  O31  1  0.79905901  0.69733107  0.95145212  1
