# generated using pymatgen
data_Mn3Sn(PO4)6
_symmetry_space_group_name_H-M   'P 1'
_cell_length_a   8.62352252
_cell_length_b   8.62352239
_cell_length_c   8.62352230
_cell_angle_alpha   59.56168768
_cell_angle_beta   59.56168684
_cell_angle_gamma   59.56168447
_symmetry_Int_Tables_number   1
_chemical_formula_structural   Mn3Sn(PO4)6
_chemical_formula_sum   'Mn3 Sn1 P6 O24'
_cell_volume   448.94152155
_cell_formula_units_Z   1
loop_
 _symmetry_equiv_pos_site_id
 _symmetry_equiv_pos_as_xyz
  1  'x, y, z'
loop_
 _atom_site_type_symbol
 _atom_site_label
 _atom_site_symmetry_multiplicity
 _atom_site_fract_x
 _atom_site_fract_y
 _atom_site_fract_z
 _atom_site_occupancy
  Mn  Mn0  1  0.14153498  0.14153498  0.14153498  1
  Mn  Mn1  1  0.35799918  0.35799918  0.35799918  1
  Mn  Mn2  1  0.64148391  0.64148391  0.64148391  1
  Sn  Sn3  1  0.86182963  0.86182963  0.86182963  1
  P  P4  1  0.74976584  0.45667374  0.03919840  1
  P  P5  1  0.03919840  0.74976584  0.45667374  1
  P  P6  1  0.45667374  0.03919840  0.74976584  1
  P  P7  1  0.25891032  0.52904167  0.96513912  1
  P  P8  1  0.52904167  0.96513912  0.25891032  1
  P  P9  1  0.96513912  0.25891032  0.52904167  1
  O  O10  1  0.12889611  0.30757476  0.49725124  1
  O  O11  1  0.30757476  0.49725124  0.12889611  1
  O  O12  1  0.06250082  0.91846758  0.26531492  1
  O  O13  1  0.49725124  0.12889611  0.30757476  1
  O  O14  1  0.01822285  0.79069225  0.62007359  1
  O  O15  1  0.23027195  0.58265144  0.42811056  1
  O  O16  1  0.26531492  0.06250082  0.91846758  1
  O  O17  1  0.42811056  0.23027195  0.58265144  1
  O  O18  1  0.20770304  0.36790782  0.99278178  1
  O  O19  1  0.58265144  0.42811056  0.23027195  1
  O  O20  1  0.09362226  0.72014167  0.94647457  1
  O  O21  1  0.36790782  0.99278178  0.20770304  1
  O  O22  1  0.62007359  0.01822285  0.79069225  1
  O  O23  1  0.91846758  0.26531492  0.06250082  1
  O  O24  1  0.42928317  0.54668277  0.77563180  1
  O  O25  1  0.79069225  0.62007359  0.01822285  1
  O  O26  1  0.54668277  0.77563180  0.42928317  1
  O  O27  1  0.72014167  0.94647457  0.09362226  1
  O  O28  1  0.77563180  0.42928317  0.54668277  1
  O  O29  1  0.99278178  0.20770304  0.36790782  1
  O  O30  1  0.48962076  0.86921824  0.70932726  1
  O  O31  1  0.94647457  0.09362226  0.72014167  1
  O  O32  1  0.70932726  0.48962076  0.86921824  1
  O  O33  1  0.86921824  0.70932726  0.48962076  1
