# generated using pymatgen
data_LiFePCO7
_symmetry_space_group_name_H-M   'P 1'
_cell_length_a   8.45524426
_cell_length_b   5.20294830
_cell_length_c   6.43013285
_cell_angle_alpha   90.00000000
_cell_angle_beta   90.00000000
_cell_angle_gamma   84.13223256
_symmetry_Int_Tables_number   1
_chemical_formula_structural   LiFePCO7
_chemical_formula_sum   'Li2 Fe2 P2 C2 O14'
_cell_volume   281.39355188
_cell_formula_units_Z   2
loop_
 _symmetry_equiv_pos_site_id
 _symmetry_equiv_pos_as_xyz
  1  'x, y, z'
loop_
 _atom_site_type_symbol
 _atom_site_label
 _atom_site_symmetry_multiplicity
 _atom_site_fract_x
 _atom_site_fract_y
 _atom_site_fract_z
 _atom_site_occupancy
  Li  Li0  1  0.11150702  0.77175735  0.25000000  1
  Li  Li1  1  0.88849298  0.22824265  0.75000000  1
  Fe  Fe2  1  0.33408959  0.80058860  0.75000000  1
  Fe  Fe3  1  0.66591041  0.19941140  0.25000000  1
  P  P4  1  0.42363949  0.73489415  0.25000000  1
  P  P5  1  0.57636051  0.26510585  0.75000000  1
  C  C6  1  0.04409580  0.70245735  0.75000000  1
  C  C7  1  0.95590420  0.29754265  0.25000000  1
  O  O8  1  0.06895898  0.94349573  0.75000000  1
  O  O9  1  0.08951569  0.38529139  0.25000000  1
  O  O10  1  0.17233092  0.53934617  0.75000000  1
  O  O11  1  0.31054732  0.80052853  0.06254958  1
  O  O12  1  0.31054732  0.80052853  0.43745042  1
  O  O13  1  0.42805786  0.11735083  0.75000000  1
  O  O14  1  0.48117305  0.44336201  0.25000000  1
  O  O15  1  0.51882695  0.55663799  0.75000000  1
  O  O16  1  0.57194214  0.88264917  0.25000000  1
  O  O17  1  0.68945268  0.19947147  0.56254958  1
  O  O18  1  0.68945268  0.19947147  0.93745042  1
  O  O19  1  0.82766908  0.46065383  0.25000000  1
  O  O20  1  0.91048431  0.61470861  0.75000000  1
  O  O21  1  0.93104102  0.05650427  0.25000000  1
