# generated using pymatgen
data_CrO3
_symmetry_space_group_name_H-M   'P 1'
_cell_length_a   6.99576155
_cell_length_b   4.62517526
_cell_length_c   10.03265778
_cell_angle_alpha   90.00000000
_cell_angle_beta   67.04350215
_cell_angle_gamma   90.00000000
_symmetry_Int_Tables_number   1
_chemical_formula_structural   CrO3
_chemical_formula_sum   'Cr4 O12'
_cell_volume   298.91319901
_cell_formula_units_Z   4
loop_
 _symmetry_equiv_pos_site_id
 _symmetry_equiv_pos_as_xyz
  1  'x, y, z'
loop_
 _atom_site_type_symbol
 _atom_site_label
 _atom_site_symmetry_multiplicity
 _atom_site_fract_x
 _atom_site_fract_y
 _atom_site_fract_z
 _atom_site_occupancy
  Cr  Cr0  1  0.13110611  0.97522215  0.71057733  1
  Cr  Cr1  1  0.63110611  0.52477785  0.21057733  1
  Cr  Cr2  1  0.36889389  0.47522215  0.78942267  1
  Cr  Cr3  1  0.86889389  0.02477785  0.28942267  1
  O  O4  1  0.08352806  0.85859151  0.21611704  1
  O  O5  1  0.14161387  0.80786262  0.56925617  1
  O  O6  1  0.41647194  0.35859151  0.28388296  1
  O  O7  1  0.15976660  0.72572441  0.83654434  1
  O  O8  1  0.34023340  0.22572441  0.66345566  1
  O  O9  1  0.64161387  0.69213738  0.06925617  1
  O  O10  1  0.35838613  0.30786262  0.93074383  1
  O  O11  1  0.65976660  0.77427559  0.33654434  1
  O  O12  1  0.84023340  0.27427559  0.16345566  1
  O  O13  1  0.58352806  0.64140849  0.71611704  1
  O  O14  1  0.85838613  0.19213738  0.43074383  1
  O  O15  1  0.91647194  0.14140849  0.78388296  1
