# generated using pymatgen
data_LiMnF3
_symmetry_space_group_name_H-M   'P 1'
_cell_length_a   15.56412070
_cell_length_b   7.16530129
_cell_length_c   7.24248755
_cell_angle_alpha   90.00000000
_cell_angle_beta   95.89126579
_cell_angle_gamma   90.00000000
_symmetry_Int_Tables_number   1
_chemical_formula_structural   LiMnF3
_chemical_formula_sum   'Li12 Mn12 F36'
_cell_volume   803.42804596
_cell_formula_units_Z   12
loop_
 _symmetry_equiv_pos_site_id
 _symmetry_equiv_pos_as_xyz
  1  'x, y, z'
loop_
 _atom_site_type_symbol
 _atom_site_label
 _atom_site_symmetry_multiplicity
 _atom_site_fract_x
 _atom_site_fract_y
 _atom_site_fract_z
 _atom_site_occupancy
  Li  Li0  1  0.08392993  0.61433842  0.75461031  1
  Li  Li1  1  0.08617477  0.13512837  0.75936062  1
  Li  Li2  1  0.20487166  0.87338201  0.54980045  1
  Li  Li3  1  0.29512834  0.37338201  0.45019955  1
  Li  Li4  1  0.41382523  0.63512837  0.24063938  1
  Li  Li5  1  0.41607007  0.11433842  0.24538969  1
  Li  Li6  1  0.58392993  0.88566158  0.75461031  1
  Li  Li7  1  0.58617477  0.36487163  0.75936062  1
  Li  Li8  1  0.70487166  0.62661799  0.54980045  1
  Li  Li9  1  0.79512834  0.12661799  0.45019955  1
  Li  Li10  1  0.91382523  0.86487163  0.24063938  1
  Li  Li11  1  0.91607007  0.38566158  0.24538969  1
  Mn  Mn12  1  0.11432011  0.12384731  0.25512593  1
  Mn  Mn13  1  0.10676142  0.63165672  0.24827971  1
  Mn  Mn14  1  0.23082226  0.37418205  0.95903763  1
  Mn  Mn15  1  0.26917774  0.87418205  0.04096237  1
  Mn  Mn16  1  0.39323858  0.13165672  0.75172029  1
  Mn  Mn17  1  0.38567989  0.62384731  0.74487407  1
  Mn  Mn18  1  0.61432011  0.37615269  0.25512593  1
  Mn  Mn19  1  0.60676142  0.86834328  0.24827971  1
  Mn  Mn20  1  0.73082226  0.12581795  0.95903763  1
  Mn  Mn21  1  0.76917774  0.62581795  0.04096237  1
  Mn  Mn22  1  0.89323858  0.36834328  0.75172029  1
  Mn  Mn23  1  0.88567989  0.87615269  0.74487407  1
  F  F24  1  0.03221647  0.88743370  0.21260319  1
  F  F25  1  0.03633931  0.36961435  0.23262517  1
  F  F26  1  0.10816768  0.37593946  0.81599637  1
  F  F27  1  0.15958506  0.67511489  0.98821183  1
  F  F28  1  0.12842428  0.66660211  0.53207314  1
  F  F29  1  0.16592961  0.08166698  0.98893692  1
  F  F30  1  0.13255399  0.08444963  0.53936962  1
  F  F31  1  0.21089270  0.87538627  0.29269338  1
  F  F32  1  0.20657582  0.37608293  0.25015560  1
  F  F33  1  0.29342418  0.87608293  0.74984440  1
  F  F34  1  0.28910730  0.37538627  0.70730662  1
  F  F35  1  0.36744601  0.58444963  0.46063038  1
  F  F36  1  0.33407039  0.58166698  0.01106308  1
  F  F37  1  0.37157572  0.16660211  0.46792686  1
  F  F38  1  0.34041494  0.17511489  0.01178817  1
  F  F39  1  0.39183232  0.87594046  0.18400363  1
  F  F40  1  0.46366069  0.86961435  0.76737483  1
  F  F41  1  0.46778353  0.38743370  0.78739681  1
  F  F42  1  0.53221647  0.61256630  0.21260319  1
  F  F43  1  0.53633931  0.13038565  0.23262517  1
  F  F44  1  0.60816768  0.12406054  0.81599637  1
  F  F45  1  0.65958506  0.82488511  0.98821183  1
  F  F46  1  0.62842428  0.83339789  0.53207314  1
  F  F47  1  0.66592961  0.41833302  0.98893692  1
  F  F48  1  0.63255399  0.41555037  0.53936962  1
  F  F49  1  0.71089270  0.62461373  0.29269338  1
  F  F50  1  0.70657582  0.12391807  0.25015560  1
  F  F51  1  0.79342418  0.62391707  0.74984440  1
  F  F52  1  0.78910730  0.12461373  0.70730662  1
  F  F53  1  0.86744601  0.91555037  0.46063038  1
  F  F54  1  0.83407039  0.91833302  0.01106308  1
  F  F55  1  0.87157572  0.33339789  0.46792686  1
  F  F56  1  0.84041494  0.32488511  0.01178817  1
  F  F57  1  0.89183232  0.62405954  0.18400363  1
  F  F58  1  0.96366069  0.63038565  0.76737483  1
  F  F59  1  0.96778353  0.11256630  0.78739681  1
