# generated using pymatgen
data_Mn12O7F17
_symmetry_space_group_name_H-M   'P 1'
_cell_length_a   4.83184668
_cell_length_b   5.82377041
_cell_length_c   15.75863233
_cell_angle_alpha   90.63555047
_cell_angle_beta   89.10096751
_cell_angle_gamma   92.12044176
_symmetry_Int_Tables_number   1
_chemical_formula_structural   Mn12O7F17
_chemical_formula_sum   'Mn12 O7 F17'
_cell_volume   443.05835664
_cell_formula_units_Z   1
loop_
 _symmetry_equiv_pos_site_id
 _symmetry_equiv_pos_as_xyz
  1  'x, y, z'
loop_
 _atom_site_type_symbol
 _atom_site_label
 _atom_site_symmetry_multiplicity
 _atom_site_fract_x
 _atom_site_fract_y
 _atom_site_fract_z
 _atom_site_occupancy
  Mn  Mn0  1  0.04274083  0.16444912  0.41137346  1
  Mn  Mn1  1  0.99448104  0.83299658  0.24609222  1
  Mn  Mn2  1  0.95583897  0.18547719  0.07857204  1
  Mn  Mn3  1  0.05438011  0.15958364  0.75289385  1
  Mn  Mn4  1  0.99560746  0.85503198  0.58788980  1
  Mn  Mn5  1  0.02962146  0.84514909  0.91202425  1
  Mn  Mn6  1  0.47206272  0.32420175  0.58147192  1
  Mn  Mn7  1  0.50722884  0.36125586  0.91611258  1
  Mn  Mn8  1  0.48938518  0.34148263  0.25089118  1
  Mn  Mn9  1  0.51976638  0.63921894  0.08746392  1
  Mn  Mn10  1  0.49891576  0.64620535  0.42053395  1
  Mn  Mn11  1  0.46756252  0.65561798  0.75317394  1
  O  O12  1  0.23389479  0.12150659  0.30502191  1
  O  O13  1  0.20786263  0.11370692  0.64048932  1
  O  O14  1  0.23259385  0.88309451  0.80184721  1
  O  O15  1  0.29151568  0.36991747  0.47191291  1
  O  O16  1  0.29073201  0.40011426  0.81377129  1
  O  O17  1  0.69998841  0.39964344  0.02281833  1
  O  O18  1  0.70843435  0.58839619  0.19206629  1
  F  F19  1  0.24014748  0.13126672  0.96996384  1
  F  F20  1  0.24654375  0.86402847  0.13424427  1
  F  F21  1  0.23695436  0.87732304  0.47768213  1
  F  F22  1  0.24469363  0.36773895  0.14721055  1
  F  F23  1  0.26353427  0.61422019  0.30897377  1
  F  F24  1  0.25207722  0.61117395  0.63748020  1
  F  F25  1  0.27923001  0.63136792  0.98261067  1
  F  F26  1  0.73771314  0.39110707  0.35506242  1
  F  F27  1  0.73253746  0.61244504  0.53439928  1
  F  F28  1  0.74256382  0.61532359  0.86238524  1
  F  F29  1  0.70340850  0.38842321  0.69139871  1
  F  F30  1  0.74633421  0.09480607  0.19346742  1
  F  F31  1  0.79023890  0.12072952  0.51786974  1
  F  F32  1  0.78312257  0.89095980  0.36713347  1
  F  F33  1  0.77822194  0.89133473  0.02011116  1
  F  F34  1  0.79346168  0.13094696  0.85738600  1
  F  F35  1  0.73660407  0.87975529  0.69619881  1
