# generated using pymatgen
data_Na3Sb5O14
_symmetry_space_group_name_H-M   'P 1'
_cell_length_a   24.03340304
_cell_length_b   7.26746951
_cell_length_c   7.58926243
_cell_angle_alpha   90.00000000
_cell_angle_beta   90.00000000
_cell_angle_gamma   90.00000000
_symmetry_Int_Tables_number   1
_chemical_formula_structural   Na3Sb5O14
_chemical_formula_sum   'Na12 Sb20 O56'
_cell_volume   1325.55593528
_cell_formula_units_Z   4
loop_
 _symmetry_equiv_pos_site_id
 _symmetry_equiv_pos_as_xyz
  1  'x, y, z'
loop_
 _atom_site_type_symbol
 _atom_site_label
 _atom_site_symmetry_multiplicity
 _atom_site_fract_x
 _atom_site_fract_y
 _atom_site_fract_z
 _atom_site_occupancy
  Na  Na0  1  0.02380216  0.22933349  0.13217627  1
  Na  Na1  1  0.13270544  0.57965372  0.87870062  1
  Na  Na2  1  0.20136026  0.71437287  0.45167756  1
  Na  Na3  1  0.29863974  0.21437287  0.45167756  1
  Na  Na4  1  0.36729456  0.07965372  0.87870062  1
  Na  Na5  1  0.47619784  0.72933349  0.13217627  1
  Na  Na6  1  0.52380216  0.27066651  0.13217627  1
  Na  Na7  1  0.63270544  0.92034628  0.87870062  1
  Na  Na8  1  0.70136026  0.78562713  0.45167756  1
  Na  Na9  1  0.79863974  0.28562713  0.45167756  1
  Na  Na10  1  0.86729456  0.42034628  0.87870062  1
  Na  Na11  1  0.97619784  0.77066651  0.13217627  1
  Sb  Sb12  1  0.05859326  0.41778007  0.51666639  1
  Sb  Sb13  1  0.06317750  0.90250433  0.51639067  1
  Sb  Sb14  1  0.14404949  0.09941090  0.78423339  1
  Sb  Sb15  1  0.14501308  0.10650481  0.24937009  1
  Sb  Sb16  1  0.24251777  0.81037487  0.01636868  1
  Sb  Sb17  1  0.25748223  0.31037487  0.01636868  1
  Sb  Sb18  1  0.35498692  0.60650481  0.24937009  1
  Sb  Sb19  1  0.35595051  0.59941090  0.78423339  1
  Sb  Sb20  1  0.43682250  0.40250433  0.51639067  1
  Sb  Sb21  1  0.44140674  0.91778007  0.51666639  1
  Sb  Sb22  1  0.55859326  0.08221993  0.51666639  1
  Sb  Sb23  1  0.56317750  0.59749567  0.51639067  1
  Sb  Sb24  1  0.64404949  0.40058910  0.78423339  1
  Sb  Sb25  1  0.64501308  0.39349519  0.24937009  1
  Sb  Sb26  1  0.74251777  0.68962513  0.01636868  1
  Sb  Sb27  1  0.75748223  0.18962513  0.01636868  1
  Sb  Sb28  1  0.85498692  0.89349519  0.24937009  1
  Sb  Sb29  1  0.85595051  0.90058910  0.78423339  1
  Sb  Sb30  1  0.93682250  0.09749567  0.51639067  1
  Sb  Sb31  1  0.94140674  0.58221993  0.51666639  1
  O  O32  1  0.00000000  0.50000000  0.33855101  1
  O  O33  1  0.00000000  0.50000000  0.68814009  1
  O  O34  1  0.01806716  0.16222169  0.51121255  1
  O  O35  1  0.07251769  0.95125024  0.76750710  1
  O  O36  1  0.07125546  0.95164152  0.26349365  1
  O  O37  1  0.09887155  0.65894952  0.52548880  1
  O  O38  1  0.10200221  0.33274684  0.31493173  1
  O  O39  1  0.10783976  0.33513416  0.70527986  1
  O  O40  1  0.11770211  0.18020770  0.01623171  1
  O  O41  1  0.14480298  0.02051300  0.51370632  1
  O  O42  1  0.18222643  0.86124188  0.83476494  1
  O  O43  1  0.18279114  0.87119866  0.19512943  1
  O  O44  1  0.21515768  0.24535222  0.24517046  1
  O  O45  1  0.21329842  0.24099940  0.79702726  1
  O  O46  1  0.21580745  0.54800542  0.01909047  1
  O  O47  1  0.28419255  0.04800542  0.01909047  1
  O  O48  1  0.28670158  0.74099940  0.79702726  1
  O  O49  1  0.28484232  0.74535222  0.24517046  1
  O  O50  1  0.31720886  0.37119866  0.19512943  1
  O  O51  1  0.31777357  0.36124188  0.83476494  1
  O  O52  1  0.35519702  0.52051300  0.51370632  1
  O  O53  1  0.38229789  0.68020770  0.01623171  1
  O  O54  1  0.39216024  0.83513416  0.70527986  1
  O  O55  1  0.39799779  0.83274684  0.31493173  1
  O  O56  1  0.40112845  0.15894952  0.52548880  1
  O  O57  1  0.42874454  0.45164152  0.26349365  1
  O  O58  1  0.42748231  0.45125024  0.76750710  1
  O  O59  1  0.48193284  0.66222169  0.51121255  1
  O  O60  1  0.50000000  0.00000000  0.33855101  1
  O  O61  1  0.50000000  0.00000000  0.68814009  1
  O  O62  1  0.51806716  0.33777831  0.51121255  1
  O  O63  1  0.57251769  0.54874976  0.76750710  1
  O  O64  1  0.57125546  0.54835848  0.26349365  1
  O  O65  1  0.59887155  0.84105048  0.52548880  1
  O  O66  1  0.60200221  0.16725316  0.31493173  1
  O  O67  1  0.60783976  0.16486584  0.70527986  1
  O  O68  1  0.61770211  0.31979230  0.01623171  1
  O  O69  1  0.64480298  0.47948700  0.51370632  1
  O  O70  1  0.68222643  0.63875812  0.83476494  1
  O  O71  1  0.68279114  0.62880134  0.19512943  1
  O  O72  1  0.71515768  0.25464778  0.24517046  1
  O  O73  1  0.71329842  0.25900060  0.79702726  1
  O  O74  1  0.71580745  0.95199458  0.01909047  1
  O  O75  1  0.78419255  0.45199458  0.01909047  1
  O  O76  1  0.78670158  0.75900060  0.79702726  1
  O  O77  1  0.78484232  0.75464778  0.24517046  1
  O  O78  1  0.81720886  0.12880134  0.19512943  1
  O  O79  1  0.81777357  0.13875812  0.83476494  1
  O  O80  1  0.85519702  0.97948700  0.51370632  1
  O  O81  1  0.88229789  0.81979230  0.01623171  1
  O  O82  1  0.89216024  0.66486584  0.70527986  1
  O  O83  1  0.89799779  0.66725316  0.31493173  1
  O  O84  1  0.90112845  0.34105048  0.52548880  1
  O  O85  1  0.92874454  0.04835848  0.26349365  1
  O  O86  1  0.92748231  0.04874976  0.76750710  1
  O  O87  1  0.98193284  0.83777831  0.51121255  1
