# generated using pymatgen
data_Sr4HfO6
_symmetry_space_group_name_H-M   'P 1'
_cell_length_a   7.07349287
_cell_length_b   7.07349287
_cell_length_c   7.07349276
_cell_angle_alpha   90.19920165
_cell_angle_beta   90.19920165
_cell_angle_gamma   90.19920343
_symmetry_Int_Tables_number   1
_chemical_formula_structural   Sr4HfO6
_chemical_formula_sum   'Sr8 Hf2 O12'
_cell_volume   353.91083590
_cell_formula_units_Z   2
loop_
 _symmetry_equiv_pos_site_id
 _symmetry_equiv_pos_as_xyz
  1  'x, y, z'
loop_
 _atom_site_type_symbol
 _atom_site_label
 _atom_site_symmetry_multiplicity
 _atom_site_fract_x
 _atom_site_fract_y
 _atom_site_fract_z
 _atom_site_occupancy
  Sr  Sr0  1  0.10651700  0.75000000  0.39348300  1
  Sr  Sr1  1  0.25000000  0.60651700  0.89348300  1
  Sr  Sr2  1  0.60651700  0.89348300  0.25000000  1
  Sr  Sr3  1  0.75000000  0.75000000  0.75000000  1
  Sr  Sr4  1  0.25000000  0.25000000  0.25000000  1
  Sr  Sr5  1  0.39348300  0.10651700  0.75000000  1
  Sr  Sr6  1  0.75000000  0.39348300  0.10651700  1
  Sr  Sr7  1  0.89348300  0.25000000  0.60651700  1
  Hf  Hf8  1  0.50000000  0.50000000  0.50000000  1
  Hf  Hf9  1  0.00000000  0.00000000  0.00000000  1
  O  O10  1  0.05471737  0.92537174  0.71536464  1
  O  O11  1  0.28463536  0.94528263  0.07462826  1
  O  O12  1  0.44528263  0.78463536  0.57462826  1
  O  O13  1  0.21536464  0.42537174  0.55471737  1
  O  O14  1  0.07462826  0.28463536  0.94528263  1
  O  O15  1  0.42537174  0.55471737  0.21536464  1
  O  O16  1  0.57462826  0.44528263  0.78463536  1
  O  O17  1  0.78463536  0.57462826  0.44528263  1
  O  O18  1  0.92537174  0.71536464  0.05471737  1
  O  O19  1  0.55471737  0.21536464  0.42537174  1
  O  O20  1  0.71536464  0.05471737  0.92537174  1
  O  O21  1  0.94528263  0.07462826  0.28463536  1
