# generated using pymatgen
data_Li3Co2(SiO4)2
_symmetry_space_group_name_H-M   'P 1'
_cell_length_a   6.12889980
_cell_length_b   11.05014224
_cell_length_c   5.22181249
_cell_angle_alpha   90.00000000
_cell_angle_beta   89.23799057
_cell_angle_gamma   90.00000000
_symmetry_Int_Tables_number   1
_chemical_formula_structural   Li3Co2(SiO4)2
_chemical_formula_sum   'Li6 Co4 Si4 O16'
_cell_volume   353.61709521
_cell_formula_units_Z   2
loop_
 _symmetry_equiv_pos_site_id
 _symmetry_equiv_pos_as_xyz
  1  'x, y, z'
loop_
 _atom_site_type_symbol
 _atom_site_label
 _atom_site_symmetry_multiplicity
 _atom_site_fract_x
 _atom_site_fract_y
 _atom_site_fract_z
 _atom_site_occupancy
  Li  Li0  1  0.00650559  0.16977155  0.70051206  1
  Li  Li1  1  0.49349441  0.66977155  0.79948794  1
  Li  Li2  1  0.50883890  0.83051074  0.29609045  1
  Li  Li3  1  0.50639274  0.32921898  0.19472029  1
  Li  Li4  1  0.99116110  0.33051074  0.20390955  1
  Li  Li5  1  0.99360726  0.82921898  0.30527971  1
  Co  Co6  1  0.25051448  0.42355925  0.81004698  1
  Co  Co7  1  0.24948552  0.92355925  0.68995302  1
  Co  Co8  1  0.76421847  0.57802109  0.17218077  1
  Co  Co9  1  0.73578153  0.07802109  0.32781923  1
  Si  Si10  1  0.24520478  0.08317389  0.18691813  1
  Si  Si11  1  0.25479522  0.58317389  0.31308187  1
  Si  Si12  1  0.74564415  0.42008049  0.68568169  1
  Si  Si13  1  0.75435585  0.92008049  0.81431831  1
  O  O14  1  0.02741168  0.15770967  0.29419895  1
  O  O15  1  0.03340746  0.65774160  0.24490028  1
  O  O16  1  0.22224000  0.06989842  0.87038696  1
  O  O17  1  0.24564804  0.44309630  0.18759416  1
  O  O18  1  0.25435196  0.94309630  0.31240584  1
  O  O19  1  0.27776000  0.56989842  0.62961304  1
  O  O20  1  0.46659254  0.15774160  0.25509972  1
  O  O21  1  0.47258832  0.65770967  0.20580105  1
  O  O22  1  0.53205336  0.84368799  0.71376809  1
  O  O23  1  0.52497615  0.34623480  0.79377849  1
  O  O24  1  0.74643848  0.55578303  0.80639980  1
  O  O25  1  0.75356152  0.05578303  0.69360020  1
  O  O26  1  0.74836137  0.42276820  0.36755089  1
  O  O27  1  0.75163863  0.92276820  0.13244911  1
  O  O28  1  0.96794664  0.34368799  0.78623191  1
  O  O29  1  0.97502385  0.84623480  0.70622151  1
