# generated using pymatgen
data_LiFePCO7
_symmetry_space_group_name_H-M   'P 1'
_cell_length_a   8.41198187
_cell_length_b   5.14290047
_cell_length_c   12.88410389
_cell_angle_alpha   90.06582969
_cell_angle_beta   89.65884602
_cell_angle_gamma   85.10686411
_symmetry_Int_Tables_number   1
_chemical_formula_structural   LiFePCO7
_chemical_formula_sum   'Li4 Fe4 P4 C4 O28'
_cell_volume   555.34990036
_cell_formula_units_Z   4
loop_
 _symmetry_equiv_pos_site_id
 _symmetry_equiv_pos_as_xyz
  1  'x, y, z'
loop_
 _atom_site_type_symbol
 _atom_site_label
 _atom_site_symmetry_multiplicity
 _atom_site_fract_x
 _atom_site_fract_y
 _atom_site_fract_z
 _atom_site_occupancy
  Li  Li0  1  0.10845078  0.77008896  0.12628220  1
  Li  Li1  1  0.28192090  0.24465640  0.72706171  1
  Li  Li2  1  0.89021875  0.23044909  0.37806557  1
  Li  Li3  1  0.89061118  0.22492012  0.87615326  1
  Fe  Fe4  1  0.33172076  0.80511190  0.37629933  1
  Fe  Fe5  1  0.33679622  0.80183674  0.87886371  1
  Fe  Fe6  1  0.66575682  0.19616822  0.12568590  1
  Fe  Fe7  1  0.66553913  0.20031599  0.62466291  1
  P  P8  1  0.42225477  0.72627624  0.12631615  1
  P  P9  1  0.42342579  0.73267342  0.62622559  1
  P  P10  1  0.57512950  0.27693483  0.37337075  1
  P  P11  1  0.57931293  0.27612625  0.87502197  1
  C  C12  1  0.04568368  0.70368115  0.86937031  1
  C  C13  1  0.04278733  0.70701460  0.37722432  1
  C  C14  1  0.95747104  0.29286270  0.12398756  1
  C  C15  1  0.95701966  0.28622595  0.62862276  1
  O  O16  1  0.07370576  0.94940116  0.37572234  1
  O  O17  1  0.07459206  0.94786877  0.87504581  1
  O  O18  1  0.09304813  0.37851339  0.12384176  1
  O  O19  1  0.09975324  0.33401933  0.63820715  1
  O  O20  1  0.17436349  0.53798936  0.86396497  1
  O  O21  1  0.16783571  0.53849032  0.37764614  1
  O  O22  1  0.32143766  0.79320013  0.52977347  1
  O  O23  1  0.31195760  0.79558046  0.03168010  1
  O  O24  1  0.30745930  0.79522309  0.21867875  1
  O  O25  1  0.31878059  0.83380653  0.72004377  1
  O  O26  1  0.42341045  0.13025925  0.37252095  1
  O  O27  1  0.42169803  0.14000701  0.86837506  1
  O  O28  1  0.47709531  0.43147744  0.12555689  1
  O  O29  1  0.46586538  0.43113257  0.63896737  1
  O  O30  1  0.52047931  0.57153383  0.36954276  1
  O  O31  1  0.52674465  0.57224219  0.87672978  1
  O  O32  1  0.57448538  0.87190642  0.12665280  1
  O  O33  1  0.58083305  0.86700234  0.62308623  1
  O  O34  1  0.69112166  0.20451426  0.28151237  1
  O  O35  1  0.68241140  0.21866416  0.46932162  1
  O  O36  1  0.69178423  0.20860164  0.78169323  1
  O  O37  1  0.68543849  0.19610050  0.96916797  1
  O  O38  1  0.83108766  0.45948254  0.12350266  1
  O  O39  1  0.83985604  0.46717489  0.62383507  1
  O  O40  1  0.90661071  0.62407858  0.37594800  1
  O  O41  1  0.91086331  0.61794384  0.87209744  1
  O  O42  1  0.92815765  0.04969539  0.12442773  1
  O  O43  1  0.90921051  0.05323203  0.62324981  1
