# generated using pymatgen
data_Mn4O7F
_symmetry_space_group_name_H-M   'P 1'
_cell_length_a   6.98417378
_cell_length_b   7.11140018
_cell_length_c   4.95299521
_cell_angle_alpha   90.00000000
_cell_angle_beta   90.00000000
_cell_angle_gamma   101.65323137
_symmetry_Int_Tables_number   1
_chemical_formula_structural   Mn4O7F
_chemical_formula_sum   'Mn8 O14 F2'
_cell_volume   240.93109121
_cell_formula_units_Z   2
loop_
 _symmetry_equiv_pos_site_id
 _symmetry_equiv_pos_as_xyz
  1  'x, y, z'
loop_
 _atom_site_type_symbol
 _atom_site_label
 _atom_site_symmetry_multiplicity
 _atom_site_fract_x
 _atom_site_fract_y
 _atom_site_fract_z
 _atom_site_occupancy
  Mn  Mn0  1  0.41893245  0.07714481  0.26157803  1
  Mn  Mn1  1  0.07106871  0.42555874  0.74277148  1
  Mn  Mn2  1  0.92819343  0.07237479  0.25498065  1
  Mn  Mn3  1  0.58019423  0.43755178  0.72377959  1
  Mn  Mn4  1  0.41893245  0.57714481  0.23842197  1
  Mn  Mn5  1  0.07106871  0.92555874  0.75722852  1
  Mn  Mn6  1  0.58019423  0.93755178  0.77622041  1
  Mn  Mn7  1  0.92819343  0.57237479  0.24501935  1
  O  O8  1  0.06440639  0.17049720  0.92794701  1
  O  O9  1  0.16796520  0.05870584  0.43349632  1
  O  O10  1  0.67338158  0.06020012  0.09424007  1
  O  O11  1  0.06440639  0.67049720  0.57205299  1
  O  O12  1  0.16796520  0.55870584  0.06650368  1
  O  O13  1  0.56156405  0.17431102  0.58619647  1
  O  O14  1  0.32669329  0.43369396  0.56412280  1
  O  O15  1  0.56156405  0.67431102  0.91380353  1
  O  O16  1  0.67338158  0.56020012  0.40575993  1
  O  O17  1  0.32669329  0.93369396  0.93587720  1
  O  O18  1  0.93726011  0.32798257  0.41718485  1
  O  O19  1  0.82622622  0.43842821  0.91340810  1
  O  O20  1  0.93726011  0.82798257  0.08281515  1
  O  O21  1  0.82622622  0.93842821  0.58659190  1
  F  F22  1  0.44411533  0.32355096  0.04307063  1
  F  F23  1  0.44411533  0.82355096  0.45692937  1
