# generated using pymatgen
data_Li2CuPO4
_symmetry_space_group_name_H-M   'P 1'
_cell_length_a   6.21800509
_cell_length_b   5.40399970
_cell_length_c   10.06759147
_cell_angle_alpha   90.02128720
_cell_angle_beta   89.89662585
_cell_angle_gamma   89.71959503
_symmetry_Int_Tables_number   1
_chemical_formula_structural   Li2CuPO4
_chemical_formula_sum   'Li8 Cu4 P4 O16'
_cell_volume   338.28756532
_cell_formula_units_Z   4
loop_
 _symmetry_equiv_pos_site_id
 _symmetry_equiv_pos_as_xyz
  1  'x, y, z'
loop_
 _atom_site_type_symbol
 _atom_site_label
 _atom_site_symmetry_multiplicity
 _atom_site_fract_x
 _atom_site_fract_y
 _atom_site_fract_z
 _atom_site_occupancy
  Li  Li0  1  0.99842940  0.15519982  0.74623890  1
  Li  Li1  1  0.00029849  0.15495713  0.24613882  1
  Li  Li2  1  0.24706016  0.32674855  0.49661038  1
  Li  Li3  1  0.24622009  0.32874445  0.99584131  1
  Li  Li4  1  0.25159205  0.67204170  0.74525847  1
  Li  Li5  1  0.49986628  0.84542123  0.99637533  1
  Li  Li6  1  0.50101310  0.84482233  0.49610781  1
  Li  Li7  1  0.74830623  0.67343202  0.24527909  1
  Cu  Cu8  1  0.25796388  0.66450235  0.24886542  1
  Cu  Cu9  1  0.74149418  0.66433520  0.74624821  1
  Cu  Cu10  1  0.75649200  0.33826632  0.49722463  1
  Cu  Cu11  1  0.75652185  0.33134774  0.99779096  1
  P  P12  1  0.00285116  0.82809055  0.99946927  1
  P  P13  1  0.00548569  0.82805970  0.49918968  1
  P  P14  1  0.49960020  0.17231643  0.24925811  1
  P  P15  1  0.49065290  0.17179272  0.74953119  1
  O  O16  1  0.00492956  0.83138118  0.65384047  1
  O  O17  1  0.01455418  0.09814730  0.44459774  1
  O  O18  1  0.99595841  0.83108259  0.15400953  1
  O  O19  1  0.01176677  0.09826418  0.94443775  1
  O  O20  1  0.21051809  0.68130521  0.45400973  1
  O  O21  1  0.20344241  0.68355437  0.94715007  1
  O  O22  1  0.29222577  0.29808372  0.19173227  1
  O  O23  1  0.29211776  0.31727426  0.69615146  1
  O  O24  1  0.48694048  0.16927014  0.90406459  1
  O  O25  1  0.48473345  0.90166947  0.69444362  1
  O  O26  1  0.48806870  0.16940836  0.40377982  1
  O  O27  1  0.51305382  0.90202603  0.19469132  1
  O  O28  1  0.70619373  0.29470969  0.70262054  1
  O  O29  1  0.70553634  0.31669236  0.20599104  1
  O  O30  1  0.79691023  0.70376579  0.44398210  1
  O  O31  1  0.78920263  0.70328811  0.95166335  1
