# generated using pymatgen
data_Li3MnV(PO4)3
_symmetry_space_group_name_H-M   'P 1'
_cell_length_a   8.50557423
_cell_length_b   8.50557395
_cell_length_c   8.61602241
_cell_angle_alpha   61.68041158
_cell_angle_beta   61.68041410
_cell_angle_gamma   63.15910858
_symmetry_Int_Tables_number   1
_chemical_formula_structural   Li3MnV(PO4)3
_chemical_formula_sum   'Li6 Mn2 V2 P6 O24'
_cell_volume   461.96144594
_cell_formula_units_Z   2
loop_
 _symmetry_equiv_pos_site_id
 _symmetry_equiv_pos_as_xyz
  1  'x, y, z'
loop_
 _atom_site_type_symbol
 _atom_site_label
 _atom_site_symmetry_multiplicity
 _atom_site_fract_x
 _atom_site_fract_y
 _atom_site_fract_z
 _atom_site_occupancy
  Li  Li0  1  0.87149023  0.74783245  0.15667790  1
  Li  Li1  1  0.49951285  0.00313563  0.00122996  1
  Li  Li2  1  0.74783245  0.87149023  0.65667790  1
  Li  Li3  1  0.25878392  0.12765742  0.34142459  1
  Li  Li4  1  0.00313563  0.49951285  0.50122996  1
  Li  Li5  1  0.12765742  0.25878392  0.84142459  1
  Mn  Mn6  1  0.63788674  0.14300266  0.14973066  1
  Mn  Mn7  1  0.14300266  0.63788674  0.64973066  1
  V  V8  1  0.85558160  0.36348011  0.35532700  1
  V  V9  1  0.36348011  0.85558160  0.85532700  1
  P  P10  1  0.24833234  0.45024555  0.03460808  1
  P  P11  1  0.94772471  0.05345768  0.75163011  1
  P  P12  1  0.54861428  0.74924337  0.46447700  1
  P  P13  1  0.45024555  0.24833234  0.53460808  1
  P  P14  1  0.05345768  0.94772471  0.25163011  1
  P  P15  1  0.74924337  0.54861428  0.96447700  1
  O  O16  1  0.81286288  0.53564377  0.11135910  1
  O  O17  1  0.89250073  0.96648849  0.20291214  1
  O  O18  1  0.68220604  0.38395122  0.02409395  1
  O  O19  1  0.93711940  0.23997327  0.58322898  1
  O  O20  1  0.38867245  0.25456047  0.07511985  1
  O  O21  1  0.74340794  0.60389909  0.42414145  1
  O  O22  1  0.54711920  0.91383166  0.27230375  1
  O  O23  1  0.96648849  0.89250073  0.70291214  1
  O  O24  1  0.23997327  0.93711940  0.08322898  1
  O  O25  1  0.61412218  0.31788824  0.47207657  1
  O  O26  1  0.91383166  0.54711920  0.77230375  1
  O  O27  1  0.46546582  0.18518749  0.38478211  1
  O  O28  1  0.53564377  0.81286288  0.61135910  1
  O  O29  1  0.08425184  0.45858049  0.22408274  1
  O  O30  1  0.38395122  0.68220604  0.52409395  1
  O  O31  1  0.76275306  0.06448130  0.92289430  1
  O  O32  1  0.02277930  0.11627418  0.29789876  1
  O  O33  1  0.45858049  0.08425184  0.72408274  1
  O  O34  1  0.25456047  0.38867245  0.57511985  1
  O  O35  1  0.60389909  0.74340794  0.92414145  1
  O  O36  1  0.06448130  0.76275306  0.42289430  1
  O  O37  1  0.31788824  0.61412218  0.97207657  1
  O  O38  1  0.11627418  0.02277930  0.79789876  1
  O  O39  1  0.18518749  0.46546582  0.88478211  1
