# generated using pymatgen
data_LiMnF5
_symmetry_space_group_name_H-M   'P 1'
_cell_length_a   7.28219232
_cell_length_b   8.21073588
_cell_length_c   9.24346957
_cell_angle_alpha   81.55261969
_cell_angle_beta   95.65043405
_cell_angle_gamma   79.17904191
_symmetry_Int_Tables_number   1
_chemical_formula_structural   LiMnF5
_chemical_formula_sum   'Li6 Mn6 F30'
_cell_volume   532.43253729
_cell_formula_units_Z   6
loop_
 _symmetry_equiv_pos_site_id
 _symmetry_equiv_pos_as_xyz
  1  'x, y, z'
loop_
 _atom_site_type_symbol
 _atom_site_label
 _atom_site_symmetry_multiplicity
 _atom_site_fract_x
 _atom_site_fract_y
 _atom_site_fract_z
 _atom_site_occupancy
  Li  Li0  1  0.22063184  0.32529430  0.60262018  1
  Li  Li1  1  0.34688437  0.41223227  0.27738659  1
  Li  Li2  1  0.79880530  0.07727032  0.18170990  1
  Li  Li3  1  0.20119470  0.92272968  0.81829010  1
  Li  Li4  1  0.65311563  0.58776773  0.72261341  1
  Li  Li5  1  0.77936816  0.67470570  0.39737982  1
  Mn  Mn6  1  0.16575930  0.37783926  0.96382413  1
  Mn  Mn7  1  0.19726708  0.71073114  0.51775564  1
  Mn  Mn8  1  0.32757807  0.00358153  0.22038787  1
  Mn  Mn9  1  0.67242193  0.99641847  0.77961213  1
  Mn  Mn10  1  0.80273292  0.28926886  0.48224436  1
  Mn  Mn11  1  0.83424070  0.62216074  0.03617587  1
  F  F12  1  0.86793351  0.10486146  0.40163983  1
  F  F13  1  0.00377201  0.41496320  0.11943032  1
  F  F14  1  0.33409860  0.17931092  0.06118024  1
  F  F15  1  0.31423777  0.16700241  0.33858733  1
  F  F16  1  0.00844441  0.25748518  0.89851597  1
  F  F17  1  0.05190711  0.59367384  0.61730995  1
  F  F18  1  0.07256546  0.04787406  0.18474093  1
  F  F19  1  0.99696832  0.77266730  0.37296163  1
  F  F20  1  0.41142558  0.03000045  0.75399443  1
  F  F21  1  0.28818210  0.50672337  0.45009119  1
  F  F22  1  0.33454451  0.86502002  0.08551298  1
  F  F23  1  0.29478430  0.36676043  0.81026208  1
  F  F24  1  0.68106611  0.51137496  0.93749177  1
  F  F25  1  0.60712099  0.35087649  0.33151307  1
  F  F26  1  0.64991611  0.17481018  0.61780353  1
  F  F27  1  0.35008389  0.82518982  0.38219647  1
  F  F28  1  0.39287901  0.64912351  0.66848693  1
  F  F29  1  0.31893389  0.48862504  0.06250823  1
  F  F30  1  0.70521570  0.63323957  0.18973792  1
  F  F31  1  0.66545549  0.13497998  0.91448702  1
  F  F32  1  0.71181790  0.49327663  0.54990881  1
  F  F33  1  0.58857442  0.96999955  0.24600557  1
  F  F34  1  0.00303168  0.22733270  0.62703837  1
  F  F35  1  0.92743454  0.95212594  0.81525907  1
  F  F36  1  0.94809289  0.40632616  0.38269005  1
  F  F37  1  0.99155559  0.74251482  0.10148403  1
  F  F38  1  0.68576223  0.83299759  0.66141267  1
  F  F39  1  0.66590140  0.82068908  0.93881976  1
  F  F40  1  0.99622799  0.58503680  0.88056968  1
  F  F41  1  0.13206649  0.89513854  0.59836017  1
