# generated using pymatgen
data_Mn3Cr3(SbO8)2
_symmetry_space_group_name_H-M   'P 1'
_cell_length_a   5.89908748
_cell_length_b   5.89253258
_cell_length_c   9.24250315
_cell_angle_alpha   90.00588852
_cell_angle_beta   89.12870637
_cell_angle_gamma   119.92047248
_symmetry_Int_Tables_number   1
_chemical_formula_structural   Mn3Cr3(SbO8)2
_chemical_formula_sum   'Mn3 Cr3 Sb2 O16'
_cell_volume   278.41211997
_cell_formula_units_Z   1
loop_
 _symmetry_equiv_pos_site_id
 _symmetry_equiv_pos_as_xyz
  1  'x, y, z'
loop_
 _atom_site_type_symbol
 _atom_site_label
 _atom_site_symmetry_multiplicity
 _atom_site_fract_x
 _atom_site_fract_y
 _atom_site_fract_z
 _atom_site_occupancy
  Mn  Mn0  1  0.65954810  0.82992285  0.20930898  1
  Mn  Mn1  1  0.83101772  0.66352590  0.71285018  1
  Mn  Mn2  1  0.83097860  0.16746073  0.71283076  1
  Cr  Cr3  1  0.16576446  0.82780976  0.21599456  1
  Cr  Cr4  1  0.16701722  0.33850711  0.21419579  1
  Cr  Cr5  1  0.33671671  0.16833062  0.71319179  1
  Sb  Sb6  1  0.33138832  0.66548394  0.49254108  1
  Sb  Sb7  1  0.66262819  0.33104536  0.99188908  1
  O  O8  1  0.16233172  0.83353148  0.59940741  1
  O  O9  1  0.04096630  0.52193671  0.34228653  1
  O  O10  1  0.34087960  0.67199193  0.10724507  1
  O  O11  1  0.99586444  0.99590377  0.30057179  1
  O  O12  1  0.98791858  0.99388868  0.80973753  1
  O  O13  1  0.16223834  0.32872131  0.59931996  1
  O  O14  1  0.48446008  0.95987999  0.33682284  1
  O  O15  1  0.48518591  0.52554662  0.33697353  1
  O  O16  1  0.32850606  0.16363914  0.09829430  1
  O  O17  1  0.66865395  0.83438978  0.60139891  1
  O  O18  1  0.52690191  0.48701763  0.83847541  1
  O  O19  1  0.52704611  0.03998756  0.83844392  1
  O  O20  1  0.67883952  0.33950495  0.60920341  1
  O  O21  1  0.83181196  0.66643343  0.10007398  1
  O  O22  1  0.96184139  0.48081354  0.83480153  1
  O  O23  1  0.83149481  0.16493020  0.09986164  1
