# generated using pymatgen
data_Mn12O7F17
_symmetry_space_group_name_H-M   'P 1'
_cell_length_a   4.76180464
_cell_length_b   5.74739226
_cell_length_c   15.98747110
_cell_angle_alpha   90.06621764
_cell_angle_beta   89.74341515
_cell_angle_gamma   85.90171771
_symmetry_Int_Tables_number   1
_chemical_formula_structural   Mn12O7F17
_chemical_formula_sum   'Mn12 O7 F17'
_cell_volume   436.42076779
_cell_formula_units_Z   1
loop_
 _symmetry_equiv_pos_site_id
 _symmetry_equiv_pos_as_xyz
  1  'x, y, z'
loop_
 _atom_site_type_symbol
 _atom_site_label
 _atom_site_symmetry_multiplicity
 _atom_site_fract_x
 _atom_site_fract_y
 _atom_site_fract_z
 _atom_site_occupancy
  Mn  Mn0  1  0.01767920  0.15391133  0.40943735  1
  Mn  Mn1  1  0.02191466  0.85512505  0.24435698  1
  Mn  Mn2  1  0.00232829  0.15731895  0.08356038  1
  Mn  Mn3  1  0.00632224  0.15689813  0.74855251  1
  Mn  Mn4  1  0.02364598  0.83359188  0.57065539  1
  Mn  Mn5  1  0.02134774  0.83019170  0.90693823  1
  Mn  Mn6  1  0.52600833  0.33177645  0.59193439  1
  Mn  Mn7  1  0.51993637  0.33438189  0.92825305  1
  Mn  Mn8  1  0.49087139  0.31656048  0.26404410  1
  Mn  Mn9  1  0.51031113  0.65731872  0.08904680  1
  Mn  Mn10  1  0.50234848  0.65229440  0.41588605  1
  Mn  Mn11  1  0.50589355  0.65702645  0.75056215  1
  O  O12  1  0.20820471  0.10840824  0.30192821  1
  O  O13  1  0.22418704  0.89021580  0.13430799  1
  O  O14  1  0.24003465  0.89045520  0.46171528  1
  O  O15  1  0.23053089  0.88898193  0.79701107  1
  O  O16  1  0.73244054  0.38978835  0.03705844  1
  O  O17  1  0.71701501  0.38012149  0.36550385  1
  O  O18  1  0.73076988  0.38830353  0.70237784  1
  F  F19  1  0.21783458  0.11681854  0.63767959  1
  F  F20  1  0.21407583  0.11726258  0.97372964  1
  F  F21  1  0.26843086  0.39002508  0.14978569  1
  F  F22  1  0.25529452  0.61161991  0.31286962  1
  F  F23  1  0.26340484  0.39919167  0.48196888  1
  F  F24  1  0.27040256  0.61462082  0.64597730  1
  F  F25  1  0.25896036  0.39094360  0.81604851  1
  F  F26  1  0.27210884  0.61569663  0.98218071  1
  F  F27  1  0.72996327  0.62317001  0.19893724  1
  F  F28  1  0.71884585  0.61845630  0.52642007  1
  F  F29  1  0.71439355  0.61663339  0.86126354  1
  F  F30  1  0.75651103  0.11955526  0.18549382  1
  F  F31  1  0.78435800  0.12046642  0.51573236  1
  F  F32  1  0.75637141  0.87662415  0.35008192  1
  F  F33  1  0.75751126  0.88959822  0.01974393  1
  F  F34  1  0.76977971  0.11431923  0.85458786  1
  F  F35  1  0.75996545  0.89233123  0.68437026  1
