# generated using pymatgen
data_Li4Ti3Co3(WO8)2
_symmetry_space_group_name_H-M   'P 1'
_cell_length_a   5.97627290
_cell_length_b   5.99135567
_cell_length_c   9.82758323
_cell_angle_alpha   89.98780370
_cell_angle_beta   90.82016673
_cell_angle_gamma   120.05183989
_symmetry_Int_Tables_number   1
_chemical_formula_structural   Li4Ti3Co3(WO8)2
_chemical_formula_sum   'Li4 Ti3 Co3 W2 O16'
_cell_volume   304.54204710
_cell_formula_units_Z   1
loop_
 _symmetry_equiv_pos_site_id
 _symmetry_equiv_pos_as_xyz
  1  'x, y, z'
loop_
 _atom_site_type_symbol
 _atom_site_label
 _atom_site_symmetry_multiplicity
 _atom_site_fract_x
 _atom_site_fract_y
 _atom_site_fract_z
 _atom_site_occupancy
  Li  Li0  1  0.32864547  0.66416920  0.90489081  1
  Li  Li1  1  0.98813499  0.99401140  0.98335601  1
  Li  Li2  1  0.00834337  0.00473282  0.49160265  1
  Li  Li3  1  0.66797021  0.33347747  0.40728469  1
  Ti  Ti4  1  0.18064355  0.84030094  0.21564248  1
  Ti  Ti5  1  0.18290273  0.34124744  0.21628223  1
  Ti  Ti6  1  0.35936574  0.17867577  0.73256597  1
  Co  Co7  1  0.64261947  0.82088292  0.21093772  1
  Co  Co8  1  0.83298030  0.65575400  0.71162118  1
  Co  Co9  1  0.83363201  0.17814379  0.71160319  1
  W  W10  1  0.34060770  0.67065053  0.49033266  1
  W  W11  1  0.68987632  0.34444420  0.98958196  1
  O  O12  1  0.18220900  0.82834558  0.58621521  1
  O  O13  1  0.04370598  0.52194687  0.34004708  1
  O  O14  1  0.29512041  0.64738260  0.10575084  1
  O  O15  1  0.00717665  0.00407262  0.30239603  1
  O  O16  1  0.01423421  0.00715512  0.79335076  1
  O  O17  1  0.18187470  0.35449919  0.58603836  1
  O  O18  1  0.46686919  0.95961411  0.35001725  1
  O  O19  1  0.46754753  0.50736648  0.35014816  1
  O  O20  1  0.33997355  0.17019135  0.10674236  1
  O  O21  1  0.66182367  0.83084101  0.57954557  1
  O  O22  1  0.50300757  0.46704526  0.85246063  1
  O  O23  1  0.50363117  0.03460169  0.85167261  1
  O  O24  1  0.63792033  0.31920453  0.60826554  1
  O  O25  1  0.83682118  0.66878264  0.08973821  1
  O  O26  1  0.96663153  0.48382997  0.85044174  1
  O  O27  1  0.83573143  0.16892847  0.08930912  1
