# generated using pymatgen
data_LiFe2O2F3
_symmetry_space_group_name_H-M   'P 1'
_cell_length_a   5.11498454
_cell_length_b   5.93668275
_cell_length_c   7.68575518
_cell_angle_alpha   79.16021897
_cell_angle_beta   110.00953135
_cell_angle_gamma   64.74329433
_symmetry_Int_Tables_number   1
_chemical_formula_structural   LiFe2O2F3
_chemical_formula_sum   'Li2 Fe4 O4 F6'
_cell_volume   182.36727322
_cell_formula_units_Z   2
loop_
 _symmetry_equiv_pos_site_id
 _symmetry_equiv_pos_as_xyz
  1  'x, y, z'
loop_
 _atom_site_type_symbol
 _atom_site_label
 _atom_site_symmetry_multiplicity
 _atom_site_fract_x
 _atom_site_fract_y
 _atom_site_fract_z
 _atom_site_occupancy
  Li  Li0  1  0.10043818  0.45257041  0.98413958  1
  Li  Li1  1  0.53900233  0.06087112  0.47398297  1
  Fe  Fe2  1  0.80401769  0.97737796  0.12896212  1
  Fe  Fe3  1  0.33758261  0.48420655  0.63233172  1
  Fe  Fe4  1  0.65582012  0.51713067  0.37602218  1
  Fe  Fe5  1  0.19552586  0.00549256  0.87052243  1
  O  O6  1  0.23077755  0.72796910  0.36695791  1
  O  O7  1  0.37676115  0.23937230  0.86947492  1
  O  O8  1  0.59435244  0.76938121  0.14011512  1
  O  O9  1  0.75114246  0.25275948  0.63316591  1
  F  F10  1  0.39177448  0.74206952  0.75627850  1
  F  F11  1  0.84287826  0.70051436  0.54857552  1
  F  F12  1  0.97556487  0.20737916  0.03765569  1
  F  F13  1  0.00154820  0.79375743  0.95960014  1
  F  F14  1  0.14631194  0.28829550  0.46858722  1
  F  F15  1  0.57481287  0.25075568  0.24898706  1
