# generated using pymatgen
data_Mn12O5F19
_symmetry_space_group_name_H-M   'P 1'
_cell_length_a   4.84215937
_cell_length_b   5.83931273
_cell_length_c   15.95600436
_cell_angle_alpha   90.47956689
_cell_angle_beta   90.01503927
_cell_angle_gamma   88.79851956
_symmetry_Int_Tables_number   1
_chemical_formula_structural   Mn12O5F19
_chemical_formula_sum   'Mn12 O5 F19'
_cell_volume   451.03916254
_cell_formula_units_Z   1
loop_
 _symmetry_equiv_pos_site_id
 _symmetry_equiv_pos_as_xyz
  1  'x, y, z'
loop_
 _atom_site_type_symbol
 _atom_site_label
 _atom_site_symmetry_multiplicity
 _atom_site_fract_x
 _atom_site_fract_y
 _atom_site_fract_z
 _atom_site_occupancy
  Mn  Mn0  1  0.03936965  0.18351958  0.42060872  1
  Mn  Mn1  1  0.97623644  0.81795360  0.24709833  1
  Mn  Mn2  1  0.98294781  0.16841937  0.07887325  1
  Mn  Mn3  1  0.98918673  0.16411217  0.74738933  1
  Mn  Mn4  1  0.99541398  0.84203117  0.58407004  1
  Mn  Mn5  1  0.02794909  0.83999534  0.90575474  1
  Mn  Mn6  1  0.50543351  0.35056997  0.58707462  1
  Mn  Mn7  1  0.51429652  0.34418516  0.92312272  1
  Mn  Mn8  1  0.50311687  0.34670905  0.24555275  1
  Mn  Mn9  1  0.52861530  0.64821922  0.08564265  1
  Mn  Mn10  1  0.49834061  0.64460138  0.42047992  1
  Mn  Mn11  1  0.48730615  0.65261315  0.75085913  1
  O  O12  1  0.22715906  0.87943329  0.79770700  1
  O  O13  1  0.30721955  0.39130451  0.48133390  1
  O  O14  1  0.71595634  0.39607232  0.03085622  1
  O  O15  1  0.70356486  0.60072031  0.19198245  1
  O  O16  1  0.70023278  0.39197431  0.69491813  1
  F  F17  1  0.23823374  0.11092266  0.30029173  1
  F  F18  1  0.22428982  0.12320550  0.63734208  1
  F  F19  1  0.23148831  0.11668847  0.96962963  1
  F  F20  1  0.23983922  0.87787053  0.13282131  1
  F  F21  1  0.23845480  0.89218539  0.47360185  1
  F  F22  1  0.24398081  0.37818094  0.14329111  1
  F  F23  1  0.25499402  0.60382947  0.31097853  1
  F  F24  1  0.26370400  0.61355873  0.64205093  1
  F  F25  1  0.26117738  0.39118696  0.81481672  1
  F  F26  1  0.28439215  0.62933040  0.97986082  1
  F  F27  1  0.74305347  0.38578301  0.35608686  1
  F  F28  1  0.74356979  0.60595954  0.52872788  1
  F  F29  1  0.72400149  0.61669184  0.85966336  1
  F  F30  1  0.76394469  0.09508827  0.19192758  1
  F  F31  1  0.77196703  0.11893188  0.52928723  1
  F  F32  1  0.76897743  0.88148682  0.36662852  1
  F  F33  1  0.78270661  0.89071938  0.01730385  1
  F  F34  1  0.77434217  0.11747592  0.85927853  1
  F  F35  1  0.74453783  0.88847038  0.69308856  1
