# generated using pymatgen
data_Li3V2(SiO5)2
_symmetry_space_group_name_H-M   'P 1'
_cell_length_a   8.99627825
_cell_length_b   4.55447645
_cell_length_c   9.28755643
_cell_angle_alpha   90.00000000
_cell_angle_beta   90.00000000
_cell_angle_gamma   90.00000000
_symmetry_Int_Tables_number   1
_chemical_formula_structural   Li3V2(SiO5)2
_chemical_formula_sum   'Li6 V4 Si4 O20'
_cell_volume   380.54218348
_cell_formula_units_Z   2
loop_
 _symmetry_equiv_pos_site_id
 _symmetry_equiv_pos_as_xyz
  1  'x, y, z'
loop_
 _atom_site_type_symbol
 _atom_site_label
 _atom_site_symmetry_multiplicity
 _atom_site_fract_x
 _atom_site_fract_y
 _atom_site_fract_z
 _atom_site_occupancy
  Li  Li0  1  0.00000000  0.61583787  0.00482395  1
  Li  Li1  1  0.00000000  0.38416213  0.50482395  1
  Li  Li2  1  0.25359666  0.00075579  0.00251536  1
  Li  Li3  1  0.25359666  0.99924421  0.50251536  1
  Li  Li4  1  0.74640334  0.00075579  0.00251536  1
  Li  Li5  1  0.74640334  0.99924421  0.50251536  1
  V  V6  1  0.00000000  0.95739657  0.29059856  1
  V  V7  1  0.00000000  0.04260343  0.79059856  1
  V  V8  1  0.50000000  0.57557486  0.49637980  1
  V  V9  1  0.50000000  0.42442514  0.99637980  1
  Si  Si10  1  0.25109908  0.50016195  0.24817196  1
  Si  Si11  1  0.25109908  0.49983805  0.74817196  1
  Si  Si12  1  0.74890092  0.49983805  0.74817196  1
  Si  Si13  1  0.74890092  0.50016195  0.24817196  1
  O  O14  1  0.00000000  0.80344424  0.45516834  1
  O  O15  1  0.00000000  0.19655576  0.95516834  1
  O  O16  1  0.14593682  0.74447479  0.16467341  1
  O  O17  1  0.14593682  0.25552521  0.66467341  1
  O  O18  1  0.15037487  0.25953391  0.33613303  1
  O  O19  1  0.15037487  0.74046609  0.83613303  1
  O  O20  1  0.35160643  0.31655687  0.13198703  1
  O  O21  1  0.35160643  0.68344313  0.63198703  1
  O  O22  1  0.35332883  0.68781244  0.36185900  1
  O  O23  1  0.35332883  0.31218756  0.86185900  1
  O  O24  1  0.50000000  0.21689233  0.49610577  1
  O  O25  1  0.50000000  0.78310767  0.99610577  1
  O  O26  1  0.64667117  0.68781244  0.36185900  1
  O  O27  1  0.64667117  0.31218756  0.86185900  1
  O  O28  1  0.64839357  0.31655687  0.13198703  1
  O  O29  1  0.64839357  0.68344313  0.63198703  1
  O  O30  1  0.84962513  0.25953391  0.33613303  1
  O  O31  1  0.84962513  0.74046609  0.83613303  1
  O  O32  1  0.85406318  0.25552521  0.66467341  1
  O  O33  1  0.85406318  0.74447479  0.16467341  1
