# generated using pymatgen
data_Li5Co2(PO4)3
_symmetry_space_group_name_H-M   'P 1'
_cell_length_a   8.69997819
_cell_length_b   8.79296013
_cell_length_c   12.41254086
_cell_angle_alpha   90.02394453
_cell_angle_beta   89.30161921
_cell_angle_gamma   89.93155547
_symmetry_Int_Tables_number   1
_chemical_formula_structural   Li5Co2(PO4)3
_chemical_formula_sum   'Li20 Co8 P12 O48'
_cell_volume   949.47021574
_cell_formula_units_Z   4
loop_
 _symmetry_equiv_pos_site_id
 _symmetry_equiv_pos_as_xyz
  1  'x, y, z'
loop_
 _atom_site_type_symbol
 _atom_site_label
 _atom_site_symmetry_multiplicity
 _atom_site_fract_x
 _atom_site_fract_y
 _atom_site_fract_z
 _atom_site_occupancy
  Li  Li0  1  0.93237923  0.52074445  0.35029193  1
  Li  Li1  1  0.92764796  0.09356207  0.69570012  1
  Li  Li2  1  0.85697456  0.73251309  0.74684554  1
  Li  Li3  1  0.90461006  0.65709418  0.97472005  1
  Li  Li4  1  0.79720119  0.77004651  0.18412129  1
  Li  Li5  1  0.70277939  0.26916053  0.31618143  1
  Li  Li6  1  0.59540478  0.15543825  0.52441871  1
  Li  Li7  1  0.64298723  0.23218437  0.75325221  1
  Li  Li8  1  0.57234456  0.59364519  0.80447463  1
  Li  Li9  1  0.56878558  0.02075149  0.14978760  1
  Li  Li10  1  0.44579748  0.98700870  0.84171814  1
  Li  Li11  1  0.42385259  0.40585026  0.19386866  1
  Li  Li12  1  0.37398911  0.77163567  0.25654395  1
  Li  Li13  1  0.34669586  0.68144581  0.49299999  1
  Li  Li14  1  0.30040862  0.73836093  0.69585905  1
  Li  Li15  1  0.19941297  0.23795678  0.80372133  1
  Li  Li16  1  0.15208613  0.18253786  0.00658968  1
  Li  Li17  1  0.12612835  0.27188352  0.24384452  1
  Li  Li18  1  0.07520552  0.90587478  0.30669902  1
  Li  Li19  1  0.05466630  0.48679022  0.65826054  1
  Co  Co20  1  0.74132370  0.53061530  0.59866319  1
  Co  Co21  1  0.75797582  0.03093516  0.90110417  1
  Co  Co22  1  0.75025889  0.45022419  0.11015851  1
  Co  Co23  1  0.75003974  0.95094500  0.39033590  1
  Co  Co24  1  0.25000527  0.04469315  0.60162518  1
  Co  Co25  1  0.24860635  0.54501631  0.89864526  1
  Co  Co26  1  0.25554896  0.94405990  0.10772646  1
  Co  Co27  1  0.24514576  0.44370369  0.39237908  1
  P  P28  1  0.95021994  0.24736290  0.49331180  1
  P  P29  1  0.89221035  0.39353356  0.84958707  1
  P  P30  1  0.89225623  0.10034482  0.15603371  1
  P  P31  1  0.60759143  0.89348580  0.65043730  1
  P  P32  1  0.60796281  0.60041144  0.34370900  1
  P  P33  1  0.55042704  0.74767385  0.00667946  1
  P  P34  1  0.45228345  0.24788070  0.99075241  1
  P  P35  1  0.39745649  0.39940738  0.64833458  1
  P  P36  1  0.39523161  0.10787388  0.34776389  1
  P  P37  1  0.10267758  0.89981472  0.85170634  1
  P  P38  1  0.10463986  0.60830209  0.15259756  1
  P  P39  1  0.04750914  0.74791364  0.50950810  1
  O  O40  1  0.95785959  0.86165241  0.44161757  1
  O  O41  1  0.92730396  0.86356898  0.86961070  1
  O  O42  1  0.95540954  0.68046536  0.60644485  1
  O  O43  1  0.93367837  0.58931309  0.19095904  1
  O  O44  1  0.90954068  0.37356687  0.57620366  1
  O  O45  1  0.84925039  0.22689028  0.81837272  1
  O  O46  1  0.87474659  0.42108767  0.97054645  1
  O  O47  1  0.87191860  0.97559092  0.24431320  1
  O  O48  1  0.83745703  0.25854536  0.19426827  1
  O  O49  1  0.79763723  0.17910275  0.44889880  1
  O  O50  1  0.79582625  0.04751959  0.05969377  1
  O  O51  1  0.79146928  0.51044845  0.78652455  1
  O  O52  1  0.70831653  0.01015435  0.71362074  1
  O  O53  1  0.70436486  0.54752055  0.44012037  1
  O  O54  1  0.70310544  0.67970505  0.05075913  1
  O  O55  1  0.66258058  0.75832009  0.30563832  1
  O  O56  1  0.62547663  0.92134444  0.52945681  1
  O  O57  1  0.62806038  0.47549319  0.25541610  1
  O  O58  1  0.65082705  0.72687216  0.68150358  1
  O  O59  1  0.59030954  0.87369053  0.92361801  1
  O  O60  1  0.54469918  0.18026489  0.89374950  1
  O  O61  1  0.57283979  0.36295867  0.63019772  1
  O  O62  1  0.56653133  0.08849238  0.30956109  1
  O  O63  1  0.54186198  0.36122017  0.05880575  1
  O  O64  1  0.45807363  0.62818582  0.94402937  1
  O  O65  1  0.43631433  0.91866650  0.68735957  1
  O  O66  1  0.43029848  0.61364154  0.36371434  1
  O  O67  1  0.46000861  0.81587940  0.10561499  1
  O  O68  1  0.39958931  0.11990003  0.07011444  1
  O  O69  1  0.33970815  0.26648181  0.30602647  1
  O  O70  1  0.37895098  0.51938594  0.74047408  1
  O  O71  1  0.38599244  0.10875067  0.47131192  1
  O  O72  1  0.31870645  0.24838060  0.67886698  1
  O  O73  1  0.30023172  0.31764355  0.94351747  1
  O  O74  1  0.32222445  0.47330601  0.54894553  1
  O  O75  1  0.29791138  0.98075973  0.29497407  1
  O  O76  1  0.20195487  0.48079466  0.20494556  1
  O  O77  1  0.17751722  0.97341698  0.95114077  1
  O  O78  1  0.19966139  0.81778983  0.55632286  1
  O  O79  1  0.18075381  0.74780920  0.82086456  1
  O  O80  1  0.12142120  0.01946449  0.75964419  1
  O  O81  1  0.11369722  0.60862938  0.02860232  1
  O  O82  1  0.16052101  0.76681917  0.19375605  1
  O  O83  1  0.10082388  0.62011802  0.42993786  1
  O  O84  1  0.06359010  0.41828502  0.81249882  1
  O  O85  1  0.04045615  0.31558863  0.39443454  1
  O  O86  1  0.06978932  0.11382920  0.13618269  1
  O  O87  1  0.04198419  0.12789645  0.55586648  1
