# generated using pymatgen
data_CrO3
_symmetry_space_group_name_H-M   'P 1'
_cell_length_a   5.56087060
_cell_length_b   8.66651359
_cell_length_c   5.33827061
_cell_angle_alpha   90.00000000
_cell_angle_beta   90.00000000
_cell_angle_gamma   90.00000000
_symmetry_Int_Tables_number   1
_chemical_formula_structural   CrO3
_chemical_formula_sum   'Cr4 O12'
_cell_volume   257.26920063
_cell_formula_units_Z   4
loop_
 _symmetry_equiv_pos_site_id
 _symmetry_equiv_pos_as_xyz
  1  'x, y, z'
loop_
 _atom_site_type_symbol
 _atom_site_label
 _atom_site_symmetry_multiplicity
 _atom_site_fract_x
 _atom_site_fract_y
 _atom_site_fract_z
 _atom_site_occupancy
  Cr  Cr0  1  0.22620515  0.68965046  0.57150120  1
  Cr  Cr1  1  0.27379485  0.18965046  0.07150120  1
  Cr  Cr2  1  0.72620515  0.68965046  0.92849880  1
  Cr  Cr3  1  0.77379485  0.18965046  0.42849880  1
  O  O4  1  0.21984123  0.33315013  0.89394046  1
  O  O5  1  0.08110741  0.19524992  0.33112382  1
  O  O6  1  0.27315757  0.53680150  0.41328326  1
  O  O7  1  0.22684243  0.03680150  0.91328326  1
  O  O8  1  0.41889259  0.69524992  0.83112382  1
  O  O9  1  0.28015877  0.83315013  0.39394046  1
  O  O10  1  0.71984123  0.33315013  0.60605954  1
  O  O11  1  0.58110741  0.19524992  0.16887618  1
  O  O12  1  0.77315757  0.53680150  0.08671674  1
  O  O13  1  0.72684243  0.03680150  0.58671674  1
  O  O14  1  0.91889259  0.69524992  0.66887618  1
  O  O15  1  0.78015877  0.83315013  0.10605954  1
