# generated using pymatgen
data_Li9Mn2P4HO18
_symmetry_space_group_name_H-M   'P 1'
_cell_length_a   6.75555136
_cell_length_b   10.73138248
_cell_length_c   10.73138248
_cell_angle_alpha   96.94039349
_cell_angle_beta   108.34613025
_cell_angle_gamma   71.65386975
_symmetry_Int_Tables_number   1
_chemical_formula_structural   Li9Mn2P4HO18
_chemical_formula_sum   'Li18 Mn4 P8 H2 O36'
_cell_volume   700.70553976
_cell_formula_units_Z   2
loop_
 _symmetry_equiv_pos_site_id
 _symmetry_equiv_pos_as_xyz
  1  'x, y, z'
loop_
 _atom_site_type_symbol
 _atom_site_label
 _atom_site_symmetry_multiplicity
 _atom_site_fract_x
 _atom_site_fract_y
 _atom_site_fract_z
 _atom_site_occupancy
  Li  Li0  1  0.23603497  0.23540857  0.22748072  1
  Li  Li1  1  0.75603717  0.23540857  0.22748072  1
  Li  Li2  1  0.11730447  0.25501606  0.48962400  1
  Li  Li3  1  0.38103514  0.48948855  0.25155783  1
  Li  Li4  1  0.12513893  0.76139588  0.01167373  1
  Li  Li5  1  0.22902019  0.02097981  0.97902019  1
  Li  Li6  1  0.49345760  0.25654240  0.74345760  1
  Li  Li7  1  0.51145662  0.73854338  0.26145662  1
  Li  Li8  1  0.74985580  0.50014420  0.49985580  1
  Li  Li9  1  0.99345760  0.25654240  0.74345760  1
  Li  Li10  1  0.72902019  0.02097981  0.97902019  1
  Li  Li11  1  0.01145662  0.73854338  0.26145662  1
  Li  Li12  1  0.24985580  0.50014420  0.49985580  1
  Li  Li13  1  0.62513893  0.98832627  0.23860412  1
  Li  Li14  1  0.61730447  0.51037600  0.74498394  1
  Li  Li15  1  0.88103514  0.74844217  0.51051145  1
  Li  Li16  1  0.73603497  0.77251928  0.76459143  1
  Li  Li17  1  0.25603717  0.77251928  0.76459143  1
  Mn  Mn18  1  0.49091343  0.50421148  0.00231060  1
  Mn  Mn19  1  0.99091343  0.99768940  0.49578852  1
  Mn  Mn20  1  0.50718569  0.99768940  0.49578852  1
  Mn  Mn21  1  0.00718569  0.50421148  0.00231060  1
  P  P22  1  0.89227359  0.49577642  0.28032260  1
  P  P23  1  0.60766894  0.27864858  0.49398647  1
  P  P24  1  0.88443069  0.99781145  0.76667384  1
  P  P25  1  0.61212684  0.77824420  0.00249787  1
  P  P26  1  0.38443069  0.23332616  0.00218855  1
  P  P27  1  0.11212684  0.99750213  0.22175580  1
  P  P28  1  0.39227359  0.71967740  0.50422358  1
  P  P29  1  0.10766894  0.50601353  0.72135142  1
  H  H30  1  0.31184911  0.03292562  0.65662385  1
  H  H31  1  0.81184911  0.34337615  0.96707438  1
  O  O32  1  0.48884532  0.10834270  0.08603334  1
  O  O33  1  0.00865983  0.08092850  0.09824816  1
  O  O34  1  0.17771049  0.31189549  0.04474313  1
  O  O35  1  0.94181299  0.03912584  0.30199144  1
  O  O36  1  0.55513715  0.31189549  0.04474313  1
  O  O37  1  0.32105261  0.03912584  0.30199144  1
  O  O38  1  0.24384929  0.56905051  0.05675009  1
  O  O39  1  0.25581829  0.05077026  0.56240685  1
  O  O40  1  0.98190038  0.34586122  0.30966099  1
  O  O41  1  0.51758032  0.30975939  0.34492004  1
  O  O42  1  0.85563378  0.20153177  0.52971012  1
  O  O43  1  0.02754363  0.53278661  0.20471898  1
  O  O44  1  0.64438774  0.53278661  0.20471898  1
  O  O45  1  0.47254457  0.20153177  0.52971012  1
  O  O46  1  0.82693805  0.14647837  0.80035447  1
  O  O47  1  0.67272880  0.80786532  0.15332392  1
  O  O48  1  0.91179010  0.58288624  0.40646644  1
  O  O49  1  0.58990847  0.40352133  0.58333926  1
  O  O50  1  0.41179010  0.59353356  0.41711376  1
  O  O51  1  0.08990847  0.41666074  0.59647867  1
  O  O52  1  0.32693805  0.19964553  0.85352163  1
  O  O53  1  0.17272880  0.84667608  0.19213468  1
  O  O54  1  0.14438774  0.79528102  0.46721339  1
  O  O55  1  0.97254457  0.47028988  0.79846823  1
  O  O56  1  0.52754363  0.79528102  0.46721339  1
  O  O57  1  0.35563378  0.47028988  0.79846823  1
  O  O58  1  0.48190038  0.69033901  0.65413878  1
  O  O59  1  0.01758032  0.65507996  0.69024061  1
  O  O60  1  0.75581829  0.43759315  0.94922974  1
  O  O61  1  0.74384929  0.94324991  0.43094949  1
  O  O62  1  0.82105261  0.69800856  0.96087416  1
  O  O63  1  0.44181299  0.69800856  0.96087416  1
  O  O64  1  0.05513715  0.95525687  0.68810451  1
  O  O65  1  0.67771049  0.95525687  0.68810451  1
  O  O66  1  0.98884532  0.91396666  0.89165730  1
  O  O67  1  0.50865983  0.90175184  0.91907150  1
