# generated using pymatgen
data_Na4Cr2P(CO4)4
_symmetry_space_group_name_H-M   'P 1'
_cell_length_a   9.87943014
_cell_length_b   9.70842356
_cell_length_c   9.87942978
_cell_angle_alpha   60.87332752
_cell_angle_beta   92.48548165
_cell_angle_gamma   60.87332985
_symmetry_Int_Tables_number   1
_chemical_formula_structural   Na4Cr2P(CO4)4
_chemical_formula_sum   'Na8 Cr4 P2 C8 O32'
_cell_volume   672.53307025
_cell_formula_units_Z   2
loop_
 _symmetry_equiv_pos_site_id
 _symmetry_equiv_pos_as_xyz
  1  'x, y, z'
loop_
 _atom_site_type_symbol
 _atom_site_label
 _atom_site_symmetry_multiplicity
 _atom_site_fract_x
 _atom_site_fract_y
 _atom_site_fract_z
 _atom_site_occupancy
  Na  Na0  1  0.08484509  0.83030983  0.83484509  1
  Na  Na1  1  0.08510101  0.25000000  0.83510101  1
  Na  Na2  1  0.33510101  0.75000000  0.58510101  1
  Na  Na3  1  0.33484509  0.33030983  0.58484509  1
  Na  Na4  1  0.66515491  0.66969017  0.41515491  1
  Na  Na5  1  0.66489899  0.25000000  0.41489899  1
  Na  Na6  1  0.91489899  0.75000000  0.16489899  1
  Na  Na7  1  0.91515491  0.16969017  0.16515491  1
  Cr  Cr8  1  0.00000000  0.50000000  0.00000000  1
  Cr  Cr9  1  0.50000000  0.00000000  0.50000000  1
  Cr  Cr10  1  0.50000000  0.50000000  0.00000000  1
  Cr  Cr11  1  0.50000000  0.00000000  0.00000000  1
  P  P12  1  0.12500000  0.75000000  0.37500000  1
  P  P13  1  0.87500000  0.25000000  0.62500000  1
  C  C14  1  0.36111148  0.92779914  0.78019794  1
  C  C15  1  0.28019794  0.42779914  0.86111148  1
  C  C16  1  0.71108839  0.92779914  0.79200192  1
  C  C17  1  0.70799808  0.57220086  0.78891161  1
  C  C18  1  0.29200192  0.42779914  0.21108839  1
  C  C19  1  0.28891161  0.07220086  0.20799808  1
  C  C20  1  0.71980206  0.57220086  0.13888852  1
  C  C21  1  0.63888852  0.07220086  0.21980206  1
  O  O22  1  0.35553890  0.78895832  0.89305196  1
  O  O23  1  0.06327152  0.88181264  0.43641443  1
  O  O24  1  0.36512364  0.95016694  0.64065578  1
  O  O25  1  0.14065578  0.45016694  0.86512364  1
  O  O26  1  0.68470942  0.95016694  0.90917628  1
  O  O27  1  0.30509425  0.55039964  0.85545809  1
  O  O28  1  0.05491584  0.88181264  0.18177393  1
  O  O29  1  0.06358557  0.61818736  0.43672848  1
  O  O30  1  0.40585673  0.94960036  0.35549390  1
  O  O31  1  0.59082372  0.54983306  0.81529058  1
  O  O32  1  0.39305196  0.28895832  0.85553890  1
  O  O33  1  0.31822607  0.61818736  0.44508416  1
  O  O34  1  0.85550278  0.78895832  0.81798972  1
  O  O35  1  0.68201028  0.71104168  0.64449722  1
  O  O36  1  0.35545809  0.05039964  0.80509425  1
  O  O37  1  0.14450610  0.55039964  0.09414327  1
  O  O38  1  0.85549390  0.44960036  0.90585673  1
  O  O39  1  0.64454191  0.94960036  0.19490575  1
  O  O40  1  0.31798972  0.28895832  0.35550278  1
  O  O41  1  0.14449722  0.21104168  0.18201028  1
  O  O42  1  0.68177393  0.38181264  0.55491584  1
  O  O43  1  0.60694804  0.71104168  0.14446110  1
  O  O44  1  0.40917628  0.45016694  0.18470942  1
  O  O45  1  0.59414327  0.05039964  0.64450610  1
  O  O46  1  0.93641443  0.38181264  0.56327152  1
  O  O47  1  0.94508416  0.11818736  0.81822607  1
  O  O48  1  0.69490575  0.44960036  0.14454191  1
  O  O49  1  0.31529058  0.04983306  0.09082372  1
  O  O50  1  0.85934422  0.54983306  0.13487636  1
  O  O51  1  0.63487636  0.04983306  0.35934422  1
  O  O52  1  0.93672848  0.11818736  0.56358557  1
  O  O53  1  0.64446110  0.21104168  0.10694804  1
