# generated using pymatgen
data_Mn12O5F19
_symmetry_space_group_name_H-M   'P 1'
_cell_length_a   4.81618266
_cell_length_b   5.86798081
_cell_length_c   16.01007688
_cell_angle_alpha   90.28058525
_cell_angle_beta   89.74863483
_cell_angle_gamma   88.92588099
_symmetry_Int_Tables_number   1
_chemical_formula_structural   Mn12O5F19
_chemical_formula_sum   'Mn12 O5 F19'
_cell_volume   452.37559428
_cell_formula_units_Z   1
loop_
 _symmetry_equiv_pos_site_id
 _symmetry_equiv_pos_as_xyz
  1  'x, y, z'
loop_
 _atom_site_type_symbol
 _atom_site_label
 _atom_site_symmetry_multiplicity
 _atom_site_fract_x
 _atom_site_fract_y
 _atom_site_fract_z
 _atom_site_occupancy
  Mn  Mn0  1  0.05102714  0.18462319  0.42041088  1
  Mn  Mn1  1  0.98711182  0.82648662  0.24356806  1
  Mn  Mn2  1  0.00763940  0.13516376  0.08395908  1
  Mn  Mn3  1  0.98609174  0.16304266  0.74662962  1
  Mn  Mn4  1  0.99836472  0.84529958  0.58319873  1
  Mn  Mn5  1  0.02974942  0.83662937  0.90489123  1
  Mn  Mn6  1  0.50958647  0.35082867  0.58706594  1
  Mn  Mn7  1  0.50688108  0.34340234  0.92118458  1
  Mn  Mn8  1  0.50420411  0.35436953  0.24695640  1
  Mn  Mn9  1  0.50106659  0.67695616  0.09354543  1
  Mn  Mn10  1  0.50354916  0.64037388  0.41958003  1
  Mn  Mn11  1  0.48541572  0.65363172  0.75013694  1
  O  O12  1  0.20643870  0.87137630  0.14006509  1
  O  O13  1  0.22405985  0.88308968  0.79613223  1
  O  O14  1  0.31191299  0.39302033  0.48173508  1
  O  O15  1  0.70692701  0.62562550  0.19678823  1
  O  O16  1  0.69945679  0.38825590  0.69513295  1
  F  F17  1  0.22690438  0.10192436  0.29999092  1
  F  F18  1  0.22265916  0.12545241  0.63646215  1
  F  F19  1  0.23053205  0.11141730  0.97066663  1
  F  F20  1  0.24545646  0.89111459  0.47214577  1
  F  F21  1  0.26020978  0.37604748  0.13859715  1
  F  F22  1  0.25298081  0.59785754  0.31274247  1
  F  F23  1  0.26440493  0.61552215  0.64015791  1
  F  F24  1  0.24671173  0.39811873  0.81145598  1
  F  F25  1  0.28631415  0.62599340  0.98114969  1
  F  F26  1  0.73651885  0.39261417  0.03507063  1
  F  F27  1  0.74460136  0.37662642  0.35934661  1
  F  F28  1  0.74712362  0.60998421  0.52822779  1
  F  F29  1  0.72173357  0.61753036  0.85976680  1
  F  F30  1  0.75414855  0.11444793  0.19029300  1
  F  F31  1  0.77480713  0.11861785  0.52745011  1
  F  F32  1  0.77378511  0.86463630  0.35852792  1
  F  F33  1  0.77315128  0.88478732  0.01596131  1
  F  F34  1  0.77509272  0.11746571  0.85923384  1
  F  F35  1  0.74338563  0.88766759  0.69177384  1
