# generated using pymatgen
data_LiCo2OF5
_symmetry_space_group_name_H-M   'P 1'
_cell_length_a   8.62437403
_cell_length_b   8.51243063
_cell_length_c   4.49947886
_cell_angle_alpha   91.97376344
_cell_angle_beta   88.93696134
_cell_angle_gamma   119.51925174
_symmetry_Int_Tables_number   1
_chemical_formula_structural   LiCo2OF5
_chemical_formula_sum   'Li3 Co6 O3 F15'
_cell_volume   287.27584191
_cell_formula_units_Z   3
loop_
 _symmetry_equiv_pos_site_id
 _symmetry_equiv_pos_as_xyz
  1  'x, y, z'
loop_
 _atom_site_type_symbol
 _atom_site_label
 _atom_site_symmetry_multiplicity
 _atom_site_fract_x
 _atom_site_fract_y
 _atom_site_fract_z
 _atom_site_occupancy
  Li  Li0  1  0.33615179  0.66617886  0.49435065  1
  Li  Li1  1  0.00280127  0.00103267  0.00787394  1
  Li  Li2  1  0.66821850  0.33573063  0.48983428  1
  Co  Co3  1  0.00735937  0.64825512  0.98811741  1
  Co  Co4  1  0.00387538  0.32848284  0.51408613  1
  Co  Co5  1  0.35293004  0.34206691  0.98659878  1
  Co  Co6  1  0.32562385  0.01047919  0.51286937  1
  Co  Co7  1  0.68764558  0.69299615  0.51320345  1
  Co  Co8  1  0.65878097  0.99521976  0.98592410  1
  O  O9  1  0.09405736  0.53710498  0.74367615  1
  O  O10  1  0.42739888  0.21940507  0.73723658  1
  O  O11  1  0.76161980  0.88720041  0.76538494  1
  F  F12  1  0.10754811  0.88023138  0.76409561  1
  F  F13  1  0.21878442  0.78242674  0.27263054  1
  F  F14  1  0.43490250  0.89173749  0.74443073  1
  F  F15  1  0.11231518  0.22313530  0.76573840  1
  F  F16  1  0.22676078  0.43283441  0.25259855  1
  F  F17  1  0.55975239  0.78380033  0.26168633  1
  F  F18  1  0.22643878  0.11667849  0.23821133  1
  F  F19  1  0.45131719  0.56065699  0.74274885  1
  F  F20  1  0.56456827  0.46421143  0.26365245  1
  F  F21  1  0.54786441  0.10094892  0.24378650  1
  F  F22  1  0.89391937  0.76816655  0.23058173  1
  F  F23  1  0.78180521  0.56113478  0.73792093  1
  F  F24  1  0.77022555  0.21523301  0.73565144  1
  F  F25  1  0.89157474  0.43716673  0.25714857  1
  F  F26  1  0.88565832  0.11748586  0.24996324  1
