# generated using pymatgen
data_Li3Fe2(CuO4)2
_symmetry_space_group_name_H-M   'P 1'
_cell_length_a   6.23165935
_cell_length_b   6.33248146
_cell_length_c   6.30232571
_cell_angle_alpha   126.39736754
_cell_angle_beta   52.89744739
_cell_angle_gamma   101.11755551
_symmetry_Int_Tables_number   1
_chemical_formula_structural   Li3Fe2(CuO4)2
_chemical_formula_sum   'Li3 Fe2 Cu2 O8'
_cell_volume   154.28674368
_cell_formula_units_Z   1
loop_
 _symmetry_equiv_pos_site_id
 _symmetry_equiv_pos_as_xyz
  1  'x, y, z'
loop_
 _atom_site_type_symbol
 _atom_site_label
 _atom_site_symmetry_multiplicity
 _atom_site_fract_x
 _atom_site_fract_y
 _atom_site_fract_z
 _atom_site_occupancy
  Li  Li0  1  0.50000000  0.00000000  0.00000000  1
  Li  Li1  1  0.50000000  0.50000000  0.00000000  1
  Li  Li2  1  0.50000000  0.50000000  0.50000000  1
  Fe  Fe3  1  -0.00000000  0.50000000  0.00000000  1
  Fe  Fe4  1  -0.00000000  0.00000000  0.50000000  1
  Cu  Cu5  1  -0.00000000  0.00000000  0.00000000  1
  Cu  Cu6  1  0.50000000  0.00000000  0.50000000  1
  O  O7  1  0.26183524  0.71756151  0.00388135  1
  O  O8  1  0.23068899  0.26546596  0.52627733  1
  O  O9  1  0.22201142  0.81369454  0.53546655  1
  O  O10  1  0.22720486  0.23700938  0.96514952  1
  O  O11  1  0.77279514  0.76299062  0.03485048  1
  O  O12  1  0.77798858  0.18630546  0.46453345  1
  O  O13  1  0.76931101  0.73453404  0.47372267  1
  O  O14  1  0.73816476  0.28243849  0.99611865  1
