# generated using pymatgen
data_Fe10O9F11
_symmetry_space_group_name_H-M   'P 1'
_cell_length_a   4.75083076
_cell_length_b   4.76354456
_cell_length_c   15.55150873
_cell_angle_alpha   90.34347869
_cell_angle_beta   90.36452132
_cell_angle_gamma   91.30000471
_symmetry_Int_Tables_number   1
_chemical_formula_structural   Fe10O9F11
_chemical_formula_sum   'Fe10 O9 F11'
_cell_volume   351.83864837
_cell_formula_units_Z   1
loop_
 _symmetry_equiv_pos_site_id
 _symmetry_equiv_pos_as_xyz
  1  'x, y, z'
loop_
 _atom_site_type_symbol
 _atom_site_label
 _atom_site_symmetry_multiplicity
 _atom_site_fract_x
 _atom_site_fract_y
 _atom_site_fract_z
 _atom_site_occupancy
  Fe  Fe0  1  0.99894317  0.00127515  0.00061307  1
  Fe  Fe1  1  0.97472599  0.95677936  0.20627358  1
  Fe  Fe2  1  0.04867126  0.00220445  0.40089045  1
  Fe  Fe3  1  0.04318266  0.99353091  0.59799018  1
  Fe  Fe4  1  0.03272228  0.01374535  0.79398904  1
  Fe  Fe5  1  0.51591080  0.50853852  0.09326898  1
  Fe  Fe6  1  0.46316139  0.49670258  0.49982715  1
  Fe  Fe7  1  0.47250178  0.51920138  0.29783123  1
  Fe  Fe8  1  0.45775438  0.50314280  0.70221805  1
  Fe  Fe9  1  0.49044376  0.48296737  0.90777152  1
  O  O10  1  0.18698260  0.80576921  0.30050639  1
  O  O11  1  0.20202521  0.81023022  0.49923007  1
  O  O12  1  0.19424359  0.81202814  0.69939476  1
  O  O13  1  0.30769395  0.30278926  0.00334554  1
  O  O14  1  0.31432724  0.31559636  0.39704467  1
  O  O15  1  0.30818446  0.31245778  0.60034914  1
  O  O16  1  0.31078177  0.31313099  0.80227135  1
  O  O17  1  0.69699997  0.69111613  0.99756900  1
  O  O18  1  0.67782571  0.67913018  0.20059079  1
  F  F19  1  0.19098685  0.79329988  0.10841861  1
  F  F20  1  0.20114250  0.80398687  0.89242805  1
  F  F21  1  0.28615545  0.28924083  0.20047867  1
  F  F22  1  0.70070104  0.70494344  0.40072818  1
  F  F23  1  0.69932380  0.70292522  0.59927040  1
  F  F24  1  0.70364300  0.70673169  0.79779309  1
  F  F25  1  0.79912420  0.18769011  0.11076898  1
  F  F26  1  0.81010889  0.19919622  0.49914136  1
  F  F27  1  0.79932565  0.19356852  0.30178992  1
  F  F28  1  0.80711246  0.19568216  0.89004676  1
  F  F29  1  0.80529422  0.20239793  0.69816206  1
