# generated using pymatgen
data_SrCrO3
_symmetry_space_group_name_H-M   'P 1'
_cell_length_a   5.55197887
_cell_length_b   5.55382616
_cell_length_c   32.27837448
_cell_angle_alpha   89.70114054
_cell_angle_beta   90.14878341
_cell_angle_gamma   119.96743540
_symmetry_Int_Tables_number   1
_chemical_formula_structural   SrCrO3
_chemical_formula_sum   'Sr14 Cr14 O42'
_cell_volume   862.22156873
_cell_formula_units_Z   14
loop_
 _symmetry_equiv_pos_site_id
 _symmetry_equiv_pos_as_xyz
  1  'x, y, z'
loop_
 _atom_site_type_symbol
 _atom_site_label
 _atom_site_symmetry_multiplicity
 _atom_site_fract_x
 _atom_site_fract_y
 _atom_site_fract_z
 _atom_site_occupancy
  Sr  Sr0  1  0.33124461  0.66518971  0.04022139  1
  Sr  Sr1  1  0.33268211  0.66492199  0.17730090  1
  Sr  Sr2  1  0.32908986  0.66302501  0.74996833  1
  Sr  Sr3  1  0.99647868  0.99975886  0.10549282  1
  Sr  Sr4  1  0.99958841  0.00701548  0.39427559  1
  Sr  Sr5  1  0.00442895  0.00704639  0.60574065  1
  Sr  Sr6  1  0.33282716  0.66772207  0.32278787  1
  Sr  Sr7  1  0.33345058  0.66823249  0.45948197  1
  Sr  Sr8  1  0.00265948  0.00674238  0.89419331  1
  Sr  Sr9  1  0.66817498  0.33109568  0.25022470  1
  Sr  Sr10  1  0.66672904  0.33424759  0.54050120  1
  Sr  Sr11  1  0.66689660  0.33549736  0.67716317  1
  Sr  Sr12  1  0.66728077  0.33517369  0.82284587  1
  Sr  Sr13  1  0.66745054  0.33436251  0.95973141  1
  Cr  Cr14  1  0.33895857  0.67659684  0.56582024  1
  Cr  Cr15  1  0.33653359  0.67553188  0.64541143  1
  Cr  Cr16  1  0.99854133  0.00409750  0.99982937  1
  Cr  Cr17  1  0.99744558  0.99236505  0.21052539  1
  Cr  Cr18  1  0.99787275  0.99900277  0.28985287  1
  Cr  Cr19  1  0.00024795  0.00510161  0.50018388  1
  Cr  Cr20  1  0.99948595  0.00328466  0.71026359  1
  Cr  Cr21  1  0.00061349  0.00446968  0.78947810  1
  Cr  Cr22  1  0.33741513  0.67580578  0.85429265  1
  Cr  Cr23  1  0.33801475  0.67657022  0.93394034  1
  Cr  Cr24  1  0.65894611  0.33300507  0.06551549  1
  Cr  Cr25  1  0.66264412  0.32906349  0.14555238  1
  Cr  Cr26  1  0.66317789  0.33770241  0.35488355  1
  Cr  Cr27  1  0.66344323  0.34089513  0.43449253  1
  O  O28  1  0.15583202  0.84670992  0.25124230  1
  O  O29  1  0.16567314  0.82584678  0.67731782  1
  O  O30  1  0.15940641  0.82329025  0.82186328  1
  O  O31  1  0.15752646  0.82483812  0.53456354  1
  O  O32  1  0.16052460  0.82831984  0.96564950  1
  O  O33  1  0.03059981  0.51500057  0.60630099  1
  O  O34  1  0.03058566  0.51590764  0.89399169  1
  O  O35  1  0.16478211  0.32753183  0.82160771  1
  O  O36  1  0.15412407  0.30282026  0.25027141  1
  O  O37  1  0.15767942  0.31491770  0.53478217  1
  O  O38  1  0.49258263  0.98538016  0.60559657  1
  O  O39  1  0.49276274  0.98608306  0.89391259  1
  O  O40  1  0.16014336  0.31780913  0.96567369  1
  O  O41  1  0.16824178  0.32780247  0.67854560  1
  O  O42  1  0.48572716  0.51634661  0.60602002  1
  O  O43  1  0.48469631  0.51589050  0.89419517  1
  O  O44  1  0.30523846  0.15068623  0.74939035  1
  O  O45  1  0.65919574  0.82169654  0.53401268  1
  O  O46  1  0.66117657  0.82396318  0.96532060  1
  O  O47  1  0.33441580  0.17189153  0.17810411  1
  O  O48  1  0.34068990  0.16655234  0.32290560  1
  O  O49  1  0.66685228  0.82748159  0.67777448  1
  O  O50  1  0.66172145  0.82366605  0.82255941  1
  O  O51  1  0.33553544  0.16523163  0.03488816  1
  O  O52  1  0.34004221  0.16239326  0.46567056  1
  O  O53  1  0.69191078  0.84619246  0.24871663  1
  O  O54  1  0.51130958  0.48806365  0.10661088  1
  O  O55  1  0.50886941  0.49467455  0.39402485  1
  O  O56  1  0.84714826  0.69521519  0.74972234  1
  O  O57  1  0.83730497  0.66675938  0.03461383  1
  O  O58  1  0.84051819  0.66689472  0.46557177  1
  O  O59  1  0.51204747  0.02383435  0.10507131  1
  O  O60  1  0.51751925  0.03294207  0.39405846  1
  O  O61  1  0.83658578  0.67145484  0.17865724  1
  O  O62  1  0.83892106  0.66713081  0.32198321  1
  O  O63  1  0.96818925  0.48530069  0.10608835  1
  O  O64  1  0.97131386  0.48725052  0.39408702  1
  O  O65  1  0.84053756  0.16077357  0.03373595  1
  O  O66  1  0.84116819  0.15827187  0.46550106  1
  O  O67  1  0.83640206  0.17471906  0.17718553  1
  O  O68  1  0.84004734  0.16667777  0.32143545  1
  O  O69  1  0.84213123  0.15276198  0.75079916  1
