# generated using pymatgen
data_Mn2OF3
_symmetry_space_group_name_H-M   'P 1'
_cell_length_a   4.79438343
_cell_length_b   13.82622197
_cell_length_c   5.73908972
_cell_angle_alpha   100.92573443
_cell_angle_beta   90.65243927
_cell_angle_gamma   89.10726718
_symmetry_Int_Tables_number   1
_chemical_formula_structural   Mn2OF3
_chemical_formula_sum   'Mn10 O5 F15'
_cell_volume   373.47899086
_cell_formula_units_Z   5
loop_
 _symmetry_equiv_pos_site_id
 _symmetry_equiv_pos_as_xyz
  1  'x, y, z'
loop_
 _atom_site_type_symbol
 _atom_site_label
 _atom_site_symmetry_multiplicity
 _atom_site_fract_x
 _atom_site_fract_y
 _atom_site_fract_z
 _atom_site_occupancy
  Mn  Mn0  1  0.50298382  0.99929906  0.50120653  1
  Mn  Mn1  1  0.48597161  0.40175189  0.30431405  1
  Mn  Mn2  1  0.54184275  0.59080911  0.71116461  1
  Mn  Mn3  1  0.46621654  0.21422891  0.90109995  1
  Mn  Mn4  1  0.52047650  0.79062217  0.09223310  1
  Mn  Mn5  1  0.96574153  0.18589545  0.39861224  1
  Mn  Mn6  1  0.99794623  0.40038232  0.79982518  1
  Mn  Mn7  1  0.03827799  0.81188087  0.60167031  1
  Mn  Mn8  1  0.98544058  0.60345611  0.19548632  1
  Mn  Mn9  1  0.99990536  0.00003766  0.99861979  1
  O  O10  1  0.79949446  0.04926624  0.29931508  1
  O  O11  1  0.69808334  0.45601561  0.60839553  1
  O  O12  1  0.70865489  0.65686787  0.02235218  1
  O  O13  1  0.28643636  0.35082421  0.99460274  1
  O  O14  1  0.20487278  0.94893671  0.70108701  1
  F  F15  1  0.81159980  0.86388948  0.92125298  1
  F  F16  1  0.81131975  0.26204468  0.72820882  1
  F  F17  1  0.81510214  0.66850309  0.51381510  1
  F  F18  1  0.79669829  0.46443258  0.11755225  1
  F  F19  1  0.70112483  0.06966747  0.81703587  1
  F  F20  1  0.68630408  0.26507344  0.22534920  1
  F  F21  1  0.68828784  0.86017187  0.42742745  1
  F  F22  1  0.31490430  0.13819226  0.56911997  1
  F  F23  1  0.30085725  0.93018961  0.18173174  1
  F  F24  1  0.32128992  0.72809201  0.76700456  1
  F  F25  1  0.29274152  0.54520715  0.38429496  1
  F  F26  1  0.18087600  0.53964371  0.88400262  1
  F  F27  1  0.19107186  0.33125468  0.48523818  1
  F  F28  1  0.19097444  0.13478408  0.07713342  1
  F  F29  1  0.19450325  0.73857871  0.27084628  1
