# generated using pymatgen
data_Na4Bi2O5
_symmetry_space_group_name_H-M   'P 1'
_cell_length_a   14.45576098
_cell_length_b   6.18566259
_cell_length_c   8.74394006
_cell_angle_alpha   90.00000000
_cell_angle_beta   95.18265006
_cell_angle_gamma   90.00000000
_symmetry_Int_Tables_number   1
_chemical_formula_structural   Na4Bi2O5
_chemical_formula_sum   'Na16 Bi8 O20'
_cell_volume   778.67321299
_cell_formula_units_Z   4
loop_
 _symmetry_equiv_pos_site_id
 _symmetry_equiv_pos_as_xyz
  1  'x, y, z'
loop_
 _atom_site_type_symbol
 _atom_site_label
 _atom_site_symmetry_multiplicity
 _atom_site_fract_x
 _atom_site_fract_y
 _atom_site_fract_z
 _atom_site_occupancy
  Na  Na0  1  0.03156475  0.03394881  0.80306475  1
  Na  Na1  1  0.05014627  0.45882239  0.35957777  1
  Na  Na2  1  0.09984397  0.88197224  0.49381693  1
  Na  Na3  1  0.07862134  0.65914018  0.00569701  1
  Na  Na4  1  0.40015603  0.38197224  0.00618307  1
  Na  Na5  1  0.42137866  0.15914018  0.49430299  1
  Na  Na6  1  0.46843525  0.53394881  0.69693525  1
  Na  Na7  1  0.55014627  0.04117761  0.85957777  1
  Na  Na8  1  0.44985373  0.95882239  0.14042323  1
  Na  Na9  1  0.53156475  0.46605119  0.30306475  1
  Na  Na10  1  0.57862134  0.84085982  0.50569701  1
  Na  Na11  1  0.59984397  0.61802776  0.99381693  1
  Na  Na12  1  0.92137866  0.34085982  0.99430299  1
  Na  Na13  1  0.90015603  0.11802776  0.50618307  1
  Na  Na14  1  0.94985373  0.54117761  0.64042223  1
  Na  Na15  1  0.96843525  0.96605119  0.19693525  1
  Bi  Bi16  1  0.16820659  0.42153437  0.70468051  1
  Bi  Bi17  1  0.33179341  0.92153437  0.79531949  1
  Bi  Bi18  1  0.19345661  0.16305148  0.15487612  1
  Bi  Bi19  1  0.30654339  0.66305148  0.34512388  1
  Bi  Bi20  1  0.69345661  0.33694852  0.65487612  1
  Bi  Bi21  1  0.80654339  0.83694852  0.84512388  1
  Bi  Bi22  1  0.66820659  0.07846563  0.20468051  1
  Bi  Bi23  1  0.83179341  0.57846563  0.29531949  1
  O  O24  1  0.05895618  0.24455479  0.58998368  1
  O  O25  1  0.09080526  0.69952312  0.74051769  1
  O  O26  1  0.09175738  0.28186358  0.98539933  1
  O  O27  1  0.12539017  0.87989012  0.21513476  1
  O  O28  1  0.20119374  0.53940942  0.47958134  1
  O  O29  1  0.40919474  0.19952312  0.75948231  1
  O  O30  1  0.29880626  0.03940942  0.02041866  1
  O  O31  1  0.37460983  0.37989012  0.28486524  1
  O  O32  1  0.44104382  0.74455479  0.91001632  1
  O  O33  1  0.40824262  0.78186358  0.51460067  1
  O  O34  1  0.59175738  0.21813642  0.48539933  1
  O  O35  1  0.55895618  0.25544521  0.08998368  1
  O  O36  1  0.62539017  0.62010988  0.71513476  1
  O  O37  1  0.70119374  0.96059058  0.97958134  1
  O  O38  1  0.59080526  0.80047688  0.24051769  1
  O  O39  1  0.79880626  0.46059058  0.52041866  1
  O  O40  1  0.87460983  0.12010988  0.78486524  1
  O  O41  1  0.90824262  0.71813642  0.01460067  1
  O  O42  1  0.90919474  0.30047688  0.25948231  1
  O  O43  1  0.94104382  0.75544521  0.41001632  1
