# generated using pymatgen
data_Mn3OF8
_symmetry_space_group_name_H-M   'P 1'
_cell_length_a   5.18486367
_cell_length_b   5.17460551
_cell_length_c   26.95172059
_cell_angle_alpha   89.11960473
_cell_angle_beta   90.12749349
_cell_angle_gamma   59.77974607
_symmetry_Int_Tables_number   1
_chemical_formula_structural   Mn3OF8
_chemical_formula_sum   'Mn12 O4 F32'
_cell_volume   624.71714080
_cell_formula_units_Z   4
loop_
 _symmetry_equiv_pos_site_id
 _symmetry_equiv_pos_as_xyz
  1  'x, y, z'
loop_
 _atom_site_type_symbol
 _atom_site_label
 _atom_site_symmetry_multiplicity
 _atom_site_fract_x
 _atom_site_fract_y
 _atom_site_fract_z
 _atom_site_occupancy
  Mn  Mn0  1  0.00675066  0.97911432  0.00283432  1
  Mn  Mn1  1  0.00360358  0.97612879  0.75236837  1
  Mn  Mn2  1  0.96928099  0.02355202  0.25287862  1
  Mn  Mn3  1  0.01755633  0.01372229  0.50272692  1
  Mn  Mn4  1  0.35979117  0.31847998  0.33051307  1
  Mn  Mn5  1  0.32574866  0.35668550  0.83058436  1
  Mn  Mn6  1  0.32965033  0.31095970  0.58049810  1
  Mn  Mn7  1  0.32264270  0.35480437  0.08083087  1
  Mn  Mn8  1  0.68432644  0.67057127  0.41629401  1
  Mn  Mn9  1  0.66254114  0.66727670  0.91658167  1
  Mn  Mn10  1  0.64929386  0.68848426  0.16692197  1
  Mn  Mn11  1  0.66268292  0.64749538  0.66635608  1
  O  O12  1  0.29526504  0.04312606  0.54203366  1
  O  O13  1  0.04392157  0.67221278  0.04273907  1
  O  O14  1  0.28950219  0.66076430  0.79127868  1
  O  O15  1  0.66134848  0.05228893  0.29197151  1
  F  F16  1  0.06090859  0.28339378  0.29401648  1
  F  F17  1  0.06888326  0.28429129  0.79380015  1
  F  F18  1  0.01095437  0.40698002  0.12329480  1
  F  F19  1  0.01534583  0.37368232  0.62228911  1
  F  F20  1  0.26773217  0.07370996  0.04210519  1
  F  F21  1  0.39713798  0.00157149  0.37397360  1
  F  F22  1  0.40121643  0.00092839  0.87564776  1
  F  F23  1  0.06705789  0.65143332  0.54321228  1
  F  F24  1  0.28281266  0.65426377  0.29317740  1
  F  F25  1  0.59543832  0.02131576  0.12509853  1
  F  F26  1  0.60572530  0.99100988  0.62372015  1
  F  F27  1  0.66028825  0.05976239  0.79414285  1
  F  F28  1  0.36449331  0.73101563  0.45712587  1
  F  F29  1  0.32156780  0.73008397  0.96104872  1
  F  F30  1  0.39495985  0.62491312  0.12292144  1
  F  F31  1  0.40100484  0.58313261  0.62562910  1
  F  F32  1  0.60458678  0.38278857  0.37274767  1
  F  F33  1  0.59879235  0.39792536  0.87499940  1
  F  F34  1  0.66113238  0.27759125  0.04077183  1
  F  F35  1  0.65829878  0.27934337  0.54380141  1
  F  F36  1  0.29260230  0.95587641  0.21107874  1
  F  F37  1  0.31833944  0.93094029  0.70929889  1
  F  F38  1  0.73155547  0.30968650  0.70944673  1
  F  F39  1  0.70107630  0.36191437  0.20712731  1
  F  F40  1  0.92955608  0.32903359  0.95708232  1
  F  F41  1  0.95718730  0.34690577  0.45769789  1
  F  F42  1  0.76412705  0.94851527  0.45992603  1
  F  F43  1  0.72890126  0.92655175  0.95651773  1
  F  F44  1  0.00694873  0.59745055  0.37393128  1
  F  F45  1  0.01498705  0.59537531  0.87164257  1
  F  F46  1  0.91954570  0.71029649  0.70638806  1
  F  F47  1  0.91292909  0.74265280  0.20892543  1
