# generated using pymatgen
data_Li4Ti3Cr3(NiO8)2
_symmetry_space_group_name_H-M   'P 1'
_cell_length_a   5.86275801
_cell_length_b   5.87581229
_cell_length_c   9.65946433
_cell_angle_alpha   89.99815466
_cell_angle_beta   90.02269313
_cell_angle_gamma   120.07122853
_symmetry_Int_Tables_number   1
_chemical_formula_structural   Li4Ti3Cr3(NiO8)2
_chemical_formula_sum   'Li4 Ti3 Cr3 Ni2 O16'
_cell_volume   287.96609305
_cell_formula_units_Z   1
loop_
 _symmetry_equiv_pos_site_id
 _symmetry_equiv_pos_as_xyz
  1  'x, y, z'
loop_
 _atom_site_type_symbol
 _atom_site_label
 _atom_site_symmetry_multiplicity
 _atom_site_fract_x
 _atom_site_fract_y
 _atom_site_fract_z
 _atom_site_occupancy
  Li  Li0  1  0.33751758  0.66877706  0.89308878  1
  Li  Li1  1  0.98719364  0.99360435  0.99633316  1
  Li  Li2  1  0.99063282  0.99540721  0.49828251  1
  Li  Li3  1  0.67194044  0.33594232  0.39517253  1
  Ti  Ti4  1  0.17634337  0.83525172  0.21679089  1
  Ti  Ti5  1  0.17642975  0.34110511  0.21679489  1
  Ti  Ti6  1  0.34918627  0.17473926  0.72083408  1
  Cr  Cr7  1  0.66576277  0.83295565  0.21109933  1
  Cr  Cr8  1  0.83794844  0.66584457  0.71141421  1
  Cr  Cr9  1  0.83781003  0.17207934  0.71148696  1
  Ni  Ni10  1  0.33143289  0.66571422  0.48976790  1
  Ni  Ni11  1  0.66534468  0.33263821  0.98928019  1
  O  O12  1  0.15180394  0.83429048  0.60610343  1
  O  O13  1  0.03701078  0.51849969  0.33112052  1
  O  O14  1  0.32532261  0.66265969  0.10191340  1
  O  O15  1  0.00086018  0.00043483  0.31400251  1
  O  O16  1  0.00426908  0.00213787  0.81259155  1
  O  O17  1  0.15178569  0.31751764  0.60611811  1
  O  O18  1  0.48675142  0.96470621  0.33064369  1
  O  O19  1  0.48676396  0.52201283  0.33062527  1
  O  O20  1  0.31690658  0.15844402  0.10452234  1
  O  O21  1  0.67831636  0.83916333  0.61258237  1
  O  O22  1  0.52225515  0.48625965  0.83118629  1
  O  O23  1  0.52226812  0.03598781  0.83115579  1
  O  O24  1  0.66191095  0.33097077  0.60202193  1
  O  O25  1  0.83208510  0.67962284  0.10828401  1
  O  O26  1  0.96208121  0.48105473  0.82633718  1
  O  O27  1  0.83206921  0.15247961  0.10828419  1
