# generated using pymatgen
data_Mn12O7F17
_symmetry_space_group_name_H-M   'P 1'
_cell_length_a   4.72988563
_cell_length_b   5.79678769
_cell_length_c   16.02109153
_cell_angle_alpha   89.36405609
_cell_angle_beta   89.63059237
_cell_angle_gamma   87.62228515
_symmetry_Int_Tables_number   1
_chemical_formula_structural   Mn12O7F17
_chemical_formula_sum   'Mn12 O7 F17'
_cell_volume   438.85546957
_cell_formula_units_Z   1
loop_
 _symmetry_equiv_pos_site_id
 _symmetry_equiv_pos_as_xyz
  1  'x, y, z'
loop_
 _atom_site_type_symbol
 _atom_site_label
 _atom_site_symmetry_multiplicity
 _atom_site_fract_x
 _atom_site_fract_y
 _atom_site_fract_z
 _atom_site_occupancy
  Mn  Mn0  1  0.99926802  0.15239521  0.41573042  1
  Mn  Mn1  1  0.02688250  0.83739977  0.23966859  1
  Mn  Mn2  1  0.00391294  0.86009838  0.91616921  1
  Mn  Mn3  1  0.01617196  0.15493445  0.07689825  1
  Mn  Mn4  1  0.03195079  0.85397644  0.57740912  1
  Mn  Mn5  1  0.00792196  0.16544010  0.73895611  1
  Mn  Mn6  1  0.49352727  0.33030781  0.59280864  1
  Mn  Mn7  1  0.49813258  0.32631827  0.92921792  1
  Mn  Mn8  1  0.53393894  0.33777120  0.26012251  1
  Mn  Mn9  1  0.49115021  0.64988776  0.08338417  1
  Mn  Mn10  1  0.50848001  0.65661192  0.41990506  1
  Mn  Mn11  1  0.52527335  0.64199739  0.75068591  1
  O  O12  1  0.22254780  0.11880649  0.63698240  1
  O  O13  1  0.20985813  0.11954096  0.97052067  1
  O  O14  1  0.23416371  0.88769831  0.12840303  1
  O  O15  1  0.22326734  0.88773000  0.46510654  1
  O  O16  1  0.71071985  0.38292456  0.03252359  1
  O  O17  1  0.73568911  0.38909504  0.37171036  1
  O  O18  1  0.71768448  0.36762891  0.69312473  1
  F  F19  1  0.21694937  0.12132239  0.30650185  1
  F  F20  1  0.23703368  0.89500859  0.80032570  1
  F  F21  1  0.26430418  0.39888011  0.14931236  1
  F  F22  1  0.27667349  0.61624414  0.31294378  1
  F  F23  1  0.26489873  0.38725177  0.48430456  1
  F  F24  1  0.27439548  0.38506408  0.81723174  1
  F  F25  1  0.25604041  0.61155635  0.64756208  1
  F  F26  1  0.25431406  0.61695931  0.97647972  1
  F  F27  1  0.72233761  0.61995507  0.19347980  1
  F  F28  1  0.71603143  0.61352748  0.53401560  1
  F  F29  1  0.73365151  0.61222250  0.86754077  1
  F  F30  1  0.75805205  0.89142480  0.35037232  1
  F  F31  1  0.78810042  0.12263763  0.18453712  1
  F  F32  1  0.75920551  0.11434941  0.51899258  1
  F  F33  1  0.73989131  0.88170587  0.02235039  1
  F  F34  1  0.77004188  0.11775993  0.84826888  1
  F  F35  1  0.77753691  0.87356761  0.68645154  1
