# generated using pymatgen
data_Li2TiMnO4
_symmetry_space_group_name_H-M   'P 1'
_cell_length_a   5.46712242
_cell_length_b   5.46712269
_cell_length_c   5.46712273
_cell_angle_alpha   135.74097315
_cell_angle_beta   135.74097204
_cell_angle_gamma   64.38104796
_symmetry_Int_Tables_number   1
_chemical_formula_structural   Li2TiMnO4
_chemical_formula_sum   'Li2 Ti1 Mn1 O4'
_cell_volume   78.49569167
_cell_formula_units_Z   1
loop_
 _symmetry_equiv_pos_site_id
 _symmetry_equiv_pos_as_xyz
  1  'x, y, z'
loop_
 _atom_site_type_symbol
 _atom_site_label
 _atom_site_symmetry_multiplicity
 _atom_site_fract_x
 _atom_site_fract_y
 _atom_site_fract_z
 _atom_site_occupancy
  Li  Li0  1  0.25000000  0.75000000  0.50000000  1
  Li  Li1  1  0.50000000  0.50000000  0.00000000  1
  Ti  Ti2  1  0.75000000  0.25000000  0.50000000  1
  Mn  Mn3  1  0.00000000  0.00000000  0.00000000  1
  O  O4  1  0.53926818  0.03926818  0.50000000  1
  O  O5  1  0.24860848  0.24860848  0.00000000  1
  O  O6  1  0.96073182  0.46073182  0.50000000  1
  O  O7  1  0.75139152  0.75139152  0.00000000  1
