# generated using pymatgen
data_Te4MoW3S4
_symmetry_space_group_name_H-M   'P 1'
_cell_length_a   3.36248934
_cell_length_b   3.36253863
_cell_length_c   40.30637550
_cell_angle_alpha   90.00163285
_cell_angle_beta   90.00000000
_cell_angle_gamma   119.99951513
_symmetry_Int_Tables_number   1
_chemical_formula_structural   Te4MoW3S4
_chemical_formula_sum   'Te4 Mo1 W3 S4'
_cell_volume   394.67052923
_cell_formula_units_Z   1
loop_
 _symmetry_equiv_pos_site_id
 _symmetry_equiv_pos_as_xyz
  1  'x, y, z'
loop_
 _atom_site_type_symbol
 _atom_site_label
 _atom_site_symmetry_multiplicity
 _atom_site_fract_x
 _atom_site_fract_y
 _atom_site_fract_z
 _atom_site_occupancy
  Te  Te0  1  0.33334870  0.66669839  0.32714169  1
  Te  Te1  1  0.66664626  0.33329153  0.42422814  1
  Te  Te2  1  0.66670256  0.33340411  0.51852058  1
  Te  Te3  1  0.33332619  0.66665338  0.23287718  1
  Mo  Mo4  1  0.33314348  0.66628696  0.09379938  1
  W  W5  1  0.33327770  0.66655539  0.47135364  1
  W  W6  1  0.66674270  0.33348540  0.27995817  1
  W  W7  1  0.66669719  0.33339438  0.65772828  1
  S  S8  1  0.33335190  0.66670480  0.69541233  1
  S  S9  1  0.66672680  0.33345259  0.05633194  1
  S  S10  1  0.66671779  0.33343457  0.13132626  1
  S  S11  1  0.33331875  0.66663849  0.62007040  1
