# generated using pymatgen
data_Li3Co4WO8
_symmetry_space_group_name_H-M   'P 1'
_cell_length_a   10.59532230
_cell_length_b   10.59532277
_cell_length_c   14.86099683
_cell_angle_alpha   19.45788814
_cell_angle_beta   19.45789188
_cell_angle_gamma   33.78095783
_symmetry_Int_Tables_number   1
_chemical_formula_structural   Li3Co4WO8
_chemical_formula_sum   'Li3 Co4 W1 O8'
_cell_volume   157.95949654
_cell_formula_units_Z   1
loop_
 _symmetry_equiv_pos_site_id
 _symmetry_equiv_pos_as_xyz
  1  'x, y, z'
loop_
 _atom_site_type_symbol
 _atom_site_label
 _atom_site_symmetry_multiplicity
 _atom_site_fract_x
 _atom_site_fract_y
 _atom_site_fract_z
 _atom_site_occupancy
  Li  Li0  1  0.00000000  0.50000000  0.50000000  1
  Li  Li1  1  0.50000000  0.00000000  0.50000000  1
  Li  Li2  1  0.50000000  0.50000000  0.50000000  1
  Co  Co3  1  0.00000000  0.00000000  0.00000000  1
  Co  Co4  1  0.00000000  0.50000000  0.00000000  1
  Co  Co5  1  0.50000000  0.00000000  0.00000000  1
  Co  Co6  1  0.00000000  0.00000000  0.50000000  1
  W  W7  1  0.50000000  0.50000000  0.00000000  1
  O  O8  1  0.96643101  0.96643101  0.29828672  1
  O  O9  1  0.03096713  0.50644040  0.22804314  1
  O  O10  1  0.50644040  0.03096713  0.22804314  1
  O  O11  1  0.03356899  0.03356899  0.70171328  1
  O  O12  1  0.52204825  0.52204825  0.22833391  1
  O  O13  1  0.96903287  0.49355960  0.77195686  1
  O  O14  1  0.49355960  0.96903287  0.77195686  1
  O  O15  1  0.47795175  0.47795175  0.77166609  1
