# generated using pymatgen
data_LiMn2(BO3)2
_symmetry_space_group_name_H-M   'P 1'
_cell_length_a   5.81729061
_cell_length_b   9.23166369
_cell_length_c   12.43610810
_cell_angle_alpha   75.78687146
_cell_angle_beta   92.06577438
_cell_angle_gamma   104.29974332
_symmetry_Int_Tables_number   1
_chemical_formula_structural   LiMn2(BO3)2
_chemical_formula_sum   'Li5 Mn10 B10 O30'
_cell_volume   627.14178487
_cell_formula_units_Z   5
loop_
 _symmetry_equiv_pos_site_id
 _symmetry_equiv_pos_as_xyz
  1  'x, y, z'
loop_
 _atom_site_type_symbol
 _atom_site_label
 _atom_site_symmetry_multiplicity
 _atom_site_fract_x
 _atom_site_fract_y
 _atom_site_fract_z
 _atom_site_occupancy
  Li  Li0  1  0.96003899  0.33607280  0.71143190  1
  Li  Li1  1  0.23239383  0.26180846  0.09283625  1
  Li  Li2  1  0.44286426  0.85645901  0.89700502  1
  Li  Li3  1  0.18155922  0.93686374  0.50885965  1
  Li  Li4  1  0.02614427  0.66101425  0.29583404  1
  Mn  Mn5  1  0.83207032  0.44555677  0.90786057  1
  Mn  Mn6  1  0.74919558  0.34221599  0.50198331  1
  Mn  Mn7  1  0.96171394  0.98341844  0.29652037  1
  Mn  Mn8  1  0.44724537  0.24548826  0.30507744  1
  Mn  Mn9  1  0.64430612  0.84449698  0.11096326  1
  Mn  Mn10  1  0.36617135  0.18016935  0.88585566  1
  Mn  Mn11  1  0.56196409  0.74545421  0.68744670  1
  Mn  Mn12  1  0.01934170  0.00658979  0.71986705  1
  Mn  Mn13  1  0.24700069  0.60334021  0.50318573  1
  Mn  Mn14  1  0.16553705  0.58136831  0.09020076  1
  B  B15  1  0.97067960  0.32549179  0.28531338  1
  B  B16  1  0.83348361  0.09960709  0.90385442  1
  B  B17  1  0.55658421  0.09313046  0.70034377  1
  B  B18  1  0.77864864  0.69796728  0.48546193  1
  B  B19  1  0.63234312  0.50192890  0.10483182  1
  B  B20  1  0.35856290  0.51870688  0.89161853  1
  B  B21  1  0.22814778  0.26500413  0.52226599  1
  B  B22  1  0.42947870  0.89804655  0.31398742  1
  B  B23  1  0.16487660  0.92240657  0.08750263  1
  B  B24  1  0.04140827  0.67464934  0.70249476  1
  O  O25  1  0.98867760  0.52245771  0.74933316  1
  O  O26  1  0.79544110  0.26583058  0.36886703  1
  O  O27  1  0.99801197  0.85799695  0.17689229  1
  O  O28  1  0.65942863  0.98602555  0.67588993  1
  O  O29  1  0.87349864  0.58987178  0.45429064  1
  O  O30  1  0.70766066  0.20566769  0.91638270  1
  O  O31  1  0.90262458  0.77100035  0.72078958  1
  O  O32  1  0.84083489  0.56402030  0.03854927  1
  O  O33  1  0.63989233  0.25015803  0.65631619  1
  O  O34  1  0.87099398  0.85389272  0.44574853  1
  O  O35  1  0.54807474  0.34786010  0.14467125  1
  O  O36  1  0.75860913  0.94691665  0.94728388  1
  O  O37  1  0.37619893  0.04004350  0.78397480  1
  O  O38  1  0.59370149  0.64733150  0.56495096  1
  O  O39  1  0.46885587  0.41605394  0.86383364  1
  O  O40  1  0.50655458  0.60715567  0.11971882  1
  O  O41  1  0.42493152  0.33956209  0.44945148  1
  O  O42  1  0.63383810  0.95929881  0.24493170  1
  O  O43  1  0.22548792  0.07873113  0.04287095  1
  O  O44  1  0.42563498  0.67447847  0.84335419  1
  O  O45  1  0.16921681  0.11109954  0.56259994  1
  O  O46  1  0.34129787  0.74416912  0.35034646  1
  O  O47  1  0.18458377  0.45804116  0.97734842  1
  O  O48  1  0.07341375  0.22242334  0.24929703  1
  O  O49  1  0.27392908  0.82353729  0.05089530  1
  O  O50  1  0.09222324  0.36154524  0.54829833  1
  O  O51  1  0.30854032  0.00280232  0.33913229  1
  O  O52  1  0.03469971  0.16414674  0.82952579  1
  O  O53  1  0.23808691  0.74615818  0.62713192  1
  O  O54  1  0.04547169  0.48181596  0.24402922  1
