# generated using pymatgen
data_Mn2OF3
_symmetry_space_group_name_H-M   'P 1'
_cell_length_a   4.76908839
_cell_length_b   11.04172597
_cell_length_c   5.70959957
_cell_angle_alpha   82.82142690
_cell_angle_beta   90.00000000
_cell_angle_gamma   90.00000000
_symmetry_Int_Tables_number   1
_chemical_formula_structural   Mn2OF3
_chemical_formula_sum   'Mn8 O4 F12'
_cell_volume   298.30488078
_cell_formula_units_Z   4
loop_
 _symmetry_equiv_pos_site_id
 _symmetry_equiv_pos_as_xyz
  1  'x, y, z'
loop_
 _atom_site_type_symbol
 _atom_site_label
 _atom_site_symmetry_multiplicity
 _atom_site_fract_x
 _atom_site_fract_y
 _atom_site_fract_z
 _atom_site_occupancy
  Mn  Mn0  1  0.50000000  0.00000000  0.50000000  1
  Mn  Mn1  1  0.50000000  0.50000000  0.00000000  1
  Mn  Mn2  1  0.53233767  0.73326760  0.26023031  1
  Mn  Mn3  1  0.46766233  0.26673240  0.73976969  1
  Mn  Mn4  1  0.03233767  0.76673240  0.73976969  1
  Mn  Mn5  1  0.00000000  0.50000000  0.50000000  1
  Mn  Mn6  1  0.96766233  0.23326760  0.26023031  1
  Mn  Mn7  1  0.00000000  0.00000000  0.00000000  1
  O  O8  1  0.79665886  0.06186014  0.26400262  1
  O  O9  1  0.70334114  0.56186014  0.26400262  1
  O  O10  1  0.29665886  0.43813986  0.73599738  1
  O  O11  1  0.20334114  0.93813986  0.73599738  1
  F  F12  1  0.80063925  0.58673978  0.76330885  1
  F  F13  1  0.81555048  0.32605016  0.53551916  1
  F  F14  1  0.80710697  0.83142680  0.02587808  1
  F  F15  1  0.68444952  0.82605016  0.53551916  1
  F  F16  1  0.69936075  0.08673978  0.76330885  1
  F  F17  1  0.69289303  0.33142680  0.02587808  1
  F  F18  1  0.31555048  0.17394984  0.46448084  1
  F  F19  1  0.30063925  0.91326022  0.23669115  1
  F  F20  1  0.30710697  0.66857320  0.97412192  1
  F  F21  1  0.19289303  0.16857320  0.97412192  1
  F  F22  1  0.18444952  0.67394984  0.46448084  1
  F  F23  1  0.19936075  0.41326022  0.23669115  1
