# generated using pymatgen
data_Mn3(OF2)2
_symmetry_space_group_name_H-M   'P 1'
_cell_length_a   4.75342513
_cell_length_b   7.94128762
_cell_length_c   5.82591463
_cell_angle_alpha   92.82115000
_cell_angle_beta   92.48715346
_cell_angle_gamma   88.41677372
_symmetry_Int_Tables_number   1
_chemical_formula_structural   Mn3(OF2)2
_chemical_formula_sum   'Mn6 O4 F8'
_cell_volume   219.37338864
_cell_formula_units_Z   2
loop_
 _symmetry_equiv_pos_site_id
 _symmetry_equiv_pos_as_xyz
  1  'x, y, z'
loop_
 _atom_site_type_symbol
 _atom_site_label
 _atom_site_symmetry_multiplicity
 _atom_site_fract_x
 _atom_site_fract_y
 _atom_site_fract_z
 _atom_site_occupancy
  Mn  Mn0  1  0.52702092  0.00359478  0.48925325  1
  Mn  Mn1  1  0.50286692  0.66117046  0.16967790  1
  Mn  Mn2  1  0.46602300  0.34810779  0.81435882  1
  Mn  Mn3  1  0.00191622  0.67360906  0.66235368  1
  Mn  Mn4  1  0.00315963  0.31055226  0.34897585  1
  Mn  Mn5  1  0.98600186  0.00569786  0.01068668  1
  O  O6  1  0.81479252  0.09983877  0.30323869  1
  O  O7  1  0.70072869  0.76871871  0.46003480  1
  O  O8  1  0.29831302  0.57152468  0.86896366  1
  O  O9  1  0.30968691  0.22369621  0.52792684  1
  F  F10  1  0.80596407  0.44165949  0.63907762  1
  F  F11  1  0.79869379  0.76776319  0.95589960  1
  F  F12  1  0.68846091  0.12180174  0.80876736  1
  F  F13  1  0.70697729  0.42453078  0.13843587  1
  F  F14  1  0.30056342  0.89039134  0.19552671  1
  F  F15  1  0.18764505  0.54675577  0.36987884  1
  F  F16  1  0.20372644  0.23427639  0.03279694  1
  F  F17  1  0.19746034  0.90631274  0.70414689  1
