# generated using pymatgen
data_Li2Fe2CuO6
_symmetry_space_group_name_H-M   'P 1'
_cell_length_a   6.59957917
_cell_length_b   6.68698129
_cell_length_c   8.47756907
_cell_angle_alpha   71.49498043
_cell_angle_beta   109.10631617
_cell_angle_gamma   96.36397492
_symmetry_Int_Tables_number   1
_chemical_formula_structural   Li2Fe2CuO6
_chemical_formula_sum   'Li6 Fe6 Cu3 O18'
_cell_volume   335.22793439
_cell_formula_units_Z   3
loop_
 _symmetry_equiv_pos_site_id
 _symmetry_equiv_pos_as_xyz
  1  'x, y, z'
loop_
 _atom_site_type_symbol
 _atom_site_label
 _atom_site_symmetry_multiplicity
 _atom_site_fract_x
 _atom_site_fract_y
 _atom_site_fract_z
 _atom_site_occupancy
  Li  Li0  1  0.00896235  0.66595788  0.83552120  1
  Li  Li1  1  0.01400045  0.33634111  0.16840762  1
  Li  Li2  1  0.33350665  0.00285979  0.83090138  1
  Li  Li3  1  0.33083366  0.32746354  0.50314595  1
  Li  Li4  1  0.65745589  0.66878583  0.49842410  1
  Li  Li5  1  0.65161125  0.99362934  0.16342582  1
  Fe  Fe6  1  0.99695590  0.33133512  0.66529806  1
  Fe  Fe7  1  0.00044018  0.67161258  0.33404490  1
  Fe  Fe8  1  0.66555394  0.66274611  0.99955621  1
  Fe  Fe9  1  0.66878080  0.00423772  0.66867285  1
  Fe  Fe10  1  0.99964552  0.99633441  0.00128335  1
  Fe  Fe11  1  0.67007670  0.33428773  0.33198648  1
  Cu  Cu12  1  0.33271166  0.66860377  0.66728738  1
  Cu  Cu13  1  0.33148246  0.99920924  0.33417451  1
  Cu  Cu14  1  0.33600738  0.33241367  0.99881531  1
  O  O15  1  0.03337110  0.32587242  0.92259423  1
  O  O16  1  0.01623500  0.64965476  0.58784176  1
  O  O17  1  0.02412155  0.99223579  0.24454317  1
  O  O18  1  0.34093409  0.65008954  0.89771797  1
  O  O19  1  0.35622735  0.99679897  0.58646243  1
  O  O20  1  0.67487353  0.98050297  0.91882798  1
  O  O21  1  0.31134993  0.34026309  0.75025974  1
  O  O22  1  0.32558889  0.68901348  0.43605463  1
  O  O23  1  0.64919276  0.68596357  0.74596826  1
  O  O24  1  0.34267292  0.30250753  0.25057544  1
  O  O25  1  0.67551924  0.32344951  0.57151737  1
  O  O26  1  0.68173289  0.65828625  0.24939455  1
  O  O27  1  0.32412674  0.02349810  0.07889720  1
  O  O28  1  0.63479485  0.00637376  0.41088238  1
  O  O29  1  0.64219737  0.34126982  0.08738549  1
  O  O30  1  0.98903891  0.01114370  0.75977281  1
  O  O31  1  0.99518924  0.35418117  0.41571247  1
  O  O32  1  0.98480884  0.67307874  0.08464698  1
