# generated using pymatgen
data_Li3Fe8(BO3)8
_symmetry_space_group_name_H-M   'P 1'
_cell_length_a   5.22017882
_cell_length_b   9.15205509
_cell_length_c   10.13627788
_cell_angle_alpha   90.90217180
_cell_angle_beta   90.42240701
_cell_angle_gamma   89.33641645
_symmetry_Int_Tables_number   1
_chemical_formula_structural   Li3Fe8(BO3)8
_chemical_formula_sum   'Li3 Fe8 B8 O24'
_cell_volume   484.15934120
_cell_formula_units_Z   1
loop_
 _symmetry_equiv_pos_site_id
 _symmetry_equiv_pos_as_xyz
  1  'x, y, z'
loop_
 _atom_site_type_symbol
 _atom_site_label
 _atom_site_symmetry_multiplicity
 _atom_site_fract_x
 _atom_site_fract_y
 _atom_site_fract_z
 _atom_site_occupancy
  Li  Li0  1  0.84799826  0.82910691  0.64770168  1
  Li  Li1  1  0.66510930  0.68179484  0.91172802  1
  Li  Li2  1  0.31794248  0.32959821  0.15093720  1
  Fe  Fe3  1  0.82898224  0.17144234  0.63109168  1
  Fe  Fe4  1  0.81354436  0.51305821  0.13635951  1
  Fe  Fe5  1  0.67934741  0.01200514  0.87958099  1
  Fe  Fe6  1  0.67453328  0.33980749  0.37972683  1
  Fe  Fe7  1  0.35071398  0.65076102  0.62400931  1
  Fe  Fe8  1  0.32897123  0.98811093  0.12546344  1
  Fe  Fe9  1  0.16928221  0.83396186  0.37833005  1
  Fe  Fe10  1  0.16873173  0.49501403  0.87447169  1
  B  B11  1  0.85245157  0.50075868  0.62966995  1
  B  B12  1  0.82951250  0.16701576  0.13315559  1
  B  B13  1  0.66193470  0.00194728  0.38141167  1
  B  B14  1  0.66660485  0.34260198  0.87571655  1
  B  B15  1  0.33003169  0.99771136  0.62666008  1
  B  B16  1  0.32715422  0.66827105  0.12322385  1
  B  B17  1  0.16680086  0.50450428  0.37152522  1
  B  B18  1  0.16850957  0.82368453  0.87982187  1
  O  O19  1  0.90766117  0.49617030  0.34318403  1
  O  O20  1  0.91008659  0.83377005  0.85634781  1
  O  O21  1  0.78769612  0.21935735  0.82347760  1
  O  O22  1  0.74038844  0.13815159  0.43037867  1
  O  O23  1  0.82093569  0.88427591  0.38837969  1
  O  O24  1  0.80931945  0.46525292  0.91419780  1
  O  O25  1  0.72423455  0.63067703  0.63307924  1
  O  O26  1  0.67642925  0.05515062  0.08532386  1
  O  O27  1  0.73912148  0.37333568  0.57740063  1
  O  O28  1  0.70608622  0.29503905  0.17774810  1
  O  O29  1  0.58276014  0.67683063  0.10272304  1
  O  O30  1  0.59261320  0.00063850  0.66160434  1
  O  O31  1  0.41318997  0.98903411  0.32892283  1
  O  O32  1  0.40859011  0.34459300  0.89550968  1
  O  O33  1  0.30352260  0.69384791  0.84678198  1
  O  O34  1  0.26423076  0.63511662  0.41896647  1
  O  O35  1  0.32482297  0.38606792  0.34881051  1
  O  O36  1  0.31118355  0.93759201  0.93336823  1
  O  O37  1  0.19202284  0.54137750  0.08839370  1
  O  O38  1  0.17767477  0.11849563  0.63595003  1
  O  O39  1  0.22642871  0.86442867  0.58210880  1
  O  O40  1  0.19298462  0.79181467  0.17458786  1
  O  O41  1  0.09316713  0.15412923  0.13406008  1
  O  O42  1  0.10095824  0.48921122  0.67951183  1
