# generated using pymatgen
data_Te4MoW3S4
_symmetry_space_group_name_H-M   'P 1'
_cell_length_a   3.35992134
_cell_length_b   3.36021138
_cell_length_c   40.55786790
_cell_angle_alpha   90.00245248
_cell_angle_beta   90.00000000
_cell_angle_gamma   119.99714472
_symmetry_Int_Tables_number   1
_chemical_formula_structural   Te4MoW3S4
_chemical_formula_sum   'Te4 Mo1 W3 S4'
_cell_volume   396.56460658
_cell_formula_units_Z   1
loop_
 _symmetry_equiv_pos_site_id
 _symmetry_equiv_pos_as_xyz
  1  'x, y, z'
loop_
 _atom_site_type_symbol
 _atom_site_label
 _atom_site_symmetry_multiplicity
 _atom_site_fract_x
 _atom_site_fract_y
 _atom_site_fract_z
 _atom_site_occupancy
  Te  Te0  1  0.33332736  0.66665572  0.70756136  1
  Te  Te1  1  0.66667307  0.33334515  0.41998061  1
  Te  Te2  1  0.66669565  0.33339029  0.51362786  1
  Te  Te3  1  0.33329473  0.66659047  0.61392322  1
  Mo  Mo4  1  0.33338543  0.66677087  0.09390263  1
  W  W5  1  0.33338797  0.66677594  0.46683243  1
  W  W6  1  0.66666566  0.33333132  0.28142802  1
  W  W7  1  0.66661489  0.33322978  0.66074903  1
  S  S8  1  0.33337113  0.66674326  0.31885823  1
  S  S9  1  0.66660543  0.33320985  0.05665664  1
  S  S10  1  0.66667846  0.33335591  0.13118444  1
  S  S11  1  0.33330021  0.66660143  0.24404352  1
