# generated using pymatgen
data_LiFe4(BO3)4
_symmetry_space_group_name_H-M   'P 1'
_cell_length_a   5.25391282
_cell_length_b   5.25114433
_cell_length_c   20.11854378
_cell_angle_alpha   90.30036770
_cell_angle_beta   90.89540373
_cell_angle_gamma   61.11830122
_symmetry_Int_Tables_number   1
_chemical_formula_structural   LiFe4(BO3)4
_chemical_formula_sum   'Li2 Fe8 B8 O24'
_cell_volume   485.95261219
_cell_formula_units_Z   2
loop_
 _symmetry_equiv_pos_site_id
 _symmetry_equiv_pos_as_xyz
  1  'x, y, z'
loop_
 _atom_site_type_symbol
 _atom_site_label
 _atom_site_symmetry_multiplicity
 _atom_site_fract_x
 _atom_site_fract_y
 _atom_site_fract_z
 _atom_site_occupancy
  Li  Li0  1  0.35559549  0.66747609  0.92232681  1
  Li  Li1  1  0.65606904  0.34352581  0.55021883  1
  Fe  Fe2  1  0.97836369  0.68013555  0.81185395  1
  Fe  Fe3  1  0.99801502  0.67525331  0.31062137  1
  Fe  Fe4  1  0.68465300  0.00868731  0.93859257  1
  Fe  Fe5  1  0.67333286  0.99249403  0.43573111  1
  Fe  Fe6  1  0.31844626  0.99435699  0.56068396  1
  Fe  Fe7  1  0.32588012  0.00329309  0.06044861  1
  Fe  Fe8  1  0.00829852  0.33148028  0.68399350  1
  Fe  Fe9  1  0.00353586  0.32433428  0.18522438  1
  B  B10  1  0.00262898  0.34012561  0.93639650  1
  B  B11  1  0.00241981  0.33440642  0.43676870  1
  B  B12  1  0.32630998  0.01400594  0.81277941  1
  B  B13  1  0.34044127  0.00573490  0.31149628  1
  B  B14  1  0.66265704  0.00026608  0.68507564  1
  B  B15  1  0.65965110  0.99607828  0.18605931  1
  B  B16  1  0.99957761  0.66250991  0.55962576  1
  B  B17  1  0.99612074  0.66386919  0.06194888  1
  O  O18  1  0.11487910  0.27547076  0.78479638  1
  O  O19  1  0.12706437  0.27049651  0.28469706  1
  O  O20  1  0.25474044  0.09165718  0.95950052  1
  O  O21  1  0.03112417  0.57824444  0.91313410  1
  O  O22  1  0.27340578  0.11659374  0.45658943  1
  O  O23  1  0.97693395  0.59411202  0.41173723  1
  O  O24  1  0.59191450  0.98723164  0.83267205  1
  O  O25  1  0.26177283  0.65003875  0.55901081  1
  O  O26  1  0.60037614  0.99282561  0.33441239  1
  O  O27  1  0.23450410  0.69957926  0.05852664  1
  O  O28  1  0.27103274  0.78925238  0.82381761  1
  O  O29  1  0.29400551  0.77449263  0.31503255  1
  O  O30  1  0.71458862  0.22735820  0.67679471  1
  O  O31  1  0.70673922  0.22662508  0.18365360  1
  O  O32  1  0.74021789  0.35276397  0.93553269  1
  O  O33  1  0.39854359  0.02229909  0.66531078  1
  O  O34  1  0.76245737  0.30150279  0.44544140  1
  O  O35  1  0.40085897  0.00920221  0.16307951  1
  O  O36  1  0.96999038  0.42446746  0.58260085  1
  O  O37  1  0.01837286  0.40177933  0.08505950  1
  O  O38  1  0.74481944  0.90925903  0.53706951  1
  O  O39  1  0.72679433  0.88084152  0.04029404  1
  O  O40  1  0.87783165  0.73538431  0.71185593  1
  O  O41  1  0.87369865  0.72938802  0.21257114  1
