# generated using pymatgen
data_LiCrPH2O5
_symmetry_space_group_name_H-M   'P 1'
_cell_length_a   10.54580303
_cell_length_b   8.29671525
_cell_length_c   5.04581480
_cell_angle_alpha   90.00000000
_cell_angle_beta   90.00000000
_cell_angle_gamma   90.00000000
_symmetry_Int_Tables_number   1
_chemical_formula_structural   LiCrPH2O5
_chemical_formula_sum   'Li4 Cr4 P4 H8 O20'
_cell_volume   441.48621408
_cell_formula_units_Z   4
loop_
 _symmetry_equiv_pos_site_id
 _symmetry_equiv_pos_as_xyz
  1  'x, y, z'
loop_
 _atom_site_type_symbol
 _atom_site_label
 _atom_site_symmetry_multiplicity
 _atom_site_fract_x
 _atom_site_fract_y
 _atom_site_fract_z
 _atom_site_occupancy
  Li  Li0  1  0.19302089  0.30790084  0.71409361  1
  Li  Li1  1  0.30697911  0.80790084  0.21409361  1
  Li  Li2  1  0.69302089  0.19209916  0.71409361  1
  Li  Li3  1  0.80697911  0.69209916  0.21409361  1
  Cr  Cr4  1  0.10234179  0.10596845  0.26483091  1
  Cr  Cr5  1  0.39765821  0.60596845  0.76483091  1
  Cr  Cr6  1  0.60234179  0.39403155  0.26483091  1
  Cr  Cr7  1  0.89765821  0.89403155  0.76483091  1
  P  P8  1  0.18850856  0.91479291  0.69329175  1
  P  P9  1  0.31149144  0.41479291  0.19329175  1
  P  P10  1  0.68850856  0.58520709  0.69329175  1
  P  P11  1  0.81149144  0.08520709  0.19329175  1
  H  H12  1  0.99593422  0.53222057  0.33316613  1
  H  H13  1  0.04978050  0.67394864  0.16665664  1
  H  H14  1  0.45021950  0.17394864  0.66665664  1
  H  H15  1  0.50406578  0.03222057  0.83316613  1
  H  H16  1  0.49593422  0.96777943  0.33316613  1
  H  H17  1  0.54978050  0.82605136  0.16665664  1
  H  H18  1  0.95021950  0.32605136  0.66665664  1
  H  H19  1  0.00406578  0.46777943  0.83316613  1
  O  O20  1  0.01797069  0.40791687  0.66576491  1
  O  O21  1  0.06172782  0.87360999  0.53990882  1
  O  O22  1  0.21871905  0.08911277  0.59024666  1
  O  O23  1  0.17033457  0.90821551  0.99487196  1
  O  O24  1  0.20339728  0.30056634  0.10343661  1
  O  O25  1  0.29660272  0.80056634  0.60343661  1
  O  O26  1  0.32966543  0.40821551  0.49487196  1
  O  O27  1  0.28128095  0.58911277  0.09024666  1
  O  O28  1  0.43827218  0.37360999  0.03990882  1
  O  O29  1  0.48202931  0.90791687  0.16576491  1
  O  O30  1  0.51797069  0.09208313  0.66576491  1
  O  O31  1  0.56172782  0.62639001  0.53990882  1
  O  O32  1  0.71871905  0.41088723  0.59024666  1
  O  O33  1  0.67033457  0.59178449  0.99487196  1
  O  O34  1  0.70339728  0.19943366  0.10343661  1
  O  O35  1  0.79660272  0.69943366  0.60343661  1
  O  O36  1  0.82966543  0.09178449  0.49487196  1
  O  O37  1  0.78128095  0.91088723  0.09024666  1
  O  O38  1  0.93827218  0.12639001  0.03990882  1
  O  O39  1  0.98202931  0.59208313  0.16576491  1
