# generated using pymatgen
data_Li3Mn3(PO4)4
_symmetry_space_group_name_H-M   'P 1'
_cell_length_a   14.46318627
_cell_length_b   4.99588651
_cell_length_c   8.62532999
_cell_angle_alpha   90.00000000
_cell_angle_beta   96.13651051
_cell_angle_gamma   90.00000000
_symmetry_Int_Tables_number   1
_chemical_formula_structural   Li3Mn3(PO4)4
_chemical_formula_sum   'Li6 Mn6 P8 O32'
_cell_volume   619.66449186
_cell_formula_units_Z   2
loop_
 _symmetry_equiv_pos_site_id
 _symmetry_equiv_pos_as_xyz
  1  'x, y, z'
loop_
 _atom_site_type_symbol
 _atom_site_label
 _atom_site_symmetry_multiplicity
 _atom_site_fract_x
 _atom_site_fract_y
 _atom_site_fract_z
 _atom_site_occupancy
  Li  Li0  1  0.00000000  0.50000000  0.50000000  1
  Li  Li1  1  0.25564827  0.44072308  0.44901964  1
  Li  Li2  1  0.24435173  0.94072308  0.05098036  1
  Li  Li3  1  0.75564827  0.05927692  0.94901964  1
  Li  Li4  1  0.50000000  0.00000000  0.00000000  1
  Li  Li5  1  0.74435173  0.55927692  0.55098036  1
  Mn  Mn6  1  0.12384697  0.48980061  0.81375657  1
  Mn  Mn7  1  0.00000000  0.00000000  0.00000000  1
  Mn  Mn8  1  0.37615303  0.98980061  0.68624343  1
  Mn  Mn9  1  0.50000000  0.50000000  0.50000000  1
  Mn  Mn10  1  0.62384697  0.01019939  0.31375657  1
  Mn  Mn11  1  0.87615303  0.51019939  0.18624343  1
  P  P12  1  0.15103256  0.00336791  0.62061222  1
  P  P13  1  0.34896744  0.50336791  0.87938778  1
  P  P14  1  0.09640807  0.50276516  0.17237399  1
  P  P15  1  0.40359193  0.00276516  0.32762601  1
  P  P16  1  0.59640807  0.99723484  0.67237399  1
  P  P17  1  0.90359193  0.49723484  0.82762601  1
  P  P18  1  0.65103256  0.49663209  0.12061222  1
  P  P19  1  0.84896744  0.99663209  0.37938778  1
  O  O20  1  0.14060762  0.09132619  0.79492112  1
  O  O21  1  0.24465797  0.56823239  0.91102084  1
  O  O22  1  0.09052632  0.16041833  0.50142195  1
  O  O23  1  0.13774300  0.69395839  0.61679999  1
  O  O24  1  0.00863557  0.55089590  0.25779171  1
  O  O25  1  0.36225700  0.19395839  0.88320001  1
  O  O26  1  0.40947368  0.66041833  0.99857805  1
  O  O27  1  0.25534203  0.06823239  0.58897916  1
  O  O28  1  0.09919840  0.21068260  0.10471262  1
  O  O29  1  0.35939238  0.59132619  0.70507888  1
  O  O30  1  0.08150119  0.68705260  0.01684619  1
  O  O31  1  0.18538777  0.57827446  0.26608968  1
  O  O32  1  0.50863557  0.94910410  0.75779171  1
  O  O33  1  0.31461223  0.07827446  0.23391032  1
  O  O34  1  0.41849881  0.18705260  0.48315381  1
  O  O35  1  0.40080160  0.71068260  0.39528738  1
  O  O36  1  0.59919840  0.28931740  0.60471262  1
  O  O37  1  0.58150119  0.81294740  0.51684619  1
  O  O38  1  0.68538777  0.92172554  0.76608968  1
  O  O39  1  0.49136443  0.05089590  0.24220829  1
  O  O40  1  0.81461223  0.42172554  0.73391032  1
  O  O41  1  0.91849881  0.31294740  0.98315381  1
  O  O42  1  0.64060762  0.40867381  0.29492112  1
  O  O43  1  0.90080160  0.78931740  0.89528738  1
  O  O44  1  0.74465797  0.93176761  0.41102084  1
  O  O45  1  0.59052632  0.33958167  0.00142195  1
  O  O46  1  0.63774300  0.80604161  0.11679999  1
  O  O47  1  0.99136443  0.44910410  0.74220829  1
  O  O48  1  0.86225700  0.30604161  0.38320001  1
  O  O49  1  0.90947368  0.83958167  0.49857805  1
  O  O50  1  0.75534203  0.43176761  0.08897916  1
  O  O51  1  0.85939238  0.90867381  0.20507888  1
