# generated using pymatgen
data_LiMn(Si2O5)2
_symmetry_space_group_name_H-M   'P 1'
_cell_length_a   7.29633663
_cell_length_b   7.29633663
_cell_length_c   14.99206395
_cell_angle_alpha   90.00000000
_cell_angle_beta   90.00000000
_cell_angle_gamma   90.00000000
_symmetry_Int_Tables_number   1
_chemical_formula_structural   LiMn(Si2O5)2
_chemical_formula_sum   'Li4 Mn4 Si16 O40'
_cell_volume   798.12543552
_cell_formula_units_Z   4
loop_
 _symmetry_equiv_pos_site_id
 _symmetry_equiv_pos_as_xyz
  1  'x, y, z'
loop_
 _atom_site_type_symbol
 _atom_site_label
 _atom_site_symmetry_multiplicity
 _atom_site_fract_x
 _atom_site_fract_y
 _atom_site_fract_z
 _atom_site_occupancy
  Li  Li0  1  0.25000000  0.75000000  0.00000000  1
  Li  Li1  1  0.25000000  0.75000000  0.50000000  1
  Li  Li2  1  0.75000000  0.25000000  0.50000000  1
  Li  Li3  1  0.75000000  0.25000000  0.00000000  1
  Mn  Mn4  1  0.25000000  0.25000000  0.57548225  1
  Mn  Mn5  1  0.25000000  0.25000000  0.07548225  1
  Mn  Mn6  1  0.75000000  0.75000000  0.42451775  1
  Mn  Mn7  1  0.75000000  0.75000000  0.92451775  1
  Si  Si8  1  0.99717279  0.07860345  0.35530620  1
  Si  Si9  1  0.99717279  0.42139655  0.85530620  1
  Si  Si10  1  0.07860345  0.99717279  0.85530620  1
  Si  Si11  1  0.07860345  0.50282721  0.35530620  1
  Si  Si12  1  0.42139655  0.50282721  0.85530620  1
  Si  Si13  1  0.42139655  0.99717279  0.35530620  1
  Si  Si14  1  0.50282721  0.07860345  0.85530620  1
  Si  Si15  1  0.50282721  0.42139655  0.35530620  1
  Si  Si16  1  0.49717279  0.92139655  0.14469380  1
  Si  Si17  1  0.49717279  0.57860345  0.64469380  1
  Si  Si18  1  0.57860345  0.49717279  0.14469380  1
  Si  Si19  1  0.57860345  0.00282721  0.64469380  1
  Si  Si20  1  0.92139655  0.00282721  0.14469380  1
  Si  Si21  1  0.92139655  0.49717279  0.64469380  1
  Si  Si22  1  0.00282721  0.92139655  0.64469380  1
  Si  Si23  1  0.00282721  0.57860345  0.14469380  1
  O  O24  1  0.99764024  0.29856469  0.37724104  1
  O  O25  1  0.99764024  0.20143531  0.87724104  1
  O  O26  1  0.00398190  0.15978621  0.08004044  1
  O  O27  1  0.00398190  0.34021379  0.58004044  1
  O  O28  1  0.04652081  0.54652081  0.25000000  1
  O  O29  1  0.04652081  0.95347919  0.75000000  1
  O  O30  1  0.15978621  0.00398190  0.58004044  1
  O  O31  1  0.15978621  0.49601810  0.08004044  1
  O  O32  1  0.20143531  0.99764024  0.37724104  1
  O  O33  1  0.20143531  0.50235976  0.87724104  1
  O  O34  1  0.29856469  0.50235976  0.37724104  1
  O  O35  1  0.29856469  0.99764024  0.87724104  1
  O  O36  1  0.34021379  0.00398190  0.08004044  1
  O  O37  1  0.34021379  0.49601810  0.58004044  1
  O  O38  1  0.45347919  0.54652081  0.75000000  1
  O  O39  1  0.45347919  0.95347919  0.25000000  1
  O  O40  1  0.49601810  0.34021379  0.08004044  1
  O  O41  1  0.49601810  0.15978621  0.58004044  1
  O  O42  1  0.50235976  0.20143531  0.37724104  1
  O  O43  1  0.50235976  0.29856469  0.87724104  1
  O  O44  1  0.49764024  0.79856469  0.62275896  1
  O  O45  1  0.49764024  0.70143531  0.12275896  1
  O  O46  1  0.50398190  0.84021379  0.41995956  1
  O  O47  1  0.50398190  0.65978621  0.91995956  1
  O  O48  1  0.54652081  0.45347919  0.25000000  1
  O  O49  1  0.54652081  0.04652081  0.75000000  1
  O  O50  1  0.65978621  0.50398190  0.41995956  1
  O  O51  1  0.65978621  0.99601810  0.91995956  1
  O  O52  1  0.70143531  0.00235976  0.12275896  1
  O  O53  1  0.70143531  0.49764024  0.62275896  1
  O  O54  1  0.79856469  0.49764024  0.12275896  1
  O  O55  1  0.79856469  0.00235976  0.62275896  1
  O  O56  1  0.84021379  0.99601810  0.41995956  1
  O  O57  1  0.84021379  0.50398190  0.91995956  1
  O  O58  1  0.95347919  0.04652081  0.25000000  1
  O  O59  1  0.95347919  0.45347919  0.75000000  1
  O  O60  1  0.99601810  0.65978621  0.41995956  1
  O  O61  1  0.99601810  0.84021379  0.91995956  1
  O  O62  1  0.00235976  0.79856469  0.12275896  1
  O  O63  1  0.00235976  0.70143531  0.62275896  1
