# generated using pymatgen
data_La20Cu9O40
_symmetry_space_group_name_H-M   'P 1'
_cell_length_a   10.36551682
_cell_length_b   11.68715539
_cell_length_c   8.94350314
_cell_angle_alpha   70.31917704
_cell_angle_beta   103.70894059
_cell_angle_gamma   79.98967001
_symmetry_Int_Tables_number   1
_chemical_formula_structural   La20Cu9O40
_chemical_formula_sum   'La20 Cu9 O40'
_cell_volume   952.23314970
_cell_formula_units_Z   1
loop_
 _symmetry_equiv_pos_site_id
 _symmetry_equiv_pos_as_xyz
  1  'x, y, z'
loop_
 _atom_site_type_symbol
 _atom_site_label
 _atom_site_symmetry_multiplicity
 _atom_site_fract_x
 _atom_site_fract_y
 _atom_site_fract_z
 _atom_site_occupancy
  La  La0  1  0.01393109  0.11270046  0.62330229  1
  La  La1  1  0.41367876  0.31102857  0.82059034  1
  La  La2  1  0.78565567  0.28883830  0.77779158  1
  La  La3  1  0.38225227  0.08115505  0.57359136  1
  La  La4  1  0.18632124  0.48897143  0.97940966  1
  La  La5  1  0.09728835  0.17089621  0.19661481  1
  La  La6  1  0.48980034  0.38007399  0.39000623  1
  La  La7  1  0.29023994  0.78352394  0.77993987  1
  La  La8  1  0.68979802  0.97966513  0.99149301  1
  La  La9  1  0.88875240  0.58127699  0.58824246  1
  La  La10  1  0.11019966  0.41992601  0.40999377  1
  La  La11  1  0.50271165  0.62910379  0.60338519  1
  La  La12  1  0.91020198  0.82033487  0.80850699  1
  La  La13  1  0.30976006  0.01647606  0.02006013  1
  La  La14  1  0.71124760  0.21872301  0.21175754  1
  La  La15  1  0.21774773  0.71884495  0.22640864  1
  La  La16  1  0.60389625  0.91147561  0.41998748  1
  La  La17  1  0.81434433  0.51116170  0.02220842  1
  La  La18  1  0.99610375  0.88852439  0.38001252  1
  La  La19  1  0.58606891  0.68729954  0.17669771  1
  Cu  Cu20  1  0.70011153  0.09895616  0.60054887  1
  Cu  Cu21  1  0.10062886  0.29976141  0.80050675  1
  Cu  Cu22  1  0.99946340  0.99992681  0.99908577  1
  Cu  Cu23  1  0.19977558  0.59981983  0.60073677  1
  Cu  Cu24  1  0.40022442  0.20018017  0.19926323  1
  Cu  Cu25  1  0.60053660  0.80007319  0.80091423  1
  Cu  Cu26  1  0.80000000  0.40000000  0.40000000  1
  Cu  Cu27  1  0.49937114  0.50023859  0.99949325  1
  Cu  Cu28  1  0.89988847  0.70104384  0.19945113  1
  O  O29  1  0.84480115  0.05404172  0.80716835  1
  O  O30  1  0.04371309  0.15355878  0.90589783  1
  O  O31  1  0.25475015  0.17489937  0.71178707  1
  O  O32  1  0.65522501  0.37331649  0.91463893  1
  O  O33  1  0.14310537  0.02717970  0.48998044  1
  O  O34  1  0.54752647  0.22578667  0.68824040  1
  O  O35  1  0.94477499  0.42668351  0.88536107  1
  O  O36  1  0.35562798  0.54559286  0.79490260  1
  O  O37  1  0.75599003  0.24564194  0.49553918  1
  O  O38  1  0.55628691  0.64644122  0.89410217  1
  O  O39  1  0.15651525  0.44697560  0.69458174  1
  O  O40  1  0.35644023  0.05021112  0.29262903  1
  O  O41  1  0.75519885  0.74595828  0.99283165  1
  O  O42  1  0.95588738  0.34535649  0.59559021  1
  O  O43  1  0.55490713  0.14505125  0.39526668  1
  O  O44  1  0.85885559  0.09564990  0.13414398  1
  O  O45  1  0.65971624  0.49553494  0.53415099  1
  O  O46  1  0.46004646  0.89584484  0.93667122  1
  O  O47  1  0.25955152  0.29661990  0.33385080  1
  O  O48  1  0.05883726  0.69415751  0.73534500  1
  O  O49  1  0.13995354  0.90415516  0.86332878  1
  O  O50  1  0.34044848  0.50338010  0.46614920  1
  O  O51  1  0.54116274  0.10584249  0.06465500  1
  O  O52  1  0.74114441  0.70435010  0.66585602  1
  O  O53  1  0.94028376  0.30446506  0.26584901  1
  O  O54  1  0.24437202  0.25440714  0.00509740  1
  O  O55  1  0.04509287  0.65494875  0.40473332  1
  O  O56  1  0.64411262  0.45464351  0.20440979  1
  O  O57  1  0.24355977  0.74978888  0.50737097  1
  O  O58  1  0.84400997  0.55435806  0.30446082  1
  O  O59  1  0.44937473  0.85158396  0.61090975  1
  O  O60  1  0.64293529  0.95368512  0.70474842  1
  O  O61  1  0.44348475  0.35302440  0.10541826  1
  O  O62  1  0.05247353  0.57421333  0.11175960  1
  O  O63  1  0.85681810  0.97460793  0.51409198  1
  O  O64  1  0.45689463  0.77282030  0.31001956  1
  O  O65  1  0.34524985  0.62510063  0.08821293  1
  O  O66  1  0.74318190  0.82539207  0.28590802  1
  O  O67  1  0.15062527  0.94841604  0.18909025  1
  O  O68  1  0.95706471  0.84631488  0.09525158  1
