# generated using pymatgen
data_LiVF5
_symmetry_space_group_name_H-M   'P 1'
_cell_length_a   5.22577989
_cell_length_b   10.05734309
_cell_length_c   6.64566284
_cell_angle_alpha   90.00000000
_cell_angle_beta   106.51548781
_cell_angle_gamma   90.00000000
_symmetry_Int_Tables_number   1
_chemical_formula_structural   LiVF5
_chemical_formula_sum   'Li4 V4 F20'
_cell_volume   334.86893137
_cell_formula_units_Z   4
loop_
 _symmetry_equiv_pos_site_id
 _symmetry_equiv_pos_as_xyz
  1  'x, y, z'
loop_
 _atom_site_type_symbol
 _atom_site_label
 _atom_site_symmetry_multiplicity
 _atom_site_fract_x
 _atom_site_fract_y
 _atom_site_fract_z
 _atom_site_occupancy
  Li  Li0  1  0.05502002  0.25653416  0.88426750  1
  Li  Li1  1  0.05502002  0.24346584  0.38426750  1
  Li  Li2  1  0.94497998  0.75653416  0.61573250  1
  Li  Li3  1  0.94497998  0.74346584  0.11573250  1
  V  V4  1  0.44566500  0.03115907  0.74386062  1
  V  V5  1  0.55433500  0.53115907  0.75613938  1
  V  V6  1  0.44566500  0.46884093  0.24386062  1
  V  V7  1  0.55433500  0.96884093  0.25613938  1
  F  F8  1  0.15665872  0.91572519  0.69510800  1
  F  F9  1  0.21704537  0.17573090  0.67509959  1
  F  F10  1  0.24796550  0.63492445  0.68905356  1
  F  F11  1  0.39710355  0.40828734  0.90318678  1
  F  F12  1  0.15665872  0.58427481  0.19510800  1
  F  F13  1  0.21704537  0.32426910  0.17509959  1
  F  F14  1  0.24796550  0.86507555  0.18905356  1
  F  F15  1  0.37156410  0.41104742  0.52116884  1
  F  F16  1  0.62843590  0.91104742  0.97883116  1
  F  F17  1  0.39710355  0.09171266  0.40318678  1
  F  F18  1  0.60289645  0.90828734  0.59681322  1
  F  F19  1  0.37156410  0.08895258  0.02116884  1
  F  F20  1  0.62843590  0.58895258  0.47883116  1
  F  F21  1  0.75203450  0.13492445  0.81094644  1
  F  F22  1  0.78295463  0.67573090  0.82490041  1
  F  F23  1  0.84334128  0.41572519  0.80489200  1
  F  F24  1  0.60289645  0.59171266  0.09681322  1
  F  F25  1  0.75203450  0.36507555  0.31094644  1
  F  F26  1  0.78295463  0.82426910  0.32490041  1
  F  F27  1  0.84334128  0.08427481  0.30489200  1
