# generated using pymatgen
data_LiMn(PO3)4
_symmetry_space_group_name_H-M   'P 1'
_cell_length_a   6.98609483
_cell_length_b   7.20831966
_cell_length_c   9.00631294
_cell_angle_alpha   90.00000000
_cell_angle_beta   90.00000000
_cell_angle_gamma   94.82709284
_symmetry_Int_Tables_number   1
_chemical_formula_structural   LiMn(PO3)4
_chemical_formula_sum   'Li2 Mn2 P8 O24'
_cell_volume   451.93132504
_cell_formula_units_Z   2
loop_
 _symmetry_equiv_pos_site_id
 _symmetry_equiv_pos_as_xyz
  1  'x, y, z'
loop_
 _atom_site_type_symbol
 _atom_site_label
 _atom_site_symmetry_multiplicity
 _atom_site_fract_x
 _atom_site_fract_y
 _atom_site_fract_z
 _atom_site_occupancy
  Li  Li0  1  0.33313964  0.69342339  0.35246195  1
  Li  Li1  1  0.66686036  0.30657661  0.85246195  1
  Mn  Mn2  1  0.23197041  0.23319401  0.92690928  1
  Mn  Mn3  1  0.76802959  0.76680599  0.42690928  1
  P  P4  1  0.97956579  0.41591224  0.36964079  1
  P  P5  1  0.07492633  0.09126346  0.56955250  1
  P  P6  1  0.39637729  0.58840510  0.73333275  1
  P  P7  1  0.43550842  0.06431505  0.38660935  1
  P  P8  1  0.56449158  0.93568495  0.88660935  1
  P  P9  1  0.60362271  0.41159490  0.23333275  1
  P  P10  1  0.92507367  0.90873654  0.06955250  1
  P  P11  1  0.02043421  0.58408776  0.86964079  1
  O  O12  1  0.02045362  0.78239371  0.94795127  1
  O  O13  1  0.97856580  0.89759211  0.54320389  1
  O  O14  1  0.11652191  0.45789559  0.97794995  1
  O  O15  1  0.07021741  0.17227751  0.72159609  1
  O  O16  1  0.17293032  0.63087089  0.73716756  1
  O  O17  1  0.17170019  0.47899080  0.31012019  1
  O  O18  1  0.30076572  0.09169498  0.52985523  1
  O  O19  1  0.32556357  0.96283235  0.26712693  1
  O  O20  1  0.41156292  0.38885567  0.79031769  1
  O  O21  1  0.49401685  0.72009098  0.86015228  1
  O  O22  1  0.38582795  0.02274938  0.94036217  1
  O  O23  1  0.47132589  0.63583910  0.58240013  1
  O  O24  1  0.52867411  0.36416090  0.08240013  1
  O  O25  1  0.61417205  0.97725062  0.44036217  1
  O  O26  1  0.50598315  0.27990902  0.36015228  1
  O  O27  1  0.58843708  0.61114433  0.29031769  1
  O  O28  1  0.67443643  0.03716765  0.76712693  1
  O  O29  1  0.69923428  0.90830502  0.02985523  1
  O  O30  1  0.82829981  0.52100920  0.81012019  1
  O  O31  1  0.82706968  0.36912911  0.23716756  1
  O  O32  1  0.92978259  0.82772249  0.22159609  1
  O  O33  1  0.88347809  0.54210441  0.47794995  1
  O  O34  1  0.02143420  0.10240789  0.04320389  1
  O  O35  1  0.97954638  0.21760629  0.44795127  1
