# generated using pymatgen
data_LiFe4(BO3)4
_symmetry_space_group_name_H-M   'P 1'
_cell_length_a   5.25785329
_cell_length_b   5.25818217
_cell_length_c   20.16227626
_cell_angle_alpha   90.04437775
_cell_angle_beta   90.19017221
_cell_angle_gamma   60.78297065
_symmetry_Int_Tables_number   1
_chemical_formula_structural   LiFe4(BO3)4
_chemical_formula_sum   'Li2 Fe8 B8 O24'
_cell_volume   486.50170770
_cell_formula_units_Z   2
loop_
 _symmetry_equiv_pos_site_id
 _symmetry_equiv_pos_as_xyz
  1  'x, y, z'
loop_
 _atom_site_type_symbol
 _atom_site_label
 _atom_site_symmetry_multiplicity
 _atom_site_fract_x
 _atom_site_fract_y
 _atom_site_fract_z
 _atom_site_occupancy
  Li  Li0  1  0.33260732  0.64089306  0.66829891  1
  Li  Li1  1  0.35682150  0.66910825  0.92108138  1
  Fe  Fe2  1  0.98449660  0.67580410  0.81110541  1
  Fe  Fe3  1  0.99604985  0.67490799  0.31044361  1
  Fe  Fe4  1  0.68552186  0.01007704  0.93806058  1
  Fe  Fe5  1  0.67184738  0.99728023  0.43445787  1
  Fe  Fe6  1  0.32324926  0.01738639  0.56071125  1
  Fe  Fe7  1  0.32572343  0.00293691  0.06048394  1
  Fe  Fe8  1  0.99305730  0.31489872  0.68725396  1
  Fe  Fe9  1  0.00182597  0.32521819  0.18551153  1
  B  B10  1  0.00401300  0.34120447  0.93616361  1
  B  B11  1  0.00122833  0.33793419  0.43548416  1
  B  B12  1  0.32926582  0.01065033  0.81327778  1
  B  B13  1  0.33561845  0.00494391  0.31121608  1
  B  B14  1  0.66447476  0.99511196  0.68575282  1
  B  B15  1  0.65802411  0.99735937  0.18633440  1
  B  B16  1  0.98969153  0.66952828  0.56170430  1
  B  B17  1  0.99591967  0.66482562  0.06216256  1
  O  O18  1  0.11464360  0.27371358  0.78812650  1
  O  O19  1  0.12540566  0.27069523  0.28441048  1
  O  O20  1  0.25615308  0.09062786  0.95914829  1
  O  O21  1  0.03322970  0.57949431  0.91338079  1
  O  O22  1  0.26800638  0.12338783  0.46191897  1
  O  O23  1  0.98910139  0.59433924  0.41165135  1
  O  O24  1  0.59723004  0.98000229  0.83185895  1
  O  O25  1  0.21375913  0.72625162  0.57183930  1
  O  O26  1  0.59382447  0.98940454  0.33557521  1
  O  O27  1  0.23547690  0.69971476  0.05935347  1
  O  O28  1  0.28081627  0.77878503  0.82129954  1
  O  O29  1  0.29101042  0.77320011  0.31382739  1
  O  O30  1  0.64857552  0.26012125  0.68401650  1
  O  O31  1  0.70561906  0.22765151  0.18420280  1
  O  O32  1  0.74097529  0.35347563  0.93512689  1
  O  O33  1  0.42744877  0.96320840  0.66248974  1
  O  O34  1  0.76796896  0.29504497  0.43377664  1
  O  O35  1  0.40073438  0.01028074  0.16295513  1
  O  O36  1  0.01710343  0.40581970  0.58265631  1
  O  O37  1  0.01743213  0.40259957  0.08545629  1
  O  O38  1  0.72766563  0.87807963  0.53333623  1
  O  O39  1  0.72732144  0.88190245  0.03987977  1
  O  O40  1  0.91657503  0.74541832  0.70887720  1
  O  O41  1  0.87082421  0.73038242  0.21317108  1
