# generated using pymatgen
data_LiMn(PO3)4
_symmetry_space_group_name_H-M   'P 1'
_cell_length_a   7.36916753
_cell_length_b   9.29055485
_cell_length_c   13.92698826
_cell_angle_alpha   90.00000000
_cell_angle_beta   95.50224257
_cell_angle_gamma   90.00000000
_symmetry_Int_Tables_number   1
_chemical_formula_structural   LiMn(PO3)4
_chemical_formula_sum   'Li4 Mn4 P16 O48'
_cell_volume   949.09925310
_cell_formula_units_Z   4
loop_
 _symmetry_equiv_pos_site_id
 _symmetry_equiv_pos_as_xyz
  1  'x, y, z'
loop_
 _atom_site_type_symbol
 _atom_site_label
 _atom_site_symmetry_multiplicity
 _atom_site_fract_x
 _atom_site_fract_y
 _atom_site_fract_z
 _atom_site_occupancy
  Li  Li0  1  0.02835185  0.57090656  0.91249313  1
  Li  Li1  1  0.47164815  0.07090656  0.58750687  1
  Li  Li2  1  0.52835185  0.92909344  0.41249313  1
  Li  Li3  1  0.97164815  0.42909344  0.08750687  1
  Mn  Mn4  1  0.02002413  0.65360227  0.35848739  1
  Mn  Mn5  1  0.52002413  0.84639773  0.85848739  1
  Mn  Mn6  1  0.47997587  0.15360227  0.14151261  1
  Mn  Mn7  1  0.97997587  0.34639773  0.64151261  1
  P  P8  1  0.06778138  0.27736739  0.42576311  1
  P  P9  1  0.13310710  0.04775787  0.78417286  1
  P  P10  1  0.18582971  0.23447336  0.95838651  1
  P  P11  1  0.22611139  0.05206225  0.30326227  1
  P  P12  1  0.31417029  0.73447336  0.54161349  1
  P  P13  1  0.36689290  0.54775787  0.71582714  1
  P  P14  1  0.27388861  0.55206225  0.19673773  1
  P  P15  1  0.56778138  0.22263261  0.92576311  1
  P  P16  1  0.43221862  0.77736739  0.07423689  1
  P  P17  1  0.72611139  0.44793775  0.80326227  1
  P  P18  1  0.63310710  0.45224213  0.28417286  1
  P  P19  1  0.68582971  0.26552664  0.45838651  1
  P  P20  1  0.77388861  0.94793775  0.69673773  1
  P  P21  1  0.81417029  0.76552664  0.04161349  1
  P  P22  1  0.86689290  0.95224213  0.21582714  1
  P  P23  1  0.93221862  0.72263261  0.57423689  1
  O  O24  1  0.06390169  0.36246662  0.96536151  1
  O  O25  1  0.08625803  0.11857804  0.88581923  1
  O  O26  1  0.04121843  0.05764783  0.23304667  1
  O  O27  1  0.11123321  0.29103177  0.53520093  1
  O  O28  1  0.13381179  0.15662602  0.70508130  1
  O  O29  1  0.13971285  0.78298766  0.59531830  1
  O  O30  1  0.10377829  0.40433002  0.36647855  1
  O  O31  1  0.20255107  0.45202218  0.70049209  1
  O  O32  1  0.17457925  0.13590884  0.39925057  1
  O  O33  1  0.13887572  0.64812674  0.24274478  1
  O  O34  1  0.29744893  0.95202218  0.79950791  1
  O  O35  1  0.28942980  0.90732865  0.33677621  1
  O  O36  1  0.24823070  0.65545382  0.44912027  1
  O  O37  1  0.36028715  0.28298766  0.90468170  1
  O  O38  1  0.36618821  0.65662602  0.79491870  1
  O  O39  1  0.38876679  0.79103177  0.96479907  1
  O  O40  1  0.25176930  0.15545382  0.05087973  1
  O  O41  1  0.21057020  0.40732865  0.16322379  1
  O  O42  1  0.41374197  0.61857804  0.61418077  1
  O  O43  1  0.36112428  0.14812674  0.25725522  1
  O  O44  1  0.43609831  0.86246662  0.53463849  1
  O  O45  1  0.32542075  0.63590884  0.10074943  1
  O  O46  1  0.54121843  0.44235217  0.73304667  1
  O  O47  1  0.39622171  0.90433002  0.13352145  1
  O  O48  1  0.60377829  0.09566998  0.86647855  1
  O  O49  1  0.45878157  0.55764783  0.26695333  1
  O  O50  1  0.67457925  0.36409116  0.89925057  1
  O  O51  1  0.56390169  0.13753338  0.46536151  1
  O  O52  1  0.63887572  0.85187326  0.74274478  1
  O  O53  1  0.58625803  0.38142196  0.38581923  1
  O  O54  1  0.78942980  0.59267135  0.83677621  1
  O  O55  1  0.74823070  0.84454618  0.94912027  1
  O  O56  1  0.61123321  0.20896823  0.03520093  1
  O  O57  1  0.63381179  0.34337398  0.20508130  1
  O  O58  1  0.63971285  0.71701234  0.09531830  1
  O  O59  1  0.75176930  0.34454618  0.55087973  1
  O  O60  1  0.71057020  0.09267135  0.66322379  1
  O  O61  1  0.70255107  0.04797782  0.20049209  1
  O  O62  1  0.86112428  0.35187326  0.75725522  1
  O  O63  1  0.82542075  0.86409116  0.60074943  1
  O  O64  1  0.79744893  0.54797782  0.29950791  1
  O  O65  1  0.89622171  0.59566998  0.63352145  1
  O  O66  1  0.86028715  0.21701234  0.40468170  1
  O  O67  1  0.86618821  0.84337398  0.29491870  1
  O  O68  1  0.88876679  0.70896823  0.46479907  1
  O  O69  1  0.95878157  0.94235217  0.76695333  1
  O  O70  1  0.91374197  0.88142196  0.11418077  1
  O  O71  1  0.93609831  0.63753338  0.03463849  1
