# generated using pymatgen
data_Mn12O5F19
_symmetry_space_group_name_H-M   'P 1'
_cell_length_a   4.88054674
_cell_length_b   5.86318056
_cell_length_c   15.95311850
_cell_angle_alpha   89.39107039
_cell_angle_beta   89.74371097
_cell_angle_gamma   87.34892596
_symmetry_Int_Tables_number   1
_chemical_formula_structural   Mn12O5F19
_chemical_formula_sum   'Mn12 O5 F19'
_cell_volume   455.98893036
_cell_formula_units_Z   1
loop_
 _symmetry_equiv_pos_site_id
 _symmetry_equiv_pos_as_xyz
  1  'x, y, z'
loop_
 _atom_site_type_symbol
 _atom_site_label
 _atom_site_symmetry_multiplicity
 _atom_site_fract_x
 _atom_site_fract_y
 _atom_site_fract_z
 _atom_site_occupancy
  Mn  Mn0  1  0.04489752  0.19858365  0.42505932  1
  Mn  Mn1  1  0.98645260  0.85340337  0.25031382  1
  Mn  Mn2  1  0.97274392  0.16109644  0.08468367  1
  Mn  Mn3  1  0.99249667  0.16427123  0.74646613  1
  Mn  Mn4  1  0.99080606  0.83705933  0.58358233  1
  Mn  Mn5  1  0.01728049  0.83971911  0.90501690  1
  Mn  Mn6  1  0.50708491  0.35152414  0.58800550  1
  Mn  Mn7  1  0.50717642  0.33149230  0.92483506  1
  Mn  Mn8  1  0.51175121  0.32107986  0.24491495  1
  Mn  Mn9  1  0.52105049  0.64943480  0.08098885  1
  Mn  Mn10  1  0.49354574  0.64550668  0.41707837  1
  Mn  Mn11  1  0.49024418  0.65200185  0.75232691  1
  O  O12  1  0.22142673  0.88270456  0.80016955  1
  O  O13  1  0.30952490  0.40096547  0.48234658  1
  O  O14  1  0.71866934  0.37364265  0.03195520  1
  O  O15  1  0.70461091  0.38941674  0.69539917  1
  O  O16  1  0.78483269  0.10920419  0.18791354  1
  F  F17  1  0.23745012  0.10353015  0.30772532  1
  F  F18  1  0.22351529  0.11976274  0.63674213  1
  F  F19  1  0.20477284  0.12317649  0.97811408  1
  F  F20  1  0.23580600  0.89174143  0.13098342  1
  F  F21  1  0.23723989  0.89231633  0.47342273  1
  F  F22  1  0.26280128  0.39685022  0.13961325  1
  F  F23  1  0.26250900  0.60503465  0.30267276  1
  F  F24  1  0.26495332  0.61253785  0.64416127  1
  F  F25  1  0.26155538  0.38274692  0.81428663  1
  F  F26  1  0.27261626  0.62286379  0.97109345  1
  F  F27  1  0.72863306  0.61832828  0.19566951  1
  F  F28  1  0.74202277  0.38501258  0.35708247  1
  F  F29  1  0.74207642  0.60838119  0.52731852  1
  F  F30  1  0.72404463  0.60995669  0.85998207  1
  F  F31  1  0.77039791  0.12069520  0.52904864  1
  F  F32  1  0.75931154  0.87527499  0.36487832  1
  F  F33  1  0.77787663  0.86974527  0.01349445  1
  F  F34  1  0.76998642  0.11131763  0.85874933  1
  F  F35  1  0.74783444  0.88962122  0.69390582  1
