# generated using pymatgen
data_LiMn(PO3)3
_symmetry_space_group_name_H-M   'P 1'
_cell_length_a   10.82897052
_cell_length_b   12.07886509
_cell_length_c   5.39284849
_cell_angle_alpha   90.00000000
_cell_angle_beta   90.00000000
_cell_angle_gamma   90.00000000
_symmetry_Int_Tables_number   1
_chemical_formula_structural   LiMn(PO3)3
_chemical_formula_sum   'Li4 Mn4 P12 O36'
_cell_volume   705.39360998
_cell_formula_units_Z   4
loop_
 _symmetry_equiv_pos_site_id
 _symmetry_equiv_pos_as_xyz
  1  'x, y, z'
loop_
 _atom_site_type_symbol
 _atom_site_label
 _atom_site_symmetry_multiplicity
 _atom_site_fract_x
 _atom_site_fract_y
 _atom_site_fract_z
 _atom_site_occupancy
  Li  Li0  1  0.11597749  0.08211746  0.10076639  1
  Li  Li1  1  0.38402251  0.91788254  0.60076639  1
  Li  Li2  1  0.61597749  0.41788254  0.89923361  1
  Li  Li3  1  0.88402251  0.58211746  0.39923361  1
  Mn  Mn4  1  0.02927199  0.86593637  0.59683505  1
  Mn  Mn5  1  0.47072801  0.13406363  0.09683505  1
  Mn  Mn6  1  0.52927199  0.63406363  0.40316495  1
  Mn  Mn7  1  0.97072801  0.36593637  0.90316495  1
  P  P8  1  0.07632013  0.62478356  0.88009835  1
  P  P9  1  0.15302356  0.35874098  0.39446384  1
  P  P10  1  0.19280115  0.81919316  0.08433319  1
  P  P11  1  0.30719885  0.18080684  0.58433319  1
  P  P12  1  0.34697644  0.64125902  0.89446384  1
  P  P13  1  0.42367987  0.37521644  0.38009835  1
  P  P14  1  0.57632013  0.87521644  0.11990165  1
  P  P15  1  0.65302356  0.14125902  0.60553616  1
  P  P16  1  0.69280115  0.68080684  0.91566681  1
  P  P17  1  0.80719885  0.31919316  0.41566681  1
  P  P18  1  0.84697644  0.85874098  0.10553616  1
  P  P19  1  0.92367987  0.12478356  0.61990165  1
  O  O20  1  0.00792308  0.04050408  0.50503224  1
  O  O21  1  0.04071839  0.67689328  0.63563092  1
  O  O22  1  0.06220812  0.42650123  0.53969516  1
  O  O23  1  0.08909011  0.72268279  0.08593246  1
  O  O24  1  0.12005266  0.31722277  0.14020489  1
  O  O25  1  0.18696743  0.88684148  0.84828000  1
  O  O26  1  0.18502796  0.87890015  0.32706263  1
  O  O27  1  0.18340611  0.25403423  0.57555138  1
  O  O28  1  0.21594423  0.57657979  0.87953789  1
  O  O29  1  0.28405577  0.42342021  0.37953789  1
  O  O30  1  0.31659389  0.74596577  0.07555138  1
  O  O31  1  0.31497204  0.12109985  0.82706263  1
  O  O32  1  0.31303257  0.11315852  0.34828000  1
  O  O33  1  0.37994734  0.68277723  0.64020489  1
  O  O34  1  0.41090989  0.27731721  0.58593246  1
  O  O35  1  0.43779188  0.57349877  0.03969516  1
  O  O36  1  0.45928161  0.32310672  0.13563092  1
  O  O37  1  0.49207692  0.95949592  0.00503224  1
  O  O38  1  0.50792308  0.45949592  0.49496776  1
  O  O39  1  0.54071839  0.82310672  0.36436908  1
  O  O40  1  0.56220812  0.07349877  0.46030484  1
  O  O41  1  0.58909011  0.77731721  0.91406754  1
  O  O42  1  0.62005266  0.18277723  0.85979511  1
  O  O43  1  0.68696743  0.61315852  0.15172000  1
  O  O44  1  0.68502796  0.62109985  0.67293737  1
  O  O45  1  0.68340611  0.24596577  0.42444862  1
  O  O46  1  0.71594423  0.92342021  0.12046211  1
  O  O47  1  0.78405577  0.07657979  0.62046211  1
  O  O48  1  0.81659389  0.75403423  0.92444862  1
  O  O49  1  0.81497204  0.37890015  0.17293737  1
  O  O50  1  0.81303257  0.38684148  0.65172000  1
  O  O51  1  0.87994734  0.81722277  0.35979511  1
  O  O52  1  0.91090989  0.22268279  0.41406754  1
  O  O53  1  0.93779188  0.92650123  0.96030484  1
  O  O54  1  0.95928161  0.17689328  0.86436908  1
  O  O55  1  0.99207692  0.54050408  0.99496776  1
