# generated using pymatgen
data_Mn6O5F7
_symmetry_space_group_name_H-M   'P 1'
_cell_length_a   4.73081131
_cell_length_b   7.87890327
_cell_length_c   5.72699243
_cell_angle_alpha   93.46570614
_cell_angle_beta   91.18413455
_cell_angle_gamma   88.82133037
_symmetry_Int_Tables_number   1
_chemical_formula_structural   Mn6O5F7
_chemical_formula_sum   'Mn6 O5 F7'
_cell_volume   212.98982501
_cell_formula_units_Z   1
loop_
 _symmetry_equiv_pos_site_id
 _symmetry_equiv_pos_as_xyz
  1  'x, y, z'
loop_
 _atom_site_type_symbol
 _atom_site_label
 _atom_site_symmetry_multiplicity
 _atom_site_fract_x
 _atom_site_fract_y
 _atom_site_fract_z
 _atom_site_occupancy
  Mn  Mn0  1  0.51304216  0.01122423  0.48969401  1
  Mn  Mn1  1  0.55075730  0.65926092  0.17299705  1
  Mn  Mn2  1  0.48811875  0.33400712  0.83140391  1
  Mn  Mn3  1  0.97194476  0.68265142  0.66737194  1
  Mn  Mn4  1  0.98685899  0.32157191  0.33653691  1
  Mn  Mn5  1  0.98792426  0.98943594  0.01389570  1
  O  O6  1  0.80967056  0.77454311  0.95838762  1
  O  O7  1  0.81103120  0.09624803  0.29338121  1
  O  O8  1  0.69295832  0.78048383  0.47248118  1
  O  O9  1  0.69091173  0.42656374  0.12113990  1
  O  O10  1  0.31180492  0.23461295  0.53637704  1
  F  F11  1  0.79346219  0.43723735  0.63711780  1
  F  F12  1  0.70762991  0.10881203  0.79989296  1
  F  F13  1  0.28582300  0.57152290  0.86042881  1
  F  F14  1  0.31322678  0.87992077  0.19488985  1
  F  F15  1  0.17437744  0.56361741  0.37549470  1
  F  F16  1  0.20071061  0.21202396  0.02851880  1
  F  F17  1  0.20974912  0.91626238  0.70999162  1
