# generated using pymatgen
data_Li9V12Fe7O48
_symmetry_space_group_name_H-M   'P 1'
_cell_length_a   5.12459103
_cell_length_b   10.21292860
_cell_length_c   17.44121860
_cell_angle_alpha   90.25433484
_cell_angle_beta   90.42840470
_cell_angle_gamma   89.81094546
_symmetry_Int_Tables_number   1
_chemical_formula_structural   Li9V12Fe7O48
_chemical_formula_sum   'Li9 V12 Fe7 O48'
_cell_volume   912.78311359
_cell_formula_units_Z   1
loop_
 _symmetry_equiv_pos_site_id
 _symmetry_equiv_pos_as_xyz
  1  'x, y, z'
loop_
 _atom_site_type_symbol
 _atom_site_label
 _atom_site_symmetry_multiplicity
 _atom_site_fract_x
 _atom_site_fract_y
 _atom_site_fract_z
 _atom_site_occupancy
  Li  Li0  1  0.24234313  0.41883608  0.96982905  1
  Li  Li1  1  0.26625260  0.74810328  0.30208249  1
  Li  Li2  1  0.24847513  0.25321788  0.79879269  1
  Li  Li3  1  0.25274723  0.58484055  0.47063878  1
  Li  Li4  1  0.40063861  0.74863005  0.75204340  1
  Li  Li5  1  0.59724278  0.24893142  0.24798412  1
  Li  Li6  1  0.74687373  0.08564434  0.52950317  1
  Li  Li7  1  0.75696917  0.74774797  0.20221838  1
  Li  Li8  1  0.74047256  0.24934907  0.69890349  1
  V  V9  1  0.21341152  0.74667916  0.94347513  1
  V  V10  1  0.21453091  0.02525549  0.65623527  1
  V  V11  1  0.21011683  0.47288343  0.65101848  1
  V  V12  1  0.27947788  0.52690883  0.15246572  1
  V  V13  1  0.28212509  0.97047693  0.15636532  1
  V  V14  1  0.27700486  0.25311790  0.44310010  1
  V  V15  1  0.72249610  0.75426127  0.55574568  1
  V  V16  1  0.71587774  0.02857939  0.84633192  1
  V  V17  1  0.72488545  0.47574989  0.84426626  1
  V  V18  1  0.78702460  0.52572493  0.34408074  1
  V  V19  1  0.79149693  0.97364848  0.34847392  1
  V  V20  1  0.78199632  0.24734742  0.05793831  1
  Fe  Fe21  1  0.09572767  0.24906821  0.25160249  1
  Fe  Fe22  1  0.24324232  0.07573941  0.97280474  1
  Fe  Fe23  1  0.26431545  0.93216342  0.47561039  1
  Fe  Fe24  1  0.73535189  0.43199041  0.52383378  1
  Fe  Fe25  1  0.75107066  0.56752865  0.02625086  1
  Fe  Fe26  1  0.74655925  0.92143611  0.02976759  1
  Fe  Fe27  1  0.90133764  0.74997536  0.74672540  1
  O  O28  1  0.05495338  0.23936253  0.99603950  1
  O  O29  1  0.05610599  0.61270345  0.36983561  1
  O  O30  1  0.08169850  0.88861303  0.37996394  1
  O  O31  1  0.10374382  0.63111651  0.20984326  1
  O  O32  1  0.10532038  0.87182140  0.21332695  1
  O  O33  1  0.10226660  0.11018342  0.46638009  1
  O  O34  1  0.06356863  0.37859145  0.46412244  1
  O  O35  1  0.07706800  0.00090520  0.07348699  1
  O  O36  1  0.07422828  0.49576053  0.07427921  1
  O  O37  1  0.14153999  0.74803899  0.84779505  1
  O  O38  1  0.14258810  0.61376715  0.70467271  1
  O  O39  1  0.14447141  0.88360060  0.70827632  1
  O  O40  1  0.33472509  0.11637804  0.20483829  1
  O  O41  1  0.33030257  0.38176962  0.20379868  1
  O  O42  1  0.33225504  0.25261561  0.34449952  1
  O  O43  1  0.41210812  0.98986321  0.57334162  1
  O  O44  1  0.41436637  0.50945968  0.57385797  1
  O  O45  1  0.41115088  0.88620541  0.96699540  1
  O  O46  1  0.42098144  0.62086113  0.96608599  1
  O  O47  1  0.41123171  0.12699652  0.71224908  1
  O  O48  1  0.38760208  0.36674377  0.70660194  1
  O  O49  1  0.42854742  0.11078406  0.87661398  1
  O  O50  1  0.44801418  0.39349049  0.86874873  1
  O  O51  1  0.44242899  0.76439251  0.49350181  1
  O  O52  1  0.55733436  0.26434634  0.50490544  1
  O  O53  1  0.57026620  0.60848561  0.12280711  1
  O  O54  1  0.57028628  0.88673888  0.12654447  1
  O  O55  1  0.59430750  0.62781782  0.28724989  1
  O  O56  1  0.61585894  0.86893975  0.29178286  1
  O  O57  1  0.57531008  0.10928137  0.03583231  1
  O  O58  1  0.59639635  0.38355424  0.03534335  1
  O  O59  1  0.58524479  0.00979947  0.42562524  1
  O  O60  1  0.58811355  0.49077947  0.42587303  1
  O  O61  1  0.66578991  0.75391587  0.65395838  1
  O  O62  1  0.66533326  0.61781648  0.79128179  1
  O  O63  1  0.66630644  0.88383973  0.79617343  1
  O  O64  1  0.85754659  0.11536433  0.29593914  1
  O  O65  1  0.85552596  0.38356366  0.29115738  1
  O  O66  1  0.85903499  0.24568361  0.15408972  1
  O  O67  1  0.90933931  0.51461358  0.92734391  1
  O  O68  1  0.91474383  0.99025485  0.92989292  1
  O  O69  1  0.89725856  0.61038887  0.53288309  1
  O  O70  1  0.93638507  0.87906504  0.53506709  1
  O  O71  1  0.90426834  0.12956339  0.79372171  1
  O  O72  1  0.91063213  0.36727474  0.78799335  1
  O  O73  1  0.94640086  0.11299559  0.63019152  1
  O  O74  1  0.91942017  0.38905999  0.61951064  1
  O  O75  1  0.92756646  0.74899867  0.00758452  1
