# generated using pymatgen
data_LiFe2P2HO8
_symmetry_space_group_name_H-M   'P 1'
_cell_length_a   8.48918606
_cell_length_b   5.01307749
_cell_length_c   15.09170618
_cell_angle_alpha   90.00000000
_cell_angle_beta   94.24653142
_cell_angle_gamma   90.00000000
_symmetry_Int_Tables_number   1
_chemical_formula_structural   LiFe2P2HO8
_chemical_formula_sum   'Li4 Fe8 P8 H4 O32'
_cell_volume   640.49374050
_cell_formula_units_Z   4
loop_
 _symmetry_equiv_pos_site_id
 _symmetry_equiv_pos_as_xyz
  1  'x, y, z'
loop_
 _atom_site_type_symbol
 _atom_site_label
 _atom_site_symmetry_multiplicity
 _atom_site_fract_x
 _atom_site_fract_y
 _atom_site_fract_z
 _atom_site_occupancy
  Li  Li0  1  0.00000000  0.98325154  0.75000000  1
  Li  Li1  1  0.00000000  0.01674846  0.25000000  1
  Li  Li2  1  0.50000000  0.15001216  0.75000000  1
  Li  Li3  1  0.50000000  0.84998784  0.25000000  1
  Fe  Fe4  1  0.08405355  0.76237811  0.50000013  1
  Fe  Fe5  1  0.08405355  0.23762189  0.00000013  1
  Fe  Fe6  1  0.42144868  0.24371188  0.00184575  1
  Fe  Fe7  1  0.42144868  0.75628812  0.50184575  1
  Fe  Fe8  1  0.57855132  0.24371188  0.49815425  1
  Fe  Fe9  1  0.57855132  0.75628812  0.99815425  1
  Fe  Fe10  1  0.91594645  0.76237811  0.99999987  1
  Fe  Fe11  1  0.91594645  0.23762189  0.49999987  1
  P  P12  1  0.23141271  0.73813505  0.88922819  1
  P  P13  1  0.23141271  0.26186495  0.38922819  1
  P  P14  1  0.26397921  0.26799105  0.61983960  1
  P  P15  1  0.26397921  0.73200895  0.11983960  1
  P  P16  1  0.73602079  0.26799105  0.88016040  1
  P  P17  1  0.73602079  0.73200895  0.38016040  1
  P  P18  1  0.76858729  0.73813505  0.61077181  1
  P  P19  1  0.76858729  0.26186495  0.11077181  1
  H  H20  1  0.23755306  0.55894441  0.75443901  1
  H  H21  1  0.23755306  0.44105559  0.25443901  1
  H  H22  1  0.76244694  0.55894441  0.74556099  1
  H  H23  1  0.76244694  0.44105559  0.24556099  1
  O  O24  1  0.08680326  0.59265577  0.92169019  1
  O  O25  1  0.08680326  0.40734423  0.42169019  1
  O  O26  1  0.10948052  0.10874663  0.59271988  1
  O  O27  1  0.23773150  0.03343768  0.92027739  1
  O  O28  1  0.20678210  0.74414498  0.78405093  1
  O  O29  1  0.10948052  0.89125337  0.09271988  1
  O  O30  1  0.23773150  0.96656232  0.42027739  1
  O  O31  1  0.28522022  0.30174654  0.72200344  1
  O  O32  1  0.20678210  0.25585502  0.28405093  1
  O  O33  1  0.25892178  0.55096806  0.57776744  1
  O  O34  1  0.38737133  0.58879623  0.91655372  1
  O  O35  1  0.28522022  0.69825346  0.22200344  1
  O  O36  1  0.25892178  0.44903194  0.07776744  1
  O  O37  1  0.41222838  0.10641624  0.59055326  1
  O  O38  1  0.38737133  0.41120477  0.41655372  1
  O  O39  1  0.58777162  0.10641624  0.90944674  1
  O  O40  1  0.41222838  0.89358376  0.09055326  1
  O  O41  1  0.61262867  0.58879623  0.58344628  1
  O  O42  1  0.58777162  0.89358376  0.40944674  1
  O  O43  1  0.74107822  0.55096806  0.92223256  1
  O  O44  1  0.71477978  0.30174654  0.77799656  1
  O  O45  1  0.61262867  0.41120477  0.08344628  1
  O  O46  1  0.74107822  0.44903194  0.42223256  1
  O  O47  1  0.79321790  0.74414498  0.71594907  1
  O  O48  1  0.71477978  0.69825346  0.27799656  1
  O  O49  1  0.76226850  0.03343768  0.57972261  1
  O  O50  1  0.89051948  0.10874663  0.90728012  1
  O  O51  1  0.79321790  0.25585502  0.21594907  1
  O  O52  1  0.76226850  0.96656232  0.07972261  1
  O  O53  1  0.89051948  0.89125337  0.40728012  1
  O  O54  1  0.91319674  0.59265577  0.57830981  1
  O  O55  1  0.91319674  0.40734423  0.07830981  1
