# generated using pymatgen
data_Mn12O5F19
_symmetry_space_group_name_H-M   'P 1'
_cell_length_a   4.88063452
_cell_length_b   5.85260590
_cell_length_c   15.95973159
_cell_angle_alpha   88.65377959
_cell_angle_beta   89.69125028
_cell_angle_gamma   88.93676892
_symmetry_Int_Tables_number   1
_chemical_formula_structural   Mn12O5F19
_chemical_formula_sum   'Mn12 O5 F19'
_cell_volume   455.67074842
_cell_formula_units_Z   1
loop_
 _symmetry_equiv_pos_site_id
 _symmetry_equiv_pos_as_xyz
  1  'x, y, z'
loop_
 _atom_site_type_symbol
 _atom_site_label
 _atom_site_symmetry_multiplicity
 _atom_site_fract_x
 _atom_site_fract_y
 _atom_site_fract_z
 _atom_site_occupancy
  Mn  Mn0  1  0.03064630  0.18847750  0.42227830  1
  Mn  Mn1  1  0.99171425  0.85024976  0.24963402  1
  Mn  Mn2  1  0.97205549  0.16347790  0.08567688  1
  Mn  Mn3  1  0.02559739  0.15101578  0.74455883  1
  Mn  Mn4  1  0.00348033  0.84766858  0.58560518  1
  Mn  Mn5  1  0.01259494  0.84847706  0.90914387  1
  Mn  Mn6  1  0.47466005  0.32501446  0.58553992  1
  Mn  Mn7  1  0.51789467  0.33558857  0.92374107  1
  Mn  Mn8  1  0.51701696  0.32065345  0.24545567  1
  Mn  Mn9  1  0.51384623  0.64749631  0.08110233  1
  Mn  Mn10  1  0.49777416  0.64468541  0.41971635  1
  Mn  Mn11  1  0.47990647  0.67389553  0.75420286  1
  O  O12  1  0.20734019  0.10625086  0.63782454  1
  O  O13  1  0.21648513  0.90229447  0.80359563  1
  O  O14  1  0.29893437  0.40215355  0.47606843  1
  O  O15  1  0.71946807  0.37416062  0.03320110  1
  O  O16  1  0.78638136  0.10688518  0.18918285  1
  F  F17  1  0.23503125  0.10348594  0.30788339  1
  F  F18  1  0.20366289  0.12720939  0.97820886  1
  F  F19  1  0.23098430  0.89219806  0.13058179  1
  F  F20  1  0.23566774  0.88604857  0.47227165  1
  F  F21  1  0.26169801  0.39477411  0.14138360  1
  F  F22  1  0.26749425  0.60963171  0.30428659  1
  F  F23  1  0.25822357  0.60490513  0.64445839  1
  F  F24  1  0.27572663  0.39018472  0.81291921  1
  F  F25  1  0.27414125  0.62199722  0.97051996  1
  F  F26  1  0.73095035  0.61618456  0.19531831  1
  F  F27  1  0.73610703  0.39323359  0.35838614  1
  F  F28  1  0.73938023  0.61493410  0.53366220  1
  F  F29  1  0.73345993  0.61575992  0.86088572  1
  F  F30  1  0.72251049  0.36990807  0.69460589  1
  F  F31  1  0.76637770  0.10971607  0.52467019  1
  F  F32  1  0.75858794  0.87794236  0.36548579  1
  F  F33  1  0.76942122  0.87706870  0.01506364  1
  F  F34  1  0.78238577  0.12662099  0.85205039  1
  F  F35  1  0.75239011  0.87974983  0.69083447  1
