# generated using pymatgen
data_Te4MoW3S4
_symmetry_space_group_name_H-M   'P 1'
_cell_length_a   3.36141170
_cell_length_b   3.36128983
_cell_length_c   38.37217081
_cell_angle_alpha   90.00019228
_cell_angle_beta   90.00000000
_cell_angle_gamma   120.00119938
_symmetry_Int_Tables_number   1
_chemical_formula_structural   Te4MoW3S4
_chemical_formula_sum   'Te4 Mo1 W3 S4'
_cell_volume   375.46496657
_cell_formula_units_Z   1
loop_
 _symmetry_equiv_pos_site_id
 _symmetry_equiv_pos_as_xyz
  1  'x, y, z'
loop_
 _atom_site_type_symbol
 _atom_site_label
 _atom_site_symmetry_multiplicity
 _atom_site_fract_x
 _atom_site_fract_y
 _atom_site_fract_z
 _atom_site_occupancy
  Te  Te0  1  0.33335452  0.66671003  0.33132515  1
  Te  Te1  1  0.33335458  0.66671016  0.70706514  1
  Te  Te2  1  0.33335270  0.66670640  0.23222363  1
  Te  Te3  1  0.33335141  0.66670382  0.60802284  1
  Mo  Mo4  1  0.33333019  0.66666038  0.09392385  1
  W  W5  1  0.33331136  0.66662272  0.46966425  1
  W  W6  1  0.66669303  0.33338607  0.28179606  1
  W  W7  1  0.66669187  0.33338374  0.65755241  1
  S  S8  1  0.66663311  0.33326522  0.05449177  1
  S  S9  1  0.66664449  0.33328797  0.43009705  1
  S  S10  1  0.66663377  0.33326654  0.13336390  1
  S  S11  1  0.66664898  0.33329696  0.50922196  1
