# generated using pymatgen
data_Co21O40
_symmetry_space_group_name_H-M   'P 1'
_cell_length_a   9.83071159
_cell_length_b   7.99929275
_cell_length_c   9.83125981
_cell_angle_alpha   114.01606752
_cell_angle_beta   80.44100108
_cell_angle_gamma   114.04062460
_symmetry_Int_Tables_number   1
_chemical_formula_structural   Co21O40
_chemical_formula_sum   'Co21 O40'
_cell_volume   644.93292436
_cell_formula_units_Z   1
loop_
 _symmetry_equiv_pos_site_id
 _symmetry_equiv_pos_as_xyz
  1  'x, y, z'
loop_
 _atom_site_type_symbol
 _atom_site_label
 _atom_site_symmetry_multiplicity
 _atom_site_fract_x
 _atom_site_fract_y
 _atom_site_fract_z
 _atom_site_occupancy
  Co  Co0  1  0.10336490  0.40089059  0.19895864  1
  Co  Co1  1  0.00345093  0.50234193  0.00090958  1
  Co  Co2  1  0.09653495  0.39796844  0.69906671  1
  Co  Co3  1  0.20086544  0.79849346  0.89653674  1
  Co  Co4  1  0.19507554  0.29539522  0.40069556  1
  Co  Co5  1  0.40194303  0.59956521  0.29755040  1
  Co  Co6  1  0.29957185  0.19584130  0.09576250  1
  Co  Co7  1  0.29592810  0.20014792  0.60037004  1
  Co  Co8  1  0.49912165  0.99937500  0.99489473  1
  Co  Co9  1  0.60220833  0.90220422  0.20189285  1
  Co  Co10  1  0.39895953  0.09798431  0.79666435  1
  Co  Co11  1  0.54994202  0.32496610  0.35000133  1
  Co  Co12  1  0.69804585  0.80008996  0.40247712  1
  Co  Co13  1  0.49781547  0.99812576  0.49809574  1
  Co  Co14  1  0.60087597  0.40541784  0.70511180  1
  Co  Co15  1  0.70105419  0.80242191  0.90333544  1
  Co  Co16  1  0.80041661  0.70049437  0.60423320  1
  Co  Co17  1  0.80402825  0.20383267  0.09966305  1
  Co  Co18  1  0.90496189  0.59966529  0.29929503  1
  Co  Co19  1  0.89910927  0.60110832  0.80349104  1
  Co  Co20  1  0.99660976  0.99851954  0.50102542  1
  O  O21  1  0.99718899  0.27341780  0.01862550  1
  O  O22  1  0.08643195  0.62609848  0.19492274  1
  O  O23  1  0.00988481  0.73115859  0.98331334  1
  O  O24  1  0.09012861  0.63780041  0.71670838  1
  O  O25  1  0.30801377  0.95254146  0.07551687  1
  O  O26  1  0.01360429  0.24476884  0.50508694  1
  O  O27  1  0.12049987  0.17824307  0.20488852  1
  O  O28  1  0.20993522  0.53084625  0.38169201  1
  O  O29  1  0.31911717  0.97713476  0.60015027  1
  O  O30  1  0.18329069  0.55214848  0.89005521  1
  O  O31  1  0.10285433  0.15773232  0.68135554  1
  O  O32  1  0.29979825  0.44211967  0.11909138  1
  O  O33  1  0.41747882  0.84527379  0.30406198  1
  O  O34  1  0.27566402  0.42290279  0.59190142  1
  O  O35  1  0.18818972  0.06939005  0.41638916  1
  O  O36  1  0.39503222  0.86888093  0.81354355  1
  O  O37  1  0.51835307  0.77901569  0.00992205  1
  O  O38  1  0.38793573  0.34888828  0.29513191  1
  O  O39  1  0.50397757  0.75872521  0.48250426  1
  O  O40  1  0.21866917  0.04521338  0.90279424  1
  O  O41  1  0.59602547  0.67223912  0.21749886  1
  O  O42  1  0.40480410  0.32654912  0.77936696  1
  O  O43  1  0.78086229  0.95781557  0.09984380  1
  O  O44  1  0.49512935  0.24625247  0.51206965  1
  O  O45  1  0.61630525  0.64685832  0.71179582  1
  O  O46  1  0.48370015  0.21871409  0.98818378  1
  O  O47  1  0.60487883  0.13907243  0.18793742  1
  O  O48  1  0.71207213  0.56584319  0.40487354  1
  O  O49  1  0.80021358  0.92328999  0.58093166  1
  O  O50  1  0.58158619  0.15074221  0.69007883  1
  O  O51  1  0.89008177  0.83921386  0.31833394  1
  O  O52  1  0.70489040  0.56032089  0.88645486  1
  O  O53  1  0.82442802  0.45539653  0.10806619  1
  O  O54  1  0.68255284  0.02378159  0.39595339  1
  O  O55  1  0.88137345  0.82374004  0.79719794  1
  O  O56  1  0.79196638  0.46899570  0.62446800  1
  O  O57  1  0.97951767  0.75286959  0.49509743  1
  O  O58  1  0.69521349  0.04234459  0.92056152  1
  O  O59  1  0.91182512  0.36488068  0.28362228  1
  O  O60  1  0.91664173  0.37892941  0.80997757  1
