# generated using pymatgen
data_Fe3OF5
_symmetry_space_group_name_H-M   'P 1'
_cell_length_a   7.62469538
_cell_length_b   5.83141286
_cell_length_c   5.77716219
_cell_angle_alpha   71.67102872
_cell_angle_beta   71.33867473
_cell_angle_gamma   72.48887275
_symmetry_Int_Tables_number   1
_chemical_formula_structural   Fe3OF5
_chemical_formula_sum   'Fe6 O2 F10'
_cell_volume   225.21693578
_cell_formula_units_Z   2
loop_
 _symmetry_equiv_pos_site_id
 _symmetry_equiv_pos_as_xyz
  1  'x, y, z'
loop_
 _atom_site_type_symbol
 _atom_site_label
 _atom_site_symmetry_multiplicity
 _atom_site_fract_x
 _atom_site_fract_y
 _atom_site_fract_z
 _atom_site_occupancy
  Fe  Fe0  1  0.83333391  0.66667162  0.66666693  1
  Fe  Fe1  1  0.66704942  0.35852668  0.30732764  1
  Fe  Fe2  1  0.33333412  0.66666276  0.66666706  1
  Fe  Fe3  1  0.15397792  0.35655957  0.33722811  1
  Fe  Fe4  1  0.51268639  0.97677572  0.99610614  1
  Fe  Fe5  1  0.99961768  0.97481181  0.02600611  1
  O  O6  1  0.65523564  0.65750730  0.02305668  1
  O  O7  1  0.01143028  0.67582288  0.31027612  1
  F  F8  1  0.65315610  0.05796002  0.62664714  1
  F  F9  1  0.33362082  0.35355173  0.98072393  1
  F  F10  1  0.30754090  0.91103418  0.89249685  1
  F  F11  1  0.97461423  0.22858166  0.24470358  1
  F  F12  1  0.62629784  0.56811199  0.57181809  1
  F  F13  1  0.04036902  0.76521943  0.76151655  1
  F  F14  1  0.35912668  0.42229858  0.44083388  1
  F  F15  1  0.69205123  0.10474980  0.08862842  1
  F  F16  1  0.33304468  0.97978318  0.35260843  1
  F  F17  1  0.01351116  0.27537206  0.70668834  1
