# generated using pymatgen
data_LiVSiO4
_symmetry_space_group_name_H-M   'P 1'
_cell_length_a   10.06500637
_cell_length_b   10.25953686
_cell_length_c   16.50960147
_cell_angle_alpha   82.14979856
_cell_angle_beta   90.00000000
_cell_angle_gamma   60.62526236
_symmetry_Int_Tables_number   1
_chemical_formula_structural   LiVSiO4
_chemical_formula_sum   'Li16 V16 Si16 O64'
_cell_volume   1467.26976888
_cell_formula_units_Z   16
loop_
 _symmetry_equiv_pos_site_id
 _symmetry_equiv_pos_as_xyz
  1  'x, y, z'
loop_
 _atom_site_type_symbol
 _atom_site_label
 _atom_site_symmetry_multiplicity
 _atom_site_fract_x
 _atom_site_fract_y
 _atom_site_fract_z
 _atom_site_occupancy
  Li  Li0  1  0.80893127  0.98822173  0.99758311  1
  Li  Li1  1  0.20284700  0.98822173  0.49758311  1
  Li  Li2  1  0.57593206  0.72112320  0.74660573  1
  Li  Li3  1  0.07565376  0.66325739  0.74920679  1
  Li  Li4  1  0.30994788  0.54927563  0.99876407  1
  Li  Li5  1  0.70294375  0.72112320  0.24660573  1
  Li  Li6  1  0.80784842  0.48715089  0.99687055  1
  Li  Li7  1  0.26108884  0.66325739  0.24920679  1
  Li  Li8  1  0.14077649  0.54927563  0.49876407  1
  Li  Li9  1  0.70500169  0.48715089  0.49687055  1
  Li  Li10  1  0.56788590  0.22764576  0.74795366  1
  Li  Li11  1  0.08186576  0.15613525  0.74617480  1
  Li  Li12  1  0.30923514  0.05053416  0.99769940  1
  Li  Li13  1  0.20446934  0.22764576  0.24795366  1
  Li  Li14  1  0.76199899  0.15613525  0.24617480  1
  Li  Li15  1  0.64023070  0.05053416  0.49769940  1
  V  V16  1  0.27043959  0.84849983  0.87039256  1
  V  V17  1  0.77173984  0.78204035  0.87037628  1
  V  V18  1  0.88106059  0.84849983  0.37039256  1
  V  V19  1  0.44621981  0.78204035  0.37037628  1
  V  V20  1  0.32166336  0.67422819  0.62049684  1
  V  V21  1  0.88235472  0.61014193  0.62061032  1
  V  V22  1  0.00410845  0.67422819  0.12049684  1
  V  V23  1  0.50750235  0.61014193  0.12061032  1
  V  V24  1  0.27340996  0.34771932  0.87119765  1
  V  V25  1  0.77024504  0.28303823  0.86850263  1
  V  V26  1  0.37887072  0.34771932  0.37119765  1
  V  V27  1  0.94671673  0.28303823  0.36850263  1
  V  V28  1  0.82212728  0.16947102  0.62015549  1
  V  V29  1  0.38370460  0.11359542  0.62004966  1
  V  V30  1  0.00840169  0.16947102  0.12015549  1
  V  V31  1  0.50269998  0.11359542  0.12004966  1
  Si  Si32  1  0.91642391  0.98227928  0.80955926  1
  Si  Si33  1  0.10129681  0.98227928  0.30955926  1
  Si  Si34  1  0.98052091  0.85201251  0.56009669  1
  Si  Si35  1  0.53789806  0.79628650  0.55892510  1
  Si  Si36  1  0.16746658  0.85201251  0.06009669  1
  Si  Si37  1  0.66581544  0.79628650  0.05892510  1
  Si  Si38  1  0.41861021  0.54006624  0.81130681  1
  Si  Si39  1  0.91976269  0.47756203  0.80966855  1
  Si  Si40  1  0.04132354  0.54006624  0.31130681  1
  Si  Si41  1  0.60267528  0.47756203  0.30966855  1
  Si  Si42  1  0.48022992  0.35484047  0.56025918  1
  Si  Si43  1  0.03911089  0.29377478  0.55816956  1
  Si  Si44  1  0.16492862  0.35484047  0.06025918  1
  Si  Si45  1  0.66711433  0.29377478  0.05816956  1
  Si  Si46  1  0.42014311  0.03632003  0.81122149  1
  Si  Si47  1  0.54353686  0.03632003  0.31122149  1
  O  O48  1  0.33563117  0.99347094  0.88736203  1
  O  O49  1  0.08731168  0.96234971  0.79739237  1
  O  O50  1  0.58621735  0.88932001  0.79967813  1
  O  O51  1  0.74763718  0.83456896  0.97974817  1
  O  O52  1  0.67089789  0.99347094  0.38736203  1
  O  O53  1  0.54767431  0.94635883  0.57553515  1
  O  O54  1  0.24214214  0.77382248  0.97859864  1
  O  O55  1  0.93012437  0.81425177  0.82148052  1
  O  O56  1  0.95033861  0.96234971  0.29739237  1
  O  O57  1  0.13797508  0.85971467  0.57544090  1
  O  O58  1  0.52446264  0.88932001  0.29967813  1
  O  O59  1  0.41779286  0.83456896  0.47974817  1
  O  O60  1  0.50596686  0.94635883  0.07553515  1
  O  O61  1  0.47002855  0.73940572  0.63883226  1
  O  O62  1  0.97014895  0.73695164  0.63694790  1
  O  O63  1  0.44045423  0.68295515  0.82838897  1
  O  O64  1  0.98403537  0.77382248  0.47859864  1
  O  O65  1  0.25562386  0.81425177  0.32148052  1
  O  O66  1  0.00231025  0.85971467  0.07544090  1
  O  O67  1  0.70987147  0.66169457  0.54475134  1
  O  O68  1  0.84055897  0.56595178  0.88777826  1
  O  O69  1  0.29823838  0.59463637  0.72979392  1
  O  O70  1  0.80801517  0.58707936  0.72721852  1
  O  O71  1  0.79056573  0.73940572  0.13883226  1
  O  O72  1  0.29289941  0.73695164  0.13694790  1
  O  O73  1  0.87659063  0.68295515  0.32838897  1
  O  O74  1  0.33989641  0.49115591  0.88871551  1
  O  O75  1  0.08932772  0.46229976  0.79896117  1
  O  O76  1  0.33753685  0.52986710  0.55020476  1
  O  O77  1  0.62843396  0.66169457  0.04475134  1
  O  O78  1  0.59348925  0.56595178  0.38777826  1
  O  O79  1  0.10712525  0.59463637  0.22979392  1
  O  O80  1  0.60490447  0.58707936  0.22721852  1
  O  O81  1  0.58313080  0.39321923  0.79785153  1
  O  O82  1  0.74512607  0.33510799  0.97812577  1
  O  O83  1  0.16894768  0.49115591  0.38871551  1
  O  O84  1  0.04715847  0.44382733  0.57649822  1
  O  O85  1  0.24477606  0.27470930  0.97999918  1
  O  O86  1  0.93488627  0.30914254  0.82272865  1
  O  O87  1  0.44837352  0.46229976  0.29896117  1
  O  O88  1  0.13259604  0.52986710  0.05020476  1
  O  O89  1  0.64046846  0.35746207  0.57441147  1
  O  O90  1  0.02364998  0.39321923  0.29785153  1
  O  O91  1  0.91976594  0.33510799  0.47812577  1
  O  O92  1  0.50901420  0.44382733  0.07649822  1
  O  O93  1  0.46687807  0.24431909  0.63873742  1
  O  O94  1  0.97215570  0.23178680  0.63638157  1
  O  O95  1  0.48051464  0.27470930  0.47999918  1
  O  O96  1  0.43970690  0.18065128  0.82820726  1
  O  O97  1  0.75597118  0.30914254  0.32272865  1
  O  O98  1  0.00206947  0.35746207  0.07441147  1
  O  O99  1  0.21228558  0.16092911  0.54451651  1
  O  O100  1  0.84315660  0.06627512  0.88987077  1
  O  O101  1  0.79718587  0.10048967  0.73129849  1
  O  O102  1  0.31033890  0.08196387  0.72619166  1
  O  O103  1  0.28880284  0.24431909  0.13873742  1
  O  O104  1  0.79605650  0.23178680  0.13638157  1
  O  O105  1  0.37964182  0.18065128  0.32820726  1
  O  O106  1  0.62678531  0.16092911  0.04451651  1
  O  O107  1  0.83530241  0.02515974  0.55099781  1
  O  O108  1  0.09056927  0.06627512  0.38987077  1
  O  O109  1  0.10232547  0.10048967  0.23129849  1
  O  O110  1  0.60769823  0.08196387  0.22619166  1
  O  O111  1  0.13953785  0.02515974  0.05099781  1
