# generated using pymatgen
data_LiMnPO4
_symmetry_space_group_name_H-M   'P 1'
_cell_length_a   10.30464079
_cell_length_b   6.48280381
_cell_length_c   4.82242038
_cell_angle_alpha   90.00000000
_cell_angle_beta   90.00000000
_cell_angle_gamma   90.00000000
_symmetry_Int_Tables_number   1
_chemical_formula_structural   LiMnPO4
_chemical_formula_sum   'Li4 Mn4 P4 O16'
_cell_volume   322.15197781
_cell_formula_units_Z   4
loop_
 _symmetry_equiv_pos_site_id
 _symmetry_equiv_pos_as_xyz
  1  'x, y, z'
loop_
 _atom_site_type_symbol
 _atom_site_label
 _atom_site_symmetry_multiplicity
 _atom_site_fract_x
 _atom_site_fract_y
 _atom_site_fract_z
 _atom_site_occupancy
  Li  Li0  1  0.21614633  0.75000000  0.50031655  1
  Li  Li1  1  0.28385367  0.25000000  0.00031655  1
  Li  Li2  1  0.71614633  0.75000000  0.99968345  1
  Li  Li3  1  0.78385367  0.25000000  0.49968345  1
  Mn  Mn4  1  0.00000000  0.00000000  0.00000000  1
  Mn  Mn5  1  0.00000000  0.50000000  0.00000000  1
  Mn  Mn6  1  0.50000000  0.00000000  0.50000000  1
  Mn  Mn7  1  0.50000000  0.50000000  0.50000000  1
  P  P8  1  0.09811914  0.25000000  0.42249833  1
  P  P9  1  0.40188086  0.75000000  0.92249833  1
  P  P10  1  0.59811914  0.25000000  0.07750167  1
  P  P11  1  0.90188086  0.75000000  0.57750167  1
  O  O12  1  0.04440214  0.75000000  0.70779293  1
  O  O13  1  0.09129021  0.25000000  0.74493461  1
  O  O14  1  0.16323703  0.05343012  0.30304149  1
  O  O15  1  0.16323703  0.44656988  0.30304149  1
  O  O16  1  0.33676297  0.55343012  0.80304149  1
  O  O17  1  0.33676297  0.94656988  0.80304149  1
  O  O18  1  0.40870979  0.75000000  0.24493461  1
  O  O19  1  0.45559786  0.25000000  0.20779293  1
  O  O20  1  0.54440214  0.75000000  0.79220707  1
  O  O21  1  0.59129021  0.25000000  0.75506539  1
  O  O22  1  0.66323703  0.05343012  0.19695851  1
  O  O23  1  0.66323703  0.44656988  0.19695851  1
  O  O24  1  0.83676297  0.55343012  0.69695851  1
  O  O25  1  0.83676297  0.94656988  0.69695851  1
  O  O26  1  0.90870979  0.75000000  0.25506539  1
  O  O27  1  0.95559786  0.25000000  0.29220707  1
