# generated using pymatgen
data_Fe10O9F11
_symmetry_space_group_name_H-M   'P 1'
_cell_length_a   4.76371409
_cell_length_b   4.77024661
_cell_length_c   15.49485318
_cell_angle_alpha   90.00000000
_cell_angle_beta   90.00000000
_cell_angle_gamma   91.45759017
_symmetry_Int_Tables_number   1
_chemical_formula_structural   Fe10O9F11
_chemical_formula_sum   'Fe10 O9 F11'
_cell_volume   351.99252140
_cell_formula_units_Z   1
loop_
 _symmetry_equiv_pos_site_id
 _symmetry_equiv_pos_as_xyz
  1  'x, y, z'
loop_
 _atom_site_type_symbol
 _atom_site_label
 _atom_site_symmetry_multiplicity
 _atom_site_fract_x
 _atom_site_fract_y
 _atom_site_fract_z
 _atom_site_occupancy
  Fe  Fe0  1  0.97501904  0.95702861  0.99402009  1
  Fe  Fe1  1  0.01206363  0.01460876  0.20000000  1
  Fe  Fe2  1  0.97501904  0.95702861  0.40597991  1
  Fe  Fe3  1  0.05038308  0.00283800  0.60125024  1
  Fe  Fe4  1  0.05038308  0.00283800  0.79874976  1
  Fe  Fe5  1  0.51662346  0.50965950  0.10661080  1
  Fe  Fe6  1  0.47293880  0.52043911  0.49796446  1
  Fe  Fe7  1  0.51662346  0.50965950  0.29338920  1
  Fe  Fe8  1  0.46321999  0.49872469  0.70000000  1
  Fe  Fe9  1  0.47293880  0.52043911  0.90203554  1
  O  O10  1  0.18848086  0.80735462  0.50089640  1
  O  O11  1  0.20419775  0.81177892  0.70000000  1
  O  O12  1  0.18848086  0.80735462  0.89910360  1
  O  O13  1  0.31666452  0.31566743  0.20000000  1
  O  O14  1  0.31592604  0.31572849  0.59792229  1
  O  O15  1  0.31592604  0.31572849  0.80207771  1
  O  O16  1  0.68015323  0.68008163  0.99927478  1
  O  O17  1  0.71062308  0.70098329  0.20000000  1
  O  O18  1  0.68015323  0.68008163  0.40072522  1
  F  F19  1  0.19737169  0.79809102  0.09122088  1
  F  F20  1  0.19737169  0.79809102  0.30877912  1
  F  F21  1  0.28776025  0.29261829  0.99966309  1
  F  F22  1  0.28776025  0.29261829  0.40033691  1
  F  F23  1  0.70144622  0.70618620  0.60087193  1
  F  F24  1  0.70144622  0.70618620  0.79912807  1
  F  F25  1  0.80268453  0.19428684  0.08854488  1
  F  F26  1  0.80077721  0.19384045  0.50228448  1
  F  F27  1  0.80268453  0.19428684  0.31145512  1
  F  F28  1  0.80077721  0.19384045  0.89771552  1
  F  F29  1  0.81410217  0.20193138  0.70000000  1
