# generated using pymatgen
data_Li2FeP3O10
_symmetry_space_group_name_H-M   'P 1'
_cell_length_a   12.13953623
_cell_length_b   8.03206903
_cell_length_c   9.74047705
_cell_angle_alpha   90.00000000
_cell_angle_beta   96.39977484
_cell_angle_gamma   90.00000000
_symmetry_Int_Tables_number   1
_chemical_formula_structural   Li2FeP3O10
_chemical_formula_sum   'Li8 Fe4 P12 O40'
_cell_volume   943.83248177
_cell_formula_units_Z   4
loop_
 _symmetry_equiv_pos_site_id
 _symmetry_equiv_pos_as_xyz
  1  'x, y, z'
loop_
 _atom_site_type_symbol
 _atom_site_label
 _atom_site_symmetry_multiplicity
 _atom_site_fract_x
 _atom_site_fract_y
 _atom_site_fract_z
 _atom_site_occupancy
  Li  Li0  1  0.14878447  0.46029066  0.38580684  1
  Li  Li1  1  0.14878447  0.03970934  0.88580684  1
  Li  Li2  1  0.44736270  0.11282452  0.90864368  1
  Li  Li3  1  0.44736270  0.38717548  0.40864368  1
  Li  Li4  1  0.55263730  0.61282452  0.59135632  1
  Li  Li5  1  0.55263730  0.88717548  0.09135632  1
  Li  Li6  1  0.85121553  0.96029066  0.11419316  1
  Li  Li7  1  0.85121553  0.53970934  0.61419316  1
  Fe  Fe8  1  0.16931246  0.85647848  0.62791216  1
  Fe  Fe9  1  0.16931246  0.64352152  0.12791216  1
  Fe  Fe10  1  0.83068754  0.35647848  0.87208784  1
  Fe  Fe11  1  0.83068754  0.14352152  0.37208784  1
  P  P12  1  0.06298504  0.56802659  0.80401459  1
  P  P13  1  0.06298504  0.93197341  0.30401459  1
  P  P14  1  0.27211987  0.42372626  0.91307218  1
  P  P15  1  0.27211987  0.07627374  0.41307218  1
  P  P16  1  0.33241507  0.78395366  0.92623034  1
  P  P17  1  0.33241507  0.71604634  0.42623034  1
  P  P18  1  0.66758493  0.28395366  0.57376966  1
  P  P19  1  0.66758493  0.21604634  0.07376966  1
  P  P20  1  0.72788013  0.92372626  0.58692782  1
  P  P21  1  0.72788013  0.57627374  0.08692782  1
  P  P22  1  0.93701496  0.06802659  0.69598541  1
  P  P23  1  0.93701496  0.43197341  0.19598541  1
  O  O24  1  0.08329537  0.66482762  0.93870792  1
  O  O25  1  0.05385337  0.99458618  0.71924902  1
  O  O26  1  0.08261938  0.65868315  0.67138606  1
  O  O27  1  0.08329537  0.83517238  0.43870792  1
  O  O28  1  0.05385337  0.50541382  0.21924902  1
  O  O29  1  0.08261938  0.84131685  0.17138606  1
  O  O30  1  0.15425892  0.41626099  0.81451679  1
  O  O31  1  0.15425892  0.08373901  0.31451679  1
  O  O32  1  0.24850530  0.87879665  0.82370838  1
  O  O33  1  0.24512971  0.05977985  0.56109744  1
  O  O34  1  0.29319846  0.72093522  0.57030553  1
  O  O35  1  0.24850530  0.62120335  0.32370838  1
  O  O36  1  0.24512971  0.44022015  0.06109744  1
  O  O37  1  0.29319846  0.77906478  0.07030553  1
  O  O38  1  0.33425588  0.59087857  0.86909939  1
  O  O39  1  0.33473473  0.27361621  0.87615082  1
  O  O40  1  0.33425588  0.90912143  0.36909939  1
  O  O41  1  0.33473473  0.22638379  0.37615082  1
  O  O42  1  0.44708982  0.85854948  0.92846060  1
  O  O43  1  0.44708982  0.64145052  0.42846060  1
  O  O44  1  0.55291018  0.35854948  0.57153940  1
  O  O45  1  0.55291018  0.14145052  0.07153940  1
  O  O46  1  0.66526527  0.77361621  0.62384918  1
  O  O47  1  0.66574412  0.09087857  0.63090061  1
  O  O48  1  0.66526527  0.72638379  0.12384918  1
  O  O49  1  0.66574412  0.40912143  0.13090061  1
  O  O50  1  0.70680154  0.22093522  0.92969447  1
  O  O51  1  0.75487029  0.55977985  0.93890256  1
  O  O52  1  0.75149470  0.37879665  0.67629162  1
  O  O53  1  0.70680154  0.27906478  0.42969447  1
  O  O54  1  0.75487029  0.94022015  0.43890256  1
  O  O55  1  0.75149470  0.12120335  0.17629162  1
  O  O56  1  0.84574108  0.91626099  0.68548321  1
  O  O57  1  0.84574108  0.58373901  0.18548321  1
  O  O58  1  0.91738062  0.15868315  0.82861394  1
  O  O59  1  0.94614663  0.49458618  0.78075098  1
  O  O60  1  0.91670463  0.16482762  0.56129208  1
  O  O61  1  0.91738062  0.34131685  0.32861394  1
  O  O62  1  0.94614663  0.00541382  0.28075098  1
  O  O63  1  0.91670463  0.33517238  0.06129208  1
