# generated using pymatgen
data_Li3Fe(PO4)2
_symmetry_space_group_name_H-M   'P 1'
_cell_length_a   8.76147694
_cell_length_b   8.75442066
_cell_length_c   6.88949644
_cell_angle_alpha   90.03164449
_cell_angle_beta   90.09330327
_cell_angle_gamma   120.03694481
_symmetry_Int_Tables_number   1
_chemical_formula_structural   Li3Fe(PO4)2
_chemical_formula_sum   'Li9 Fe3 P6 O24'
_cell_volume   457.46716514
_cell_formula_units_Z   3
loop_
 _symmetry_equiv_pos_site_id
 _symmetry_equiv_pos_as_xyz
  1  'x, y, z'
loop_
 _atom_site_type_symbol
 _atom_site_label
 _atom_site_symmetry_multiplicity
 _atom_site_fract_x
 _atom_site_fract_y
 _atom_site_fract_z
 _atom_site_occupancy
  Li  Li0  1  0.37077120  0.06996147  0.71408647  1
  Li  Li1  1  0.92873720  0.30015794  0.71483446  1
  Li  Li2  1  0.00003211  0.99997295  0.49989569  1
  Li  Li3  1  0.33458743  0.66630984  0.47968371  1
  Li  Li4  1  0.30127358  0.37074061  0.28495409  1
  Li  Li5  1  0.69871231  0.62923953  0.71507773  1
  Li  Li6  1  0.66541658  0.33369266  0.52031374  1
  Li  Li7  1  0.07131476  0.69986521  0.28512163  1
  Li  Li8  1  0.62921741  0.93006332  0.28592121  1
  Fe  Fe9  1  0.99997614  0.00000038  0.99996147  1
  Fe  Fe10  1  0.33327140  0.66665931  0.04621354  1
  Fe  Fe11  1  0.66685109  0.33331019  0.95382707  1
  P  P12  1  0.02819190  0.68191057  0.75581216  1
  P  P13  1  0.31820837  0.34664529  0.75512835  1
  P  P14  1  0.65292218  0.97113637  0.75614758  1
  P  P15  1  0.34709625  0.02889244  0.24381056  1
  P  P16  1  0.68184377  0.65333665  0.24490369  1
  P  P17  1  0.97184447  0.31810357  0.24425302  1
  O  O18  1  0.14550027  0.95052934  0.20157947  1
  O  O19  1  0.12572517  0.72713239  0.56284301  1
  O  O20  1  0.15759673  0.70579553  0.92165691  1
  O  O21  1  0.37720507  0.86650109  0.24615335  1
  O  O22  1  0.13374182  0.51110847  0.24593135  1
  O  O23  1  0.05054856  0.19535470  0.20069804  1
  O  O24  1  0.54864233  0.84329963  0.92318662  1
  O  O25  1  0.29414812  0.45107530  0.92160483  1
  O  O26  1  0.19448571  0.14498972  0.79632185  1
  O  O27  1  0.27492193  0.40120674  0.56269538  1
  O  O28  1  0.59834893  0.87217207  0.56390900  1
  O  O29  1  0.48955826  0.62296482  0.24551308  1
  O  O30  1  0.51044283  0.37702639  0.75449908  1
  O  O31  1  0.40163158  0.12782891  0.43606768  1
  O  O32  1  0.72504550  0.59883216  0.43729572  1
  O  O33  1  0.80548695  0.85499443  0.20364625  1
  O  O34  1  0.70583022  0.54888010  0.07843241  1
  O  O35  1  0.45136842  0.15669508  0.07681274  1
  O  O36  1  0.94943270  0.80462355  0.79936534  1
  O  O37  1  0.86627880  0.48889820  0.75407908  1
  O  O38  1  0.62278269  0.13349677  0.75385334  1
  O  O39  1  0.84247868  0.29418142  0.07835187  1
  O  O40  1  0.87424129  0.27292014  0.43714081  1
  O  O41  1  0.85448928  0.04949574  0.79841562  1
