# generated using pymatgen
data_Mn4O7F
_symmetry_space_group_name_H-M   'P 1'
_cell_length_a   6.69800794
_cell_length_b   5.50849136
_cell_length_c   6.69800794
_cell_angle_alpha   89.89942571
_cell_angle_beta   96.08322022
_cell_angle_gamma   90.10057429
_symmetry_Int_Tables_number   1
_chemical_formula_structural   Mn4O7F
_chemical_formula_sum   'Mn8 O14 F2'
_cell_volume   245.73689386
_cell_formula_units_Z   2
loop_
 _symmetry_equiv_pos_site_id
 _symmetry_equiv_pos_as_xyz
  1  'x, y, z'
loop_
 _atom_site_type_symbol
 _atom_site_label
 _atom_site_symmetry_multiplicity
 _atom_site_fract_x
 _atom_site_fract_y
 _atom_site_fract_z
 _atom_site_occupancy
  Mn  Mn0  1  0.37286528  0.35223910  0.11688149  1
  Mn  Mn1  1  0.11653960  0.66985705  0.37607262  1
  Mn  Mn2  1  0.13311851  0.85223910  0.87713472  1
  Mn  Mn3  1  0.87392738  0.16985705  0.13346040  1
  Mn  Mn4  1  0.38255592  0.13051924  0.63233189  1
  Mn  Mn5  1  0.62382238  0.85552790  0.37127792  1
  Mn  Mn6  1  0.61766811  0.63051924  0.86744408  1
  Mn  Mn7  1  0.87872208  0.35552790  0.62617762  1
  O  O8  1  0.15316441  0.11450226  0.07734963  1
  O  O9  1  0.17265037  0.61450226  0.09683559  1
  O  O10  1  0.57520014  0.60759129  0.15077878  1
  O  O11  1  0.08012762  0.61488686  0.65727713  1
  O  O12  1  0.34647583  0.88914780  0.42551125  1
  O  O13  1  0.09922122  0.10759129  0.67479986  1
  O  O14  1  0.59272287  0.11488686  0.16987238  1
  O  O15  1  0.41006022  0.88531610  0.83240413  1
  O  O16  1  0.65888549  0.10650530  0.57913780  1
  O  O17  1  0.89827474  0.89556587  0.32025317  1
  O  O18  1  0.41759587  0.38531610  0.83993978  1
  O  O19  1  0.67086220  0.60650530  0.59111451  1
  O  O20  1  0.92974683  0.39556587  0.35172526  1
  O  O21  1  0.82448875  0.38914780  0.90352417  1
  F  F22  1  0.33343338  0.37834224  0.41212920  1
  F  F23  1  0.83787080  0.87834224  0.91656662  1
