# generated using pymatgen
data_Na2Li2V3P2O13
_symmetry_space_group_name_H-M   'P 1'
_cell_length_a   8.81368160
_cell_length_b   10.30746017
_cell_length_c   12.34869795
_cell_angle_alpha   90.00001745
_cell_angle_beta   89.99835272
_cell_angle_gamma   88.10605638
_symmetry_Int_Tables_number   1
_chemical_formula_structural   Na2Li2V3P2O13
_chemical_formula_sum   'Na8 Li8 V12 P8 O52'
_cell_volume   1121.22526900
_cell_formula_units_Z   4
loop_
 _symmetry_equiv_pos_site_id
 _symmetry_equiv_pos_as_xyz
  1  'x, y, z'
loop_
 _atom_site_type_symbol
 _atom_site_label
 _atom_site_symmetry_multiplicity
 _atom_site_fract_x
 _atom_site_fract_y
 _atom_site_fract_z
 _atom_site_occupancy
  Na  Na0  1  0.87956953  0.21540375  0.97223957  1
  Na  Na1  1  0.37956562  0.21538990  0.52777589  1
  Na  Na2  1  0.43224292  0.29829354  0.97155122  1
  Na  Na3  1  0.93225197  0.29829601  0.52843890  1
  Na  Na4  1  0.56776514  0.70170393  0.02844903  1
  Na  Na5  1  0.06775348  0.70170704  0.47156364  1
  Na  Na6  1  0.12043290  0.78459296  0.02776493  1
  Na  Na7  1  0.62044258  0.78459766  0.47223582  1
  Li  Li8  1  0.69020970  0.23685952  0.41389155  1
  Li  Li9  1  0.19018079  0.23685116  0.08607848  1
  Li  Li10  1  0.13151289  0.25788366  0.76339550  1
  Li  Li11  1  0.63151797  0.25788333  0.73661113  1
  Li  Li12  1  0.36847418  0.74213130  0.26340516  1
  Li  Li13  1  0.86847654  0.74212791  0.23660822  1
  Li  Li14  1  0.80980002  0.76314858  0.91391730  1
  Li  Li15  1  0.30979746  0.76316159  0.58609109  1
  V  V16  1  0.74301880  0.02650782  0.62276015  1
  V  V17  1  0.24301375  0.02649986  0.87723681  1
  V  V18  1  0.92738036  0.24701785  0.24314842  1
  V  V19  1  0.42746540  0.24701948  0.25686077  1
  V  V20  1  0.25797200  0.47409913  0.64211961  1
  V  V21  1  0.75797073  0.47410171  0.85788369  1
  V  V22  1  0.24205709  0.52594772  0.14209650  1
  V  V23  1  0.74203518  0.52592308  0.35788258  1
  V  V24  1  0.57258703  0.75297224  0.74315204  1
  V  V25  1  0.07260465  0.75296538  0.75685179  1
  V  V26  1  0.25695058  0.97348729  0.37723963  1
  V  V27  1  0.75695725  0.97348526  0.12274388  1
  P  P28  1  0.62026983  0.02277983  0.87350220  1
  P  P29  1  0.12027396  0.02276706  0.62650886  1
  P  P30  1  0.62832342  0.48010411  0.61519709  1
  P  P31  1  0.12832651  0.48011662  0.88478357  1
  P  P32  1  0.87165256  0.51994298  0.11521919  1
  P  P33  1  0.37166556  0.51996844  0.38479603  1
  P  P34  1  0.87974424  0.97719387  0.37345577  1
  P  P35  1  0.37975477  0.97716891  0.12652780  1
  O  O36  1  0.71876210  0.08062466  0.78123337  1
  O  O37  1  0.21877017  0.08061818  0.71876090  1
  O  O38  1  0.69239991  0.06256033  0.98154809  1
  O  O39  1  0.19239791  0.06256525  0.51844208  1
  O  O40  1  0.95821981  0.08474305  0.63937777  1
  O  O41  1  0.45822090  0.08475513  0.86064120  1
  O  O42  1  0.37153275  0.11293407  0.35600325  1
  O  O43  1  0.87153473  0.11292852  0.14397210  1
  O  O44  1  0.38099443  0.12832934  0.12960799  1
  O  O45  1  0.88100266  0.12831021  0.37039474  1
  O  O46  1  0.15380332  0.16382386  0.93040645  1
  O  O47  1  0.65380860  0.16381724  0.56958722  1
  O  O48  1  0.61791346  0.24380062  0.25985119  1
  O  O49  1  0.11790529  0.24380484  0.24016672  1
  O  O50  1  0.66053920  0.34327593  0.89625989  1
  O  O51  1  0.16053822  0.34325790  0.60375480  1
  O  O52  1  0.89291049  0.37107861  0.11711539  1
  O  O53  1  0.39290868  0.37105404  0.38288421  1
  O  O54  1  0.35933376  0.37654607  0.15383754  1
  O  O55  1  0.85934361  0.37654638  0.34616946  1
  O  O56  1  0.97923501  0.40965644  0.85400597  1
  O  O57  1  0.47923312  0.40964863  0.64599784  1
  O  O58  1  0.18736872  0.43615870  0.99772145  1
  O  O59  1  0.68736603  0.43616774  0.50229295  1
  O  O60  1  0.25009015  0.42865257  0.80146722  1
  O  O61  1  0.75008467  0.42865171  0.69854551  1
  O  O62  1  0.24991602  0.57133464  0.30145812  1
  O  O63  1  0.74991902  0.57133627  0.19852859  1
  O  O64  1  0.31263041  0.56382203  0.49770759  1
  O  O65  1  0.81263542  0.56383269  0.00228236  1
  O  O66  1  0.52074245  0.59032939  0.35401122  1
  O  O67  1  0.02076217  0.59033576  0.14599227  1
  O  O68  1  0.64068684  0.62344870  0.84617810  1
  O  O69  1  0.14068230  0.62343835  0.65382702  1
  O  O70  1  0.60708577  0.62888737  0.61712391  1
  O  O71  1  0.10709669  0.62887977  0.88288678  1
  O  O72  1  0.83945215  0.65671503  0.39625095  1
  O  O73  1  0.33944987  0.65670845  0.10373795  1
  O  O74  1  0.88212870  0.75618517  0.75981736  1
  O  O75  1  0.38212422  0.75619643  0.74018327  1
  O  O76  1  0.84618055  0.83617771  0.06958266  1
  O  O77  1  0.34617423  0.83620390  0.43041192  1
  O  O78  1  0.61900475  0.87172021  0.87038581  1
  O  O79  1  0.11901459  0.87172207  0.62961652  1
  O  O80  1  0.12847487  0.88708048  0.85604076  1
  O  O81  1  0.62848002  0.88708105  0.64396393  1
  O  O82  1  0.54173960  0.91526870  0.13935084  1
  O  O83  1  0.04176273  0.91526599  0.36062707  1
  O  O84  1  0.80759915  0.93743739  0.48159459  1
  O  O85  1  0.30758487  0.93744502  0.01841307  1
  O  O86  1  0.28123623  0.91938807  0.21874149  1
  O  O87  1  0.78123430  0.91939687  0.28125673  1
