# generated using pymatgen
data_Li15Cr15SiO32
_symmetry_space_group_name_H-M   'P 1'
_cell_length_a   8.08231375
_cell_length_b   8.08575489
_cell_length_c   8.87385348
_cell_angle_alpha   89.89337090
_cell_angle_beta   90.00921259
_cell_angle_gamma   89.98840066
_symmetry_Int_Tables_number   1
_chemical_formula_structural   Li15Cr15SiO32
_chemical_formula_sum   'Li15 Cr15 Si1 O32'
_cell_volume   579.91956936
_cell_formula_units_Z   1
loop_
 _symmetry_equiv_pos_site_id
 _symmetry_equiv_pos_as_xyz
  1  'x, y, z'
loop_
 _atom_site_type_symbol
 _atom_site_label
 _atom_site_symmetry_multiplicity
 _atom_site_fract_x
 _atom_site_fract_y
 _atom_site_fract_z
 _atom_site_occupancy
  Li  Li0  1  0.12491323  0.87454962  0.22990423  1
  Li  Li1  1  0.12479569  0.62179822  0.49002196  1
  Li  Li2  1  0.12422676  0.12846207  0.48416271  1
  Li  Li3  1  0.37513913  0.62301766  0.74866656  1
  Li  Li4  1  0.37723792  0.12496423  0.74376138  1
  Li  Li5  1  0.37609342  0.37749139  0.01641794  1
  Li  Li6  1  0.37434513  0.87313197  -0.00004958  1
  Li  Li7  1  0.62693617  0.12503174  0.49662880  1
  Li  Li8  1  0.62599111  0.62471706  0.49802366  1
  Li  Li9  1  0.62519358  0.87383537  0.25035032  1
  Li  Li10  1  0.62514260  0.37661191  0.25498051  1
  Li  Li11  1  0.87704615  0.87450228  0.00391908  1
  Li  Li12  1  0.87560613  0.37627770  0.01327031  1
  Li  Li13  1  0.87442634  0.12516516  0.76679942  1
  Li  Li14  1  0.87597216  0.62320169  0.75095182  1
  Cr  Cr15  1  0.12541687  0.87408799  0.75464330  1
  Cr  Cr16  1  0.12556010  0.62215382  0.00422387  1
  Cr  Cr17  1  0.12568685  0.37352973  0.75267194  1
  Cr  Cr18  1  0.37188874  0.62204877  0.25072581  1
  Cr  Cr19  1  0.37375519  0.87477607  0.49876992  1
  Cr  Cr20  1  0.37200791  0.12812064  0.24751665  1
  Cr  Cr21  1  0.37355232  0.37473199  0.49796277  1
  Cr  Cr22  1  0.62547524  0.62474505  0.00138447  1
  Cr  Cr23  1  0.62567235  0.87437226  0.74925736  1
  Cr  Cr24  1  0.62369575  0.12515367  0.99863648  1
  Cr  Cr25  1  0.62530374  0.37489406  0.74945213  1
  Cr  Cr26  1  0.87699837  0.87573333  0.49854831  1
  Cr  Cr27  1  0.87868362  0.62155948  0.25064206  1
  Cr  Cr28  1  0.87703840  0.37381539  0.49827007  1
  Cr  Cr29  1  0.87786091  0.12847213  0.24534640  1
  Si  Si30  1  0.12812082  0.13446853  0.00187948  1
  O  O31  1  0.12524960  0.37068359  0.52890136  1
  O  O32  1  0.12482298  0.11941694  0.20010141  1
  O  O33  1  0.12745171  0.12323331  0.80085986  1
  O  O34  1  0.12625398  0.35824009  0.98091346  1
  O  O35  1  0.12581900  0.88409300  0.98334218  1
  O  O36  1  0.12538707  0.62329757  0.77672352  1
  O  O37  1  0.12533633  0.63452114  0.22756224  1
  O  O38  1  0.12536165  0.87971228  0.52719775  1
  O  O39  1  0.37498101  0.37293103  0.72686335  1
  O  O40  1  0.35937910  0.12613304  0.01779262  1
  O  O41  1  0.37227597  0.12483744  0.47534436  1
  O  O42  1  0.38580156  0.37439597  0.27132385  1
  O  O43  1  0.37354509  0.87642190  0.27095003  1
  O  O44  1  0.37322150  0.62488709  0.47864289  1
  O  O45  1  0.37448856  0.62378850  0.02193732  1
  O  O46  1  0.37504873  0.87529210  0.72863915  1
  O  O47  1  0.62472237  0.12276290  0.22381387  1
  O  O48  1  0.62537401  0.37391228  0.52232741  1
  O  O49  1  0.62478794  0.37335683  0.97865628  1
  O  O50  1  0.62434227  0.12453834  0.77234681  1
  O  O51  1  0.62572845  0.62479466  0.77258216  1
  O  O52  1  0.62503152  0.87634330  0.97820116  1
  O  O53  1  0.62546231  0.87581438  0.52117445  1
  O  O54  1  0.62530348  0.62745109  0.22818063  1
  O  O55  1  0.89075498  0.12625085  0.01419221  1
  O  O56  1  0.87596643  0.37154622  0.72812806  1
  O  O57  1  0.86441677  0.37442995  0.27124371  1
  O  O58  1  0.87828336  0.12484118  0.47148938  1
  O  O59  1  0.87741066  0.62491799  0.47876556  1
  O  O60  1  0.87649053  0.87623104  0.26961811  1
  O  O61  1  0.87603043  0.87700409  0.72876050  1
  O  O62  1  0.87648998  0.62329789  0.02148821  1
