# generated using pymatgen
data_LiMnPO4
_symmetry_space_group_name_H-M   'P 1'
_cell_length_a   7.43178069
_cell_length_b   4.81528615
_cell_length_c   18.23539470
_cell_angle_alpha   90.00000000
_cell_angle_beta   89.10107925
_cell_angle_gamma   90.00000000
_symmetry_Int_Tables_number   1
_chemical_formula_structural   LiMnPO4
_chemical_formula_sum   'Li8 Mn8 P8 O32'
_cell_volume   652.49426789
_cell_formula_units_Z   8
loop_
 _symmetry_equiv_pos_site_id
 _symmetry_equiv_pos_as_xyz
  1  'x, y, z'
loop_
 _atom_site_type_symbol
 _atom_site_label
 _atom_site_symmetry_multiplicity
 _atom_site_fract_x
 _atom_site_fract_y
 _atom_site_fract_z
 _atom_site_occupancy
  Li  Li0  1  0.14569526  0.76716802  0.77057575  1
  Li  Li1  1  0.14569526  0.73283198  0.27057575  1
  Li  Li2  1  0.33094030  0.22304743  0.51827310  1
  Li  Li3  1  0.33094030  0.27695257  0.01827310  1
  Li  Li4  1  0.66905970  0.72304743  0.98172690  1
  Li  Li5  1  0.66905970  0.77695257  0.48172690  1
  Li  Li6  1  0.85430474  0.26716802  0.72942425  1
  Li  Li7  1  0.85430474  0.23283198  0.22942425  1
  Mn  Mn8  1  0.02927437  0.75754043  0.59908854  1
  Mn  Mn9  1  0.02927437  0.74245957  0.09908854  1
  Mn  Mn10  1  0.47975837  0.32720083  0.83244527  1
  Mn  Mn11  1  0.47975837  0.17279917  0.33244527  1
  Mn  Mn12  1  0.52024163  0.82719983  0.66755473  1
  Mn  Mn13  1  0.52024163  0.67280017  0.16755473  1
  Mn  Mn14  1  0.97072563  0.25754043  0.90091146  1
  Mn  Mn15  1  0.97072563  0.24245957  0.40091146  1
  P  P16  1  0.24082353  0.32879263  0.67833436  1
  P  P17  1  0.24082353  0.17120737  0.17833436  1
  P  P18  1  0.25747341  0.71530770  0.93067560  1
  P  P19  1  0.25747341  0.78469230  0.43067560  1
  P  P20  1  0.74252659  0.21530770  0.56932440  1
  P  P21  1  0.74252659  0.28469230  0.06932440  1
  P  P22  1  0.75917647  0.82879263  0.82166564  1
  P  P23  1  0.75917647  0.67120737  0.32166564  1
  O  O24  1  0.07358057  0.45002757  0.71724761  1
  O  O25  1  0.07358057  0.04997243  0.21724861  1
  O  O26  1  0.17638117  0.61436611  0.00447691  1
  O  O27  1  0.15364574  0.57599246  0.86636652  1
  O  O28  1  0.23514434  0.43824066  0.59864880  1
  O  O29  1  0.24947535  0.00479845  0.68224191  1
  O  O30  1  0.17638117  0.88563389  0.50447691  1
  O  O31  1  0.15364574  0.92400754  0.36636652  1
  O  O32  1  0.23514434  0.06175934  0.09864880  1
  O  O33  1  0.24947535  0.49520155  0.18224191  1
  O  O34  1  0.25076524  0.03817048  0.92250480  1
  O  O35  1  0.25076524  0.46182952  0.42250480  1
  O  O36  1  0.41367856  0.44792577  0.71766764  1
  O  O37  1  0.41367856  0.05207423  0.21766764  1
  O  O38  1  0.45324867  0.59961932  0.92436544  1
  O  O39  1  0.45324867  0.90038068  0.42436544  1
  O  O40  1  0.54675133  0.09961932  0.57563456  1
  O  O41  1  0.54675133  0.40038068  0.07563456  1
  O  O42  1  0.58632144  0.94792577  0.78233236  1
  O  O43  1  0.58632144  0.55207423  0.28233236  1
  O  O44  1  0.74923476  0.53817048  0.57749520  1
  O  O45  1  0.74923476  0.96182952  0.07749520  1
  O  O46  1  0.75052465  0.50479845  0.81775809  1
  O  O47  1  0.76485566  0.93824066  0.90135120  1
  O  O48  1  0.84635426  0.07599246  0.63363348  1
  O  O49  1  0.82361883  0.11436611  0.49552309  1
  O  O50  1  0.75052465  0.99520155  0.31775809  1
  O  O51  1  0.76485566  0.56175934  0.40135020  1
  O  O52  1  0.84635426  0.42400754  0.13363348  1
  O  O53  1  0.82361883  0.38563389  0.99552309  1
  O  O54  1  0.92641943  0.95002757  0.78275239  1
  O  O55  1  0.92641943  0.54997243  0.28275239  1
