# generated using pymatgen
data_LiMn4(PO4)3
_symmetry_space_group_name_H-M   'P 1'
_cell_length_a   9.00377842
_cell_length_b   9.00377842
_cell_length_c   6.73154149
_cell_angle_alpha   72.87411452
_cell_angle_beta   107.12588548
_cell_angle_gamma   85.35352544
_symmetry_Int_Tables_number   1
_chemical_formula_structural   LiMn4(PO4)3
_chemical_formula_sum   'Li2 Mn8 P6 O24'
_cell_volume   489.91552097
_cell_formula_units_Z   2
loop_
 _symmetry_equiv_pos_site_id
 _symmetry_equiv_pos_as_xyz
  1  'x, y, z'
loop_
 _atom_site_type_symbol
 _atom_site_label
 _atom_site_symmetry_multiplicity
 _atom_site_fract_x
 _atom_site_fract_y
 _atom_site_fract_z
 _atom_site_occupancy
  Li  Li0  1  0.00085494  0.00085494  0.75000000  1
  Li  Li1  1  0.99914506  0.99914506  0.25000000  1
  Mn  Mn2  1  0.06075728  0.63114959  0.62836020  1
  Mn  Mn3  1  0.36885041  0.93924272  0.12836020  1
  Mn  Mn4  1  0.49748553  0.49748553  0.75000000  1
  Mn  Mn5  1  0.73874807  0.73874807  0.75000000  1
  Mn  Mn6  1  0.50251447  0.50251447  0.25000000  1
  Mn  Mn7  1  0.26125193  0.26125193  0.25000000  1
  Mn  Mn8  1  0.63114959  0.06075728  0.87163980  1
  Mn  Mn9  1  0.93924272  0.36885041  0.37163980  1
  P  P10  1  0.33390291  0.88598612  0.62062533  1
  P  P11  1  0.11401388  0.66609709  0.12062533  1
  P  P12  1  0.28847762  0.28847762  0.75000000  1
  P  P13  1  0.71152238  0.71152238  0.25000000  1
  P  P14  1  0.88598612  0.33390291  0.87937467  1
  P  P15  1  0.66609709  0.11401388  0.37937467  1
  O  O16  1  0.16578439  0.84616769  0.59967249  1
  O  O17  1  0.39489796  0.95481041  0.80695086  1
  O  O18  1  0.15383231  0.83421561  0.09967249  1
  O  O19  1  0.04518959  0.60510204  0.30695086  1
  O  O20  1  0.68067209  0.99303650  0.60783043  1
  O  O21  1  0.26938221  0.46285789  0.75415800  1
  O  O22  1  0.46213579  0.73673385  0.66839661  1
  O  O23  1  0.26307168  0.18363395  0.95969263  1
  O  O24  1  0.18363395  0.26307168  0.54030737  1
  O  O25  1  0.00696350  0.31932791  0.10783043  1
  O  O26  1  0.53714211  0.73061779  0.25415800  1
  O  O27  1  0.26326615  0.53786421  0.16839661  1
  O  O28  1  0.73673385  0.46213579  0.83160339  1
  O  O29  1  0.46285789  0.26938221  0.74584200  1
  O  O30  1  0.99303650  0.68067209  0.89216957  1
  O  O31  1  0.81636605  0.73692832  0.45969263  1
  O  O32  1  0.73692832  0.81636605  0.04030737  1
  O  O33  1  0.53786421  0.26326615  0.33160339  1
  O  O34  1  0.73061779  0.53714211  0.24584200  1
  O  O35  1  0.31932791  0.00696350  0.39216957  1
  O  O36  1  0.95481041  0.39489796  0.69304914  1
  O  O37  1  0.84616769  0.16578439  0.90032751  1
  O  O38  1  0.60510204  0.04518959  0.19304914  1
  O  O39  1  0.83421561  0.15383231  0.40032751  1
