# generated using pymatgen
data_Li2VH2OF5
_symmetry_space_group_name_H-M   'P 1'
_cell_length_a   5.78609028
_cell_length_b   5.81346354
_cell_length_c   7.84977678
_cell_angle_alpha   85.88239783
_cell_angle_beta   94.69967696
_cell_angle_gamma   112.15882711
_symmetry_Int_Tables_number   1
_chemical_formula_structural   Li2VH2OF5
_chemical_formula_sum   'Li4 V2 H4 O2 F10'
_cell_volume   243.48127453
_cell_formula_units_Z   2
loop_
 _symmetry_equiv_pos_site_id
 _symmetry_equiv_pos_as_xyz
  1  'x, y, z'
loop_
 _atom_site_type_symbol
 _atom_site_label
 _atom_site_symmetry_multiplicity
 _atom_site_fract_x
 _atom_site_fract_y
 _atom_site_fract_z
 _atom_site_occupancy
  Li  Li0  1  0.73310564  0.15345887  0.55625824  1
  Li  Li1  1  0.83864248  0.27718084  0.05017351  1
  Li  Li2  1  0.27360286  0.71980496  0.99942168  1
  Li  Li3  1  0.27147395  0.79364879  0.46676513  1
  V  V4  1  0.77382435  0.76535468  0.25011799  1
  V  V5  1  0.23803585  0.22834981  0.75400088  1
  H  H6  1  0.20482767  0.13622307  0.15986098  1
  H  H7  1  0.12835582  0.21601886  0.33715318  1
  H  H8  1  0.86358663  0.79733500  0.66358176  1
  H  H9  1  0.78755374  0.87492722  0.83863663  1
  O  O10  1  0.06927486  0.10483264  0.23906785  1
  O  O11  1  0.88519971  0.93913010  0.73610172  1
  F  F12  1  0.39966481  0.03970084  0.63191350  1
  F  F13  1  0.29890372  0.06636236  0.97089007  1
  F  F14  1  0.97616504  0.60252079  0.14617793  1
  F  F15  1  0.10165092  0.32457096  0.53073836  1
  F  F16  1  0.48241905  0.48009820  0.23358767  1
  F  F17  1  0.53872379  0.50199096  0.76124330  1
  F  F18  1  0.91765853  0.69858681  0.47281552  1
  F  F19  1  0.07814948  0.41374811  0.88149519  1
  F  F20  1  0.67058100  0.89762190  0.02666756  1
  F  F21  1  0.58879311  0.93983122  0.36562435  1
