# generated using pymatgen
data_LiNi(PO3)4
_symmetry_space_group_name_H-M   'P 1'
_cell_length_a   5.07551181
_cell_length_b   13.62571015
_cell_length_c   7.08718360
_cell_angle_alpha   90.00000000
_cell_angle_beta   97.54055029
_cell_angle_gamma   90.00000000
_symmetry_Int_Tables_number   1
_chemical_formula_structural   LiNi(PO3)4
_chemical_formula_sum   'Li2 Ni2 P8 O24'
_cell_volume   485.89302245
_cell_formula_units_Z   2
loop_
 _symmetry_equiv_pos_site_id
 _symmetry_equiv_pos_as_xyz
  1  'x, y, z'
loop_
 _atom_site_type_symbol
 _atom_site_label
 _atom_site_symmetry_multiplicity
 _atom_site_fract_x
 _atom_site_fract_y
 _atom_site_fract_z
 _atom_site_occupancy
  Li  Li0  1  0.59347244  0.99056937  0.13026622  1
  Li  Li1  1  0.40652756  0.49056937  0.86973378  1
  Ni  Ni2  1  0.51120278  0.76317300  0.50872636  1
  Ni  Ni3  1  0.48879722  0.26317300  0.49127364  1
  P  P4  1  0.02020696  0.90352843  0.54693461  1
  P  P5  1  0.00200793  0.62361228  0.46279561  1
  P  P6  1  0.14747387  0.32849523  0.10064234  1
  P  P7  1  0.22678623  0.67848123  0.11622570  1
  P  P8  1  0.77321377  0.17848123  0.88377430  1
  P  P9  1  0.85252613  0.82849523  0.89935766  1
  P  P10  1  0.99799207  0.12361228  0.53720439  1
  P  P11  1  0.97979304  0.40352843  0.45306539  1
  O  O12  1  0.04619215  0.73753680  0.95219145  1
  O  O13  1  0.02909456  0.89613060  0.77447052  1
  O  O14  1  0.99940214  0.13509791  0.76254903  1
  O  O15  1  0.19761009  0.38593504  0.93076384  1
  O  O16  1  0.10072126  0.51143971  0.50299873  1
  O  O17  1  0.18298555  0.33260035  0.55098551  1
  O  O18  1  0.21443175  0.68709453  0.57281989  1
  O  O19  1  0.29494663  0.89682176  0.49204653  1
  O  O20  1  0.27390934  0.13269252  0.48473506  1
  O  O21  1  0.39939615  0.75088446  0.23881424  1
  O  O22  1  0.39215809  0.28934711  0.22429985  1
  O  O23  1  0.35585872  0.59740768  0.02199786  1
  O  O24  1  0.64414128  0.09740768  0.97800214  1
  O  O25  1  0.60784191  0.78934711  0.77570015  1
  O  O26  1  0.60060385  0.25088446  0.76118576  1
  O  O27  1  0.72609066  0.63269252  0.51526494  1
  O  O28  1  0.70505337  0.39682176  0.50795347  1
  O  O29  1  0.78556825  0.18709453  0.42718011  1
  O  O30  1  0.81701445  0.83260035  0.44901449  1
  O  O31  1  0.89927874  0.01143971  0.49700127  1
  O  O32  1  0.80238991  0.88593504  0.06923616  1
  O  O33  1  0.00059786  0.63509791  0.23745097  1
  O  O34  1  0.97090544  0.39613060  0.22552948  1
  O  O35  1  0.95380785  0.23753680  0.04780855  1
