# generated using pymatgen
data_LiFe(SiO3)2
_symmetry_space_group_name_H-M   'P 1'
_cell_length_a   7.76939795
_cell_length_b   7.76939795
_cell_length_c   9.97611728
_cell_angle_alpha   90.00000000
_cell_angle_beta   90.00000000
_cell_angle_gamma   86.74789312
_symmetry_Int_Tables_number   1
_chemical_formula_structural   LiFe(SiO3)2
_chemical_formula_sum   'Li4 Fe4 Si8 O24'
_cell_volume   601.22401734
_cell_formula_units_Z   4
loop_
 _symmetry_equiv_pos_site_id
 _symmetry_equiv_pos_as_xyz
  1  'x, y, z'
loop_
 _atom_site_type_symbol
 _atom_site_label
 _atom_site_symmetry_multiplicity
 _atom_site_fract_x
 _atom_site_fract_y
 _atom_site_fract_z
 _atom_site_occupancy
  Li  Li0  1  0.10028468  0.10028468  0.50000000  1
  Li  Li1  1  0.39901877  0.60098123  0.25000000  1
  Li  Li2  1  0.60098123  0.39901877  0.75000000  1
  Li  Li3  1  0.89971532  0.89971532  0.00000000  1
  Fe  Fe4  1  0.15353633  0.33796559  0.79442105  1
  Fe  Fe5  1  0.33796559  0.15353633  0.20557895  1
  Fe  Fe6  1  0.66203441  0.84646367  0.70557895  1
  Fe  Fe7  1  0.84646367  0.66203441  0.29442105  1
  Si  Si8  1  0.07116038  0.92883962  0.75000000  1
  Si  Si9  1  0.14413911  0.63261112  0.54711446  1
  Si  Si10  1  0.36738888  0.85586089  0.95288554  1
  Si  Si11  1  0.45305786  0.45305786  0.00000000  1
  Si  Si12  1  0.54694214  0.54694214  0.50000000  1
  Si  Si13  1  0.63261112  0.14413911  0.45288554  1
  Si  Si14  1  0.85586089  0.36738888  0.04711446  1
  Si  Si15  1  0.92883962  0.07116038  0.25000000  1
  O  O16  1  0.99613676  0.37017397  0.92951847  1
  O  O17  1  0.10619228  0.12679573  0.70611930  1
  O  O18  1  0.10467058  0.49927499  0.66402749  1
  O  O19  1  0.13760504  0.83095773  0.61028916  1
  O  O20  1  0.16904227  0.86239496  0.88971084  1
  O  O21  1  0.12679573  0.10619228  0.29388070  1
  O  O22  1  0.33658875  0.58809265  0.47802476  1
  O  O23  1  0.38080262  0.37991955  0.85853818  1
  O  O24  1  0.37991955  0.38080262  0.14146182  1
  O  O25  1  0.37017397  0.99613676  0.07048153  1
  O  O26  1  0.41190735  0.66341125  0.02197524  1
  O  O27  1  0.50072501  0.89532942  0.83597251  1
  O  O28  1  0.49927499  0.10467058  0.33597251  1
  O  O29  1  0.58809265  0.33658875  0.52197524  1
  O  O30  1  0.62982603  0.00386324  0.57048153  1
  O  O31  1  0.62008045  0.61919738  0.64146182  1
  O  O32  1  0.61919738  0.62008045  0.35853818  1
  O  O33  1  0.66341125  0.41190735  0.97802476  1
  O  O34  1  0.87320427  0.89380772  0.79388070  1
  O  O35  1  0.83095773  0.13760504  0.38971084  1
  O  O36  1  0.86239496  0.16904227  0.11028916  1
  O  O37  1  0.89532942  0.50072501  0.16402749  1
  O  O38  1  0.89380772  0.87320427  0.20611930  1
  O  O39  1  0.00386324  0.62982603  0.42951847  1
