# generated using pymatgen
data_Li4Nb3Fe3(SbO8)2
_symmetry_space_group_name_H-M   'P 1'
_cell_length_a   6.29229344
_cell_length_b   6.15583158
_cell_length_c   10.55547436
_cell_angle_alpha   90.21616388
_cell_angle_beta   90.52073910
_cell_angle_gamma   119.99213102
_symmetry_Int_Tables_number   1
_chemical_formula_structural   Li4Nb3Fe3(SbO8)2
_chemical_formula_sum   'Li4 Nb3 Fe3 Sb2 O16'
_cell_volume   354.07931468
_cell_formula_units_Z   1
loop_
 _symmetry_equiv_pos_site_id
 _symmetry_equiv_pos_as_xyz
  1  'x, y, z'
loop_
 _atom_site_type_symbol
 _atom_site_label
 _atom_site_symmetry_multiplicity
 _atom_site_fract_x
 _atom_site_fract_y
 _atom_site_fract_z
 _atom_site_occupancy
  Li  Li0  1  0.34031105  0.66860706  0.89931648  1
  Li  Li1  1  0.00142220  0.00071477  0.00311585  1
  Li  Li2  1  0.00056231  0.00123928  0.48712598  1
  Li  Li3  1  0.67752347  0.33707878  0.38936203  1
  Nb  Nb4  1  0.64953006  0.82615734  0.23088764  1
  Nb  Nb5  1  0.82255215  0.66026409  0.71890916  1
  Nb  Nb6  1  0.82197887  0.16262376  0.71922956  1
  Fe  Fe7  1  0.16443308  0.82507884  0.21586109  1
  Fe  Fe8  1  0.16557011  0.34061301  0.21573064  1
  Fe  Fe9  1  0.33179784  0.16577597  0.70535251  1
  Sb  Sb10  1  0.28362848  0.64052773  0.49673358  1
  Sb  Sb11  1  0.64925760  0.32844523  0.02364112  1
  O  O12  1  0.13000066  0.82768972  0.59413827  1
  O  O13  1  0.04099041  0.50453010  0.34487931  1
  O  O14  1  0.35974828  0.66821394  0.10865579  1
  O  O15  1  0.98650838  0.00258309  0.30819487  1
  O  O16  1  0.99210565  0.99797691  0.81827519  1
  O  O17  1  0.13244974  0.30350357  0.59608948  1
  O  O18  1  0.50626269  0.98366820  0.32589007  1
  O  O19  1  0.50040319  0.51774838  0.32565250  1
  O  O20  1  0.31303424  0.17053010  0.10855378  1
  O  O21  1  0.71866815  0.85674382  0.60796671  1
  O  O22  1  0.52824674  0.51118018  0.81337476  1
  O  O23  1  0.52634957  0.01246682  0.81079454  1
  O  O24  1  0.69424249  0.34503826  0.60684473  1
  O  O25  1  0.83398636  0.67847800  0.10661134  1
  O  O26  1  0.98557367  0.49458546  0.81671171  1
  O  O27  1  0.84286456  0.16823958  0.10994131  1
