# generated using pymatgen
data_Li4Mn5Ni(PO4)6
_symmetry_space_group_name_H-M   'P 1'
_cell_length_a   8.49488621
_cell_length_b   9.03615513
_cell_length_c   8.94031205
_cell_angle_alpha   59.18844354
_cell_angle_beta   59.09387686
_cell_angle_gamma   58.63956036
_symmetry_Int_Tables_number   1
_chemical_formula_structural   Li4Mn5Ni(PO4)6
_chemical_formula_sum   'Li4 Mn5 Ni1 P6 O24'
_cell_volume   473.88029369
_cell_formula_units_Z   1
loop_
 _symmetry_equiv_pos_site_id
 _symmetry_equiv_pos_as_xyz
  1  'x, y, z'
loop_
 _atom_site_type_symbol
 _atom_site_label
 _atom_site_symmetry_multiplicity
 _atom_site_fract_x
 _atom_site_fract_y
 _atom_site_fract_z
 _atom_site_occupancy
  Li  Li0  1  0.24355731  0.85923309  0.64687870  1
  Li  Li1  1  0.74180509  0.15252865  0.34118676  1
  Li  Li2  1  0.74172298  0.75833895  0.15382104  1
  Li  Li3  1  0.74276939  0.34921805  0.75972984  1
  Mn  Mn4  1  0.00248512  0.99796986  0.00732649  1
  Mn  Mn5  1  0.06301424  0.64616461  0.64726854  1
  Mn  Mn6  1  0.50063384  0.48985597  0.49913137  1
  Mn  Mn7  1  0.43961135  0.85651790  0.85123229  1
  Mn  Mn8  1  0.96444716  0.34033934  0.34681014  1
  Ni  Ni9  1  0.54992488  0.15059609  0.14700709  1
  P  P10  1  0.26021702  0.24783535  0.55162546  1
  P  P11  1  0.24831451  0.94263979  0.24817876  1
  P  P12  1  0.24510140  0.55579824  0.94572618  1
  P  P13  1  0.74916947  0.45981509  0.03866376  1
  P  P14  1  0.76147912  0.04784306  0.75074251  1
  P  P15  1  0.74021919  0.75227791  0.45938350  1
  O  O16  1  0.05673660  0.09630999  0.30345581  1
  O  O17  1  0.05559291  0.52835275  0.09728715  1
  O  O18  1  0.06350861  0.30919420  0.53322751  1
  O  O19  1  0.24488250  0.07712267  0.74096832  1
  O  O20  1  0.44100783  0.18864661  0.39196162  1
  O  O21  1  0.28115564  0.39288400  0.57561388  1
  O  O22  1  0.23898783  0.91982335  0.09188014  1
  O  O23  1  0.26190039  0.75410397  0.41666402  1
  O  O24  1  0.56618040  0.61554453  0.99450639  1
  O  O25  1  0.26519575  0.58001987  0.74714868  1
  O  O26  1  0.77045795  0.26824729  0.05633615  1
  O  O27  1  0.59131472  0.99388819  0.80971303  1
  O  O28  1  0.43598847  0.97093260  0.19618225  1
  O  O29  1  0.22375551  0.75045247  0.91805300  1
  O  O30  1  0.72399856  0.43696820  0.23484560  1
  O  O31  1  0.43420215  0.39983799  0.97392067  1
  O  O32  1  0.73048321  0.24490581  0.59995651  1
  O  O33  1  0.76771828  0.07060884  0.91160584  1
  O  O34  1  0.72702394  0.60252958  0.43116397  1
  O  O35  1  0.54627010  0.81358109  0.60922285  1
  O  O36  1  0.76787104  0.90964044  0.26536208  1
  O  O37  1  0.91642517  0.68911080  0.51161855  1
  O  O38  1  0.93481852  0.49847655  0.88596698  1
  O  O39  1  0.96004986  0.90484626  0.68562453  1
