# generated using pymatgen
data_YTcN3
_symmetry_space_group_name_H-M   'P 1'
_cell_length_a   3.99564844
_cell_length_b   4.06644128
_cell_length_c   4.19809559
_cell_angle_alpha   90.00000000
_cell_angle_beta   61.58280350
_cell_angle_gamma   90.00000000
_symmetry_Int_Tables_number   1
_chemical_formula_structural   YTcN3
_chemical_formula_sum   'Y1 Tc1 N3'
_cell_volume   59.99192486
_cell_formula_units_Z   1
loop_
 _symmetry_equiv_pos_site_id
 _symmetry_equiv_pos_as_xyz
  1  'x, y, z'
loop_
 _atom_site_type_symbol
 _atom_site_label
 _atom_site_symmetry_multiplicity
 _atom_site_fract_x
 _atom_site_fract_y
 _atom_site_fract_z
 _atom_site_occupancy
  Y  Y0  1  0.83081734  0.50000000  0.33836533  1
  Tc  Tc1  1  0.52531304  0.00000000  0.94937393  1
  N  N2  1  0.41114947  0.00000000  0.51171274  1
  N  N3  1  0.07713778  0.00000000  0.51171274  1
  N  N4  1  0.51016237  0.50000000  0.97967526  1
