# generated using pymatgen
data_Li4Mn3Cr2Cu3O16
_symmetry_space_group_name_H-M   'P 1'
_cell_length_a   5.87330726
_cell_length_b   5.80479793
_cell_length_c   9.43740630
_cell_angle_alpha   90.02035636
_cell_angle_beta   88.64003731
_cell_angle_gamma   119.57706209
_symmetry_Int_Tables_number   1
_chemical_formula_structural   Li4Mn3Cr2Cu3O16
_chemical_formula_sum   'Li4 Mn3 Cr2 Cu3 O16'
_cell_volume   279.72342577
_cell_formula_units_Z   1
loop_
 _symmetry_equiv_pos_site_id
 _symmetry_equiv_pos_as_xyz
  1  'x, y, z'
loop_
 _atom_site_type_symbol
 _atom_site_label
 _atom_site_symmetry_multiplicity
 _atom_site_fract_x
 _atom_site_fract_y
 _atom_site_fract_z
 _atom_site_occupancy
  Li  Li0  1  0.33482771  0.66771273  0.89548541  1
  Li  Li1  1  0.00229808  0.00108338  0.99836831  1
  Li  Li2  1  0.00558316  0.00263453  0.49024258  1
  Li  Li3  1  0.67282938  0.33621849  0.39670345  1
  Mn  Mn4  1  0.65502845  0.82749838  0.21441065  1
  Mn  Mn5  1  0.83181408  0.66277885  0.71518116  1
  Mn  Mn6  1  0.83189265  0.16944126  0.71509010  1
  Cr  Cr7  1  0.33517358  0.66752343  0.48977304  1
  Cr  Cr8  1  0.66272748  0.33139825  0.98997745  1
  Cu  Cu9  1  0.16804543  0.82856889  0.21330820  1
  Cu  Cu10  1  0.16821926  0.33924461  0.21337390  1
  Cu  Cu11  1  0.33811068  0.16922485  0.71466533  1
  O  O12  1  0.15255499  0.83139129  0.59739800  1
  O  O13  1  0.04313825  0.52125880  0.34539104  1
  O  O14  1  0.33611899  0.66763363  0.11109758  1
  O  O15  1  0.99398163  0.99711470  0.30062363  1
  O  O16  1  0.99006429  0.99521841  0.81054648  1
  O  O17  1  0.15251415  0.32115199  0.59730347  1
  O  O18  1  0.49509237  0.96610124  0.34440158  1
  O  O19  1  0.49497508  0.52867333  0.34416537  1
  O  O20  1  0.32001036  0.16006847  0.09093873  1
  O  O21  1  0.67872247  0.83949009  0.60467335  1
  O  O22  1  0.52887255  0.48960746  0.84110658  1
  O  O23  1  0.52896884  0.03967190  0.84107261  1
  O  O24  1  0.67995858  0.34022015  0.60923497  1
  O  O25  1  0.81655421  0.66730461  0.09379537  1
  O  O26  1  0.96539487  0.48280396  0.83549315  1
  O  O27  1  0.81652544  0.14926430  0.09401850  1
