# generated using pymatgen
data_MgMoO3
_symmetry_space_group_name_H-M   'P 1'
_cell_length_a   5.27952784
_cell_length_b   5.40317259
_cell_length_c   7.85049286
_cell_angle_alpha   89.91059441
_cell_angle_beta   89.99847463
_cell_angle_gamma   89.99759912
_symmetry_Int_Tables_number   1
_chemical_formula_structural   MgMoO3
_chemical_formula_sum   'Mg4 Mo4 O12'
_cell_volume   223.94445746
_cell_formula_units_Z   4
loop_
 _symmetry_equiv_pos_site_id
 _symmetry_equiv_pos_as_xyz
  1  'x, y, z'
loop_
 _atom_site_type_symbol
 _atom_site_label
 _atom_site_symmetry_multiplicity
 _atom_site_fract_x
 _atom_site_fract_y
 _atom_site_fract_z
 _atom_site_occupancy
  Mg  Mg0  1  0.00973214  0.03646571  0.24965865  1
  Mg  Mg1  1  0.50988556  0.46358513  0.75023443  1
  Mg  Mg2  1  0.49011349  0.53641278  0.24976346  1
  Mg  Mg3  1  0.99027047  0.96354059  0.75034043  1
  Mo  Mo4  1  0.49999362  0.00000800  -0.00000399  1
  Mo  Mo5  1  -0.00000002  0.49999659  -0.00000295  1
  Mo  Mo6  1  0.99999928  0.50000016  0.50000233  1
  Mo  Mo7  1  0.50000095  0.00000112  0.50000144  1
  O  O8  1  0.87331031  0.59134616  0.74998199  1
  O  O9  1  0.37320852  0.90865798  0.25000571  1
  O  O10  1  0.62679040  0.09134065  0.74999541  1
  O  O11  1  0.12669044  0.40865621  0.25001856  1
  O  O12  1  0.66708864  0.32027238  0.42988130  1
  O  O13  1  0.16712457  0.17976065  0.57020918  1
  O  O14  1  0.83302161  0.82146565  0.06939720  1
  O  O15  1  0.33299959  0.67854807  0.93051396  1
  O  O16  1  0.66700364  0.32144892  0.06948684  1
  O  O17  1  0.16698273  0.17852799  0.93060708  1
  O  O18  1  0.33291027  0.67972650  0.57011771  1
  O  O19  1  0.83287377  0.82024077  0.42978924  1
