# generated using pymatgen
data_MoO3
_symmetry_space_group_name_H-M   'P 1'
_cell_length_a   5.29272317
_cell_length_b   5.38929846
_cell_length_c   7.54842889
_cell_angle_alpha   90.06867278
_cell_angle_beta   90.00374525
_cell_angle_gamma   90.00261106
_symmetry_Int_Tables_number   1
_chemical_formula_structural   MoO3
_chemical_formula_sum   'Mo4 O12'
_cell_volume   215.31171970
_cell_formula_units_Z   4
loop_
 _symmetry_equiv_pos_site_id
 _symmetry_equiv_pos_as_xyz
  1  'x, y, z'
loop_
 _atom_site_type_symbol
 _atom_site_label
 _atom_site_symmetry_multiplicity
 _atom_site_fract_x
 _atom_site_fract_y
 _atom_site_fract_z
 _atom_site_occupancy
  Mo  Mo0  1  0.50000000  0.00000000  0.00000000  1
  Mo  Mo1  1  0.00000000  0.50000000  0.00000000  1
  Mo  Mo2  1  0.00000000  0.50000000  0.50000000  1
  Mo  Mo3  1  0.50000000  0.00000000  0.50000000  1
  O  O4  1  0.71537151  0.28413930  0.46368130  1
  O  O5  1  0.21530812  0.21594528  0.53632673  1
  O  O6  1  0.78771433  0.78535487  0.03587996  1
  O  O7  1  0.28783543  0.71477489  0.96414578  1
  O  O8  1  0.28462849  0.71586070  0.53631870  1
  O  O9  1  0.78469188  0.78405472  0.46367327  1
  O  O10  1  0.21228567  0.21464513  0.96412004  1
  O  O11  1  0.71216457  0.28522511  0.03585422  1
  O  O12  1  0.07164079  0.49123333  0.24998913  1
  O  O13  1  0.57167428  0.00874023  0.75002249  1
  O  O14  1  0.42832572  0.99125977  0.24997751  1
  O  O15  1  0.92835921  0.50876667  0.75001087  1
