# generated using pymatgen
data_Ca(CoO2)2
_symmetry_space_group_name_H-M   'P 1'
_cell_length_a   5.13315539
_cell_length_b   5.92738713
_cell_length_c   11.04727199
_cell_angle_alpha   90.00691771
_cell_angle_beta   90.00012494
_cell_angle_gamma   90.01590846
_symmetry_Int_Tables_number   1
_chemical_formula_structural   Ca(CoO2)2
_chemical_formula_sum   'Ca4 Co8 O16'
_cell_volume   336.12648258
_cell_formula_units_Z   4
loop_
 _symmetry_equiv_pos_site_id
 _symmetry_equiv_pos_as_xyz
  1  'x, y, z'
loop_
 _atom_site_type_symbol
 _atom_site_label
 _atom_site_symmetry_multiplicity
 _atom_site_fract_x
 _atom_site_fract_y
 _atom_site_fract_z
 _atom_site_occupancy
  Ca  Ca0  1  0.85277408  0.25000337  0.74997958  1
  Ca  Ca1  1  0.14721198  0.74999370  0.25002151  1
  Ca  Ca2  1  0.53024017  0.25001718  0.25000372  1
  Ca  Ca3  1  0.46975822  0.74998623  0.74999802  1
  Co  Co4  1  0.51040649  0.75000329  0.48790872  1
  Co  Co5  1  0.51032543  0.75000469  0.01207216  1
  Co  Co6  1  0.48958252  0.24999933  0.51209058  1
  Co  Co7  1  0.48969308  0.24999530  0.98792755  1
  Co  Co8  1  0.99999891  0.49999813  0.49999999  1
  Co  Co9  1  0.00000833  0.00000060  0.99999973  1
  Co  Co10  1  0.99999077  0.00000169  0.50000034  1
  Co  Co11  1  0.00000770  0.49999885  0.99999947  1
  O  O12  1  0.83361770  0.75003730  0.40231741  1
  O  O13  1  0.83381443  0.75011281  0.09761084  1
  O  O14  1  0.16636293  0.24996231  0.59768440  1
  O  O15  1  0.16620373  0.24988627  0.90238910  1
  O  O16  1  0.16990196  0.74993110  0.58926610  1
  O  O17  1  0.17001584  0.74985677  0.91072351  1
  O  O18  1  0.83009653  0.25006930  0.41073241  1
  O  O19  1  0.82998967  0.25014367  0.08927543  1
  O  O20  1  0.66375673  0.50176252  0.60440866  1
  O  O21  1  0.66374830  0.99828158  0.89558999  1
  O  O22  1  0.33623878  0.00173452  0.39558158  1
  O  O23  1  0.33628721  0.49829352  0.10440796  1
  O  O24  1  0.33622704  0.49823149  0.39558825  1
  O  O25  1  0.33626455  0.00172119  0.10441047  1
  O  O26  1  0.66375068  0.99826986  0.60442194  1
  O  O27  1  0.66372623  0.50170345  0.89559057  1
