# generated using pymatgen
data_Ca3Si3(BiO6)2
_symmetry_space_group_name_H-M   'P 1'
_cell_length_a   11.11820526
_cell_length_b   11.11820559
_cell_length_c   11.11820519
_cell_angle_alpha   109.47122197
_cell_angle_beta   109.47122260
_cell_angle_gamma   109.47121806
_symmetry_Int_Tables_number   1
_chemical_formula_structural   Ca3Si3(BiO6)2
_chemical_formula_sum   'Ca12 Si12 Bi8 O48'
_cell_volume   1057.99149870
_cell_formula_units_Z   4
loop_
 _symmetry_equiv_pos_site_id
 _symmetry_equiv_pos_as_xyz
  1  'x, y, z'
loop_
 _atom_site_type_symbol
 _atom_site_label
 _atom_site_symmetry_multiplicity
 _atom_site_fract_x
 _atom_site_fract_y
 _atom_site_fract_z
 _atom_site_occupancy
  Ca  Ca0  1  0.37500000  0.75000000  0.12500000  1
  Ca  Ca1  1  0.12500000  0.25000000  0.37500000  1
  Ca  Ca2  1  0.37500000  0.12500000  0.25000000  1
  Ca  Ca3  1  0.12500000  0.37500000  0.75000000  1
  Ca  Ca4  1  0.87500000  0.75000000  0.62500000  1
  Ca  Ca5  1  0.75000000  0.12500000  0.37500000  1
  Ca  Ca6  1  0.75000000  0.62500000  0.87500000  1
  Ca  Ca7  1  0.62500000  0.25000000  0.87500000  1
  Ca  Ca8  1  0.25000000  0.87500000  0.62500000  1
  Ca  Ca9  1  0.87500000  0.62500000  0.25000000  1
  Ca  Ca10  1  0.62500000  0.87500000  0.75000000  1
  Ca  Ca11  1  0.25000000  0.37500000  0.12500000  1
  Si  Si12  1  0.25000000  0.12500000  0.87500000  1
  Si  Si13  1  0.75000000  0.87500000  0.12500000  1
  Si  Si14  1  0.37500000  0.25000000  0.62500000  1
  Si  Si15  1  0.62500000  0.37500000  0.25000000  1
  Si  Si16  1  0.12500000  0.75000000  0.87500000  1
  Si  Si17  1  0.87500000  0.12500000  0.75000000  1
  Si  Si18  1  0.75000000  0.37500000  0.62500000  1
  Si  Si19  1  0.37500000  0.62500000  0.75000000  1
  Si  Si20  1  0.12500000  0.87500000  0.25000000  1
  Si  Si21  1  0.87500000  0.25000000  0.12500000  1
  Si  Si22  1  0.62500000  0.75000000  0.37500000  1
  Si  Si23  1  0.25000000  0.62500000  0.37500000  1
  Bi  Bi24  1  0.00000000  0.00000000  0.00000000  1
  Bi  Bi25  1  0.00000000  0.50000000  0.00000000  1
  Bi  Bi26  1  0.00000000  0.00000000  0.50000000  1
  Bi  Bi27  1  0.00000000  0.50000000  0.50000000  1
  Bi  Bi28  1  0.50000000  0.00000000  0.50000000  1
  Bi  Bi29  1  0.50000000  0.50000000  0.00000000  1
  Bi  Bi30  1  0.50000000  0.50000000  0.50000000  1
  Bi  Bi31  1  0.50000000  0.00000000  0.00000000  1
  O  O32  1  0.27314961  0.48355828  0.37322643  1
  O  O33  1  0.01644172  0.28959134  0.88966816  1
  O  O34  1  0.12677357  0.61033184  0.89992318  1
  O  O35  1  0.22685039  0.60007682  0.21040866  1
  O  O36  1  0.22685039  0.12677357  0.01644172  1
  O  O37  1  0.60007682  0.21040866  0.22685039  1
  O  O38  1  0.61033184  0.21040866  0.48355828  1
  O  O39  1  0.21040866  0.22685039  0.60007682  1
  O  O40  1  0.88966816  0.37322643  0.60007682  1
  O  O41  1  0.28959134  0.89992318  0.27314961  1
  O  O42  1  0.89992318  0.27314961  0.28959134  1
  O  O43  1  0.01644172  0.22685039  0.12677357  1
  O  O44  1  0.21040866  0.48355828  0.61033184  1
  O  O45  1  0.60007682  0.88966816  0.37322643  1
  O  O46  1  0.12677357  0.01644172  0.22685039  1
  O  O47  1  0.48355828  0.61033184  0.21040866  1
  O  O48  1  0.37322643  0.60007682  0.88966816  1
  O  O49  1  0.88966816  0.01644172  0.28959134  1
  O  O50  1  0.61033184  0.89992318  0.12677357  1
  O  O51  1  0.11033184  0.62677357  0.39992318  1
  O  O52  1  0.89992318  0.12677357  0.61033184  1
  O  O53  1  0.37322643  0.27314961  0.48355828  1
  O  O54  1  0.28959134  0.88966816  0.01644172  1
  O  O55  1  0.27314961  0.28959134  0.89992318  1
  O  O56  1  0.72685039  0.51644172  0.62677357  1
  O  O57  1  0.98355828  0.71040866  0.11033184  1
  O  O58  1  0.87322643  0.38966816  0.10007682  1
  O  O59  1  0.77314961  0.39992318  0.78959134  1
  O  O60  1  0.77314961  0.87322643  0.98355828  1
  O  O61  1  0.39992318  0.78959134  0.77314961  1
  O  O62  1  0.38966816  0.78959134  0.51644172  1
  O  O63  1  0.78959134  0.77314961  0.39992318  1
  O  O64  1  0.72685039  0.71040866  0.10007682  1
  O  O65  1  0.71040866  0.11033184  0.98355828  1
  O  O66  1  0.62677357  0.72685039  0.51644172  1
  O  O67  1  0.51644172  0.62677357  0.72685039  1
  O  O68  1  0.10007682  0.87322643  0.38966816  1
  O  O69  1  0.38966816  0.10007682  0.87322643  1
  O  O70  1  0.11033184  0.98355828  0.71040866  1
  O  O71  1  0.62677357  0.39992318  0.11033184  1
  O  O72  1  0.51644172  0.38966816  0.78959134  1
  O  O73  1  0.87322643  0.98355828  0.77314961  1
  O  O74  1  0.39992318  0.11033184  0.62677357  1
  O  O75  1  0.78959134  0.51644172  0.38966816  1
  O  O76  1  0.98355828  0.77314961  0.87322643  1
  O  O77  1  0.10007682  0.72685039  0.71040866  1
  O  O78  1  0.71040866  0.10007682  0.72685039  1
  O  O79  1  0.48355828  0.37322643  0.27314961  1
