# generated using pymatgen
data_Ca3Ti2(GeO4)3
_symmetry_space_group_name_H-M   'P 1'
_cell_length_a   10.85736029
_cell_length_b   10.85735970
_cell_length_c   10.85735985
_cell_angle_alpha   109.47122091
_cell_angle_beta   109.47121982
_cell_angle_gamma   109.47121991
_symmetry_Int_Tables_number   1
_chemical_formula_structural   Ca3Ti2(GeO4)3
_chemical_formula_sum   'Ca12 Ti8 Ge12 O48'
_cell_volume   985.25993759
_cell_formula_units_Z   4
loop_
 _symmetry_equiv_pos_site_id
 _symmetry_equiv_pos_as_xyz
  1  'x, y, z'
loop_
 _atom_site_type_symbol
 _atom_site_label
 _atom_site_symmetry_multiplicity
 _atom_site_fract_x
 _atom_site_fract_y
 _atom_site_fract_z
 _atom_site_occupancy
  Ca  Ca0  1  0.62500000  0.25000000  0.87500000  1
  Ca  Ca1  1  0.87500000  0.75000000  0.62500000  1
  Ca  Ca2  1  0.75000000  0.62500000  0.87500000  1
  Ca  Ca3  1  0.25000000  0.87500000  0.62500000  1
  Ca  Ca4  1  0.87500000  0.62500000  0.25000000  1
  Ca  Ca5  1  0.62500000  0.87500000  0.75000000  1
  Ca  Ca6  1  0.37500000  0.75000000  0.12500000  1
  Ca  Ca7  1  0.12500000  0.25000000  0.37500000  1
  Ca  Ca8  1  0.25000000  0.37500000  0.12500000  1
  Ca  Ca9  1  0.75000000  0.12500000  0.37500000  1
  Ca  Ca10  1  0.12500000  0.37500000  0.75000000  1
  Ca  Ca11  1  0.37500000  0.12500000  0.25000000  1
  Ti  Ti12  1  0.50000000  0.50000000  0.50000000  1
  Ti  Ti13  1  0.50000000  0.50000000  0.00000000  1
  Ti  Ti14  1  0.50000000  0.00000000  0.50000000  1
  Ti  Ti15  1  0.00000000  0.50000000  0.50000000  1
  Ti  Ti16  1  0.50000000  0.00000000  0.00000000  1
  Ti  Ti17  1  0.00000000  0.00000000  0.50000000  1
  Ti  Ti18  1  0.00000000  0.50000000  0.00000000  1
  Ti  Ti19  1  0.00000000  0.00000000  0.00000000  1
  Ge  Ge20  1  0.87500000  0.12500000  0.75000000  1
  Ge  Ge21  1  0.12500000  0.87500000  0.25000000  1
  Ge  Ge22  1  0.25000000  0.62500000  0.37500000  1
  Ge  Ge23  1  0.12500000  0.75000000  0.87500000  1
  Ge  Ge24  1  0.75000000  0.87500000  0.12500000  1
  Ge  Ge25  1  0.37500000  0.25000000  0.62500000  1
  Ge  Ge26  1  0.62500000  0.75000000  0.37500000  1
  Ge  Ge27  1  0.87500000  0.25000000  0.12500000  1
  Ge  Ge28  1  0.25000000  0.12500000  0.87500000  1
  Ge  Ge29  1  0.75000000  0.37500000  0.62500000  1
  Ge  Ge30  1  0.37500000  0.62500000  0.75000000  1
  Ge  Ge31  1  0.62500000  0.37500000  0.25000000  1
  O  O32  1  0.79725850  0.41573245  0.81444385  1
  O  O33  1  0.08426755  0.88152605  0.39871141  1
  O  O34  1  0.68555615  0.10128859  0.98281364  1
  O  O35  1  0.70274150  0.51718636  0.61847395  1
  O  O36  1  0.70274150  0.68555615  0.08426755  1
  O  O37  1  0.51718636  0.61847395  0.70274150  1
  O  O38  1  0.10128859  0.61847395  0.41573245  1
  O  O39  1  0.61847395  0.70274150  0.51718636  1
  O  O40  1  0.39871141  0.81444385  0.51718636  1
  O  O41  1  0.88152605  0.98281364  0.79725850  1
  O  O42  1  0.98281364  0.79725850  0.88152605  1
  O  O43  1  0.08426755  0.70274150  0.68555615  1
  O  O44  1  0.61847395  0.41573245  0.10128859  1
  O  O45  1  0.51718636  0.39871141  0.81444385  1
  O  O46  1  0.68555615  0.08426755  0.70274150  1
  O  O47  1  0.41573245  0.10128859  0.61847395  1
  O  O48  1  0.81444385  0.51718636  0.39871141  1
  O  O49  1  0.39871141  0.08426755  0.88152605  1
  O  O50  1  0.10128859  0.98281364  0.68555615  1
  O  O51  1  0.60128859  0.18555615  0.48281364  1
  O  O52  1  0.98281364  0.68555615  0.10128859  1
  O  O53  1  0.81444385  0.79725850  0.41573245  1
  O  O54  1  0.88152605  0.39871141  0.08426755  1
  O  O55  1  0.79725850  0.88152605  0.98281364  1
  O  O56  1  0.20274150  0.58426755  0.18555615  1
  O  O57  1  0.91573245  0.11847395  0.60128859  1
  O  O58  1  0.31444385  0.89871141  0.01718636  1
  O  O59  1  0.29725850  0.48281364  0.38152605  1
  O  O60  1  0.29725850  0.31444385  0.91573245  1
  O  O61  1  0.48281364  0.38152605  0.29725850  1
  O  O62  1  0.89871141  0.38152605  0.58426755  1
  O  O63  1  0.38152605  0.29725850  0.48281364  1
  O  O64  1  0.20274150  0.11847395  0.01718636  1
  O  O65  1  0.11847395  0.60128859  0.91573245  1
  O  O66  1  0.18555615  0.20274150  0.58426755  1
  O  O67  1  0.58426755  0.18555615  0.20274150  1
  O  O68  1  0.01718636  0.31444385  0.89871141  1
  O  O69  1  0.89871141  0.01718636  0.31444385  1
  O  O70  1  0.60128859  0.91573245  0.11847395  1
  O  O71  1  0.18555615  0.48281364  0.60128859  1
  O  O72  1  0.58426755  0.89871141  0.38152605  1
  O  O73  1  0.31444385  0.91573245  0.29725850  1
  O  O74  1  0.48281364  0.60128859  0.18555615  1
  O  O75  1  0.38152605  0.58426755  0.89871141  1
  O  O76  1  0.91573245  0.29725850  0.31444385  1
  O  O77  1  0.01718636  0.20274150  0.11847395  1
  O  O78  1  0.11847395  0.01718636  0.20274150  1
  O  O79  1  0.41573245  0.81444385  0.79725850  1
