# generated using pymatgen
data_MgMoF5
_symmetry_space_group_name_H-M   'P 1'
_cell_length_a   5.30027831
_cell_length_b   7.87063712
_cell_length_c   10.25154676
_cell_angle_alpha   90.00004571
_cell_angle_beta   89.99997635
_cell_angle_gamma   108.33860584
_symmetry_Int_Tables_number   1
_chemical_formula_structural   MgMoF5
_chemical_formula_sum   'Mg4 Mo4 F20'
_cell_volume   405.94010179
_cell_formula_units_Z   4
loop_
 _symmetry_equiv_pos_site_id
 _symmetry_equiv_pos_as_xyz
  1  'x, y, z'
loop_
 _atom_site_type_symbol
 _atom_site_label
 _atom_site_symmetry_multiplicity
 _atom_site_fract_x
 _atom_site_fract_y
 _atom_site_fract_z
 _atom_site_occupancy
  Mg  Mg0  1  0.49069594  0.78460374  0.00191924  1
  Mg  Mg1  1  0.50930574  0.71539448  0.50191948  1
  Mg  Mg2  1  0.50930406  0.21539626  0.99808076  1
  Mg  Mg3  1  0.49069426  0.28460552  0.49808052  1
  Mo  Mo4  1  0.90545013  0.62182280  0.75751301  1
  Mo  Mo5  1  0.09454982  0.87817720  0.25751295  1
  Mo  Mo6  1  0.09454987  0.37817720  0.24248699  1
  Mo  Mo7  1  0.90545018  0.12182280  0.74248705  1
  F  F8  1  0.60155811  0.61422761  0.89087112  1
  F  F9  1  0.39844191  0.88577243  0.39087104  1
  F  F10  1  0.39844189  0.38577239  0.10912888  1
  F  F11  1  0.60155809  0.11422757  0.60912896  1
  F  F12  1  0.64536484  0.51186298  0.60083646  1
  F  F13  1  0.35463592  0.98813704  0.10083614  1
  F  F14  1  0.35463516  0.48813702  0.39916354  1
  F  F15  1  0.64536408  0.01186296  0.89916386  1
  F  F16  1  0.84305886  0.77317060  0.41076647  1
  F  F17  1  0.15694090  0.72682941  0.91076643  1
  F  F18  1  0.15694114  0.22682940  0.58923353  1
  F  F19  1  0.84305910  0.27317059  0.08923357  1
  F  F20  1  0.76579256  0.83913351  0.13355211  1
  F  F21  1  0.23420773  0.66086648  0.63355176  1
  F  F22  1  0.23420744  0.16086649  0.86644789  1
  F  F23  1  0.76579227  0.33913352  0.36644824  1
  F  F24  1  0.85809323  0.85825339  0.67495927  1
  F  F25  1  0.14190682  0.64174670  0.17495902  1
  F  F26  1  0.14190677  0.14174661  0.32504073  1
  F  F27  1  0.85809318  0.35825330  0.82504098  1
