# generated using pymatgen
data_ZnSbF6
_symmetry_space_group_name_H-M   'P 1'
_cell_length_a   5.71605446
_cell_length_b   5.71605381
_cell_length_c   5.71605345
_cell_angle_alpha   58.07273903
_cell_angle_beta   58.07273737
_cell_angle_gamma   58.07274281
_symmetry_Int_Tables_number   1
_chemical_formula_structural   ZnSbF6
_chemical_formula_sum   'Zn1 Sb1 F6'
_cell_volume   126.22480697
_cell_formula_units_Z   1
loop_
 _symmetry_equiv_pos_site_id
 _symmetry_equiv_pos_as_xyz
  1  'x, y, z'
loop_
 _atom_site_type_symbol
 _atom_site_label
 _atom_site_symmetry_multiplicity
 _atom_site_fract_x
 _atom_site_fract_y
 _atom_site_fract_z
 _atom_site_occupancy
  Zn  Zn0  1  0.50000000  0.50000000  0.50000000  1
  Sb  Sb1  1  0.00000000  0.00000000  0.00000000  1
  F  F2  1  0.34158288  0.15822595  0.75152851  1
  F  F3  1  0.15822595  0.75152851  0.34158288  1
  F  F4  1  0.24847149  0.65841712  0.84177405  1
  F  F5  1  0.84177405  0.24847149  0.65841712  1
  F  F6  1  0.65841712  0.84177405  0.24847149  1
  F  F7  1  0.75152851  0.34158288  0.15822595  1
