# generated using pymatgen
data_Ca(TiS2)4
_symmetry_space_group_name_H-M   'P 1'
_cell_length_a   7.13213705
_cell_length_b   7.25914227
_cell_length_c   7.25914312
_cell_angle_alpha   60.00000104
_cell_angle_beta   59.40916124
_cell_angle_gamma   59.40915547
_symmetry_Int_Tables_number   1
_chemical_formula_structural   Ca(TiS2)4
_chemical_formula_sum   'Ca1 Ti4 S8'
_cell_volume   263.35318150
_cell_formula_units_Z   1
loop_
 _symmetry_equiv_pos_site_id
 _symmetry_equiv_pos_as_xyz
  1  'x, y, z'
loop_
 _atom_site_type_symbol
 _atom_site_label
 _atom_site_symmetry_multiplicity
 _atom_site_fract_x
 _atom_site_fract_y
 _atom_site_fract_z
 _atom_site_occupancy
  Ca  Ca0  1  0.50000000  0.00000000  0.00000000  1
  Ti  Ti1  1  0.00000000  0.50000000  0.50000000  1
  Ti  Ti2  1  0.50000000  0.50000000  0.00000000  1
  Ti  Ti3  1  0.50000000  0.50000000  0.50000000  1
  Ti  Ti4  1  0.50000000  0.00000000  0.50000000  1
  S  S5  1  0.24907590  0.26202679  0.26202679  1
  S  S6  1  0.24907590  0.26202679  0.72687052  1
  S  S7  1  0.24907590  0.72687052  0.26202679  1
  S  S8  1  0.72785494  0.25738135  0.25738135  1
  S  S9  1  0.27214506  0.74261865  0.74261865  1
  S  S10  1  0.75092410  0.73797321  0.27312948  1
  S  S11  1  0.75092410  0.27312948  0.73797321  1
  S  S12  1  0.75092410  0.73797321  0.73797321  1
