# generated using pymatgen
data_Mg(NiO2)2
_symmetry_space_group_name_H-M   'P 1'
_cell_length_a   2.89697326
_cell_length_b   8.65950582
_cell_length_c   10.18709183
_cell_angle_alpha   89.98184085
_cell_angle_beta   90.00006327
_cell_angle_gamma   90.00008033
_symmetry_Int_Tables_number   1
_chemical_formula_structural   Mg(NiO2)2
_chemical_formula_sum   'Mg4 Ni8 O16'
_cell_volume   255.55700753
_cell_formula_units_Z   4
loop_
 _symmetry_equiv_pos_site_id
 _symmetry_equiv_pos_as_xyz
  1  'x, y, z'
loop_
 _atom_site_type_symbol
 _atom_site_label
 _atom_site_symmetry_multiplicity
 _atom_site_fract_x
 _atom_site_fract_y
 _atom_site_fract_z
 _atom_site_occupancy
  Mg  Mg0  1  0.74999962  0.24452101  0.33919905  1
  Mg  Mg1  1  0.25000000  0.75542792  0.66078393  1
  Mg  Mg2  1  0.74999946  0.74442233  0.16077080  1
  Mg  Mg3  1  0.25000017  0.25550128  0.83934824  1
  Ni  Ni4  1  0.24999921  0.41390933  0.09998452  1
  Ni  Ni5  1  0.74999883  0.08611186  0.59999552  1
  Ni  Ni6  1  0.24999921  0.91388593  0.39998473  1
  Ni  Ni7  1  0.74999941  0.58615797  0.89998955  1
  Ni  Ni8  1  0.75000040  0.56062497  0.38465284  1
  Ni  Ni9  1  0.24999883  0.43927224  0.61534355  1
  Ni  Ni10  1  0.74999932  0.06064444  0.11528850  1
  Ni  Ni11  1  0.24999827  0.93931977  0.88465112  1
  O  O12  1  0.24999965  0.90433189  0.07479725  1
  O  O13  1  0.74999914  0.09576970  0.92530809  1
  O  O14  1  0.24999892  0.40429714  0.42520588  1
  O  O15  1  0.75000042  0.59562835  0.57474083  1
  O  O16  1  0.24999928  0.02722182  0.71260269  1
  O  O17  1  0.74999908  0.97302715  0.28736456  1
  O  O18  1  0.24999929  0.52704198  0.78740497  1
  O  O19  1  0.74999976  0.47285710  0.21262778  1
  O  O20  1  0.25000032  0.62132749  0.03249285  1
  O  O21  1  0.74999965  0.37883918  0.96751924  1
  O  O22  1  0.25000014  0.12127827  0.46755066  1
  O  O23  1  0.74999945  0.87874828  0.53259022  1
  O  O24  1  0.75000021  0.78863502  0.82271718  1
  O  O25  1  0.24999863  0.21129177  0.17708078  1
  O  O26  1  0.24999925  0.71126117  0.32285037  1
  O  O27  1  0.75000006  0.28864365  0.67715431  1
