# generated using pymatgen
data_VZnSF5
_symmetry_space_group_name_H-M   'P 1'
_cell_length_a   8.43223760
_cell_length_b   7.62157459
_cell_length_c   12.04167121
_cell_angle_alpha   77.45897382
_cell_angle_beta   26.20508970
_cell_angle_gamma   88.69325814
_symmetry_Int_Tables_number   1
_chemical_formula_structural   VZnSF5
_chemical_formula_sum   'V2 Zn2 S2 F10'
_cell_volume   305.86848520
_cell_formula_units_Z   2
loop_
 _symmetry_equiv_pos_site_id
 _symmetry_equiv_pos_as_xyz
  1  'x, y, z'
loop_
 _atom_site_type_symbol
 _atom_site_label
 _atom_site_symmetry_multiplicity
 _atom_site_fract_x
 _atom_site_fract_y
 _atom_site_fract_z
 _atom_site_occupancy
  V  V0  1  0.49801294  0.49983388  0.50208406  1
  V  V1  1  0.49830924  -0.00045469  0.50267870  1
  Zn  Zn2  1  0.53295895  0.35296236  0.21094626  1
  Zn  Zn3  1  0.46286188  0.64425238  0.79411010  1
  S  S4  1  0.96587054  0.37063638  0.50415811  1
  S  S5  1  0.02688132  0.62290648  0.50293952  1
  F  F6  1  0.45644490  0.87954800  0.69121593  1
  F  F7  1  0.32736478  0.47803291  0.76610261  1
  F  F8  1  0.54385182  0.11963903  0.31185763  1
  F  F9  1  0.66766155  0.52073510  0.23883438  1
  F  F10  1  0.06502585  0.59404295  0.16743247  1
  F  F11  1  0.98083151  0.88113417  0.82334495  1
  F  F12  1  0.93095723  0.40520555  0.83705898  1
  F  F13  1  0.01763703  0.11893349  0.18127527  1
  F  F14  1  0.56100455  0.77991735  0.42202606  1
  F  F15  1  0.43701991  0.21993767  0.58192398  1
