# generated using pymatgen
data_Na3Ge3(MoO6)2
_symmetry_space_group_name_H-M   'P 1'
_cell_length_a   10.91243632
_cell_length_b   10.91243599
_cell_length_c   10.91243667
_cell_angle_alpha   109.47122000
_cell_angle_beta   109.47121939
_cell_angle_gamma   109.47121985
_symmetry_Int_Tables_number   1
_chemical_formula_structural   Na3Ge3(MoO6)2
_chemical_formula_sum   'Na12 Ge12 Mo8 O48'
_cell_volume   1000.32999548
_cell_formula_units_Z   4
loop_
 _symmetry_equiv_pos_site_id
 _symmetry_equiv_pos_as_xyz
  1  'x, y, z'
loop_
 _atom_site_type_symbol
 _atom_site_label
 _atom_site_symmetry_multiplicity
 _atom_site_fract_x
 _atom_site_fract_y
 _atom_site_fract_z
 _atom_site_occupancy
  Na  Na0  1  0.62500000  0.25000000  0.87500000  1
  Na  Na1  1  0.87500000  0.75000000  0.62500000  1
  Na  Na2  1  0.75000000  0.62500000  0.87500000  1
  Na  Na3  1  0.25000000  0.87500000  0.62500000  1
  Na  Na4  1  0.87500000  0.62500000  0.25000000  1
  Na  Na5  1  0.62500000  0.87500000  0.75000000  1
  Na  Na6  1  0.37500000  0.75000000  0.12500000  1
  Na  Na7  1  0.12500000  0.25000000  0.37500000  1
  Na  Na8  1  0.25000000  0.37500000  0.12500000  1
  Na  Na9  1  0.75000000  0.12500000  0.37500000  1
  Na  Na10  1  0.12500000  0.37500000  0.75000000  1
  Na  Na11  1  0.37500000  0.12500000  0.25000000  1
  Ge  Ge12  1  0.87500000  0.12500000  0.75000000  1
  Ge  Ge13  1  0.12500000  0.87500000  0.25000000  1
  Ge  Ge14  1  0.25000000  0.62500000  0.37500000  1
  Ge  Ge15  1  0.12500000  0.75000000  0.87500000  1
  Ge  Ge16  1  0.75000000  0.87500000  0.12500000  1
  Ge  Ge17  1  0.37500000  0.25000000  0.62500000  1
  Ge  Ge18  1  0.62500000  0.75000000  0.37500000  1
  Ge  Ge19  1  0.87500000  0.25000000  0.12500000  1
  Ge  Ge20  1  0.25000000  0.12500000  0.87500000  1
  Ge  Ge21  1  0.75000000  0.37500000  0.62500000  1
  Ge  Ge22  1  0.37500000  0.62500000  0.75000000  1
  Ge  Ge23  1  0.62500000  0.37500000  0.25000000  1
  Mo  Mo24  1  0.50000000  0.50000000  0.50000000  1
  Mo  Mo25  1  0.50000000  0.50000000  0.00000000  1
  Mo  Mo26  1  0.50000000  0.00000000  0.50000000  1
  Mo  Mo27  1  0.00000000  0.50000000  0.50000000  1
  Mo  Mo28  1  0.50000000  0.00000000  0.00000000  1
  Mo  Mo29  1  0.00000000  0.00000000  0.50000000  1
  Mo  Mo30  1  0.00000000  0.50000000  0.00000000  1
  Mo  Mo31  1  0.00000000  0.00000000  0.00000000  1
  O  O32  1  0.80459852  0.41955364  0.81415863  1
  O  O33  1  0.08044636  0.88504488  0.39460500  1
  O  O34  1  0.68584137  0.10539500  0.99043889  1
  O  O35  1  0.69540148  0.50956111  0.61495512  1
  O  O36  1  0.69540148  0.68584137  0.08044636  1
  O  O37  1  0.50956111  0.61495512  0.69540148  1
  O  O38  1  0.10539500  0.61495512  0.41955364  1
  O  O39  1  0.61495512  0.69540148  0.50956111  1
  O  O40  1  0.39460500  0.81415863  0.50956111  1
  O  O41  1  0.88504488  0.99043889  0.80459852  1
  O  O42  1  0.99043889  0.80459852  0.88504488  1
  O  O43  1  0.08044636  0.69540148  0.68584137  1
  O  O44  1  0.61495512  0.41955364  0.10539500  1
  O  O45  1  0.50956111  0.39460500  0.81415863  1
  O  O46  1  0.68584137  0.08044636  0.69540148  1
  O  O47  1  0.41955364  0.10539500  0.61495512  1
  O  O48  1  0.81415863  0.50956111  0.39460500  1
  O  O49  1  0.39460500  0.08044636  0.88504488  1
  O  O50  1  0.10539500  0.99043889  0.68584137  1
  O  O51  1  0.60539500  0.18584137  0.49043889  1
  O  O52  1  0.99043889  0.68584137  0.10539500  1
  O  O53  1  0.81415863  0.80459852  0.41955364  1
  O  O54  1  0.88504488  0.39460500  0.08044636  1
  O  O55  1  0.80459852  0.88504488  0.99043889  1
  O  O56  1  0.19540148  0.58044636  0.18584137  1
  O  O57  1  0.91955364  0.11495512  0.60539500  1
  O  O58  1  0.31415863  0.89460500  0.00956111  1
  O  O59  1  0.30459852  0.49043889  0.38504488  1
  O  O60  1  0.30459852  0.31415863  0.91955364  1
  O  O61  1  0.49043889  0.38504488  0.30459852  1
  O  O62  1  0.89460500  0.38504488  0.58044636  1
  O  O63  1  0.38504488  0.30459852  0.49043889  1
  O  O64  1  0.19540148  0.11495512  0.00956111  1
  O  O65  1  0.11495512  0.60539500  0.91955364  1
  O  O66  1  0.18584137  0.19540148  0.58044636  1
  O  O67  1  0.58044636  0.18584137  0.19540148  1
  O  O68  1  0.00956111  0.31415863  0.89460500  1
  O  O69  1  0.89460500  0.00956111  0.31415863  1
  O  O70  1  0.60539500  0.91955364  0.11495512  1
  O  O71  1  0.18584137  0.49043889  0.60539500  1
  O  O72  1  0.58044636  0.89460500  0.38504488  1
  O  O73  1  0.31415863  0.91955364  0.30459852  1
  O  O74  1  0.49043889  0.60539500  0.18584137  1
  O  O75  1  0.38504488  0.58044636  0.89460500  1
  O  O76  1  0.91955364  0.30459852  0.31415863  1
  O  O77  1  0.00956111  0.19540148  0.11495512  1
  O  O78  1  0.11495512  0.00956111  0.19540148  1
  O  O79  1  0.41955364  0.81415863  0.80459852  1
