# generated using pymatgen
data_Al2Cr3(SiO4)3
_symmetry_space_group_name_H-M   'P 1'
_cell_length_a   10.17751235
_cell_length_b   10.17751194
_cell_length_c   10.17751205
_cell_angle_alpha   109.47122088
_cell_angle_beta   109.47122005
_cell_angle_gamma   109.47122204
_symmetry_Int_Tables_number   1
_chemical_formula_structural   Al2Cr3(SiO4)3
_chemical_formula_sum   'Al8 Cr12 Si12 O48'
_cell_volume   811.52702556
_cell_formula_units_Z   4
loop_
 _symmetry_equiv_pos_site_id
 _symmetry_equiv_pos_as_xyz
  1  'x, y, z'
loop_
 _atom_site_type_symbol
 _atom_site_label
 _atom_site_symmetry_multiplicity
 _atom_site_fract_x
 _atom_site_fract_y
 _atom_site_fract_z
 _atom_site_occupancy
  Al  Al0  1  0.50000000  0.00000000  0.00000000  1
  Al  Al1  1  0.00000000  0.00000000  0.00000000  1
  Al  Al2  1  0.00000000  0.50000000  0.00000000  1
  Al  Al3  1  0.00000000  0.00000000  0.50000000  1
  Al  Al4  1  0.00000000  0.50000000  0.50000100  1
  Al  Al5  1  0.50000000  0.00000000  0.50000100  1
  Al  Al6  1  0.50000000  0.50000000  0.00000000  1
  Al  Al7  1  0.50000000  0.50000000  0.50000000  1
  Cr  Cr8  1  0.25000000  0.87500100  0.62500000  1
  Cr  Cr9  1  0.87500000  0.62500000  0.25000000  1
  Cr  Cr10  1  0.62500100  0.87500100  0.75000100  1
  Cr  Cr11  1  0.87500100  0.75000100  0.62500100  1
  Cr  Cr12  1  0.62500000  0.25000000  0.87500000  1
  Cr  Cr13  1  0.75000000  0.62500000  0.87500000  1
  Cr  Cr14  1  0.75000000  0.12500000  0.37500000  1
  Cr  Cr15  1  0.12500000  0.37500000  0.75000000  1
  Cr  Cr16  1  0.37500000  0.12500000  0.25000000  1
  Cr  Cr17  1  0.12500000  0.25000000  0.37500000  1
  Cr  Cr18  1  0.37500000  0.75000100  0.12500000  1
  Cr  Cr19  1  0.25000000  0.37500000  0.12500000  1
  Si  Si20  1  0.25000000  0.12500000  0.87500000  1
  Si  Si21  1  0.87500000  0.25000000  0.12500000  1
  Si  Si22  1  0.62500000  0.75000100  0.37500000  1
  Si  Si23  1  0.25000000  0.62500000  0.37500100  1
  Si  Si24  1  0.37500000  0.62500000  0.75000000  1
  Si  Si25  1  0.75000000  0.37500000  0.62500000  1
  Si  Si26  1  0.87500000  0.12500000  0.75000000  1
  Si  Si27  1  0.12500000  0.75000100  0.87500000  1
  Si  Si28  1  0.12500000  0.87500100  0.25000000  1
  Si  Si29  1  0.62500000  0.37500000  0.25000000  1
  Si  Si30  1  0.37500000  0.25000000  0.62500000  1
  Si  Si31  1  0.75000000  0.87500100  0.12500000  1
  O  O32  1  0.30235457  0.48822845  0.37920798  1
  O  O33  1  0.01177155  0.31412611  0.89097952  1
  O  O34  1  0.12079202  0.60902048  0.92314659  1
  O  O35  1  0.19764443  0.57685341  0.18587389  1
  O  O36  1  0.19764443  0.12079102  0.01177055  1
  O  O37  1  0.57685241  0.18587289  0.19764443  1
  O  O38  1  0.60901948  0.18587289  0.48822845  1
  O  O39  1  0.18587389  0.19764443  0.57685441  1
  O  O40  1  0.89098052  0.37920798  0.57685341  1
  O  O41  1  0.31412711  0.92314659  0.30235557  1
  O  O42  1  0.92314659  0.30235557  0.31412711  1
  O  O43  1  0.01177155  0.19764443  0.12079102  1
  O  O44  1  0.18587389  0.48822845  0.60902048  1
  O  O45  1  0.57685341  0.89098052  0.37920898  1
  O  O46  1  0.12079102  0.01177055  0.19764443  1
  O  O47  1  0.48822845  0.60902048  0.18587289  1
  O  O48  1  0.37920798  0.57685341  0.89097952  1
  O  O49  1  0.89097952  0.01177055  0.31412611  1
  O  O50  1  0.60901948  0.92314659  0.12079202  1
  O  O51  1  0.10901948  0.62079102  0.42314659  1
  O  O52  1  0.48822845  0.37920798  0.30235457  1
  O  O53  1  0.37920798  0.30235557  0.48822845  1
  O  O54  1  0.31412711  0.89098052  0.01177155  1
  O  O55  1  0.30235457  0.31412611  0.92314559  1
  O  O56  1  0.69764443  0.51177055  0.62079202  1
  O  O57  1  0.98822845  0.68587289  0.10901948  1
  O  O58  1  0.87920898  0.39098052  0.07685341  1
  O  O59  1  0.80235557  0.42314659  0.81412711  1
  O  O60  1  0.80235457  0.87920898  0.98822945  1
  O  O61  1  0.42314659  0.81412611  0.80235457  1
  O  O62  1  0.39098052  0.81412611  0.51177055  1
  O  O63  1  0.81412711  0.80235557  0.42314659  1
  O  O64  1  0.69764443  0.68587289  0.07685341  1
  O  O65  1  0.68587389  0.10902048  0.98822845  1
  O  O66  1  0.62079102  0.69764543  0.51177155  1
  O  O67  1  0.51177155  0.62079102  0.69764443  1
  O  O68  1  0.07685341  0.87920898  0.39097952  1
  O  O69  1  0.39097952  0.07685241  0.87920798  1
  O  O70  1  0.10902048  0.98822845  0.68587289  1
  O  O71  1  0.62079202  0.42314659  0.10901948  1
  O  O72  1  0.51177155  0.39098052  0.81412711  1
  O  O73  1  0.87920898  0.98822845  0.80235557  1
  O  O74  1  0.42314759  0.10902048  0.62079202  1
  O  O75  1  0.81412611  0.51177055  0.39098052  1
  O  O76  1  0.98822845  0.80235557  0.87920898  1
  O  O77  1  0.07685441  0.69764543  0.68587389  1
  O  O78  1  0.68587289  0.07685241  0.69764443  1
  O  O79  1  0.92314659  0.12079102  0.60901948  1
