# generated using pymatgen
data_Li3Mn4O8
_symmetry_space_group_name_H-M   'P 1'
_cell_length_a   5.73872272
_cell_length_b   5.90672217
_cell_length_c   10.01943497
_cell_angle_alpha   84.72689094
_cell_angle_beta   89.99862679
_cell_angle_gamma   60.93458310
_symmetry_Int_Tables_number   1
_chemical_formula_structural   Li3Mn4O8
_chemical_formula_sum   'Li6 Mn8 O16'
_cell_volume   295.21311736
_cell_formula_units_Z   2
loop_
 _symmetry_equiv_pos_site_id
 _symmetry_equiv_pos_as_xyz
  1  'x, y, z'
loop_
 _atom_site_type_symbol
 _atom_site_label
 _atom_site_symmetry_multiplicity
 _atom_site_fract_x
 _atom_site_fract_y
 _atom_site_fract_z
 _atom_site_occupancy
  Li  Li0  1  0.48192150  0.49951501  0.00000469  1
  Li  Li1  1  0.51808834  0.50049102  0.49989273  1
  Li  Li2  1  0.01844441  0.49952363  0.00004041  1
  Li  Li3  1  0.98149558  0.50053869  0.49993738  1
  Li  Li4  1  0.50009547  0.00000311  0.25006680  1
  Li  Li5  1  0.99994464  0.99997273  0.74996839  1
  Mn  Mn6  1  0.50011861  0.49964154  0.75007835  1
  Mn  Mn7  1  0.49982982  0.50016016  0.24970346  1
  Mn  Mn8  1  0.99993470  0.49972335  0.75017976  1
  Mn  Mn9  1  0.99983448  0.50011411  0.25002375  1
  Mn  Mn10  1  0.51610259  0.96777770  0.97410744  1
  Mn  Mn11  1  0.48397939  0.03221826  0.52602528  1
  Mn  Mn12  1  0.98412042  0.03180213  0.02568750  1
  Mn  Mn13  1  0.01583699  0.96879878  0.47447593  1
  O  O14  1  0.32439734  0.35108220  0.64619899  1
  O  O15  1  0.32241563  0.35509731  0.14988540  1
  O  O16  1  0.82224349  0.35528325  0.64989477  1
  O  O17  1  0.82470531  0.35061895  0.14611122  1
  O  O18  1  0.33029003  0.82180798  0.60236868  1
  O  O19  1  0.34830901  0.82124133  0.10211163  1
  O  O20  1  0.84829811  0.82172327  0.60235540  1
  O  O21  1  0.83032111  0.82126486  0.10213631  1
  O  O22  1  0.67543153  0.64892866  0.85393414  1
  O  O23  1  0.67757579  0.64480174  0.34986545  1
  O  O24  1  0.17757124  0.64458155  0.85013694  1
  O  O25  1  0.17531002  0.64946895  0.35368107  1
  O  O26  1  0.66980539  0.17826085  0.89769576  1
  O  O27  1  0.65182039  0.17870077  0.39784485  1
  O  O28  1  0.15182308  0.17821190  0.89771209  1
  O  O29  1  0.16986160  0.17879719  0.39786042  1
