# generated using pymatgen
data_CaNiBiP2O9
_symmetry_space_group_name_H-M   'P 1'
_cell_length_a   6.78713335
_cell_length_b   7.65027715
_cell_length_c   14.74728623
_cell_angle_alpha   90.00912538
_cell_angle_beta   90.00281998
_cell_angle_gamma   89.98581355
_symmetry_Int_Tables_number   1
_chemical_formula_structural   CaNiBiP2O9
_chemical_formula_sum   'Ca4 Ni4 Bi4 P8 O36'
_cell_volume   765.72996237
_cell_formula_units_Z   4
loop_
 _symmetry_equiv_pos_site_id
 _symmetry_equiv_pos_as_xyz
  1  'x, y, z'
loop_
 _atom_site_type_symbol
 _atom_site_label
 _atom_site_symmetry_multiplicity
 _atom_site_fract_x
 _atom_site_fract_y
 _atom_site_fract_z
 _atom_site_occupancy
  Ca  Ca0  1  0.74994746  0.91616856  0.79643840  1
  Ca  Ca1  1  0.74991830  0.58449869  0.29655510  1
  Ca  Ca2  1  0.25003510  0.08393776  0.20346772  1
  Ca  Ca3  1  0.25010188  0.41559783  0.70350511  1
  Ni  Ni4  1  0.50029753  0.00002737  0.00008121  1
  Ni  Ni5  1  0.49973971  0.50004394  0.49987888  1
  Ni  Ni6  1  0.00033284  0.50003566  0.49987265  1
  Ni  Ni7  1  0.99965930  0.00001820  0.00008853  1
  Bi  Bi8  1  0.75009333  0.35894164  0.88231688  1
  Bi  Bi9  1  0.24989239  0.64121473  0.11774251  1
  Bi  Bi10  1  0.24975269  0.85867267  0.61782956  1
  Bi  Bi11  1  0.75025235  0.14145980  0.38214212  1
  P  P12  1  0.25007077  0.34744339  0.92046230  1
  P  P13  1  0.74991640  0.65251965  0.07967668  1
  P  P14  1  0.74979602  0.84745582  0.57945426  1
  P  P15  1  0.25020441  0.15248493  0.42043884  1
  P  P16  1  0.75005107  0.37710555  0.68177792  1
  P  P17  1  0.24997386  0.62273751  0.31811794  1
  P  P18  1  0.24992864  0.87705873  0.81822088  1
  P  P19  1  0.75005146  0.12284341  0.18188814  1
  O  O20  1  0.05850352  0.61732948  0.37476908  1
  O  O21  1  0.55858165  0.38245327  0.62512508  1
  O  O22  1  0.94151844  0.11728047  0.12518604  1
  O  O23  1  0.44151091  0.88255471  0.87488409  1
  O  O24  1  0.94157431  0.38256885  0.62514470  1
  O  O25  1  0.44139622  0.61742989  0.37478485  1
  O  O26  1  0.05841726  0.88253086  0.87491019  1
  O  O27  1  0.55850638  0.11724638  0.12521692  1
  O  O28  1  0.25018568  0.32351792  0.47534905  1
  O  O29  1  0.74982914  0.67651264  0.52446411  1
  O  O30  1  0.74993982  0.82329549  0.02454933  1
  O  O31  1  0.25003929  0.17670052  0.97564789  1
  O  O32  1  0.74996376  0.10114023  0.93370120  1
  O  O33  1  0.24999536  0.89880671  0.06627968  1
  O  O34  1  0.24996037  0.60094655  0.56631256  1
  O  O35  1  0.75009122  0.39903417  0.43368794  1
  O  O36  1  0.75017218  0.20954720  0.74380596  1
  O  O37  1  0.24984359  0.79050921  0.25621073  1
  O  O38  1  0.24996313  0.70940563  0.75627132  1
  O  O39  1  0.75002197  0.29061806  0.24372212  1
  O  O40  1  0.42522380  0.14268110  0.35177051  1
  O  O41  1  0.92457993  0.85713016  0.64817438  1
  O  O42  1  0.57488387  0.64310715  0.14831878  1
  O  O43  1  0.07528141  0.35695111  0.85177649  1
  O  O44  1  0.57492388  0.85737135  0.64810170  1
  O  O45  1  0.07527409  0.14292146  0.35169937  1
  O  O46  1  0.42491185  0.35692068  0.85181271  1
  O  O47  1  0.92490965  0.64307560  0.14834932  1
  O  O48  1  0.75015157  0.96604515  0.25302879  1
  O  O49  1  0.24984288  0.03386001  0.74721423  1
  O  O50  1  0.25009827  0.46593643  0.24697695  1
  O  O51  1  0.74990844  0.53400624  0.75275734  1
  O  O52  1  0.74997341  0.01062869  0.51917312  1
  O  O53  1  0.25002271  0.98952063  0.48063095  1
  O  O54  1  0.25000316  0.51089831  0.98055020  1
  O  O55  1  0.74998138  0.48925184  0.01968672  1
