# generated using pymatgen
data_Ca2TiWO6
_symmetry_space_group_name_H-M   'P 1'
_cell_length_a   5.48927401
_cell_length_b   5.60444831
_cell_length_c   7.84797414
_cell_angle_alpha   90.00000000
_cell_angle_beta   89.80438767
_cell_angle_gamma   90.00000000
_symmetry_Int_Tables_number   1
_chemical_formula_structural   Ca2TiWO6
_chemical_formula_sum   'Ca4 Ti2 W2 O12'
_cell_volume   241.43643523
_cell_formula_units_Z   2
loop_
 _symmetry_equiv_pos_site_id
 _symmetry_equiv_pos_as_xyz
  1  'x, y, z'
loop_
 _atom_site_type_symbol
 _atom_site_label
 _atom_site_symmetry_multiplicity
 _atom_site_fract_x
 _atom_site_fract_y
 _atom_site_fract_z
 _atom_site_occupancy
  Ca  Ca0  1  0.98858977  0.05029502  0.25050916  1
  Ca  Ca1  1  0.51141023  0.55029602  0.24949084  1
  Ca  Ca2  1  0.01141123  0.94970598  0.74949084  1
  Ca  Ca3  1  0.48858877  0.44970498  0.75050916  1
  Ti  Ti4  1  0.50000000  0.00000000  0.00000000  1
  Ti  Ti5  1  0.00000100  0.49999900  0.50000000  1
  W  W6  1  0.50000000  0.00000000  0.49999900  1
  W  W7  1  0.00000000  0.49999900  0.00000000  1
  O  O8  1  0.70571052  0.29731307  0.45374346  1
  O  O9  1  0.79428948  0.79731407  0.04625654  1
  O  O10  1  0.29428848  0.70268693  0.54625654  1
  O  O11  1  0.20571152  0.20268593  0.95374346  1
  O  O12  1  0.19402157  0.21167267  0.54544995  1
  O  O13  1  0.30597843  0.71167167  0.95455005  1
  O  O14  1  0.80597943  0.78832733  0.45455005  1
  O  O15  1  0.69402057  0.28832833  0.04544995  1
  O  O16  1  0.08988904  0.47640199  0.25530390  1
  O  O17  1  0.41011196  0.97640299  0.24469510  1
  O  O18  1  0.58988904  0.02359701  0.75530490  1
  O  O19  1  0.91011196  0.52359801  0.74469610  1
