# generated using pymatgen
data_MnZnNiP2O9
_symmetry_space_group_name_H-M   'P 1'
_cell_length_a   6.18447183
_cell_length_b   7.25332703
_cell_length_c   14.30347711
_cell_angle_alpha   89.94781205
_cell_angle_beta   89.99067003
_cell_angle_gamma   90.02978129
_symmetry_Int_Tables_number   1
_chemical_formula_structural   MnZnNiP2O9
_chemical_formula_sum   'Mn4 Zn4 Ni4 P8 O36'
_cell_volume   641.62496821
_cell_formula_units_Z   4
loop_
 _symmetry_equiv_pos_site_id
 _symmetry_equiv_pos_as_xyz
  1  'x, y, z'
loop_
 _atom_site_type_symbol
 _atom_site_label
 _atom_site_symmetry_multiplicity
 _atom_site_fract_x
 _atom_site_fract_y
 _atom_site_fract_z
 _atom_site_occupancy
  Mn  Mn0  1  0.75025771  0.35242507  0.88121068  1
  Mn  Mn1  1  0.24976890  0.64748180  0.11877213  1
  Mn  Mn2  1  0.24989881  0.85212053  0.61870308  1
  Mn  Mn3  1  0.74987457  0.14768571  0.38135999  1
  Zn  Zn4  1  0.75001540  0.88045228  0.78376430  1
  Zn  Zn5  1  0.75017814  0.62377763  0.28386661  1
  Zn  Zn6  1  0.24993286  0.11890736  0.21603194  1
  Zn  Zn7  1  0.24979012  0.37579216  0.71621778  1
  Ni  Ni8  1  0.49999598  0.00018995  0.00009706  1
  Ni  Ni9  1  0.49992548  0.49996488  0.49993117  1
  Ni  Ni10  1  0.00013673  0.50011744  0.49996801  1
  Ni  Ni11  1  -0.00000795  0.00003686  0.00003731  1
  P  P12  1  0.25025653  0.36060207  0.93343633  1
  P  P13  1  0.74981912  0.63941156  0.06648674  1
  P  P14  1  0.75014898  0.86061177  0.56665675  1
  P  P15  1  0.24982760  0.13924551  0.43344401  1
  P  P16  1  0.74997615  0.39431152  0.70000979  1
  P  P17  1  0.25000765  0.60569615  0.29998103  1
  P  P18  1  0.25006770  0.89494724  0.79990979  1
  P  P19  1  0.74997634  0.10518659  0.20008561  1
  O  O20  1  0.03792664  0.60862470  0.35816277  1
  O  O21  1  0.53789271  0.39144050  0.64184664  1
  O  O22  1  0.96195764  0.10771420  0.14192135  1
  O  O23  1  0.46209752  0.89248804  0.85802254  1
  O  O24  1  0.96206929  0.39122170  0.64183706  1
  O  O25  1  0.46205693  0.60836410  0.35815793  1
  O  O26  1  0.03799514  0.89239557  0.85805725  1
  O  O27  1  0.53791800  0.10765898  0.14196869  1
  O  O28  1  0.24993854  0.32895762  0.48003132  1
  O  O29  1  0.75001071  0.67100933  0.52003094  1
  O  O30  1  0.74994377  0.82917887  0.01991734  1
  O  O31  1  0.25007371  0.17106433  0.98017487  1
  O  O32  1  0.75000911  0.14432177  0.94741602  1
  O  O33  1  0.25001407  0.85572624  0.05263204  1
  O  O34  1  0.24973364  0.64409885  0.55263898  1
  O  O35  1  0.75034498  0.35577495  0.44735613  1
  O  O36  1  0.75014994  0.21711901  0.76524261  1
  O  O37  1  0.24987328  0.78303825  0.23481750  1
  O  O38  1  0.25028015  0.71801413  0.73476451  1
  O  O39  1  0.74971270  0.28210153  0.26525886  1
  O  O40  1  0.44094861  0.12236194  0.36269748  1
  O  O41  1  0.94091698  0.87755660  0.63746202  1
  O  O42  1  0.55882496  0.62279737  0.13732822  1
  O  O43  1  0.05947914  0.37707457  0.86258606  1
  O  O44  1  0.55911198  0.87763689  0.63731993  1
  O  O45  1  0.05903187  0.12238514  0.36253924  1
  O  O46  1  0.44116524  0.37722738  0.86267403  1
  O  O47  1  0.94068439  0.62294970  0.13740523  1
  O  O48  1  0.75016522  0.94400754  0.27305320  1
  O  O49  1  0.24980841  0.05609957  0.72690625  1
  O  O50  1  0.25001558  0.44524740  0.22692032  1
  O  O51  1  0.74997516  0.55499833  0.77298627  1
  O  O52  1  0.75048216  0.01152497  0.49401260  1
  O  O53  1  0.24951098  0.98842875  0.50591423  1
  O  O54  1  0.24992609  0.51179126  0.00592760  1
  O  O55  1  0.75010792  0.48863884  0.99404486  1
