# generated using pymatgen
data_MgTi2O4
_symmetry_space_group_name_H-M   'P 1'
_cell_length_a   6.08526090
_cell_length_b   5.92496876
_cell_length_c   18.00193217
_cell_angle_alpha   60.42244258
_cell_angle_beta   60.68076008
_cell_angle_gamma   60.87855479
_symmetry_Int_Tables_number   1
_chemical_formula_structural   MgTi2O4
_chemical_formula_sum   'Mg6 Ti12 O24'
_cell_volume   465.78427869
_cell_formula_units_Z   6
loop_
 _symmetry_equiv_pos_site_id
 _symmetry_equiv_pos_as_xyz
  1  'x, y, z'
loop_
 _atom_site_type_symbol
 _atom_site_label
 _atom_site_symmetry_multiplicity
 _atom_site_fract_x
 _atom_site_fract_y
 _atom_site_fract_z
 _atom_site_occupancy
  Mg  Mg0  1  0.13070619  0.12864131  0.03732260  1
  Mg  Mg1  1  0.50011455  0.50280485  0.33138666  1
  Mg  Mg2  1  0.99581993  0.50471283  0.16488149  1
  Mg  Mg3  1  0.50648571  0.49089108  0.67058435  1
  Mg  Mg4  1  0.00258831  0.49826104  0.50031186  1
  Mg  Mg5  1  0.01713663  0.49194284  0.83296756  1
  Ti  Ti6  1  0.49390719  0.03062573  0.16192594  1
  Ti  Ti7  1  0.12283125  0.11946341  0.37940822  1
  Ti  Ti8  1  0.49601089  0.51172951  0.99350597  1
  Ti  Ti9  1  0.49395506  0.48989710  0.16179269  1
  Ti  Ti10  1  0.50060501  0.98554540  0.50003919  1
  Ti  Ti11  1  0.12337402  0.12088968  0.71156567  1
  Ti  Ti12  1  0.50054750  0.51366965  0.50006454  1
  Ti  Ti13  1  0.50029154  0.96789576  0.84035122  1
  Ti  Ti14  1  0.88064366  0.88138566  0.28555798  1
  Ti  Ti15  1  0.50022722  0.51077482  0.84043698  1
  Ti  Ti16  1  0.87068698  0.87889187  0.62384537  1
  Ti  Ti17  1  0.85193199  0.87708498  0.96466348  1
  O  O18  1  0.26357913  0.25739080  0.08491320  1
  O  O19  1  0.24780951  0.25138684  0.24994002  1
  O  O20  1  0.26328400  0.72433993  0.08496663  1
  O  O21  1  0.73932633  0.26022506  0.08000250  1
  O  O22  1  0.25837962  0.25141039  0.42017638  1
  O  O23  1  0.26069125  0.74998744  0.24646935  1
  O  O24  1  0.25044567  0.25091134  0.58256215  1
  O  O25  1  0.73966152  0.26782203  0.24563139  1
  O  O26  1  0.25850367  0.72976276  0.42011428  1
  O  O27  1  0.73516803  0.74435399  0.09200849  1
  O  O28  1  0.73819390  0.25267157  0.41879588  1
  O  O29  1  0.73956015  0.75569804  0.24563762  1
  O  O30  1  0.26198429  0.24412155  0.75239424  1
  O  O31  1  0.25205160  0.74738631  0.58437934  1
  O  O32  1  0.74032728  0.26829162  0.58018084  1
  O  O33  1  0.26196826  0.73667270  0.75240393  1
  O  O34  1  0.27860244  0.25418806  0.90437989  1
  O  O35  1  0.75584294  0.74988679  0.41473467  1
  O  O36  1  0.74676477  0.24573219  0.75392543  1
  O  O37  1  0.74032715  0.75080798  0.58015901  1
  O  O38  1  0.22309582  0.75450373  0.92268345  1
  O  O39  1  0.75163183  0.26289801  0.91466818  1
  O  O40  1  0.75334157  0.74278896  0.75361947  1
  O  O41  1  0.75159462  0.74165241  0.91464292  1
