# generated using pymatgen
data_Mg3Sn
_symmetry_space_group_name_H-M   'P 1'
_cell_length_a   6.37178880
_cell_length_b   3.31580431
_cell_length_c   5.18597369
_cell_angle_alpha   90.00000000
_cell_angle_beta   90.00000000
_cell_angle_gamma   121.35830142
_symmetry_Int_Tables_number   1
_chemical_formula_structural   Mg3Sn
_chemical_formula_sum   'Mg3 Sn1'
_cell_volume   93.56269368
_cell_formula_units_Z   1
loop_
 _symmetry_equiv_pos_site_id
 _symmetry_equiv_pos_as_xyz
  1  'x, y, z'
loop_
 _atom_site_type_symbol
 _atom_site_label
 _atom_site_symmetry_multiplicity
 _atom_site_fract_x
 _atom_site_fract_y
 _atom_site_fract_z
 _atom_site_occupancy
  Mg  Mg0  1  0.66699261  0.66699261  0.25000000  1
  Mg  Mg1  1  0.33351970  0.33351970  0.75000000  1
  Mg  Mg2  1  0.83317195  0.33317195  0.75000000  1
  Sn  Sn3  1  0.16631574  0.66631574  0.25000000  1
