# generated using pymatgen
data_Te4Mo(WSe)2
_symmetry_space_group_name_H-M   'P 1'
_cell_length_a   3.47989515
_cell_length_b   3.47989682
_cell_length_c   32.05690792
_cell_angle_alpha   90.00025387
_cell_angle_beta   90.00000000
_cell_angle_gamma   119.99998420
_symmetry_Int_Tables_number   1
_chemical_formula_structural   Te4Mo(WSe)2
_chemical_formula_sum   'Te4 Mo1 W2 Se2'
_cell_volume   336.19005075
_cell_formula_units_Z   1
loop_
 _symmetry_equiv_pos_site_id
 _symmetry_equiv_pos_as_xyz
  1  'x, y, z'
loop_
 _atom_site_type_symbol
 _atom_site_label
 _atom_site_symmetry_multiplicity
 _atom_site_fract_x
 _atom_site_fract_y
 _atom_site_fract_z
 _atom_site_occupancy
  Te  Te0  1  0.33335369  0.66670839  0.40454097  1
  Te  Te1  1  0.66664303  0.33328507  0.52074259  1
  Te  Te2  1  0.66664738  0.33329375  0.63591927  1
  Te  Te3  1  0.33335148  0.66670396  0.28933467  1
  Mo  Mo4  1  0.33331151  0.66662302  0.11566518  1
  W  W5  1  0.33330948  0.66661896  0.57837971  1
  W  W6  1  0.66668686  0.33337371  0.34695977  1
  Se  Se7  1  0.66664864  0.33329628  0.06505787  1
  Se  Se8  1  0.66664894  0.33329687  0.16624096  1
