# generated using pymatgen
data_ReN2
_symmetry_space_group_name_H-M   'P 1'
_cell_length_a   4.84429559
_cell_length_b   4.81278387
_cell_length_c   5.59856644
_cell_angle_alpha   90.00000000
_cell_angle_beta   148.57018476
_cell_angle_gamma   90.00000000
_symmetry_Int_Tables_number   1
_chemical_formula_structural   ReN2
_chemical_formula_sum   'Re2 N4'
_cell_volume   68.06433519
_cell_formula_units_Z   2
loop_
 _symmetry_equiv_pos_site_id
 _symmetry_equiv_pos_as_xyz
  1  'x, y, z'
loop_
 _atom_site_type_symbol
 _atom_site_label
 _atom_site_symmetry_multiplicity
 _atom_site_fract_x
 _atom_site_fract_y
 _atom_site_fract_z
 _atom_site_occupancy
  Re  Re0  1  0.88757543  0.75174977  0.87140850  1
  Re  Re1  1  0.88757543  0.24825023  0.37140850  1
  N  N2  1  0.07112492  0.95983475  0.27979141  1
  N  N3  1  0.07112492  0.04016525  0.77979141  1
  N  N4  1  0.51129965  0.45368248  0.80780009  1
  N  N5  1  0.51129965  0.54631752  0.30780009  1
