# generated using pymatgen
data_Mg6AlGa
_symmetry_space_group_name_H-M   'P 1'
_cell_length_a   6.24447452
_cell_length_b   6.32470907
_cell_length_c   4.96768041
_cell_angle_alpha   90.00000000
_cell_angle_beta   90.00000000
_cell_angle_gamma   120.42596106
_symmetry_Int_Tables_number   1
_chemical_formula_structural   Mg6AlGa
_chemical_formula_sum   'Mg6 Al1 Ga1'
_cell_volume   169.17671000
_cell_formula_units_Z   1
loop_
 _symmetry_equiv_pos_site_id
 _symmetry_equiv_pos_as_xyz
  1  'x, y, z'
loop_
 _atom_site_type_symbol
 _atom_site_label
 _atom_site_symmetry_multiplicity
 _atom_site_fract_x
 _atom_site_fract_y
 _atom_site_fract_z
 _atom_site_occupancy
  Mg  Mg0  1  0.66674259  0.33338579  0.25000000  1
  Mg  Mg1  1  0.66674259  0.83335580  0.25000000  1
  Mg  Mg2  1  0.32924732  0.16511707  0.75000000  1
  Mg  Mg3  1  0.32924732  0.66413125  0.75000000  1
  Mg  Mg4  1  0.83840533  0.16920317  0.75000000  1
  Mg  Mg5  1  0.83685224  0.66842662  0.75000000  1
  Al  Al6  1  0.16661639  0.33330770  0.25000000  1
  Ga  Ga7  1  0.16614622  0.83307261  0.25000000  1
