# generated using pymatgen
data_Mg14ZrV
_symmetry_space_group_name_H-M   'P 1'
_cell_length_a   6.37440132
_cell_length_b   6.37440080
_cell_length_c   10.15049500
_cell_angle_alpha   90.00000000
_cell_angle_beta   90.00000000
_cell_angle_gamma   120.00000268
_symmetry_Int_Tables_number   1
_chemical_formula_structural   Mg14ZrV
_chemical_formula_sum   'Mg14 Zr1 V1'
_cell_volume   357.18779521
_cell_formula_units_Z   1
loop_
 _symmetry_equiv_pos_site_id
 _symmetry_equiv_pos_as_xyz
  1  'x, y, z'
loop_
 _atom_site_type_symbol
 _atom_site_label
 _atom_site_symmetry_multiplicity
 _atom_site_fract_x
 _atom_site_fract_y
 _atom_site_fract_z
 _atom_site_occupancy
  Mg  Mg0  1  0.17248994  0.83624447  0.12500000  1
  Mg  Mg1  1  0.16794342  0.83397121  0.62500000  1
  Mg  Mg2  1  0.66375553  0.32751006  0.12500000  1
  Mg  Mg3  1  0.66602879  0.33205658  0.62500000  1
  Mg  Mg4  1  0.66375553  0.83624447  0.12500000  1
  Mg  Mg5  1  0.66602879  0.83397121  0.62500000  1
  Mg  Mg6  1  0.32956708  0.17043292  0.37741767  1
  Mg  Mg7  1  0.32956708  0.17043292  0.87258233  1
  Mg  Mg8  1  0.32956708  0.65913516  0.37741767  1
  Mg  Mg9  1  0.32956708  0.65913516  0.87258233  1
  Mg  Mg10  1  0.84086484  0.17043292  0.37741767  1
  Mg  Mg11  1  0.84086484  0.17043292  0.87258233  1
  Mg  Mg12  1  0.83333300  0.66666700  0.37226905  1
  Mg  Mg13  1  0.83333300  0.66666700  0.87773095  1
  Zr  Zr14  1  0.16666700  0.33333300  0.12500000  1
  V  V15  1  0.16666700  0.33333300  0.62500000  1
