# generated using pymatgen
data_P3Pd
_symmetry_space_group_name_H-M   'P 1'
_cell_length_a   7.12090505
_cell_length_b   7.12090505
_cell_length_c   7.12090505
_cell_angle_alpha   109.47122063
_cell_angle_beta   109.47122063
_cell_angle_gamma   109.47122063
_symmetry_Int_Tables_number   1
_chemical_formula_structural   P3Pd
_chemical_formula_sum   'P12 Pd4'
_cell_volume   277.96089082
_cell_formula_units_Z   4
loop_
 _symmetry_equiv_pos_site_id
 _symmetry_equiv_pos_as_xyz
  1  'x, y, z'
loop_
 _atom_site_type_symbol
 _atom_site_label
 _atom_site_symmetry_multiplicity
 _atom_site_fract_x
 _atom_site_fract_y
 _atom_site_fract_z
 _atom_site_occupancy
  P  P0  1  0.86510506  0.63567491  0.50077996  1
  P  P1  1  0.13489494  0.36432509  0.49922004  1
  P  P2  1  0.13489494  0.63567491  0.77056985  1
  P  P3  1  0.86510506  0.36432509  0.22943015  1
  P  P4  1  0.63567491  0.50077996  0.86510506  1
  P  P5  1  0.36432509  0.49922004  0.13489494  1
  P  P6  1  0.63567491  0.77056985  0.13489494  1
  P  P7  1  0.36432509  0.22943015  0.86510506  1
  P  P8  1  0.50077996  0.86510506  0.63567491  1
  P  P9  1  0.49922004  0.13489494  0.36432509  1
  P  P10  1  0.77056985  0.13489494  0.63567491  1
  P  P11  1  0.22943015  0.86510506  0.36432509  1
  Pd  Pd12  1  0.50000000  0.50000000  0.50000000  1
  Pd  Pd13  1  0.50000000  0.00000000  0.00000000  1
  Pd  Pd14  1  0.00000000  0.50000000  0.00000000  1
  Pd  Pd15  1  0.00000000  0.00000000  0.50000000  1
