# generated using pymatgen
data_Mg14ZrSn
_symmetry_space_group_name_H-M   'P 1'
_cell_length_a   6.40477818
_cell_length_b   6.31049752
_cell_length_c   10.32561735
_cell_angle_alpha   90.00000000
_cell_angle_beta   90.00000000
_cell_angle_gamma   119.51424267
_symmetry_Int_Tables_number   1
_chemical_formula_structural   Mg14ZrSn
_chemical_formula_sum   'Mg14 Zr1 Sn1'
_cell_volume   363.17788821
_cell_formula_units_Z   1
loop_
 _symmetry_equiv_pos_site_id
 _symmetry_equiv_pos_as_xyz
  1  'x, y, z'
loop_
 _atom_site_type_symbol
 _atom_site_label
 _atom_site_symmetry_multiplicity
 _atom_site_fract_x
 _atom_site_fract_y
 _atom_site_fract_z
 _atom_site_occupancy
  Mg  Mg0  1  0.16658968  0.33329434  0.62500000  1
  Mg  Mg1  1  0.16639989  0.83319944  0.62500000  1
  Mg  Mg2  1  0.66677613  0.33180715  0.12500000  1
  Mg  Mg3  1  0.66640325  0.33338796  0.62500000  1
  Mg  Mg4  1  0.66677613  0.83496798  0.12500000  1
  Mg  Mg5  1  0.66640325  0.83301429  0.62500000  1
  Mg  Mg6  1  0.33313141  0.16863423  0.37543742  1
  Mg  Mg7  1  0.33313141  0.16863423  0.87456258  1
  Mg  Mg8  1  0.33313141  0.66449818  0.37543742  1
  Mg  Mg9  1  0.33313141  0.66449818  0.87456258  1
  Mg  Mg10  1  0.83553611  0.16776855  0.37492229  1
  Mg  Mg11  1  0.83553611  0.16776855  0.87507771  1
  Mg  Mg12  1  0.83249860  0.66624980  0.37517120  1
  Mg  Mg13  1  0.83249860  0.66624980  0.87482880  1
  Zr  Zr14  1  0.16527899  0.33263899  0.12500000  1
  Sn  Sn15  1  0.16677762  0.83338831  0.12500000  1
