# generated using pymatgen
data_TeMoWSe2S
_symmetry_space_group_name_H-M   'P 1'
_cell_length_a   3.34267406
_cell_length_b   3.34264263
_cell_length_c   38.04269135
_cell_angle_alpha   90.00027097
_cell_angle_beta   89.99999409
_cell_angle_gamma   120.00029354
_symmetry_Int_Tables_number   1
_chemical_formula_structural   TeMoWSe2S
_chemical_formula_sum   'Te2 Mo2 W2 Se4 S2'
_cell_volume   368.11588636
_cell_formula_units_Z   2
loop_
 _symmetry_equiv_pos_site_id
 _symmetry_equiv_pos_as_xyz
  1  'x, y, z'
loop_
 _atom_site_type_symbol
 _atom_site_label
 _atom_site_symmetry_multiplicity
 _atom_site_fract_x
 _atom_site_fract_y
 _atom_site_fract_z
 _atom_site_occupancy
  Te  Te0  1  0.33335489  0.66671028  0.70764696  1
  Te  Te1  1  0.33334699  0.66669457  0.60744051  1
  Mo  Mo2  1  0.33330930  0.66661776  0.09390060  1
  Mo  Mo3  1  0.66668648  0.33337381  0.28181910  1
  W  W4  1  0.33331069  0.66662046  0.46966531  1
  W  W5  1  0.66668719  0.33337500  0.65757007  1
  Se  Se6  1  0.33336516  0.66673083  0.32556724  1
  Se  Se7  1  0.66664250  0.33328458  0.05015151  1
  Se  Se8  1  0.66664957  0.33329853  0.13767656  1
  Se  Se9  1  0.33335791  0.66671643  0.23801493  1
  S  S10  1  0.66664292  0.33328570  0.42963975  1
  S  S11  1  0.66664639  0.33329204  0.50965547  1
