# generated using pymatgen
data_Te2MoW3(Se2S)2
_symmetry_space_group_name_H-M   'P 1'
_cell_length_a   3.34338989
_cell_length_b   3.34338055
_cell_length_c   38.05266840
_cell_angle_alpha   89.99967688
_cell_angle_beta   89.99999965
_cell_angle_gamma   120.00006306
_symmetry_Int_Tables_number   1
_chemical_formula_structural   Te2MoW3(Se2S)2
_chemical_formula_sum   'Te2 Mo1 W3 Se4 S2'
_cell_volume   368.37343977
_cell_formula_units_Z   1
loop_
 _symmetry_equiv_pos_site_id
 _symmetry_equiv_pos_as_xyz
  1  'x, y, z'
loop_
 _atom_site_type_symbol
 _atom_site_label
 _atom_site_symmetry_multiplicity
 _atom_site_fract_x
 _atom_site_fract_y
 _atom_site_fract_z
 _atom_site_occupancy
  Te  Te0  1  0.33335824  0.66671683  0.70763180  1
  Te  Te1  1  0.33335083  0.66670227  0.60745292  1
  Mo  Mo2  1  0.66668838  0.33337729  0.28181460  1
  W  W3  1  0.33330902  0.66661694  0.09390947  1
  W  W4  1  0.33330887  0.66661709  0.46966024  1
  W  W5  1  0.66668967  0.33338032  0.65757148  1
  Se  Se6  1  0.33336267  0.66672555  0.32555329  1
  Se  Se7  1  0.66664506  0.33328983  0.04995925  1
  Se  Se8  1  0.66664654  0.33329239  0.13785614  1
  Se  Se9  1  0.33335014  0.66670075  0.23802938  1
  S  S10  1  0.66664565  0.33329087  0.42965720  1
  S  S11  1  0.66664493  0.33328989  0.50965222  1
