# generated using pymatgen
data_Te2MoW3(Se2S)2
_symmetry_space_group_name_H-M   'P 1'
_cell_length_a   3.34364919
_cell_length_b   3.34358214
_cell_length_c   38.05478206
_cell_angle_alpha   89.99986048
_cell_angle_beta   90.00000000
_cell_angle_gamma   120.00066350
_symmetry_Int_Tables_number   1
_chemical_formula_structural   Te2MoW3(Se2S)2
_chemical_formula_sum   'Te2 Mo1 W3 Se4 S2'
_cell_volume   368.44245644
_cell_formula_units_Z   1
loop_
 _symmetry_equiv_pos_site_id
 _symmetry_equiv_pos_as_xyz
  1  'x, y, z'
loop_
 _atom_site_type_symbol
 _atom_site_label
 _atom_site_symmetry_multiplicity
 _atom_site_fract_x
 _atom_site_fract_y
 _atom_site_fract_z
 _atom_site_occupancy
  Te  Te0  1  0.33335199  0.66670498  0.70762613  1
  Te  Te1  1  0.33335394  0.66670889  0.60746948  1
  Mo  Mo2  1  0.33331406  0.66662813  0.09389281  1
  W  W3  1  0.33331047  0.66662094  0.46964571  1
  W  W4  1  0.66669011  0.33338021  0.28178622  1
  W  W5  1  0.66668957  0.33337913  0.65757031  1
  Se  Se6  1  0.33335065  0.66670231  0.32579080  1
  Se  Se7  1  0.66664705  0.33329309  0.05014376  1
  Se  Se8  1  0.66664510  0.33328919  0.13768347  1
  Se  Se9  1  0.33335023  0.66670145  0.23782566  1
  S  S10  1  0.66664920  0.33329739  0.42969076  1
  S  S11  1  0.66664764  0.33329428  0.50962289  1
