# generated using pymatgen
data_YMg14Zn
_symmetry_space_group_name_H-M   'P 1'
_cell_length_a   6.43284221
_cell_length_b   6.36854046
_cell_length_c   10.33954281
_cell_angle_alpha   90.00000000
_cell_angle_beta   90.00000000
_cell_angle_gamma   119.66989242
_symmetry_Int_Tables_number   1
_chemical_formula_structural   YMg14Zn
_chemical_formula_sum   'Y1 Mg14 Zn1'
_cell_volume   368.05253928
_cell_formula_units_Z   1
loop_
 _symmetry_equiv_pos_site_id
 _symmetry_equiv_pos_as_xyz
  1  'x, y, z'
loop_
 _atom_site_type_symbol
 _atom_site_label
 _atom_site_symmetry_multiplicity
 _atom_site_fract_x
 _atom_site_fract_y
 _atom_site_fract_z
 _atom_site_occupancy
  Y  Y0  1  0.15805857  0.32902878  0.12500000  1
  Mg  Mg1  1  0.16804181  0.33402040  0.62500000  1
  Mg  Mg2  1  0.16401499  0.83200699  0.62500000  1
  Mg  Mg3  1  0.65196640  0.31573166  0.12500000  1
  Mg  Mg4  1  0.66600690  0.33648850  0.62500000  1
  Mg  Mg5  1  0.65196640  0.83623374  0.12500000  1
  Mg  Mg6  1  0.66600690  0.82951740  0.62500000  1
  Mg  Mg7  1  0.33393114  0.16383217  0.37708094  1
  Mg  Mg8  1  0.33393114  0.16383217  0.87291906  1
  Mg  Mg9  1  0.33393114  0.67009996  0.37708094  1
  Mg  Mg10  1  0.33393114  0.67009996  0.87291906  1
  Mg  Mg11  1  0.83251252  0.16625676  0.38222680  1
  Mg  Mg12  1  0.83251252  0.16625676  0.86777320  1
  Mg  Mg13  1  0.83983250  0.66991675  0.36294177  1
  Mg  Mg14  1  0.83983250  0.66991675  0.88705823  1
  Zn  Zn15  1  0.19352344  0.84676122  0.12500000  1
