# generated using pymatgen
data_Te2Mo(WS2)3
_symmetry_space_group_name_H-M   'P 1'
_cell_length_a   3.27137767
_cell_length_b   3.27139302
_cell_length_c   37.17318115
_cell_angle_alpha   89.99933677
_cell_angle_beta   90.00000000
_cell_angle_gamma   119.99984488
_symmetry_Int_Tables_number   1
_chemical_formula_structural   Te2Mo(WS2)3
_chemical_formula_sum   'Te2 Mo1 W3 S6'
_cell_volume   344.52793911
_cell_formula_units_Z   1
loop_
 _symmetry_equiv_pos_site_id
 _symmetry_equiv_pos_as_xyz
  1  'x, y, z'
loop_
 _atom_site_type_symbol
 _atom_site_label
 _atom_site_symmetry_multiplicity
 _atom_site_fract_x
 _atom_site_fract_y
 _atom_site_fract_z
 _atom_site_occupancy
  Te  Te0  1  0.66662686  0.33325272  0.04201248  1
  Te  Te1  1  0.66664445  0.33328791  0.14569776  1
  Mo  Mo2  1  0.33330686  0.66661372  0.09384507  1
  W  W3  1  0.33331139  0.66662278  0.46965231  1
  W  W4  1  0.66669204  0.33338408  0.28184765  1
  W  W5  1  0.66669546  0.33339093  0.65756578  1
  S  S6  1  0.33335734  0.66671567  0.32338124  1
  S  S7  1  0.33335570  0.66671241  0.69909705  1
  S  S8  1  0.66664901  0.33329702  0.42811348  1
  S  S9  1  0.66664813  0.33329526  0.51121934  1
  S  S10  1  0.33335564  0.66671228  0.24032013  1
  S  S11  1  0.33335710  0.66671521  0.61599572  1
