# generated using pymatgen
data_Te2Mo(WS2)3
_symmetry_space_group_name_H-M   'P 1'
_cell_length_a   3.26824959
_cell_length_b   3.26825629
_cell_length_c   37.23654676
_cell_angle_alpha   90.00004794
_cell_angle_beta   90.00000000
_cell_angle_gamma   119.99993224
_symmetry_Int_Tables_number   1
_chemical_formula_structural   Te2Mo(WS2)3
_chemical_formula_sum   'Te2 Mo1 W3 S6'
_cell_volume   344.45433006
_cell_formula_units_Z   1
loop_
 _symmetry_equiv_pos_site_id
 _symmetry_equiv_pos_as_xyz
  1  'x, y, z'
loop_
 _atom_site_type_symbol
 _atom_site_label
 _atom_site_symmetry_multiplicity
 _atom_site_fract_x
 _atom_site_fract_y
 _atom_site_fract_z
 _atom_site_occupancy
  Te  Te0  1  0.33335401  0.66670902  0.33356081  1
  Te  Te1  1  0.33335185  0.66670471  0.23004994  1
  Mo  Mo2  1  0.66668997  0.33337994  0.28181608  1
  W  W3  1  0.33330686  0.66661372  0.09387922  1
  W  W4  1  0.33331245  0.66662490  0.46969555  1
  W  W5  1  0.66669311  0.33338622  0.65754001  1
  S  S6  1  0.33335572  0.66671245  0.69905067  1
  S  S7  1  0.66664810  0.33329521  0.05237950  1
  S  S8  1  0.66664255  0.33328411  0.42822414  1
  S  S9  1  0.66665040  0.33329980  0.13537653  1
  S  S10  1  0.66663990  0.33327880  0.51117387  1
  S  S11  1  0.33335507  0.66671113  0.61600168  1
