# generated using pymatgen
data_Te2MoW3(Se2S)2
_symmetry_space_group_name_H-M   'P 1'
_cell_length_a   3.34244025
_cell_length_b   3.34246775
_cell_length_c   38.73376526
_cell_angle_alpha   90.00031086
_cell_angle_beta   90.00000000
_cell_angle_gamma   119.99972390
_symmetry_Int_Tables_number   1
_chemical_formula_structural   Te2MoW3(Se2S)2
_chemical_formula_sum   'Te2 Mo1 W3 Se4 S2'
_cell_volume   374.75931301
_cell_formula_units_Z   1
loop_
 _symmetry_equiv_pos_site_id
 _symmetry_equiv_pos_as_xyz
  1  'x, y, z'
loop_
 _atom_site_type_symbol
 _atom_site_label
 _atom_site_symmetry_multiplicity
 _atom_site_fract_x
 _atom_site_fract_y
 _atom_site_fract_z
 _atom_site_occupancy
  Te  Te0  1  0.33334882  0.66669863  0.70678439  1
  Te  Te1  1  0.33335029  0.66670159  0.60830888  1
  Mo  Mo2  1  0.66668534  0.33337068  0.28176225  1
  W  W3  1  0.33331502  0.66663004  0.09393545  1
  W  W4  1  0.33331418  0.66662836  0.46961876  1
  W  W5  1  0.66668484  0.33336968  0.65755919  1
  Se  Se6  1  0.33335071  0.66670241  0.32484044  1
  Se  Se7  1  0.66664977  0.33329854  0.42639670  1
  Se  Se8  1  0.66664893  0.33329686  0.51289165  1
  Se  Se9  1  0.33335946  0.66671992  0.23875991  1
  S  S10  1  0.66664835  0.33329570  0.05467231  1
  S  S11  1  0.66664430  0.33328759  0.13321806  1
