# generated using pymatgen
data_Te2MoW3(Se2S)2
_symmetry_space_group_name_H-M   'P 1'
_cell_length_a   3.34308858
_cell_length_b   3.34308832
_cell_length_c   38.75318283
_cell_angle_alpha   89.99987874
_cell_angle_beta   90.00000000
_cell_angle_gamma   119.99999852
_symmetry_Int_Tables_number   1
_chemical_formula_structural   Te2MoW3(Se2S)2
_chemical_formula_sum   'Te2 Mo1 W3 Se4 S2'
_cell_volume   375.08850042
_cell_formula_units_Z   1
loop_
 _symmetry_equiv_pos_site_id
 _symmetry_equiv_pos_as_xyz
  1  'x, y, z'
loop_
 _atom_site_type_symbol
 _atom_site_label
 _atom_site_symmetry_multiplicity
 _atom_site_fract_x
 _atom_site_fract_y
 _atom_site_fract_z
 _atom_site_occupancy
  Te  Te0  1  0.66664309  0.33328518  0.42040862  1
  Te  Te1  1  0.66664222  0.33328344  0.51887285  1
  Mo  Mo2  1  0.33330903  0.66661807  0.09393666  1
  W  W3  1  0.33331026  0.66662051  0.46961648  1
  W  W4  1  0.66669343  0.33338686  0.28178781  1
  W  W5  1  0.66669083  0.33338166  0.65756622  1
  Se  Se6  1  0.33335193  0.66670485  0.70080946  1
  Se  Se7  1  0.66664563  0.33329026  0.05088544  1
  Se  Se8  1  0.66664626  0.33329153  0.13699436  1
  Se  Se9  1  0.33336017  0.66672134  0.61427431  1
  S  S10  1  0.33335323  0.66670745  0.32108626  1
  S  S11  1  0.33335392  0.66670884  0.24250954  1
