# generated using pymatgen
data_TeMoWSe2S
_symmetry_space_group_name_H-M   'P 1'
_cell_length_a   3.34368024
_cell_length_b   3.34368221
_cell_length_c   38.05601691
_cell_angle_alpha   90.00001605
_cell_angle_beta   90.00000000
_cell_angle_gamma   119.99998047
_symmetry_Int_Tables_number   1
_chemical_formula_structural   TeMoWSe2S
_chemical_formula_sum   'Te2 Mo2 W2 Se4 S2'
_cell_volume   368.47139824
_cell_formula_units_Z   2
loop_
 _symmetry_equiv_pos_site_id
 _symmetry_equiv_pos_as_xyz
  1  'x, y, z'
loop_
 _atom_site_type_symbol
 _atom_site_label
 _atom_site_symmetry_multiplicity
 _atom_site_fract_x
 _atom_site_fract_y
 _atom_site_fract_z
 _atom_site_occupancy
  Te  Te0  1  0.33335242  0.66670583  0.70764920  1
  Te  Te1  1  0.33335084  0.66670268  0.60746979  1
  Mo  Mo2  1  0.33330746  0.66661492  0.09392050  1
  Mo  Mo3  1  0.33331141  0.66662281  0.46962231  1
  W  W4  1  0.66669076  0.33338152  0.28182060  1
  W  W5  1  0.66669053  0.33338106  0.65756782  1
  Se  Se6  1  0.66664705  0.33329310  0.05015921  1
  Se  Se7  1  0.66664908  0.33329716  0.42587423  1
  Se  Se8  1  0.66664316  0.33328532  0.13767284  1
  Se  Se9  1  0.66664926  0.33329751  0.51339709  1
  S  S10  1  0.33335362  0.66670824  0.32179020  1
  S  S11  1  0.33335441  0.66670983  0.24180421  1
