# generated using pymatgen
data_Mg30CoBiO32
_symmetry_space_group_name_H-M   'P 1'
_cell_length_a   8.60258525
_cell_length_b   8.60859607
_cell_length_c   8.60859607
_cell_angle_alpha   90.00000000
_cell_angle_beta   90.00000000
_cell_angle_gamma   90.00000000
_symmetry_Int_Tables_number   1
_chemical_formula_structural   Mg30CoBiO32
_chemical_formula_sum   'Mg30 Co1 Bi1 O32'
_cell_volume   637.51975367
_cell_formula_units_Z   1
loop_
 _symmetry_equiv_pos_site_id
 _symmetry_equiv_pos_as_xyz
  1  'x, y, z'
loop_
 _atom_site_type_symbol
 _atom_site_label
 _atom_site_symmetry_multiplicity
 _atom_site_fract_x
 _atom_site_fract_y
 _atom_site_fract_z
 _atom_site_occupancy
  Mg  Mg0  1  0.00000000  0.00000000  0.50000000  1
  Mg  Mg1  1  0.00000000  0.50000000  0.00000000  1
  Mg  Mg2  1  0.50000000  0.00000000  0.00000000  1
  Mg  Mg3  1  0.50000000  0.00000000  0.50000000  1
  Mg  Mg4  1  0.50000000  0.50000000  0.00000000  1
  Mg  Mg5  1  0.50000000  0.50000000  0.50000000  1
  Mg  Mg6  1  0.00000000  0.23906368  0.23906368  1
  Mg  Mg7  1  0.00000000  0.23906368  0.76093632  1
  Mg  Mg8  1  0.00000000  0.76093632  0.23906368  1
  Mg  Mg9  1  0.00000000  0.76093632  0.76093632  1
  Mg  Mg10  1  0.50000000  0.24797063  0.24797063  1
  Mg  Mg11  1  0.50000000  0.24797063  0.75202937  1
  Mg  Mg12  1  0.50000000  0.75202937  0.24797063  1
  Mg  Mg13  1  0.50000000  0.75202937  0.75202937  1
  Mg  Mg14  1  0.24818516  0.00000000  0.24595800  1
  Mg  Mg15  1  0.24818516  0.00000000  0.75404200  1
  Mg  Mg16  1  0.25676290  0.50000000  0.24147380  1
  Mg  Mg17  1  0.25676290  0.50000000  0.75852620  1
  Mg  Mg18  1  0.75181484  0.00000000  0.24595800  1
  Mg  Mg19  1  0.75181484  0.00000000  0.75404200  1
  Mg  Mg20  1  0.74323710  0.50000000  0.24147380  1
  Mg  Mg21  1  0.74323710  0.50000000  0.75852620  1
  Mg  Mg22  1  0.24818516  0.24595800  0.00000000  1
  Mg  Mg23  1  0.25676290  0.24147380  0.50000000  1
  Mg  Mg24  1  0.24818516  0.75404200  0.00000000  1
  Mg  Mg25  1  0.25676290  0.75852620  0.50000000  1
  Mg  Mg26  1  0.75181484  0.24595800  0.00000000  1
  Mg  Mg27  1  0.74323710  0.24147380  0.50000000  1
  Mg  Mg28  1  0.75181484  0.75404200  0.00000000  1
  Mg  Mg29  1  0.74323710  0.75852620  0.50000000  1
  Co  Co30  1  0.00000000  0.00000000  0.00000000  1
  Bi  Bi31  1  0.00000000  0.50000000  0.50000000  1
  O  O32  1  0.26290524  0.00000000  0.00000000  1
  O  O33  1  0.25453804  0.00000000  0.50000000  1
  O  O34  1  0.25453804  0.50000000  0.00000000  1
  O  O35  1  0.26707181  0.50000000  0.50000000  1
  O  O36  1  0.73709476  0.00000000  0.00000000  1
  O  O37  1  0.74546196  0.00000000  0.50000000  1
  O  O38  1  0.74546196  0.50000000  0.00000000  1
  O  O39  1  0.73292819  0.50000000  0.50000000  1
  O  O40  1  0.24904411  0.25066802  0.25066802  1
  O  O41  1  0.24904411  0.25066802  0.74933198  1
  O  O42  1  0.24904411  0.74933198  0.25066802  1
  O  O43  1  0.24904411  0.74933198  0.74933198  1
  O  O44  1  0.75095589  0.25066802  0.25066802  1
  O  O45  1  0.75095589  0.25066802  0.74933198  1
  O  O46  1  0.75095589  0.74933198  0.25066802  1
  O  O47  1  0.75095589  0.74933198  0.74933198  1
  O  O48  1  0.00000000  0.00000000  0.26040744  1
  O  O49  1  0.00000000  0.00000000  0.73959256  1
  O  O50  1  0.00000000  0.50000000  0.23426213  1
  O  O51  1  0.00000000  0.50000000  0.76573787  1
  O  O52  1  0.50000000  0.00000000  0.25155514  1
  O  O53  1  0.50000000  0.00000000  0.74844486  1
  O  O54  1  0.50000000  0.50000000  0.24821763  1
  O  O55  1  0.50000000  0.50000000  0.75178237  1
  O  O56  1  0.00000000  0.26040744  0.00000000  1
  O  O57  1  0.00000000  0.23426213  0.50000000  1
  O  O58  1  0.00000000  0.73959256  0.00000000  1
  O  O59  1  0.00000000  0.76573787  0.50000000  1
  O  O60  1  0.50000000  0.25155514  0.00000000  1
  O  O61  1  0.50000000  0.24821763  0.50000000  1
  O  O62  1  0.50000000  0.74844486  0.00000000  1
  O  O63  1  0.50000000  0.75178237  0.50000000  1
