# generated using pymatgen
data_YMg30VO32
_symmetry_space_group_name_H-M   'P 1'
_cell_length_a   8.62649259
_cell_length_b   8.62658161
_cell_length_c   8.62658161
_cell_angle_alpha   90.00000000
_cell_angle_beta   90.00000000
_cell_angle_gamma   90.00000000
_symmetry_Int_Tables_number   1
_chemical_formula_structural   YMg30VO32
_chemical_formula_sum   'Y1 Mg30 V1 O32'
_cell_volume   641.96555154
_cell_formula_units_Z   1
loop_
 _symmetry_equiv_pos_site_id
 _symmetry_equiv_pos_as_xyz
  1  'x, y, z'
loop_
 _atom_site_type_symbol
 _atom_site_label
 _atom_site_symmetry_multiplicity
 _atom_site_fract_x
 _atom_site_fract_y
 _atom_site_fract_z
 _atom_site_occupancy
  Y  Y0  1  0.00000000  0.00000000  0.00000000  1
  Mg  Mg1  1  0.00000000  0.00000000  0.50000000  1
  Mg  Mg2  1  0.00000000  0.50000000  0.00000000  1
  Mg  Mg3  1  0.50000000  0.00000000  0.00000000  1
  Mg  Mg4  1  0.50000000  0.00000000  0.50000000  1
  Mg  Mg5  1  0.50000000  0.50000000  0.00000000  1
  Mg  Mg6  1  0.50000000  0.50000000  0.50000000  1
  Mg  Mg7  1  0.00000000  0.25615745  0.25615745  1
  Mg  Mg8  1  0.00000000  0.25615745  0.74384255  1
  Mg  Mg9  1  0.00000000  0.74384255  0.25615745  1
  Mg  Mg10  1  0.00000000  0.74384255  0.74384255  1
  Mg  Mg11  1  0.50000000  0.25096108  0.25096108  1
  Mg  Mg12  1  0.50000000  0.25096108  0.74903892  1
  Mg  Mg13  1  0.50000000  0.74903892  0.25096108  1
  Mg  Mg14  1  0.50000000  0.74903892  0.74903892  1
  Mg  Mg15  1  0.25634913  0.00000000  0.25646296  1
  Mg  Mg16  1  0.25634913  0.00000000  0.74353704  1
  Mg  Mg17  1  0.25115507  0.50000000  0.25061673  1
  Mg  Mg18  1  0.25115507  0.50000000  0.74938327  1
  Mg  Mg19  1  0.74365087  0.00000000  0.25646296  1
  Mg  Mg20  1  0.74365087  0.00000000  0.74353704  1
  Mg  Mg21  1  0.74884493  0.50000000  0.25061673  1
  Mg  Mg22  1  0.74884493  0.50000000  0.74938327  1
  Mg  Mg23  1  0.25634913  0.25646296  0.00000000  1
  Mg  Mg24  1  0.25115507  0.25061673  0.50000000  1
  Mg  Mg25  1  0.25634913  0.74353704  0.00000000  1
  Mg  Mg26  1  0.25115507  0.74938327  0.50000000  1
  Mg  Mg27  1  0.74365087  0.25646296  0.00000000  1
  Mg  Mg28  1  0.74884493  0.25061673  0.50000000  1
  Mg  Mg29  1  0.74365087  0.74353704  0.00000000  1
  Mg  Mg30  1  0.74884493  0.74938327  0.50000000  1
  V  V31  1  0.00000000  0.50000000  0.50000000  1
  O  O32  1  0.25893019  0.00000000  0.00000000  1
  O  O33  1  0.25116243  0.00000000  0.50000000  1
  O  O34  1  0.25116243  0.50000000  0.00000000  1
  O  O35  1  0.25417036  0.50000000  0.50000000  1
  O  O36  1  0.74106981  0.00000000  0.00000000  1
  O  O37  1  0.74883757  0.00000000  0.50000000  1
  O  O38  1  0.74883757  0.50000000  0.00000000  1
  O  O39  1  0.74582964  0.50000000  0.50000000  1
  O  O40  1  0.24909381  0.24950424  0.24950424  1
  O  O41  1  0.24909381  0.24950424  0.75049576  1
  O  O42  1  0.24909381  0.75049576  0.24950424  1
  O  O43  1  0.24909381  0.75049576  0.75049576  1
  O  O44  1  0.75090619  0.24950424  0.24950424  1
  O  O45  1  0.75090619  0.24950424  0.75049576  1
  O  O46  1  0.75090619  0.75049576  0.24950424  1
  O  O47  1  0.75090619  0.75049576  0.75049576  1
  O  O48  1  0.00000000  0.00000000  0.25877006  1
  O  O49  1  0.00000000  0.00000000  0.74122994  1
  O  O50  1  0.00000000  0.50000000  0.24658762  1
  O  O51  1  0.00000000  0.50000000  0.75341238  1
  O  O52  1  0.50000000  0.00000000  0.25097690  1
  O  O53  1  0.50000000  0.00000000  0.74902310  1
  O  O54  1  0.50000000  0.50000000  0.24967777  1
  O  O55  1  0.50000000  0.50000000  0.75032223  1
  O  O56  1  0.00000000  0.25877006  0.00000000  1
  O  O57  1  0.00000000  0.24658762  0.50000000  1
  O  O58  1  0.00000000  0.74122994  0.00000000  1
  O  O59  1  0.00000000  0.75341238  0.50000000  1
  O  O60  1  0.50000000  0.25097690  0.00000000  1
  O  O61  1  0.50000000  0.24967777  0.50000000  1
  O  O62  1  0.50000000  0.74902310  0.00000000  1
  O  O63  1  0.50000000  0.75032223  0.50000000  1
