# generated using pymatgen
data_NaMg30SiO32
_symmetry_space_group_name_H-M   'P 1'
_cell_length_a   8.55495407
_cell_length_b   8.55495407
_cell_length_c   8.53042747
_cell_angle_alpha   90.00000000
_cell_angle_beta   90.00000000
_cell_angle_gamma   90.00000000
_symmetry_Int_Tables_number   1
_chemical_formula_structural   NaMg30SiO32
_chemical_formula_sum   'Na1 Mg30 Si1 O32'
_cell_volume   624.31843521
_cell_formula_units_Z   1
loop_
 _symmetry_equiv_pos_site_id
 _symmetry_equiv_pos_as_xyz
  1  'x, y, z'
loop_
 _atom_site_type_symbol
 _atom_site_label
 _atom_site_symmetry_multiplicity
 _atom_site_fract_x
 _atom_site_fract_y
 _atom_site_fract_z
 _atom_site_occupancy
  Na  Na0  1  0.00000000  -0.00000000  0.50000000  1
  Mg  Mg1  1  0.00000000  0.50000000  -0.00000000  1
  Mg  Mg2  1  0.00000000  0.50000000  0.50000000  1
  Mg  Mg3  1  0.50000000  -0.00000000  -0.00000000  1
  Mg  Mg4  1  0.50000000  -0.00000000  0.50000000  1
  Mg  Mg5  1  0.50000000  0.50000000  -0.00000000  1
  Mg  Mg6  1  0.50000000  0.50000000  0.50000000  1
  Mg  Mg7  1  0.00000000  0.25157879  0.25368451  1
  Mg  Mg8  1  0.00000000  0.25157879  0.74631549  1
  Mg  Mg9  1  0.00000000  0.74842121  0.25368451  1
  Mg  Mg10  1  0.00000000  0.74842121  0.74631549  1
  Mg  Mg11  1  0.50000000  0.25045427  0.25130669  1
  Mg  Mg12  1  0.50000000  0.25045427  0.74869331  1
  Mg  Mg13  1  0.50000000  0.74954573  0.25130669  1
  Mg  Mg14  1  0.50000000  0.74954573  0.74869331  1
  Mg  Mg15  1  0.25157879  -0.00000000  0.25368451  1
  Mg  Mg16  1  0.25157879  -0.00000000  0.74631549  1
  Mg  Mg17  1  0.25045427  0.50000000  0.25130669  1
  Mg  Mg18  1  0.25045427  0.50000000  0.74869331  1
  Mg  Mg19  1  0.74842121  -0.00000000  0.25368451  1
  Mg  Mg20  1  0.74842121  -0.00000000  0.74631549  1
  Mg  Mg21  1  0.74954573  0.50000000  0.25130669  1
  Mg  Mg22  1  0.74954573  0.50000000  0.74869331  1
  Mg  Mg23  1  0.25093482  0.25093482  -0.00000000  1
  Mg  Mg24  1  0.24936457  0.24936457  0.50000000  1
  Mg  Mg25  1  0.25093482  0.74906518  -0.00000000  1
  Mg  Mg26  1  0.24936457  0.75063543  0.50000000  1
  Mg  Mg27  1  0.74906518  0.25093482  -0.00000000  1
  Mg  Mg28  1  0.75063543  0.24936457  0.50000000  1
  Mg  Mg29  1  0.74906518  0.74906518  -0.00000000  1
  Mg  Mg30  1  0.75063543  0.75063543  0.50000000  1
  Si  Si31  1  0.00000000  -0.00000000  -0.00000000  1
  O  O32  1  0.22422291  -0.00000000  -0.00000000  1
  O  O33  1  0.26122992  -0.00000000  0.50000000  1
  O  O34  1  0.24672349  0.50000000  -0.00000000  1
  O  O35  1  0.25148278  0.50000000  0.50000000  1
  O  O36  1  0.77577709  -0.00000000  -0.00000000  1
  O  O37  1  0.73877008  -0.00000000  0.50000000  1
  O  O38  1  0.75327651  0.50000000  -0.00000000  1
  O  O39  1  0.74851722  0.50000000  0.50000000  1
  O  O40  1  0.24880037  0.24880037  0.24882858  1
  O  O41  1  0.24880037  0.24880037  0.75117142  1
  O  O42  1  0.24880037  0.75119963  0.24882858  1
  O  O43  1  0.24880037  0.75119963  0.75117142  1
  O  O44  1  0.75119963  0.24880037  0.24882858  1
  O  O45  1  0.75119963  0.24880037  0.75117142  1
  O  O46  1  0.75119963  0.75119963  0.24882858  1
  O  O47  1  0.75119963  0.75119963  0.75117142  1
  O  O48  1  0.00000000  -0.00000000  0.21238250  1
  O  O49  1  0.00000000  -0.00000000  0.78761750  1
  O  O50  1  0.00000000  0.50000000  0.24336574  1
  O  O51  1  0.00000000  0.50000000  0.75663426  1
  O  O52  1  0.50000000  -0.00000000  0.24336574  1
  O  O53  1  0.50000000  -0.00000000  0.75663426  1
  O  O54  1  0.50000000  0.50000000  0.24804356  1
  O  O55  1  0.50000000  0.50000000  0.75195644  1
  O  O56  1  0.00000000  0.22422291  -0.00000000  1
  O  O57  1  0.00000000  0.26122992  0.50000000  1
  O  O58  1  0.00000000  0.77577709  -0.00000000  1
  O  O59  1  0.00000000  0.73877008  0.50000000  1
  O  O60  1  0.50000000  0.24672349  -0.00000000  1
  O  O61  1  0.50000000  0.25148278  0.50000000  1
  O  O62  1  0.50000000  0.75327651  -0.00000000  1
  O  O63  1  0.50000000  0.74851722  0.50000000  1
