# generated using pymatgen
data_CaHo(CoO3)2
_symmetry_space_group_name_H-M   'P 1'
_cell_length_a   5.25327889
_cell_length_b   5.57465135
_cell_length_c   7.42751552
_cell_angle_alpha   89.98371533
_cell_angle_beta   90.34679818
_cell_angle_gamma   90.02183294
_symmetry_Int_Tables_number   1
_chemical_formula_structural   CaHo(CoO3)2
_chemical_formula_sum   'Ca2 Ho2 Co4 O12'
_cell_volume   217.51225549
_cell_formula_units_Z   2
loop_
 _symmetry_equiv_pos_site_id
 _symmetry_equiv_pos_as_xyz
  1  'x, y, z'
loop_
 _atom_site_type_symbol
 _atom_site_label
 _atom_site_symmetry_multiplicity
 _atom_site_fract_x
 _atom_site_fract_y
 _atom_site_fract_z
 _atom_site_occupancy
  Ca  Ca0  1  0.48466753  0.44050525  0.75035234  1
  Ca  Ca1  1  0.98479541  0.05949000  0.25025337  1
  Ho  Ho2  1  0.02143928  0.92718722  0.74988351  1
  Ho  Ho3  1  0.52168610  0.57285172  0.24962632  1
  Co  Co4  1  0.99945158  0.49572969  0.00118222  1
  Co  Co5  1  -0.00010646  0.49550522  0.49909231  1
  Co  Co6  1  0.49941834  0.00429191  0.50113526  1
  Co  Co7  1  0.49980440  0.00444415  0.99901928  1
  O  O8  1  0.10428327  0.47759598  0.24713188  1
  O  O9  1  0.19830585  0.19080082  0.95019790  1
  O  O10  1  0.19586683  0.19223040  0.55013474  1
  O  O11  1  0.29164912  0.70592584  0.95468537  1
  O  O12  1  0.28898609  0.70388750  0.54455338  1
  O  O13  1  0.41523012  0.97271527  0.25198089  1
  O  O14  1  0.60399189  0.02236378  0.74796930  1
  O  O15  1  0.69863127  0.30913451  0.45033612  1
  O  O16  1  0.69599233  0.30787783  0.05020749  1
  O  O17  1  0.78930298  0.79604823  0.04470906  1
  O  O18  1  0.79160579  0.79399734  0.45476918  1
  O  O19  1  0.91499628  0.52741634  0.75278109  1
