# generated using pymatgen
data_LiMg30SiO32
_symmetry_space_group_name_H-M   'P 1'
_cell_length_a   8.52335049
_cell_length_b   8.52777715
_cell_length_c   8.52777715
_cell_angle_alpha   90.00000000
_cell_angle_beta   90.00000000
_cell_angle_gamma   90.00000000
_symmetry_Int_Tables_number   1
_chemical_formula_structural   LiMg30SiO32
_chemical_formula_sum   'Li1 Mg30 Si1 O32'
_cell_volume   619.84347381
_cell_formula_units_Z   1
loop_
 _symmetry_equiv_pos_site_id
 _symmetry_equiv_pos_as_xyz
  1  'x, y, z'
loop_
 _atom_site_type_symbol
 _atom_site_label
 _atom_site_symmetry_multiplicity
 _atom_site_fract_x
 _atom_site_fract_y
 _atom_site_fract_z
 _atom_site_occupancy
  Li  Li0  1  -0.00000000  0.00000000  -0.00000000  1
  Mg  Mg1  1  -0.00000000  0.00000000  0.50000000  1
  Mg  Mg2  1  -0.00000000  0.50000000  -0.00000000  1
  Mg  Mg3  1  0.50000000  0.00000000  -0.00000000  1
  Mg  Mg4  1  0.50000000  0.00000000  0.50000000  1
  Mg  Mg5  1  0.50000000  0.50000000  -0.00000000  1
  Mg  Mg6  1  0.50000000  0.50000000  0.50000000  1
  Mg  Mg7  1  -0.00000000  0.24472187  0.24472187  1
  Mg  Mg8  1  -0.00000000  0.24472187  0.75527813  1
  Mg  Mg9  1  -0.00000000  0.75527813  0.24472187  1
  Mg  Mg10  1  -0.00000000  0.75527813  0.75527813  1
  Mg  Mg11  1  0.50000000  0.24847649  0.24847649  1
  Mg  Mg12  1  0.50000000  0.24847649  0.75152351  1
  Mg  Mg13  1  0.50000000  0.75152351  0.24847649  1
  Mg  Mg14  1  0.50000000  0.75152351  0.75152351  1
  Mg  Mg15  1  0.24771093  0.00000000  0.24611507  1
  Mg  Mg16  1  0.24771093  0.00000000  0.75388493  1
  Mg  Mg17  1  0.25089524  0.50000000  0.24780108  1
  Mg  Mg18  1  0.25089524  0.50000000  0.75219892  1
  Mg  Mg19  1  0.75228907  0.00000000  0.24611507  1
  Mg  Mg20  1  0.75228907  0.00000000  0.75388493  1
  Mg  Mg21  1  0.74910476  0.50000000  0.24780108  1
  Mg  Mg22  1  0.74910476  0.50000000  0.75219892  1
  Mg  Mg23  1  0.24771093  0.24611507  -0.00000000  1
  Mg  Mg24  1  0.25089524  0.24780108  0.50000000  1
  Mg  Mg25  1  0.24771093  0.75388493  -0.00000000  1
  Mg  Mg26  1  0.25089524  0.75219892  0.50000000  1
  Mg  Mg27  1  0.75228907  0.24611507  -0.00000000  1
  Mg  Mg28  1  0.74910476  0.24780108  0.50000000  1
  Mg  Mg29  1  0.75228907  0.75388493  -0.00000000  1
  Mg  Mg30  1  0.74910476  0.75219892  0.50000000  1
  Si  Si31  1  -0.00000000  0.50000000  0.50000000  1
  O  O32  1  0.25525976  0.00000000  -0.00000000  1
  O  O33  1  0.24750786  0.00000000  0.50000000  1
  O  O34  1  0.24750786  0.50000000  -0.00000000  1
  O  O35  1  0.22396090  0.50000000  0.50000000  1
  O  O36  1  0.74474024  0.00000000  -0.00000000  1
  O  O37  1  0.75249214  0.00000000  0.50000000  1
  O  O38  1  0.75249214  0.50000000  -0.00000000  1
  O  O39  1  0.77603910  0.50000000  0.50000000  1
  O  O40  1  0.24895189  0.25117116  0.25117116  1
  O  O41  1  0.24895189  0.25117116  0.74882884  1
  O  O42  1  0.24895189  0.74882884  0.25117116  1
  O  O43  1  0.24895189  0.74882884  0.74882884  1
  O  O44  1  0.75104811  0.25117116  0.25117116  1
  O  O45  1  0.75104811  0.25117116  0.74882884  1
  O  O46  1  0.75104811  0.74882884  0.25117116  1
  O  O47  1  0.75104811  0.74882884  0.74882884  1
  O  O48  1  -0.00000000  0.00000000  0.26084114  1
  O  O49  1  -0.00000000  0.00000000  0.73915886  1
  O  O50  1  -0.00000000  0.50000000  0.27903022  1
  O  O51  1  -0.00000000  0.50000000  0.72096978  1
  O  O52  1  0.50000000  0.00000000  0.25227956  1
  O  O53  1  0.50000000  0.00000000  0.74772044  1
  O  O54  1  0.50000000  0.50000000  0.25416132  1
  O  O55  1  0.50000000  0.50000000  0.74583868  1
  O  O56  1  -0.00000000  0.26084114  -0.00000000  1
  O  O57  1  -0.00000000  0.27903022  0.50000000  1
  O  O58  1  -0.00000000  0.73915886  -0.00000000  1
  O  O59  1  -0.00000000  0.72096978  0.50000000  1
  O  O60  1  0.50000000  0.25227956  -0.00000000  1
  O  O61  1  0.50000000  0.25416132  0.50000000  1
  O  O62  1  0.50000000  0.74772044  -0.00000000  1
  O  O63  1  0.50000000  0.74583868  0.50000000  1
