# generated using pymatgen
data_Mg30TiAlO32
_symmetry_space_group_name_H-M   'P 1'
_cell_length_a   8.53190433
_cell_length_b   8.53834646
_cell_length_c   8.53834646
_cell_angle_alpha   90.00000000
_cell_angle_beta   90.00000000
_cell_angle_gamma   90.00000000
_symmetry_Int_Tables_number   1
_chemical_formula_structural   Mg30TiAlO32
_chemical_formula_sum   'Mg30 Ti1 Al1 O32'
_cell_volume   622.00449517
_cell_formula_units_Z   1
loop_
 _symmetry_equiv_pos_site_id
 _symmetry_equiv_pos_as_xyz
  1  'x, y, z'
loop_
 _atom_site_type_symbol
 _atom_site_label
 _atom_site_symmetry_multiplicity
 _atom_site_fract_x
 _atom_site_fract_y
 _atom_site_fract_z
 _atom_site_occupancy
  Mg  Mg0  1  -0.00000000  -0.00000000  0.50000000  1
  Mg  Mg1  1  -0.00000000  0.50000000  0.00000000  1
  Mg  Mg2  1  0.50000000  -0.00000000  -0.00000000  1
  Mg  Mg3  1  0.50000000  -0.00000000  0.50000000  1
  Mg  Mg4  1  0.50000000  0.50000000  -0.00000000  1
  Mg  Mg5  1  0.50000000  0.50000000  0.50000000  1
  Mg  Mg6  1  -0.00000000  0.25160725  0.25160725  1
  Mg  Mg7  1  -0.00000000  0.25160725  0.74839275  1
  Mg  Mg8  1  -0.00000000  0.74839275  0.25160725  1
  Mg  Mg9  1  -0.00000000  0.74839275  0.74839275  1
  Mg  Mg10  1  0.50000000  0.25080989  0.25080989  1
  Mg  Mg11  1  0.50000000  0.25080989  0.74919011  1
  Mg  Mg12  1  0.50000000  0.74919011  0.25080989  1
  Mg  Mg13  1  0.50000000  0.74919011  0.74919011  1
  Mg  Mg14  1  0.25056169  -0.00000000  0.25105279  1
  Mg  Mg15  1  0.25056169  -0.00000000  0.74894721  1
  Mg  Mg16  1  0.25019191  0.50000000  0.25065040  1
  Mg  Mg17  1  0.25019191  0.50000000  0.74934960  1
  Mg  Mg18  1  0.74943831  -0.00000000  0.25105279  1
  Mg  Mg19  1  0.74943831  -0.00000000  0.74894721  1
  Mg  Mg20  1  0.74980809  0.50000000  0.25065040  1
  Mg  Mg21  1  0.74980809  0.50000000  0.74934960  1
  Mg  Mg22  1  0.25056169  0.25105279  -0.00000000  1
  Mg  Mg23  1  0.25019191  0.25065040  0.50000000  1
  Mg  Mg24  1  0.25056169  0.74894721  -0.00000000  1
  Mg  Mg25  1  0.25019191  0.74934960  0.50000000  1
  Mg  Mg26  1  0.74943831  0.25105279  0.00000000  1
  Mg  Mg27  1  0.74980809  0.25065040  0.50000000  1
  Mg  Mg28  1  0.74943831  0.74894721  0.00000000  1
  Mg  Mg29  1  0.74980809  0.74934960  0.50000000  1
  Ti  Ti30  1  -0.00000000  0.50000000  0.50000000  1
  Al  Al31  1  -0.00000000  -0.00000000  0.00000000  1
  O  O32  1  0.23549787  -0.00000000  -0.00000000  1
  O  O33  1  0.24944537  -0.00000000  0.50000000  1
  O  O34  1  0.24944537  0.50000000  0.00000000  1
  O  O35  1  0.25883707  0.50000000  0.50000000  1
  O  O36  1  0.76450213  -0.00000000  0.00000000  1
  O  O37  1  0.75055463  -0.00000000  0.50000000  1
  O  O38  1  0.75055463  0.50000000  -0.00000000  1
  O  O39  1  0.74116293  0.50000000  0.50000000  1
  O  O40  1  0.24971556  0.24963299  0.24963299  1
  O  O41  1  0.24971556  0.24963299  0.75036701  1
  O  O42  1  0.24971556  0.75036701  0.24963299  1
  O  O43  1  0.24971556  0.75036701  0.75036701  1
  O  O44  1  0.75028444  0.24963299  0.24963299  1
  O  O45  1  0.75028444  0.24963299  0.75036701  1
  O  O46  1  0.75028444  0.75036701  0.24963299  1
  O  O47  1  0.75028444  0.75036701  0.75036701  1
  O  O48  1  -0.00000000  -0.00000000  0.23296059  1
  O  O49  1  -0.00000000  -0.00000000  0.76703941  1
  O  O50  1  -0.00000000  0.50000000  0.23705417  1
  O  O51  1  -0.00000000  0.50000000  0.76294583  1
  O  O52  1  0.50000000  -0.00000000  0.24735001  1
  O  O53  1  0.50000000  -0.00000000  0.75264999  1
  O  O54  1  0.50000000  0.50000000  0.24809942  1
  O  O55  1  0.50000000  0.50000000  0.75190058  1
  O  O56  1  -0.00000000  0.23296059  0.00000000  1
  O  O57  1  -0.00000000  0.23705417  0.50000000  1
  O  O58  1  -0.00000000  0.76703941  -0.00000000  1
  O  O59  1  -0.00000000  0.76294583  0.50000000  1
  O  O60  1  0.50000000  0.24735001  0.00000000  1
  O  O61  1  0.50000000  0.24809942  0.50000000  1
  O  O62  1  0.50000000  0.75264999  -0.00000000  1
  O  O63  1  0.50000000  0.75190058  0.50000000  1
