# generated using pymatgen
data_MgBi
_symmetry_space_group_name_H-M   'P 1'
_cell_length_a   3.91500842
_cell_length_b   3.91500869
_cell_length_c   12.73081298
_cell_angle_alpha   90.00000000
_cell_angle_beta   90.00000000
_cell_angle_gamma   120.00000645
_symmetry_Int_Tables_number   1
_chemical_formula_structural   MgBi
_chemical_formula_sum   'Mg3 Bi3'
_cell_volume   168.98656302
_cell_formula_units_Z   3
loop_
 _symmetry_equiv_pos_site_id
 _symmetry_equiv_pos_as_xyz
  1  'x, y, z'
loop_
 _atom_site_type_symbol
 _atom_site_label
 _atom_site_symmetry_multiplicity
 _atom_site_fract_x
 _atom_site_fract_y
 _atom_site_fract_z
 _atom_site_occupancy
  Mg  Mg0  1  0.33333300  0.66666700  0.16666700  1
  Mg  Mg1  1  0.00000000  -0.00000000  0.50000000  1
  Mg  Mg2  1  0.66666700  0.33333300  0.83333300  1
  Bi  Bi3  1  -0.00000000  -0.00000000  -0.00000000  1
  Bi  Bi4  1  0.66666700  0.33333300  0.33333300  1
  Bi  Bi5  1  0.33333300  0.66666700  0.66666700  1
