# generated using pymatgen
data_Mn2ZnP2O9
_symmetry_space_group_name_H-M   'P 1'
_cell_length_a   6.31574945
_cell_length_b   7.33036504
_cell_length_c   14.51695985
_cell_angle_alpha   89.99796565
_cell_angle_beta   90.00021216
_cell_angle_gamma   90.00086278
_symmetry_Int_Tables_number   1
_chemical_formula_structural   Mn2ZnP2O9
_chemical_formula_sum   'Mn8 Zn4 P8 O36'
_cell_volume   672.08804574
_cell_formula_units_Z   4
loop_
 _symmetry_equiv_pos_site_id
 _symmetry_equiv_pos_as_xyz
  1  'x, y, z'
loop_
 _atom_site_type_symbol
 _atom_site_label
 _atom_site_symmetry_multiplicity
 _atom_site_fract_x
 _atom_site_fract_y
 _atom_site_fract_z
 _atom_site_occupancy
  Mn  Mn0  1  0.74998920  0.35276105  0.88264978  1
  Mn  Mn1  1  0.24998578  0.64727161  0.11729312  1
  Mn  Mn2  1  0.25002112  0.85277387  0.61736578  1
  Mn  Mn3  1  0.75000728  0.14722683  0.38268876  1
  Mn  Mn4  1  0.49996751  0.00004576  0.99997740  1
  Mn  Mn5  1  0.50002847  0.49998535  0.50003485  1
  Mn  Mn6  1  0.00003017  0.49998646  0.50003473  1
  Mn  Mn7  1  0.99997842  0.00005042  0.99998291  1
  Zn  Zn8  1  0.74998961  0.91489652  0.77475161  1
  Zn  Zn9  1  0.75001003  0.58502159  0.27473618  1
  Zn  Zn10  1  0.25000382  0.41476450  0.72525441  1
  Zn  Zn11  1  0.25000832  0.08501403  0.22523034  1
  P  P12  1  0.24998205  0.36725334  0.92969834  1
  P  P13  1  0.74998886  0.63282829  0.07024387  1
  P  P14  1  0.75001634  0.86715848  0.57027804  1
  P  P15  1  0.25000971  0.13281145  0.42978737  1
  P  P16  1  0.75000793  0.38452641  0.70313160  1
  P  P17  1  0.74999980  0.11541145  0.20316251  1
  P  P18  1  0.24997899  0.88460539  0.79686820  1
  P  P19  1  0.25001212  0.61543618  0.29682805  1
  O  O20  1  0.04087935  0.61042466  0.35369294  1
  O  O21  1  0.54085042  0.38961003  0.64627785  1
  O  O22  1  0.95914321  0.11035786  0.14630485  1
  O  O23  1  0.45912394  0.88964175  0.85371965  1
  O  O24  1  0.95917160  0.38961415  0.64628357  1
  O  O25  1  0.45915713  0.61040691  0.35368635  1
  O  O26  1  0.04082715  0.88964908  0.85371491  1
  O  O27  1  0.54084888  0.11036476  0.14630593  1
  O  O28  1  0.25002239  0.32391081  0.47723052  1
  O  O29  1  0.75002826  0.67604706  0.52283501  1
  O  O30  1  0.74997522  0.82393494  0.02280892  1
  O  O31  1  0.24996718  0.17618278  0.97718541  1
  O  O32  1  0.74998197  0.13396735  0.95168950  1
  O  O33  1  0.24997675  0.86608980  0.04824809  1
  O  O34  1  0.25003165  0.63398658  0.54830092  1
  O  O35  1  0.75002646  0.36603283  0.45172990  1
  O  O36  1  0.74999657  0.20582629  0.76545672  1
  O  O37  1  0.25001893  0.79410877  0.23444023  1
  O  O38  1  0.24998278  0.70591871  0.73450994  1
  O  O39  1  0.75000891  0.29408839  0.26551879  1
  O  O40  1  0.43598086  0.12166228  0.36075459  1
  O  O41  1  0.93599199  0.87826910  0.63932146  1
  O  O42  1  0.56401012  0.62164785  0.13927334  1
  O  O43  1  0.06402679  0.37836321  0.86066208  1
  O  O44  1  0.56404866  0.87824313  0.63933118  1
  O  O45  1  0.06403219  0.12166027  0.36075555  1
  O  O46  1  0.43594598  0.37833988  0.86066432  1
  O  O47  1  0.93596886  0.62168762  0.13927710  1
  O  O48  1  0.75001435  0.48490041  0.99783694  1
  O  O49  1  0.25000164  0.03913031  0.72323930  1
  O  O50  1  0.24998486  0.46093844  0.22319602  1
  O  O51  1  0.74999256  0.53903918  0.77676431  1
  O  O52  1  0.74998012  0.01505306  0.49786892  1
  O  O53  1  0.25000717  0.98493326  0.50221256  1
  O  O54  1  0.24999648  0.51522004  0.00209939  1
  O  O55  1  0.74999814  0.96091545  0.27680509  1
