# generated using pymatgen
data_LiHfMg30O31
_symmetry_space_group_name_H-M   'P 1'
_cell_length_a   8.56846149
_cell_length_b   8.56694841
_cell_length_c   8.56694841
_cell_angle_alpha   90.00000000
_cell_angle_beta   90.00000000
_cell_angle_gamma   90.00000000
_symmetry_Int_Tables_number   1
_chemical_formula_structural   LiHfMg30O31
_chemical_formula_sum   'Li1 Hf1 Mg30 O31'
_cell_volume   628.86171010
_cell_formula_units_Z   1
loop_
 _symmetry_equiv_pos_site_id
 _symmetry_equiv_pos_as_xyz
  1  'x, y, z'
loop_
 _atom_site_type_symbol
 _atom_site_label
 _atom_site_symmetry_multiplicity
 _atom_site_fract_x
 _atom_site_fract_y
 _atom_site_fract_z
 _atom_site_occupancy
  Li  Li0  1  0.99377443  0.00000000  -0.00000000  1
  Hf  Hf1  1  0.99990511  0.50000000  0.50000000  1
  Mg  Mg2  1  0.99962089  0.00000000  0.50000000  1
  Mg  Mg3  1  0.99962089  0.50000000  -0.00000000  1
  Mg  Mg4  1  0.49996382  0.00000000  -0.00000000  1
  Mg  Mg5  1  0.50075598  0.00000000  0.50000000  1
  Mg  Mg6  1  0.50075598  0.50000000  -0.00000000  1
  Mg  Mg7  1  0.50016520  0.50000000  0.50000000  1
  Mg  Mg8  1  0.00025472  0.24043472  0.24043472  1
  Mg  Mg9  1  0.00025472  0.24043472  0.75956528  1
  Mg  Mg10  1  0.00025472  0.75956528  0.24043472  1
  Mg  Mg11  1  0.00025472  0.75956528  0.75956528  1
  Mg  Mg12  1  0.50012804  0.24817209  0.24817209  1
  Mg  Mg13  1  0.50012804  0.24817209  0.75182791  1
  Mg  Mg14  1  0.50012804  0.75182791  0.24817209  1
  Mg  Mg15  1  0.50012804  0.75182791  0.75182791  1
  Mg  Mg16  1  0.24865362  0.00000000  0.24827901  1
  Mg  Mg17  1  0.24865362  0.00000000  0.75172099  1
  Mg  Mg18  1  0.25506335  0.50000000  0.24484609  1
  Mg  Mg19  1  0.25506335  0.50000000  0.75515391  1
  Mg  Mg20  1  0.75189633  0.00000000  0.24623022  1
  Mg  Mg21  1  0.75189633  0.00000000  0.75376978  1
  Mg  Mg22  1  0.74513839  0.50000000  0.24434465  1
  Mg  Mg23  1  0.74513839  0.50000000  0.75565535  1
  Mg  Mg24  1  0.24865362  0.24827901  -0.00000000  1
  Mg  Mg25  1  0.25506335  0.24484609  0.50000000  1
  Mg  Mg26  1  0.24865362  0.75172099  -0.00000000  1
  Mg  Mg27  1  0.25506335  0.75515391  0.50000000  1
  Mg  Mg28  1  0.75189633  0.24623022  -0.00000000  1
  Mg  Mg29  1  0.74513839  0.24434465  0.50000000  1
  Mg  Mg30  1  0.75189633  0.75376978  -0.00000000  1
  Mg  Mg31  1  0.74513839  0.75565535  0.50000000  1
  O  O32  1  0.25088245  0.00000000  0.50000000  1
  O  O33  1  0.25088245  0.50000000  -0.00000000  1
  O  O34  1  0.25269387  0.50000000  0.50000000  1
  O  O35  1  0.74396192  0.00000000  -0.00000000  1
  O  O36  1  0.74966417  0.00000000  0.50000000  1
  O  O37  1  0.74966417  0.50000000  -0.00000000  1
  O  O38  1  0.74736016  0.50000000  0.50000000  1
  O  O39  1  0.24937976  0.25183855  0.25183855  1
  O  O40  1  0.24937976  0.25183855  0.74816145  1
  O  O41  1  0.24937976  0.74816145  0.25183855  1
  O  O42  1  0.24937976  0.74816145  0.74816145  1
  O  O43  1  0.75092815  0.25078109  0.25078109  1
  O  O44  1  0.75092815  0.25078109  0.74921891  1
  O  O45  1  0.75092815  0.74921891  0.25078109  1
  O  O46  1  0.75092815  0.74921891  0.74921891  1
  O  O47  1  0.99980310  0.00000000  0.25798500  1
  O  O48  1  0.99980310  0.00000000  0.74201500  1
  O  O49  1  0.00003386  0.50000000  0.25154948  1
  O  O50  1  0.00003386  0.50000000  0.74845052  1
  O  O51  1  0.50115112  0.00000000  0.25284671  1
  O  O52  1  0.50115112  0.00000000  0.74715329  1
  O  O53  1  0.50015169  0.50000000  0.25073650  1
  O  O54  1  0.50015169  0.50000000  0.74926350  1
  O  O55  1  0.99980310  0.25798500  -0.00000000  1
  O  O56  1  0.00003386  0.25154948  0.50000000  1
  O  O57  1  0.99980310  0.74201500  -0.00000000  1
  O  O58  1  0.00003386  0.74845052  0.50000000  1
  O  O59  1  0.50115112  0.25284671  -0.00000000  1
  O  O60  1  0.50015169  0.25073650  0.50000000  1
  O  O61  1  0.50115112  0.74715329  -0.00000000  1
  O  O62  1  0.50015169  0.74926350  0.50000000  1
