# generated using pymatgen
data_Li3Co2O2F3
_symmetry_space_group_name_H-M   'P 1'
_cell_length_a   2.95054516
_cell_length_b   2.95054516
_cell_length_c   10.60525321
_cell_angle_alpha   97.99621707
_cell_angle_beta   82.00378293
_cell_angle_gamma   90.00000000
_symmetry_Int_Tables_number   1
_chemical_formula_structural   Li3Co2O2F3
_chemical_formula_sum   'Li3 Co2 O2 F3'
_cell_volume   90.52209841
_cell_formula_units_Z   1
loop_
 _symmetry_equiv_pos_site_id
 _symmetry_equiv_pos_as_xyz
  1  'x, y, z'
loop_
 _atom_site_type_symbol
 _atom_site_label
 _atom_site_symmetry_multiplicity
 _atom_site_fract_x
 _atom_site_fract_y
 _atom_site_fract_z
 _atom_site_occupancy
  Li  Li0  1  0.00348002  0.99651998  0.99304096  1
  Li  Li1  1  0.19651998  0.80348002  0.60695904  1
  Li  Li2  1  0.60000000  0.40000000  0.80000000  1
  Co  Co3  1  0.39306818  0.60693182  0.21386363  1
  Co  Co4  1  0.80693182  0.19306818  0.38613637  1
  O  O5  1  0.90504730  0.09495270  0.18990440  1
  O  O6  1  0.29495270  0.70504730  0.41009560  1
  F  F7  1  0.50417894  0.49582106  0.99164211  1
  F  F8  1  0.69582106  0.30417894  0.60835789  1
  F  F9  1  0.10000000  0.90000000  0.80000000  1
