# generated using pymatgen
data_Mg14ZnMo
_symmetry_space_group_name_H-M   'P 1'
_cell_length_a   6.27082649
_cell_length_b   6.27082600
_cell_length_c   9.87522592
_cell_angle_alpha   90.00000000
_cell_angle_beta   90.00000000
_cell_angle_gamma   120.00000261
_symmetry_Int_Tables_number   1
_chemical_formula_structural   Mg14ZnMo
_chemical_formula_sum   'Mg14 Zn1 Mo1'
_cell_volume   336.30025388
_cell_formula_units_Z   1
loop_
 _symmetry_equiv_pos_site_id
 _symmetry_equiv_pos_as_xyz
  1  'x, y, z'
loop_
 _atom_site_type_symbol
 _atom_site_label
 _atom_site_symmetry_multiplicity
 _atom_site_fract_x
 _atom_site_fract_y
 _atom_site_fract_z
 _atom_site_occupancy
  Mg  Mg0  1  0.16665538  0.83332719  0.12500000  1
  Mg  Mg1  1  0.16846874  0.83423387  0.62500000  1
  Mg  Mg2  1  0.66667281  0.33334462  0.12500000  1
  Mg  Mg3  1  0.66576613  0.33153126  0.62500000  1
  Mg  Mg4  1  0.66667281  0.83332719  0.12500000  1
  Mg  Mg5  1  0.66576613  0.83423387  0.62500000  1
  Mg  Mg6  1  0.32624880  0.17375120  0.37872647  1
  Mg  Mg7  1  0.32624880  0.17375120  0.87127353  1
  Mg  Mg8  1  0.32624880  0.65249860  0.37872647  1
  Mg  Mg9  1  0.32624880  0.65249860  0.87127353  1
  Mg  Mg10  1  0.84750140  0.17375120  0.37872647  1
  Mg  Mg11  1  0.84750140  0.17375120  0.87127353  1
  Mg  Mg12  1  0.83333300  0.66666700  0.37595067  1
  Mg  Mg13  1  0.83333300  0.66666700  0.87404933  1
  Zn  Zn14  1  0.16666700  0.33333300  0.12500000  1
  Mo  Mo15  1  0.16666700  0.33333300  0.62500000  1
