# generated using pymatgen
data_MgCrAs2O7
_symmetry_space_group_name_H-M   'P 1'
_cell_length_a   7.36512960
_cell_length_b   8.66307529
_cell_length_c   9.78069786
_cell_angle_alpha   90.00000000
_cell_angle_beta   113.65938805
_cell_angle_gamma   90.00000000
_symmetry_Int_Tables_number   1
_chemical_formula_structural   MgCrAs2O7
_chemical_formula_sum   'Mg4 Cr4 As8 O28'
_cell_volume   571.60075963
_cell_formula_units_Z   4
loop_
 _symmetry_equiv_pos_site_id
 _symmetry_equiv_pos_as_xyz
  1  'x, y, z'
loop_
 _atom_site_type_symbol
 _atom_site_label
 _atom_site_symmetry_multiplicity
 _atom_site_fract_x
 _atom_site_fract_y
 _atom_site_fract_z
 _atom_site_occupancy
  Mg  Mg0  1  0.26892912  0.92840994  0.89516528  1
  Mg  Mg1  1  0.73107088  0.42840994  0.60483472  1
  Mg  Mg2  1  0.73107088  0.07159006  0.10483472  1
  Mg  Mg3  1  0.26892912  0.57159006  0.39516528  1
  Cr  Cr4  1  0.79904526  0.05653094  0.66486339  1
  Cr  Cr5  1  0.20095474  0.55653094  0.83513661  1
  Cr  Cr6  1  0.20095474  0.94346906  0.33513661  1
  Cr  Cr7  1  0.79904526  0.44346906  0.16486339  1
  As  As8  1  0.43897041  0.22474371  0.75124961  1
  As  As9  1  0.56102959  0.72474371  0.74875039  1
  As  As10  1  0.56102959  0.77525629  0.24875039  1
  As  As11  1  0.43897041  0.27525629  0.25124861  1
  As  As12  1  0.03182856  0.27349351  0.96276265  1
  As  As13  1  0.96817144  0.77349351  0.53723735  1
  As  As14  1  0.96817144  0.72650649  0.03723735  1
  As  As15  1  0.03182856  0.22650649  0.46276265  1
  O  O16  1  0.86784988  0.26355786  0.04725499  1
  O  O17  1  0.13215012  0.76355786  0.45274501  1
  O  O18  1  0.13215012  0.73644214  0.95274501  1
  O  O19  1  0.86784988  0.23644214  0.54725499  1
  O  O20  1  0.35610972  0.40090552  0.76853979  1
  O  O21  1  0.64389028  0.90090552  0.73146021  1
  O  O22  1  0.64389028  0.59909448  0.23146021  1
  O  O23  1  0.35610972  0.09909448  0.26853979  1
  O  O24  1  0.47377023  0.09788651  0.89299697  1
  O  O25  1  0.52622977  0.59788651  0.60700303  1
  O  O26  1  0.52622977  0.90211349  0.10700303  1
  O  O27  1  0.47377023  0.40211349  0.39299697  1
  O  O28  1  0.25589561  0.13671138  0.58803518  1
  O  O29  1  0.74410439  0.63671138  0.91196482  1
  O  O30  1  0.74410439  0.86328862  0.41196482  1
  O  O31  1  0.25589561  0.36328862  0.08803518  1
  O  O32  1  0.97401927  0.08634122  0.32841674  1
  O  O33  1  0.02598073  0.58634122  0.17158326  1
  O  O34  1  0.02598073  0.91365878  0.67158326  1
  O  O35  1  0.97401927  0.41365878  0.82841674  1
  O  O36  1  0.63660060  0.26171574  0.20055081  1
  O  O37  1  0.36339940  0.76171574  0.29944919  1
  O  O38  1  0.36339940  0.73828426  0.79944919  1
  O  O39  1  0.63660060  0.23828426  0.70055081  1
  O  O40  1  0.06918324  0.40108366  0.40141054  1
  O  O41  1  0.93081676  0.90108366  0.09858946  1
  O  O42  1  0.93081676  0.59891634  0.59858946  1
  O  O43  1  0.06918324  0.09891634  0.90141054  1
