# generated using pymatgen
data_MgSi2SnO6
_symmetry_space_group_name_H-M   'P 1'
_cell_length_a   5.44700391
_cell_length_b   9.25249890
_cell_length_c   19.41605178
_cell_angle_alpha   90.00000000
_cell_angle_beta   90.00000000
_cell_angle_gamma   90.00000000
_symmetry_Int_Tables_number   1
_chemical_formula_structural   MgSi2SnO6
_chemical_formula_sum   'Mg8 Si16 Sn8 O48'
_cell_volume   978.53789909
_cell_formula_units_Z   8
loop_
 _symmetry_equiv_pos_site_id
 _symmetry_equiv_pos_as_xyz
  1  'x, y, z'
loop_
 _atom_site_type_symbol
 _atom_site_label
 _atom_site_symmetry_multiplicity
 _atom_site_fract_x
 _atom_site_fract_y
 _atom_site_fract_z
 _atom_site_occupancy
  Mg  Mg0  1  0.62036597  0.14839573  0.62548017  1
  Mg  Mg1  1  0.37963403  0.85160427  0.37451983  1
  Mg  Mg2  1  0.62036597  0.64839573  0.87451983  1
  Mg  Mg3  1  0.12036597  0.85160427  0.87451983  1
  Mg  Mg4  1  0.87963403  0.14839573  0.12548017  1
  Mg  Mg5  1  0.37963403  0.35160427  0.12548017  1
  Mg  Mg6  1  0.12036597  0.35160427  0.62548017  1
  Mg  Mg7  1  0.87963403  0.64839573  0.37451983  1
  Si  Si8  1  0.52359166  0.66009707  0.23481399  1
  Si  Si9  1  0.69583028  0.83878351  0.51618557  1
  Si  Si10  1  0.80416972  0.83878351  0.01618557  1
  Si  Si11  1  0.97640834  0.16009707  0.76518601  1
  Si  Si12  1  0.02359166  0.33990293  0.26518601  1
  Si  Si13  1  0.47640834  0.83990293  0.73481399  1
  Si  Si14  1  0.19583028  0.66121649  0.51618557  1
  Si  Si15  1  0.69583028  0.33878351  0.98381443  1
  Si  Si16  1  0.80416972  0.33878351  0.48381443  1
  Si  Si17  1  0.97640834  0.66009707  0.73481399  1
  Si  Si18  1  0.47640834  0.33990293  0.76518601  1
  Si  Si19  1  0.52359166  0.16009707  0.26518601  1
  Si  Si20  1  0.30416972  0.16121649  0.48381443  1
  Si  Si21  1  0.02359166  0.83990293  0.23481399  1
  Si  Si22  1  0.30416972  0.66121649  0.01618557  1
  Si  Si23  1  0.19583028  0.16121649  0.98381443  1
  Sn  Sn24  1  0.37811439  0.96858765  0.12025914  1
  Sn  Sn25  1  0.62188561  0.03141235  0.87974086  1
  Sn  Sn26  1  0.87811439  0.03141235  0.37974086  1
  Sn  Sn27  1  0.12188561  0.96858765  0.62025914  1
  Sn  Sn28  1  0.37811439  0.46858765  0.37974086  1
  Sn  Sn29  1  0.62188561  0.53141235  0.62025914  1
  Sn  Sn30  1  0.87811439  0.53141235  0.12025914  1
  Sn  Sn31  1  0.12188561  0.46858765  0.87974086  1
  O  O32  1  0.96411800  0.50621204  0.69468939  1
  O  O33  1  0.22993634  0.00674903  0.94643233  1
  O  O34  1  0.03588200  0.49378796  0.30531061  1
  O  O35  1  0.70552678  0.33144164  0.06918726  1
  O  O36  1  0.20552678  0.16855836  0.06918726  1
  O  O37  1  0.93252892  0.23555003  0.95869255  1
  O  O38  1  0.95870612  0.66092621  0.81996601  1
  O  O39  1  0.04129388  0.83907379  0.31996601  1
  O  O40  1  0.70552678  0.83144164  0.43081274  1
  O  O41  1  0.95870612  0.16092621  0.68003399  1
  O  O42  1  0.46411800  0.49378796  0.80531061  1
  O  O43  1  0.79447322  0.33144164  0.56918726  1
  O  O44  1  0.77006366  0.99325097  0.05356767  1
  O  O45  1  0.45870612  0.83907379  0.81996601  1
  O  O46  1  0.53588200  0.00621204  0.30531061  1
  O  O47  1  0.22993634  0.50674903  0.55356767  1
  O  O48  1  0.46411800  0.99378796  0.69468939  1
  O  O49  1  0.23187792  0.74366350  0.71056148  1
  O  O50  1  0.26812208  0.74366350  0.21056148  1
  O  O51  1  0.56747108  0.73555003  0.04130745  1
  O  O52  1  0.79447322  0.83144164  0.93081274  1
  O  O53  1  0.54129388  0.66092621  0.31996601  1
  O  O54  1  0.72993634  0.49325097  0.94643233  1
  O  O55  1  0.23187792  0.24366350  0.78943852  1
  O  O56  1  0.29447322  0.16855836  0.56918726  1
  O  O57  1  0.54129388  0.16092621  0.18003399  1
  O  O58  1  0.77006366  0.49325097  0.44643233  1
  O  O59  1  0.20552678  0.66855836  0.43081274  1
  O  O60  1  0.27006366  0.50674903  0.05356767  1
  O  O61  1  0.73187792  0.75633650  0.71056148  1
  O  O62  1  0.03588200  0.99378796  0.19468939  1
  O  O63  1  0.76812208  0.75633650  0.21056148  1
  O  O64  1  0.76812208  0.25633650  0.28943852  1
  O  O65  1  0.72993634  0.99325097  0.55356767  1
  O  O66  1  0.29447322  0.66855836  0.93081274  1
  O  O67  1  0.27006366  0.00674903  0.44643233  1
  O  O68  1  0.26812208  0.24366350  0.28943852  1
  O  O69  1  0.06747108  0.76444997  0.04130745  1
  O  O70  1  0.43252892  0.76444997  0.54130745  1
  O  O71  1  0.73187792  0.25633650  0.78943852  1
  O  O72  1  0.43252892  0.26444997  0.95869255  1
  O  O73  1  0.56747108  0.23555003  0.45869255  1
  O  O74  1  0.06747108  0.26444997  0.45869255  1
  O  O75  1  0.45870612  0.33907379  0.68003399  1
  O  O76  1  0.53588200  0.50621204  0.19468939  1
  O  O77  1  0.93252892  0.73555003  0.54130745  1
  O  O78  1  0.04129388  0.33907379  0.18003399  1
  O  O79  1  0.96411800  0.00621204  0.80531061  1
