# generated using pymatgen
data_MgTi(GeO3)2
_symmetry_space_group_name_H-M   'P 1'
_cell_length_a   5.36389690
_cell_length_b   8.50588229
_cell_length_c   12.04452124
_cell_angle_alpha   90.00000000
_cell_angle_beta   104.47532765
_cell_angle_gamma   90.00000000
_symmetry_Int_Tables_number   1
_chemical_formula_structural   MgTi(GeO3)2
_chemical_formula_sum   'Mg4 Ti4 Ge8 O24'
_cell_volume   532.08283046
_cell_formula_units_Z   4
loop_
 _symmetry_equiv_pos_site_id
 _symmetry_equiv_pos_as_xyz
  1  'x, y, z'
loop_
 _atom_site_type_symbol
 _atom_site_label
 _atom_site_symmetry_multiplicity
 _atom_site_fract_x
 _atom_site_fract_y
 _atom_site_fract_z
 _atom_site_occupancy
  Mg  Mg0  1  0.45174645  0.45659329  0.25636408  1
  Mg  Mg1  1  0.04825355  0.95659329  0.74363592  1
  Mg  Mg2  1  0.54825355  0.54340671  0.74363592  1
  Mg  Mg3  1  0.95174645  0.04340671  0.25636408  1
  Ti  Ti4  1  0.95738020  0.65575818  0.28054635  1
  Ti  Ti5  1  0.54261980  0.15575818  0.71945365  1
  Ti  Ti6  1  0.04261980  0.34424182  0.71945365  1
  Ti  Ti7  1  0.45738020  0.84424182  0.28054635  1
  Ge  Ge8  1  0.83938741  0.35717587  0.07615620  1
  Ge  Ge9  1  0.66061259  0.85717587  0.92384380  1
  Ge  Ge10  1  0.16061259  0.64282413  0.92384380  1
  Ge  Ge11  1  0.33938741  0.14282413  0.07615620  1
  Ge  Ge12  1  0.20782901  0.34909502  0.46930739  1
  Ge  Ge13  1  0.29217099  0.84909502  0.53069261  1
  Ge  Ge14  1  0.79217099  0.65090498  0.53069261  1
  Ge  Ge15  1  0.70782901  0.15090498  0.46930739  1
  O  O16  1  0.46242526  0.29070373  0.40238255  1
  O  O17  1  0.03757474  0.79070373  0.59761745  1
  O  O18  1  0.53757474  0.70929627  0.59761745  1
  O  O19  1  0.96242526  0.20929627  0.40238255  1
  O  O20  1  0.19961498  0.31718074  0.14883452  1
  O  O21  1  0.30038502  0.81718074  0.85116648  1
  O  O22  1  0.80038502  0.68281926  0.85116648  1
  O  O23  1  0.69961498  0.18281926  0.14883452  1
  O  O24  1  0.64609285  0.96289130  0.41503920  1
  O  O25  1  0.85390715  0.46289130  0.58496080  1
  O  O26  1  0.35390715  0.03710870  0.58496080  1
  O  O27  1  0.14609285  0.53710870  0.41503920  1
  O  O28  1  0.27070410  0.00339606  0.19776410  1
  O  O29  1  0.22929590  0.50339606  0.80223590  1
  O  O30  1  0.72929590  0.99660394  0.80223590  1
  O  O31  1  0.77070410  0.49660394  0.19776410  1
  O  O32  1  0.75874946  0.33622341  0.78232858  1
  O  O33  1  0.74125054  0.83622341  0.21767142  1
  O  O34  1  0.24125054  0.66377659  0.21767142  1
  O  O35  1  0.25874946  0.16377659  0.78232858  1
  O  O36  1  0.33014699  0.35042221  0.61918725  1
  O  O37  1  0.16985301  0.85042221  0.38081275  1
  O  O38  1  0.66985301  0.64957779  0.38081275  1
  O  O39  1  0.83014699  0.14957779  0.61918725  1
