# generated using pymatgen
data_CaSn(GeO3)2
_symmetry_space_group_name_H-M   'P 1'
_cell_length_a   5.54239211
_cell_length_b   10.14001352
_cell_length_c   11.10319076
_cell_angle_alpha   90.00000000
_cell_angle_beta   107.63557684
_cell_angle_gamma   90.00000000
_symmetry_Int_Tables_number   1
_chemical_formula_structural   CaSn(GeO3)2
_chemical_formula_sum   'Ca4 Sn4 Ge8 O24'
_cell_volume   594.67232661
_cell_formula_units_Z   4
loop_
 _symmetry_equiv_pos_site_id
 _symmetry_equiv_pos_as_xyz
  1  'x, y, z'
loop_
 _atom_site_type_symbol
 _atom_site_label
 _atom_site_symmetry_multiplicity
 _atom_site_fract_x
 _atom_site_fract_y
 _atom_site_fract_z
 _atom_site_occupancy
  Ca  Ca0  1  0.49321362  0.43390791  0.25019090  1
  Ca  Ca1  1  0.00678638  0.93390791  0.74980910  1
  Ca  Ca2  1  0.50678638  0.56609209  0.74980910  1
  Ca  Ca3  1  0.99321362  0.06609209  0.25019090  1
  Sn  Sn4  1  0.99310620  0.63362932  0.24884145  1
  Sn  Sn5  1  0.50689380  0.13362932  0.75115855  1
  Sn  Sn6  1  0.00689380  0.36637068  0.75115855  1
  Sn  Sn7  1  0.49310620  0.86637068  0.24884145  1
  Ge  Ge8  1  0.82322467  0.34797661  0.03822400  1
  Ge  Ge9  1  0.67677533  0.84797661  0.96177600  1
  Ge  Ge10  1  0.17677533  0.65202339  0.96177600  1
  Ge  Ge11  1  0.32322467  0.15202339  0.03822400  1
  Ge  Ge12  1  0.17652757  0.34831997  0.45996152  1
  Ge  Ge13  1  0.32347243  0.84831997  0.54003848  1
  Ge  Ge14  1  0.82347243  0.65168003  0.54003848  1
  Ge  Ge15  1  0.67652757  0.15168003  0.45996152  1
  O  O16  1  0.35135608  0.21593112  0.40475266  1
  O  O17  1  0.14864392  0.71593112  0.59524734  1
  O  O18  1  0.64864392  0.78406888  0.59524734  1
  O  O19  1  0.85135608  0.28406888  0.40475266  1
  O  O20  1  0.15396976  0.29123268  0.08584636  1
  O  O21  1  0.34603024  0.79123268  0.91415464  1
  O  O22  1  0.84603024  0.70876732  0.91415464  1
  O  O23  1  0.65396976  0.20876732  0.08584636  1
  O  O24  1  0.71910974  0.02281571  0.36368288  1
  O  O25  1  0.78089026  0.52281571  0.63631712  1
  O  O26  1  0.28089026  0.97718429  0.63631712  1
  O  O27  1  0.21910974  0.47718429  0.36368288  1
  O  O28  1  0.28657894  0.03505741  0.14677614  1
  O  O29  1  0.21342106  0.53505741  0.85322386  1
  O  O30  1  0.71342106  0.96494259  0.85322386  1
  O  O31  1  0.78657894  0.46494259  0.14677614  1
  O  O32  1  0.72807453  0.39792251  0.88229526  1
  O  O33  1  0.77192547  0.89792251  0.11770474  1
  O  O34  1  0.27192547  0.60207749  0.11770474  1
  O  O35  1  0.22807453  0.10207749  0.88229526  1
  O  O36  1  0.26986725  0.38894604  0.61874214  1
  O  O37  1  0.23013275  0.88894604  0.38125786  1
  O  O38  1  0.73013275  0.61105396  0.38125786  1
  O  O39  1  0.76986725  0.11105396  0.61874214  1
