# generated using pymatgen
data_ZnMo2O7
_symmetry_space_group_name_H-M   'P 1'
_cell_length_a   7.89743724
_cell_length_b   6.38346211
_cell_length_c   8.76202886
_cell_angle_alpha   118.86660447
_cell_angle_beta   90.00000000
_cell_angle_gamma   90.00000000
_symmetry_Int_Tables_number   1
_chemical_formula_structural   ZnMo2O7
_chemical_formula_sum   'Zn2 Mo4 O14'
_cell_volume   386.83462698
_cell_formula_units_Z   2
loop_
 _symmetry_equiv_pos_site_id
 _symmetry_equiv_pos_as_xyz
  1  'x, y, z'
loop_
 _atom_site_type_symbol
 _atom_site_label
 _atom_site_symmetry_multiplicity
 _atom_site_fract_x
 _atom_site_fract_y
 _atom_site_fract_z
 _atom_site_occupancy
  Zn  Zn0  1  0.81897202  0.58545595  0.66079573  1
  Zn  Zn1  1  0.31897202  0.41454405  0.33920427  1
  Mo  Mo2  1  0.87898276  0.27805672  0.20052955  1
  Mo  Mo3  1  0.37898276  0.72194328  0.79947045  1
  Mo  Mo4  1  0.31634113  0.84329651  0.22726204  1
  Mo  Mo5  1  0.81634113  0.15670349  0.77273796  1
  O  O6  1  0.63191270  0.06829578  0.65455057  1
  O  O7  1  0.13191170  0.93170422  0.34544943  1
  O  O8  1  0.28683136  0.53805600  0.58956771  1
  O  O9  1  0.78683136  0.46194400  0.41043229  1
  O  O10  1  0.92772742  0.35504818  0.71552907  1
  O  O11  1  0.42772742  0.64495182  0.28447093  1
  O  O12  1  0.60138807  0.65722056  0.78882863  1
  O  O13  1  0.10138807  0.34277944  0.21117137  1
  O  O14  1  0.93511850  0.89236102  0.72769414  1
  O  O15  1  0.43511850  0.10763898  0.27230586  1
  O  O16  1  0.77102779  0.31640538  0.01838832  1
  O  O17  1  0.27102779  0.68359462  0.98161168  1
  O  O18  1  0.85675427  0.98285818  0.14699322  1
  O  O19  1  0.35675427  0.01714182  0.85300678  1
