# generated using pymatgen
data_AlFe(WO4)2
_symmetry_space_group_name_H-M   'P 1'
_cell_length_a   5.12076815
_cell_length_b   5.54714460
_cell_length_c   9.19029880
_cell_angle_alpha   89.99965117
_cell_angle_beta   90.29892449
_cell_angle_gamma   89.99992285
_symmetry_Int_Tables_number   1
_chemical_formula_structural   AlFe(WO4)2
_chemical_formula_sum   'Al2 Fe2 W4 O16'
_cell_volume   261.05277878
_cell_formula_units_Z   2
loop_
 _symmetry_equiv_pos_site_id
 _symmetry_equiv_pos_as_xyz
  1  'x, y, z'
loop_
 _atom_site_type_symbol
 _atom_site_label
 _atom_site_symmetry_multiplicity
 _atom_site_fract_x
 _atom_site_fract_y
 _atom_site_fract_z
 _atom_site_occupancy
  Al  Al0  1  0.24999690  0.65394338  0.25000060  1
  Al  Al1  1  0.75000210  0.34605562  0.74999940  1
  Fe  Fe2  1  0.74999811  0.35588390  0.25000007  1
  Fe  Fe3  1  0.25000189  0.64411510  0.74999993  1
  W  W4  1  0.24792369  0.16517242  0.50100307  1
  W  W5  1  0.25207594  0.16517292  0.99899668  1
  W  W6  1  0.75207631  0.83482758  0.49899693  1
  W  W7  1  0.74792406  0.83482708  0.00100332  1
  O  O8  1  0.40301830  0.38322768  0.13546251  1
  O  O9  1  0.09697706  0.38322874  0.36454107  1
  O  O10  1  0.59698170  0.61677132  0.86453749  1
  O  O11  1  0.90302194  0.61677026  0.63545893  1
  O  O12  1  0.40744578  0.88214836  0.61094670  1
  O  O13  1  0.09255431  0.88215227  0.88905308  1
  O  O14  1  0.59255422  0.11785164  0.38905330  1
  O  O15  1  0.90744569  0.11784773  0.11094692  1
  O  O16  1  0.93467637  0.62399759  0.14134566  1
  O  O17  1  0.56532019  0.62400162  0.35865257  1
  O  O18  1  0.06532363  0.37600341  0.85865434  1
  O  O19  1  0.43467981  0.37599938  0.64134743  1
  O  O20  1  0.41621233  0.87592591  0.11748327  1
  O  O21  1  0.58378767  0.12407509  0.88251673  1
  O  O22  1  0.08378417  0.87592939  0.38251666  1
  O  O23  1  0.91621583  0.12407161  0.61748334  1
