# generated using pymatgen
data_Ge2MoO6
_symmetry_space_group_name_H-M   'P 1'
_cell_length_a   5.67306651
_cell_length_b   6.81747993
_cell_length_c   6.81748051
_cell_angle_alpha   83.82360815
_cell_angle_beta   77.44223578
_cell_angle_gamma   77.44222730
_symmetry_Int_Tables_number   1
_chemical_formula_structural   Ge2MoO6
_chemical_formula_sum   'Ge4 Mo2 O12'
_cell_volume   250.70440685
_cell_formula_units_Z   2
loop_
 _symmetry_equiv_pos_site_id
 _symmetry_equiv_pos_as_xyz
  1  'x, y, z'
loop_
 _atom_site_type_symbol
 _atom_site_label
 _atom_site_symmetry_multiplicity
 _atom_site_fract_x
 _atom_site_fract_y
 _atom_site_fract_z
 _atom_site_occupancy
  Ge  Ge0  1  0.76119767  0.38467038  0.20974836  1
  Ge  Ge1  1  0.73880233  0.79025164  0.61532962  1
  Ge  Ge2  1  0.23880233  0.61532962  0.79025164  1
  Ge  Ge3  1  0.26119767  0.20974836  0.38467038  1
  Mo  Mo4  1  0.75000000  0.90359850  0.09640150  1
  Mo  Mo5  1  0.25000000  0.09640150  0.90359850  1
  O  O6  1  0.50145903  0.33514475  0.38557556  1
  O  O7  1  0.99854097  0.61442444  0.66485525  1
  O  O8  1  0.49854097  0.66485525  0.61442444  1
  O  O9  1  0.00145903  0.38557556  0.33514475  1
  O  O10  1  0.19042637  0.09937424  0.62795608  1
  O  O11  1  0.30957363  0.37204492  0.90062576  1
  O  O12  1  0.80957363  0.90062576  0.37204492  1
  O  O13  1  0.69042637  0.62795608  0.09937424  1
  O  O14  1  0.86457884  0.18456415  0.03906333  1
  O  O15  1  0.63542116  0.96093667  0.81543585  1
  O  O16  1  0.13542116  0.81543585  0.96093667  1
  O  O17  1  0.36457884  0.03906333  0.18456415  1
