# generated using pymatgen
data_CaSi2NiO6
_symmetry_space_group_name_H-M   'P 1'
_cell_length_a   5.45559065
_cell_length_b   9.71675178
_cell_length_c   18.95129076
_cell_angle_alpha   90.00000000
_cell_angle_beta   90.00000000
_cell_angle_gamma   90.00000000
_symmetry_Int_Tables_number   1
_chemical_formula_structural   CaSi2NiO6
_chemical_formula_sum   'Ca8 Si16 Ni8 O48'
_cell_volume   1004.61967601
_cell_formula_units_Z   8
loop_
 _symmetry_equiv_pos_site_id
 _symmetry_equiv_pos_as_xyz
  1  'x, y, z'
loop_
 _atom_site_type_symbol
 _atom_site_label
 _atom_site_symmetry_multiplicity
 _atom_site_fract_x
 _atom_site_fract_y
 _atom_site_fract_z
 _atom_site_occupancy
  Ca  Ca0  1  0.61155372  0.14382256  0.62092524  1
  Ca  Ca1  1  0.38844628  0.85617744  0.37907476  1
  Ca  Ca2  1  0.61155372  0.64382256  0.87907476  1
  Ca  Ca3  1  0.11155372  0.85617744  0.87907476  1
  Ca  Ca4  1  0.88844628  0.14382256  0.12092524  1
  Ca  Ca5  1  0.38844628  0.35617744  0.12092524  1
  Ca  Ca6  1  0.11155372  0.35617744  0.62092524  1
  Ca  Ca7  1  0.88844628  0.64382256  0.37907476  1
  Si  Si8  1  0.56328189  0.66430416  0.22547204  1
  Si  Si9  1  0.75696779  0.83324128  0.52534314  1
  Si  Si10  1  0.74303221  0.83324128  0.02534314  1
  Si  Si11  1  0.93671811  0.16430416  0.77452796  1
  Si  Si12  1  0.06328189  0.33569584  0.27452796  1
  Si  Si13  1  0.43671811  0.83569584  0.72547204  1
  Si  Si14  1  0.25696779  0.66675872  0.52534314  1
  Si  Si15  1  0.75696779  0.33324128  0.97465686  1
  Si  Si16  1  0.74303221  0.33324128  0.47465686  1
  Si  Si17  1  0.93671811  0.66430416  0.72547204  1
  Si  Si18  1  0.43671811  0.33569584  0.77452796  1
  Si  Si19  1  0.56328189  0.16430416  0.27452796  1
  Si  Si20  1  0.24303221  0.16675872  0.47465686  1
  Si  Si21  1  0.06328189  0.83569584  0.22547204  1
  Si  Si22  1  0.24303221  0.66675872  0.02534314  1
  Si  Si23  1  0.25696779  0.16675872  0.97465686  1
  Ni  Ni24  1  0.38397981  0.00043420  0.12818304  1
  Ni  Ni25  1  0.61602019  -0.00043420  0.87181696  1
  Ni  Ni26  1  0.88397981  -0.00043420  0.37181696  1
  Ni  Ni27  1  0.11602019  0.00043420  0.62818304  1
  Ni  Ni28  1  0.38397981  0.50043420  0.37181696  1
  Ni  Ni29  1  0.61602019  0.49956580  0.62818304  1
  Ni  Ni30  1  0.88397981  0.49956580  0.12818304  1
  Ni  Ni31  1  0.11602019  0.50043420  0.87181696  1
  O  O32  1  0.91553362  0.51787987  0.68539702  1
  O  O33  1  0.32468861  0.03173951  0.92943695  1
  O  O34  1  0.08446638  0.48212013  0.31460298  1
  O  O35  1  0.75568615  0.35118876  0.06093883  1
  O  O36  1  0.25568615  0.14881124  0.06093883  1
  O  O37  1  0.96730485  0.21303397  0.95533715  1
  O  O38  1  0.95663828  0.65329740  0.81180866  1
  O  O39  1  0.04336172  0.84670260  0.31180866  1
  O  O40  1  0.75568615  0.85118876  0.43906117  1
  O  O41  1  0.95663828  0.15329740  0.68819134  1
  O  O42  1  0.41553362  0.48212013  0.81460298  1
  O  O43  1  0.74431385  0.35118876  0.56093883  1
  O  O44  1  0.67531139  0.96826049  0.07056305  1
  O  O45  1  0.45663828  0.84670260  0.81180866  1
  O  O46  1  0.58446638  0.01787987  0.31460298  1
  O  O47  1  0.32468861  0.53173951  0.57056305  1
  O  O48  1  0.41553362  0.98212013  0.68539702  1
  O  O49  1  0.17698351  0.75718386  0.70021945  1
  O  O50  1  0.32301649  0.75718386  0.20021945  1
  O  O51  1  0.53269515  0.71303397  0.04466285  1
  O  O52  1  0.74431385  0.85118876  0.93906117  1
  O  O53  1  0.54336172  0.65329740  0.31180866  1
  O  O54  1  0.82468861  0.46826049  0.92943695  1
  O  O55  1  0.17698351  0.25718386  0.79978055  1
  O  O56  1  0.24431385  0.14881124  0.56093883  1
  O  O57  1  0.54336172  0.15329740  0.18819134  1
  O  O58  1  0.67531139  0.46826049  0.42943695  1
  O  O59  1  0.25568615  0.64881124  0.43906117  1
  O  O60  1  0.17531139  0.53173951  0.07056305  1
  O  O61  1  0.67698351  0.74281614  0.70021945  1
  O  O62  1  0.08446638  0.98212013  0.18539702  1
  O  O63  1  0.82301649  0.74281614  0.20021945  1
  O  O64  1  0.82301649  0.24281614  0.29978055  1
  O  O65  1  0.82468861  0.96826049  0.57056305  1
  O  O66  1  0.24431385  0.64881124  0.93906117  1
  O  O67  1  0.17531139  0.03173951  0.42943695  1
  O  O68  1  0.32301649  0.25718386  0.29978055  1
  O  O69  1  0.03269515  0.78696603  0.04466285  1
  O  O70  1  0.46730485  0.78696603  0.54466285  1
  O  O71  1  0.67698351  0.24281614  0.79978055  1
  O  O72  1  0.46730485  0.28696603  0.95533715  1
  O  O73  1  0.53269515  0.21303397  0.45533715  1
  O  O74  1  0.03269515  0.28696603  0.45533715  1
  O  O75  1  0.45663828  0.34670260  0.68819134  1
  O  O76  1  0.58446638  0.51787987  0.18539702  1
  O  O77  1  0.96730485  0.71303397  0.54466285  1
  O  O78  1  0.04336172  0.34670260  0.18819134  1
  O  O79  1  0.91553362  0.01787987  0.81460298  1
