# generated using pymatgen
data_MgNiSnP2O9
_symmetry_space_group_name_H-M   'P 1'
_cell_length_a   6.41811738
_cell_length_b   7.71022716
_cell_length_c   14.35121300
_cell_angle_alpha   90.00001226
_cell_angle_beta   89.94766531
_cell_angle_gamma   90.05863363
_symmetry_Int_Tables_number   1
_chemical_formula_structural   MgNiSnP2O9
_chemical_formula_sum   'Mg4 Ni4 Sn4 P8 O36'
_cell_volume   710.17115829
_cell_formula_units_Z   4
loop_
 _symmetry_equiv_pos_site_id
 _symmetry_equiv_pos_as_xyz
  1  'x, y, z'
loop_
 _atom_site_type_symbol
 _atom_site_label
 _atom_site_symmetry_multiplicity
 _atom_site_fract_x
 _atom_site_fract_y
 _atom_site_fract_z
 _atom_site_occupancy
  Mg  Mg0  1  0.75010791  0.96697942  0.80850441  1
  Mg  Mg1  1  0.74989281  0.53300192  0.30863395  1
  Mg  Mg2  1  0.24988737  0.03301151  0.19146245  1
  Mg  Mg3  1  0.25011965  0.46699626  0.69139315  1
  Ni  Ni4  1  0.50001376  0.99999149  0.99999434  1
  Ni  Ni5  1  0.50000382  0.49999233  0.50000619  1
  Ni  Ni6  1  0.00001574  0.50000177  0.50001161  1
  Ni  Ni7  1  0.99999599  0.99999423  0.99999250  1
  Sn  Sn8  1  0.75001838  0.35549364  0.88299540  1
  Sn  Sn9  1  0.24997654  0.64450542  0.11700159  1
  Sn  Sn10  1  0.25004879  0.85544910  0.61713527  1
  Sn  Sn11  1  0.74995051  0.14455511  0.38286883  1
  P  P12  1  0.25005237  0.35328714  0.92863461  1
  P  P13  1  0.74994095  0.64671042  0.07136000  1
  P  P14  1  0.75025132  0.85359277  0.57140793  1
  P  P15  1  0.24974828  0.14641064  0.42859833  1
  P  P16  1  0.74996889  0.37692079  0.69011453  1
  P  P17  1  0.25003490  0.62308551  0.30988524  1
  P  P18  1  0.24995998  0.87682243  0.81002292  1
  P  P19  1  0.75003543  0.12318124  0.18997720  1
  O  O20  1  0.04485533  0.60936372  0.36654311  1
  O  O21  1  0.54482015  0.39062275  0.63369568  1
  O  O22  1  0.95526162  0.10931599  0.13337234  1
  O  O23  1  0.45500157  0.89066135  0.86647329  1
  O  O24  1  0.95515498  0.39063785  0.63346806  1
  O  O25  1  0.45518647  0.60937090  0.36630274  1
  O  O26  1  0.04472529  0.89067815  0.86662437  1
  O  O27  1  0.54499900  0.10933393  0.13352052  1
  O  O28  1  0.24929226  0.32408093  0.47638319  1
  O  O29  1  0.75071969  0.67591353  0.52362931  1
  O  O30  1  0.74994953  0.82431584  0.02357781  1
  O  O31  1  0.25005131  0.17567173  0.97640983  1
  O  O32  1  0.74987802  0.11513970  0.93340491  1
  O  O33  1  0.25012494  0.88485005  0.06657873  1
  O  O34  1  0.25063677  0.61525827  0.56641728  1
  O  O35  1  0.74938913  0.38474092  0.43359641  1
  O  O36  1  0.74986102  0.20380549  0.74800726  1
  O  O37  1  0.25013357  0.79620299  0.25199126  1
  O  O38  1  0.24965523  0.70369405  0.75208416  1
  O  O39  1  0.75033697  0.29631319  0.24791529  1
  O  O40  1  0.43511288  0.12493204  0.36011675  1
  O  O41  1  0.93517193  0.87562948  0.63999419  1
  O  O42  1  0.56464953  0.62456389  0.13983546  1
  O  O43  1  0.06494769  0.37510874  0.86022108  1
  O  O44  1  0.56488846  0.87508119  0.63989115  1
  O  O45  1  0.06482559  0.12438763  0.36001241  1
  O  O46  1  0.43534061  0.37544796  0.86015777  1
  O  O47  1  0.93504616  0.62490130  0.13977437  1
  O  O48  1  0.74971641  0.97891119  0.26789537  1
  O  O49  1  0.25027899  0.02109813  0.73210727  1
  O  O50  1  0.24943722  0.47873050  0.23197499  1
  O  O51  1  0.75054988  0.52127519  0.76802272  1
  O  O52  1  0.75012359  0.00271327  0.50043717  1
  O  O53  1  0.24986435  0.99727644  0.49956251  1
  O  O54  1  0.25001331  0.50234733  0.99966729  1
  O  O55  1  0.74997716  0.49763825  0.00033553  1
