# generated using pymatgen
data_Mg(CuO2)2
_symmetry_space_group_name_H-M   'P 1'
_cell_length_a   5.90722720
_cell_length_b   5.95598638
_cell_length_c   5.95598650
_cell_angle_alpha   59.99999668
_cell_angle_beta   59.72657515
_cell_angle_gamma   59.72656988
_symmetry_Int_Tables_number   1
_chemical_formula_structural   Mg(CuO2)2
_chemical_formula_sum   'Mg2 Cu4 O8'
_cell_volume   147.56004287
_cell_formula_units_Z   2
loop_
 _symmetry_equiv_pos_site_id
 _symmetry_equiv_pos_as_xyz
  1  'x, y, z'
loop_
 _atom_site_type_symbol
 _atom_site_label
 _atom_site_symmetry_multiplicity
 _atom_site_fract_x
 _atom_site_fract_y
 _atom_site_fract_z
 _atom_site_occupancy
  Mg  Mg0  1  0.96534721  0.01155126  0.01155126  1
  Mg  Mg1  1  0.12425826  0.62524725  0.62524725  1
  Cu  Cu2  1  0.26680085  0.24440038  0.24440038  1
  Cu  Cu3  1  0.62484957  0.12287360  0.62613792  1
  Cu  Cu4  1  0.62484957  0.62613792  0.12287360  1
  Cu  Cu5  1  0.62484957  0.62613792  0.62613792  1
  O  O6  1  0.40998154  0.37676985  0.37676985  1
  O  O7  1  0.40998154  0.37676985  0.83647676  1
  O  O8  1  0.40998154  0.83647676  0.37676985  1
  O  O9  1  0.87422899  0.37525667  0.37525667  1
  O  O10  1  0.37931053  0.87356249  0.87356249  1
  O  O11  1  0.84518694  0.41809733  0.86835836  1
  O  O12  1  0.84518694  0.86835836  0.41809733  1
  O  O13  1  0.84518694  0.86835836  0.86835836  1
