# generated using pymatgen
data_MgMn3(P2O7)2
_symmetry_space_group_name_H-M   'P 1'
_cell_length_a   7.53893001
_cell_length_b   7.63282880
_cell_length_c   9.74597406
_cell_angle_alpha   90.00000000
_cell_angle_beta   112.33948711
_cell_angle_gamma   90.00000000
_symmetry_Int_Tables_number   1
_chemical_formula_structural   MgMn3(P2O7)2
_chemical_formula_sum   'Mg2 Mn6 P8 O28'
_cell_volume   518.72573510
_cell_formula_units_Z   2
loop_
 _symmetry_equiv_pos_site_id
 _symmetry_equiv_pos_as_xyz
  1  'x, y, z'
loop_
 _atom_site_type_symbol
 _atom_site_label
 _atom_site_symmetry_multiplicity
 _atom_site_fract_x
 _atom_site_fract_y
 _atom_site_fract_z
 _atom_site_occupancy
  Mg  Mg0  1  0.50000000  -0.00000000  -0.00000000  1
  Mg  Mg1  1  0.50000000  0.50000000  0.50000000  1
  Mn  Mn2  1  0.19319625  0.87904013  0.52724176  1
  Mn  Mn3  1  0.80680375  0.37904013  0.97275824  1
  Mn  Mn4  1  0.80680375  0.12095987  0.47275824  1
  Mn  Mn5  1  0.19319625  0.62095987  0.02724176  1
  Mn  Mn6  1  0.00000000  -0.00000000  -0.00000000  1
  Mn  Mn7  1  0.00000000  0.50000000  0.50000000  1
  P  P8  1  0.59236802  0.08129963  0.70628109  1
  P  P9  1  0.40763198  0.58129963  0.79371891  1
  P  P10  1  0.40763198  0.91870037  0.29371891  1
  P  P11  1  0.59236802  0.41870037  0.20628109  1
  P  P12  1  0.85814108  0.79104716  0.68475844  1
  P  P13  1  0.14185892  0.29104716  0.81524156  1
  P  P14  1  0.14185892  0.20895284  0.31524156  1
  P  P15  1  0.85814108  0.70895284  0.18475844  1
  O  O16  1  0.78780377  0.61900253  0.59989690  1
  O  O17  1  0.21219623  0.11900253  0.90010310  1
  O  O18  1  0.21219623  0.38099747  0.40010310  1
  O  O19  1  0.78780377  0.88099747  0.09989690  1
  O  O20  1  0.28063028  0.61903545  0.62787533  1
  O  O21  1  0.71936972  0.11903545  0.87212467  1
  O  O22  1  0.71936972  0.38096455  0.37212467  1
  O  O23  1  0.28063028  0.88096455  0.12787533  1
  O  O24  1  0.61477629  0.21856588  0.59988914  1
  O  O25  1  0.38522371  0.71856588  0.90011086  1
  O  O26  1  0.38522371  0.78143412  0.40011086  1
  O  O27  1  0.61477629  0.28143412  0.09988914  1
  O  O28  1  0.66509492  0.89591377  0.66633937  1
  O  O29  1  0.33490508  0.39591377  0.83366063  1
  O  O30  1  0.33490508  0.10408623  0.33366063  1
  O  O31  1  0.66509492  0.60408623  0.16633937  1
  O  O32  1  0.39174069  0.46296445  0.19664146  1
  O  O33  1  0.60825931  0.96296445  0.30335854  1
  O  O34  1  0.60825931  0.53703555  0.80335854  1
  O  O35  1  0.39174069  0.03703555  0.69664146  1
  O  O36  1  0.02746287  0.22011045  0.14794590  1
  O  O37  1  0.97253713  0.72011045  0.35205410  1
  O  O38  1  0.97253713  0.77988955  0.85205410  1
  O  O39  1  0.02746287  0.27988955  0.64794590  1
  O  O40  1  0.96180744  0.59551679  0.10845981  1
  O  O41  1  0.03819256  0.09551679  0.39154019  1
  O  O42  1  0.03819256  0.40448321  0.89154019  1
  O  O43  1  0.96180744  0.90448321  0.60845981  1
