# generated using pymatgen
data_ZnCo3(P2O7)2
_symmetry_space_group_name_H-M   'P 1'
_cell_length_a   7.23343108
_cell_length_b   7.57492864
_cell_length_c   9.57032123
_cell_angle_alpha   90.00000000
_cell_angle_beta   111.43115947
_cell_angle_gamma   90.00000000
_symmetry_Int_Tables_number   1
_chemical_formula_structural   ZnCo3(P2O7)2
_chemical_formula_sum   'Zn2 Co6 P8 O28'
_cell_volume   488.12661955
_cell_formula_units_Z   2
loop_
 _symmetry_equiv_pos_site_id
 _symmetry_equiv_pos_as_xyz
  1  'x, y, z'
loop_
 _atom_site_type_symbol
 _atom_site_label
 _atom_site_symmetry_multiplicity
 _atom_site_fract_x
 _atom_site_fract_y
 _atom_site_fract_z
 _atom_site_occupancy
  Zn  Zn0  1  0.50000000  0.00000000  -0.00000000  1
  Zn  Zn1  1  0.50000000  0.50000000  0.50000000  1
  Co  Co2  1  0.18625028  0.86819962  0.51908377  1
  Co  Co3  1  0.81374972  0.36819962  0.98091623  1
  Co  Co4  1  0.81374972  0.13180038  0.48091623  1
  Co  Co5  1  0.18625028  0.63180038  0.01908377  1
  Co  Co6  1  -0.00000000  0.00000000  -0.00000000  1
  Co  Co7  1  -0.00000000  0.50000000  0.50000000  1
  P  P8  1  0.58284072  0.07236093  0.70466716  1
  P  P9  1  0.41715928  0.57236093  0.79533284  1
  P  P10  1  0.41715928  0.92763907  0.29533284  1
  P  P11  1  0.58284072  0.42763907  0.20466716  1
  P  P12  1  0.86531324  0.79229924  0.68795361  1
  P  P13  1  0.13468676  0.29229924  0.81204639  1
  P  P14  1  0.13468676  0.20770076  0.31204639  1
  P  P15  1  0.86531324  0.70770076  0.18795361  1
  O  O16  1  0.80443973  0.61571581  0.60241755  1
  O  O17  1  0.19556027  0.11571581  0.89758245  1
  O  O18  1  0.19556027  0.38428419  0.39758245  1
  O  O19  1  0.80443973  0.88428419  0.10241755  1
  O  O20  1  0.29744836  0.61279483  0.62491782  1
  O  O21  1  0.70255164  0.11279483  0.87508218  1
  O  O22  1  0.70255164  0.38720517  0.37508218  1
  O  O23  1  0.29744836  0.88720517  0.12491782  1
  O  O24  1  0.62356699  0.20692411  0.60002941  1
  O  O25  1  0.37643301  0.70692411  0.89997059  1
  O  O26  1  0.37643301  0.79307589  0.39997059  1
  O  O27  1  0.62356699  0.29307589  0.10002941  1
  O  O28  1  0.66005588  0.88298012  0.67196884  1
  O  O29  1  0.33994412  0.38298012  0.82803116  1
  O  O30  1  0.33994412  0.11701988  0.32803116  1
  O  O31  1  0.66005588  0.61701988  0.17196884  1
  O  O32  1  0.36947544  0.46868603  0.18225640  1
  O  O33  1  0.63052456  0.96868603  0.31774360  1
  O  O34  1  0.63052456  0.53131397  0.81774360  1
  O  O35  1  0.36947544  0.03131397  0.68225640  1
  O  O36  1  0.02045699  0.21372551  0.14129717  1
  O  O37  1  0.97954301  0.71372551  0.35870283  1
  O  O38  1  0.97954301  0.78627449  0.85870283  1
  O  O39  1  0.02045699  0.28627449  0.64129717  1
  O  O40  1  0.96761767  0.58739017  0.10992020  1
  O  O41  1  0.03238233  0.08739017  0.39007980  1
  O  O42  1  0.03238233  0.41260983  0.89007980  1
  O  O43  1  0.96761767  0.91260983  0.60992020  1
