# generated using pymatgen
data_CaNiBiO5
_symmetry_space_group_name_H-M   'P 1'
_cell_length_a   5.84738855
_cell_length_b   8.64050349
_cell_length_c   10.63317768
_cell_angle_alpha   90.00000000
_cell_angle_beta   90.00000000
_cell_angle_gamma   113.07370600
_symmetry_Int_Tables_number   1
_chemical_formula_structural   CaNiBiO5
_chemical_formula_sum   'Ca4 Ni4 Bi4 O20'
_cell_volume   494.25672405
_cell_formula_units_Z   4
loop_
 _symmetry_equiv_pos_site_id
 _symmetry_equiv_pos_as_xyz
  1  'x, y, z'
loop_
 _atom_site_type_symbol
 _atom_site_label
 _atom_site_symmetry_multiplicity
 _atom_site_fract_x
 _atom_site_fract_y
 _atom_site_fract_z
 _atom_site_occupancy
  Ca  Ca0  1  0.65227067  0.19341378  0.90639642  1
  Ca  Ca1  1  0.34772933  0.80658622  0.09360358  1
  Ca  Ca2  1  0.84772933  0.30658622  0.40639642  1
  Ca  Ca3  1  0.15227067  0.69341378  0.59360358  1
  Ni  Ni4  1  0.81082240  0.95491947  0.63149392  1
  Ni  Ni5  1  0.18917760  0.04508053  0.36850608  1
  Ni  Ni6  1  0.68917760  0.54508053  0.13149392  1
  Ni  Ni7  1  0.31082240  0.45491947  0.86850608  1
  Bi  Bi8  1  0.14963207  0.15661446  0.10022297  1
  Bi  Bi9  1  0.85036793  0.84338554  0.89977703  1
  Bi  Bi10  1  0.64963207  0.65661446  0.39977703  1
  Bi  Bi11  1  0.35036793  0.34338554  0.60022297  1
  O  O12  1  0.52040106  0.33447066  0.06689207  1
  O  O13  1  0.06329857  0.32263192  0.97527890  1
  O  O14  1  0.52049837  0.66542530  0.21609869  1
  O  O15  1  0.73000424  0.50854030  0.54300539  1
  O  O16  1  0.81168071  0.51692053  0.28585769  1
  O  O17  1  0.31168071  0.01692053  0.21414231  1
  O  O18  1  0.56329857  0.82263192  0.52472110  1
  O  O19  1  0.43670143  0.17736808  0.47527890  1
  O  O20  1  0.26999576  0.49145970  0.45699461  1
  O  O21  1  0.97959894  0.16552934  0.56689207  1
  O  O22  1  0.18831929  0.48307947  0.71414231  1
  O  O23  1  0.47959894  0.66552934  0.93310793  1
  O  O24  1  0.02040106  0.83447066  0.43310793  1
  O  O25  1  0.68831929  0.98307947  0.78585769  1
  O  O26  1  0.76999576  0.99145970  0.04300539  1
  O  O27  1  0.23000424  0.00854030  0.95699461  1
  O  O28  1  0.47950163  0.33457470  0.78390131  1
  O  O29  1  0.93670143  0.67736808  0.02472110  1
  O  O30  1  0.97950163  0.83457470  0.71609869  1
  O  O31  1  0.02049837  0.16542530  0.28390131  1
