# generated using pymatgen
data_Co(PO3)4
_symmetry_space_group_name_H-M   'P 1'
_cell_length_a   7.52429890
_cell_length_b   7.53382210
_cell_length_c   9.99994805
_cell_angle_alpha   86.86702489
_cell_angle_beta   68.65365916
_cell_angle_gamma   116.48543641
_symmetry_Int_Tables_number   1
_chemical_formula_structural   Co(PO3)4
_chemical_formula_sum   'Co2 P8 O24'
_cell_volume   456.27463734
_cell_formula_units_Z   2
loop_
 _symmetry_equiv_pos_site_id
 _symmetry_equiv_pos_as_xyz
  1  'x, y, z'
loop_
 _atom_site_type_symbol
 _atom_site_label
 _atom_site_symmetry_multiplicity
 _atom_site_fract_x
 _atom_site_fract_y
 _atom_site_fract_z
 _atom_site_occupancy
  Co  Co0  1  0.00000157  0.00000382  0.49999658  1
  Co  Co1  1  0.00000411  0.50000055  0.99999821  1
  P  P2  1  0.25974591  0.26267748  0.98498003  1
  P  P3  1  0.74669091  0.24488626  0.51580684  1
  P  P4  1  0.99860502  0.66578486  0.31206962  1
  P  P5  1  0.25330176  0.75511324  0.48419559  1
  P  P6  1  0.74026084  0.73732622  0.01502006  1
  P  P7  1  0.47809554  0.31106864  0.18768968  1
  P  P8  1  0.52191235  0.68893060  0.81230560  1
  P  P9  1  0.00138778  0.33421434  0.68793310  1
  O  O10  1  0.47314267  0.45521967  0.84824604  1
  O  O11  1  0.95026235  0.33851520  0.84597680  1
  O  O12  1  0.04973086  0.66147349  0.15402822  1
  O  O13  1  0.10787985  0.33425968  0.07559347  1
  O  O14  1  0.09143920  0.81749247  0.57377087  1
  O  O15  1  0.19596706  0.67695402  0.34845740  1
  O  O16  1  0.04627841  0.16507191  0.64154656  1
  O  O17  1  0.21318365  0.55045352  0.57846966  1
  O  O18  1  0.37253885  0.20976801  0.07777722  1
  O  O19  1  0.49927878  0.90650378  0.41528521  1
  O  O20  1  0.52686231  0.54477788  0.15175140  1
  O  O21  1  0.31606506  0.20403974  0.34529259  1
  O  O22  1  0.30552099  0.68730997  0.85908615  1
  O  O23  1  0.82111992  0.91369616  0.08440199  1
  O  O24  1  0.17886983  0.08630125  0.91560451  1
  O  O25  1  0.90856311  0.18251782  0.42622358  1
  O  O26  1  0.68394195  0.79595817  0.65470249  1
  O  O27  1  0.89213223  0.66574995  0.92440882  1
  O  O28  1  0.50071810  0.09348992  0.58471012  1
  O  O29  1  0.62746726  0.79023034  0.92221901  1
  O  O30  1  0.78680359  0.44954992  0.42153993  1
  O  O31  1  0.95372294  0.83493602  0.35844769  1
  O  O32  1  0.80401866  0.32303715  0.65154873  1
  O  O33  1  0.69448659  0.31268793  0.14090924  1
