# generated using pymatgen
data_Ba2MgCuSb2F14
_symmetry_space_group_name_H-M   'P 1'
_cell_length_a   5.35212424
_cell_length_b   7.77257061
_cell_length_c   16.22369021
_cell_angle_alpha   90.34378285
_cell_angle_beta   89.32934791
_cell_angle_gamma   110.81350571
_symmetry_Int_Tables_number   1
_chemical_formula_structural   Ba2MgCuSb2F14
_chemical_formula_sum   'Ba4 Mg2 Cu2 Sb4 F28'
_cell_volume   630.81446590
_cell_formula_units_Z   2
loop_
 _symmetry_equiv_pos_site_id
 _symmetry_equiv_pos_as_xyz
  1  'x, y, z'
loop_
 _atom_site_type_symbol
 _atom_site_label
 _atom_site_symmetry_multiplicity
 _atom_site_fract_x
 _atom_site_fract_y
 _atom_site_fract_z
 _atom_site_occupancy
  Ba  Ba0  1  0.08977591  0.35397359  0.62719991  1
  Ba  Ba1  1  0.26119953  0.35179592  0.12740998  1
  Ba  Ba2  1  0.91134775  0.64563635  0.37253564  1
  Ba  Ba3  1  0.74083554  0.64806577  0.87255177  1
  Mg  Mg4  1  0.44903563  0.99885816  0.74743280  1
  Mg  Mg5  1  0.55207931  0.00035443  0.25313602  1
  Cu  Cu6  1  0.50095940  0.99926143  0.99982161  1
  Cu  Cu7  1  0.50050331  0.99905621  0.49969092  1
  Sb  Sb8  1  0.07222390  0.22658291  0.87522870  1
  Sb  Sb9  1  0.92893769  0.77429256  0.12461902  1
  Sb  Sb10  1  0.15799432  0.22566969  0.37687356  1
  Sb  Sb11  1  0.84545822  0.77507798  0.62306942  1
  F  F12  1  0.82365228  0.97832533  0.32873255  1
  F  F13  1  0.88783344  0.30086534  0.45104311  1
  F  F14  1  0.11373030  0.69814249  0.54850436  1
  F  F15  1  0.61576933  0.49667312  0.60477295  1
  F  F16  1  0.65404403  0.06045357  0.60812017  1
  F  F17  1  0.59856207  0.93585958  0.89351592  1
  F  F18  1  0.41519058  0.30318809  0.94818191  1
  F  F19  1  0.83414864  0.02394486  0.17004668  1
  F  F20  1  0.34559458  0.35408272  0.78237342  1
  F  F21  1  0.38657315  0.50377572  0.39651327  1
  F  F22  1  0.77484324  0.21247954  0.76163642  1
  F  F23  1  0.11812429  0.50177718  0.89594309  1
  F  F24  1  0.43960217  0.21246725  0.26345226  1
  F  F25  1  0.22499273  0.78805800  0.23775945  1
  F  F26  1  0.40252042  0.06357510  0.10583828  1
  F  F27  1  0.65480547  0.64794252  0.21758486  1
  F  F28  1  0.12799274  0.83645423  0.98790629  1
  F  F29  1  0.17946869  0.02307734  0.67161989  1
  F  F30  1  0.87424735  0.16155083  0.01196967  1
  F  F31  1  0.70883411  0.84192559  0.48602298  1
  F  F32  1  0.58609027  0.69618294  0.05123182  1
  F  F33  1  0.56530032  0.78850110  0.73625117  1
  F  F34  1  0.01300134  0.34801119  0.28499374  1
  F  F35  1  0.29181638  0.15604353  0.51359880  1
  F  F36  1  0.34792894  0.93842611  0.39096312  1
  F  F37  1  0.16767459  0.97747113  0.83044869  1
  F  F38  1  0.99326733  0.65458473  0.71505386  1
  F  F39  1  0.88402170  0.49898688  0.10492092  1
