# generated using pymatgen
data_Sr2YGaNi2O7
_symmetry_space_group_name_H-M   'P 1'
_cell_length_a   5.53057313
_cell_length_b   5.62944180
_cell_length_c   11.88872076
_cell_angle_alpha   103.71179233
_cell_angle_beta   103.47156795
_cell_angle_gamma   90.00305967
_symmetry_Int_Tables_number   1
_chemical_formula_structural   Sr2YGaNi2O7
_chemical_formula_sum   'Sr4 Y2 Ga2 Ni4 O14'
_cell_volume   349.10189734
_cell_formula_units_Z   2
loop_
 _symmetry_equiv_pos_site_id
 _symmetry_equiv_pos_as_xyz
  1  'x, y, z'
loop_
 _atom_site_type_symbol
 _atom_site_label
 _atom_site_symmetry_multiplicity
 _atom_site_fract_x
 _atom_site_fract_y
 _atom_site_fract_z
 _atom_site_occupancy
  Sr  Sr0  1  0.14513724  0.16769991  0.29664572  1
  Sr  Sr1  1  0.84846392  0.83229238  0.70303544  1
  Sr  Sr2  1  0.64602081  0.62918671  0.29651277  1
  Sr  Sr3  1  0.34970572  0.37063046  0.70310669  1
  Y  Y4  1  0.50306244  0.49988554  -0.00011635  1
  Y  Y5  1  0.00279986  0.00012025  -0.00007010  1
  Ga  Ga6  1  0.20771093  0.82588928  0.49925744  1
  Ga  Ga7  1  0.70818763  0.17368967  0.50021940  1
  Ni  Ni8  1  0.41956227  0.91906108  0.83509916  1
  Ni  Ni9  1  0.08350727  0.58339520  0.16285754  1
  Ni  Ni10  1  0.92065561  0.41653191  0.83679933  1
  Ni  Ni11  1  0.58432531  0.08082176  0.16478196  1
  O  O12  1  0.81548674  0.31331408  0.12668980  1
  O  O13  1  0.86536889  0.87259681  0.50003473  1
  O  O14  1  0.31589782  0.31287355  0.12586861  1
  O  O15  1  0.84945888  0.37074168  0.65007758  1
  O  O16  1  0.68465685  0.18484103  0.86718859  1
  O  O17  1  0.18428277  0.18060202  0.86592786  1
  O  O18  1  0.36516652  0.12706811  0.49956598  1
  O  O19  1  0.18981865  0.68760236  0.87409398  1
  O  O20  1  0.68844265  0.68637502  0.87308109  1
  O  O21  1  0.35187861  0.77525120  0.64800959  1
  O  O22  1  0.19923535  0.62913576  0.34952155  1
  O  O23  1  0.70404772  0.22450296  0.35171162  1
  O  O24  1  0.81672192  0.81466207  0.13255408  1
  O  O25  1  0.31764562  0.82001419  0.13410594  1
