# generated using pymatgen
data_TiZnP3WO12
_symmetry_space_group_name_H-M   'P 1'
_cell_length_a   8.70166929
_cell_length_b   8.70166921
_cell_length_c   8.70166935
_cell_angle_alpha   60.48287482
_cell_angle_beta   60.48287562
_cell_angle_gamma   60.48288095
_symmetry_Int_Tables_number   1
_chemical_formula_structural   TiZnP3WO12
_chemical_formula_sum   'Ti2 Zn2 P6 W2 O24'
_cell_volume   470.98493409
_cell_formula_units_Z   2
loop_
 _symmetry_equiv_pos_site_id
 _symmetry_equiv_pos_as_xyz
  1  'x, y, z'
loop_
 _atom_site_type_symbol
 _atom_site_label
 _atom_site_symmetry_multiplicity
 _atom_site_fract_x
 _atom_site_fract_y
 _atom_site_fract_z
 _atom_site_occupancy
  Ti  Ti0  1  0.14663997  0.14663997  0.14663997  1
  Ti  Ti1  1  0.64663997  0.64663997  0.64663997  1
  Zn  Zn2  1  0.00194085  0.00194085  0.00194085  1
  Zn  Zn3  1  0.50194085  0.50194085  0.50194085  1
  P  P4  1  0.04147956  0.44847124  0.75920083  1
  P  P5  1  0.44847124  0.75920083  0.04147956  1
  P  P6  1  0.75920083  0.04147956  0.44847124  1
  P  P7  1  0.25920083  0.94847124  0.54147956  1
  P  P8  1  0.54147956  0.25920083  0.94847124  1
  P  P9  1  0.94847124  0.54147956  0.25920083  1
  W  W10  1  0.35789361  0.35789361  0.35789361  1
  W  W11  1  0.85789361  0.85789361  0.85789361  1
  O  O12  1  0.09399106  0.50235615  0.33094365  1
  O  O13  1  0.33094365  0.09399106  0.50235615  1
  O  O14  1  0.05151664  0.25397210  0.91800035  1
  O  O15  1  0.50235615  0.33094365  0.09399106  1
  O  O16  1  0.00235615  0.59399106  0.83094365  1
  O  O17  1  0.23548019  0.43298037  0.60286004  1
  O  O18  1  0.25397210  0.91800035  0.05151664  1
  O  O19  1  0.43298037  0.60286004  0.23548019  1
  O  O20  1  0.19334874  0.00157754  0.37734411  1
  O  O21  1  0.60286004  0.23548019  0.43298037  1
  O  O22  1  0.10286004  0.93298037  0.73548019  1
  O  O23  1  0.37734411  0.19334874  0.00157754  1
  O  O24  1  0.59399106  0.83094365  0.00235615  1
  O  O25  1  0.91800035  0.05151664  0.25397210  1
  O  O26  1  0.41800035  0.75397210  0.55151664  1
  O  O27  1  0.83094365  0.00235615  0.59399106  1
  O  O28  1  0.55151664  0.41800035  0.75397210  1
  O  O29  1  0.73548019  0.10286004  0.93298037  1
  O  O30  1  0.75397210  0.55151664  0.41800035  1
  O  O31  1  0.00157754  0.37734411  0.19334874  1
  O  O32  1  0.50157754  0.69334874  0.87734411  1
  O  O33  1  0.93298037  0.73548019  0.10286004  1
  O  O34  1  0.69334874  0.87734411  0.50157754  1
  O  O35  1  0.87734411  0.50157754  0.69334874  1
