# generated using pymatgen
data_ZnNiSnP2O9
_symmetry_space_group_name_H-M   'P 1'
_cell_length_a   6.37696336
_cell_length_b   7.69165646
_cell_length_c   14.64049349
_cell_angle_alpha   89.96135246
_cell_angle_beta   89.98763914
_cell_angle_gamma   90.00520697
_symmetry_Int_Tables_number   1
_chemical_formula_structural   ZnNiSnP2O9
_chemical_formula_sum   'Zn4 Ni4 Sn4 P8 O36'
_cell_volume   718.10740602
_cell_formula_units_Z   4
loop_
 _symmetry_equiv_pos_site_id
 _symmetry_equiv_pos_as_xyz
  1  'x, y, z'
loop_
 _atom_site_type_symbol
 _atom_site_label
 _atom_site_symmetry_multiplicity
 _atom_site_fract_x
 _atom_site_fract_y
 _atom_site_fract_z
 _atom_site_occupancy
  Zn  Zn0  1  0.75003870  0.97155245  0.81978865  1
  Zn  Zn1  1  0.74990827  0.52833623  0.31962891  1
  Zn  Zn2  1  0.24996383  0.02843522  0.18021859  1
  Zn  Zn3  1  0.25008623  0.47167313  0.68037397  1
  Ni  Ni4  1  0.50004831  0.00007876  -0.00001782  1
  Ni  Ni5  1  0.49997768  0.49995860  0.50001886  1
  Ni  Ni6  1  0.00001301  0.49998025  0.50000055  1
  Ni  Ni7  1  -0.00006328  0.00004778  -0.00002161  1
  Sn  Sn8  1  0.74995193  0.36075791  0.88312119  1
  Sn  Sn9  1  0.25004772  0.63922790  0.11687440  1
  Sn  Sn10  1  0.25004018  0.86073171  0.61690748  1
  Sn  Sn11  1  0.74995803  0.13927578  0.38309081  1
  P  P12  1  0.24987036  0.35303428  0.93018125  1
  P  P13  1  0.75012958  0.64697173  0.06985374  1
  P  P14  1  0.75010006  0.85341706  0.56986292  1
  P  P15  1  0.24990033  0.14659290  0.43010856  1
  P  P16  1  0.75003511  0.37713305  0.69265835  1
  P  P17  1  0.24996809  0.62287029  0.30732971  1
  P  P18  1  0.25002519  0.87736071  0.80702936  1
  P  P19  1  0.74997843  0.12263301  0.19297966  1
  O  O20  1  0.04612862  0.61020903  0.36591409  1
  O  O21  1  0.54644583  0.38989394  0.63401066  1
  O  O22  1  0.95397530  0.10991672  0.13425210  1
  O  O23  1  0.45384826  0.89012563  0.86578995  1
  O  O24  1  0.95386177  0.38979537  0.63410069  1
  O  O25  1  0.45355754  0.61010930  0.36600579  1
  O  O26  1  0.04603120  0.89007617  0.86574415  1
  O  O27  1  0.54615625  0.10986213  0.13420321  1
  O  O28  1  0.24967242  0.32579322  0.47664918  1
  O  O29  1  0.75032968  0.67421505  0.52336763  1
  O  O30  1  0.75045976  0.82687940  0.02376937  1
  O  O31  1  0.24956012  0.17312206  0.97621285  1
  O  O32  1  0.74979023  0.12027603  0.93731426  1
  O  O33  1  0.25023114  0.87972411  0.06268305  1
  O  O34  1  0.25030739  0.62019554  0.56304374  1
  O  O35  1  0.74969393  0.37982060  0.43696284  1
  O  O36  1  0.74992739  0.20551978  0.75152636  1
  O  O37  1  0.25006813  0.79446975  0.24848284  1
  O  O38  1  0.25003802  0.70575392  0.74861410  1
  O  O39  1  0.74995573  0.29424192  0.25138890  1
  O  O40  1  0.43632226  0.12497619  0.36385134  1
  O  O41  1  0.93641211  0.87501834  0.63618337  1
  O  O42  1  0.56372535  0.62481795  0.13597030  1
  O  O43  1  0.06360293  0.37525516  0.86395692  1
  O  O44  1  0.56365216  0.87503384  0.63615867  1
  O  O45  1  0.06360868  0.12499255  0.36382811  1
  O  O46  1  0.43630232  0.37517046  0.86400991  1
  O  O47  1  0.93636722  0.62472525  0.13602627  1
  O  O48  1  0.74996206  0.97726230  0.26789175  1
  O  O49  1  0.25003590  0.02274020  0.73210809  1
  O  O50  1  0.25001688  0.47748679  0.23231208  1
  O  O51  1  0.74998055  0.52252002  0.76770143  1
  O  O52  1  0.75001713  0.00227040  0.50001259  1
  O  O53  1  0.24997878  0.99770623  0.50000576  1
  O  O54  1  0.24999262  0.50057048  0.00059863  1
  O  O55  1  0.75000159  0.49938543  0.99936149  1
