# generated using pymatgen
data_TiZnNi(PO4)3
_symmetry_space_group_name_H-M   'P 1'
_cell_length_a   8.52776812
_cell_length_b   8.52776771
_cell_length_c   8.52776781
_cell_angle_alpha   60.59083998
_cell_angle_beta   60.59084440
_cell_angle_gamma   60.59084882
_symmetry_Int_Tables_number   1
_chemical_formula_structural   TiZnNi(PO4)3
_chemical_formula_sum   'Ti2 Zn2 Ni2 P6 O24'
_cell_volume   444.37382918
_cell_formula_units_Z   2
loop_
 _symmetry_equiv_pos_site_id
 _symmetry_equiv_pos_as_xyz
  1  'x, y, z'
loop_
 _atom_site_type_symbol
 _atom_site_label
 _atom_site_symmetry_multiplicity
 _atom_site_fract_x
 _atom_site_fract_y
 _atom_site_fract_z
 _atom_site_occupancy
  Ti  Ti0  1  0.14380549  0.14380549  0.14380549  1
  Ti  Ti1  1  0.64380549  0.64380549  0.64380549  1
  Zn  Zn2  1  0.99649268  0.99649268  0.99649268  1
  Zn  Zn3  1  0.49649268  0.49649268  0.49649268  1
  Ni  Ni4  1  0.35640400  0.35640400  0.35640400  1
  Ni  Ni5  1  0.85640400  0.85640400  0.85640400  1
  P  P6  1  0.04522511  0.45750692  0.74906118  1
  P  P7  1  0.45750692  0.74906118  0.04522511  1
  P  P8  1  0.74906118  0.04522511  0.45750692  1
  P  P9  1  0.24906118  0.95750692  0.54522511  1
  P  P10  1  0.54522511  0.24906118  0.95750692  1
  P  P11  1  0.95750692  0.54522511  0.24906118  1
  O  O12  1  0.11438872  0.51393283  0.30806682  1
  O  O13  1  0.30806682  0.11438872  0.51393283  1
  O  O14  1  0.05457658  0.26010188  0.91250723  1
  O  O15  1  0.51393283  0.30806682  0.11438872  1
  O  O16  1  0.01393283  0.61438872  0.80806682  1
  O  O17  1  0.24016498  0.44094714  0.58687936  1
  O  O18  1  0.26010188  0.91250723  0.05457658  1
  O  O19  1  0.44094714  0.58687936  0.24016498  1
  O  O20  1  0.18630229  0.00395414  0.37968066  1
  O  O21  1  0.58687936  0.24016498  0.44094714  1
  O  O22  1  0.08687936  0.94094714  0.74016498  1
  O  O23  1  0.37968066  0.18630229  0.00395414  1
  O  O24  1  0.61438872  0.80806682  0.01393283  1
  O  O25  1  0.91250723  0.05457658  0.26010188  1
  O  O26  1  0.41250723  0.76010188  0.55457658  1
  O  O27  1  0.80806682  0.01393283  0.61438872  1
  O  O28  1  0.55457658  0.41250723  0.76010188  1
  O  O29  1  0.74016498  0.08687936  0.94094714  1
  O  O30  1  0.76010188  0.55457658  0.41250723  1
  O  O31  1  0.00395414  0.37968066  0.18630229  1
  O  O32  1  0.50395414  0.68630229  0.87968066  1
  O  O33  1  0.94094714  0.74016498  0.08687936  1
  O  O34  1  0.68630229  0.87968066  0.50395414  1
  O  O35  1  0.87968066  0.50395414  0.68630229  1
