# generated using pymatgen
data_GdBr
_symmetry_space_group_name_H-M   'P 1'
_cell_length_a   3.82646672
_cell_length_b   3.82661221
_cell_length_c   10.12157330
_cell_angle_alpha   90.00000001
_cell_angle_beta   89.99702257
_cell_angle_gamma   120.00126479
_symmetry_Int_Tables_number   1
_chemical_formula_structural   GdBr
_chemical_formula_sum   'Gd2 Br2'
_cell_volume   128.34693844
_cell_formula_units_Z   2
loop_
 _symmetry_equiv_pos_site_id
 _symmetry_equiv_pos_as_xyz
  1  'x, y, z'
loop_
 _atom_site_type_symbol
 _atom_site_label
 _atom_site_symmetry_multiplicity
 _atom_site_fract_x
 _atom_site_fract_y
 _atom_site_fract_z
 _atom_site_occupancy
  Gd  Gd0  1  0.33335660  0.66667830  0.14175734  1
  Gd  Gd1  1  0.66664340  0.33332170  0.85824266  1
  Br  Br2  1  0.33335461  0.66667730  0.66407375  1
  Br  Br3  1  0.66664539  0.33332270  0.33592625  1
