# generated using pymatgen
data_CaLaCrWO6
_symmetry_space_group_name_H-M   'P 1'
_cell_length_a   5.57158231
_cell_length_b   5.72425546
_cell_length_c   7.89348362
_cell_angle_alpha   90.00000000
_cell_angle_beta   89.02588385
_cell_angle_gamma   90.00000000
_symmetry_Int_Tables_number   1
_chemical_formula_structural   CaLaCrWO6
_chemical_formula_sum   'Ca2 La2 Cr2 W2 O12'
_cell_volume   251.71175632
_cell_formula_units_Z   2
loop_
 _symmetry_equiv_pos_site_id
 _symmetry_equiv_pos_as_xyz
  1  'x, y, z'
loop_
 _atom_site_type_symbol
 _atom_site_label
 _atom_site_symmetry_multiplicity
 _atom_site_fract_x
 _atom_site_fract_y
 _atom_site_fract_z
 _atom_site_occupancy
  Ca  Ca0  1  0.48561618  0.45436351  0.74801215  1
  Ca  Ca1  1  0.98561618  0.04563649  0.24801215  1
  La  La2  1  0.01289149  0.96077633  0.75305121  1
  La  La3  1  0.51289149  0.53922367  0.25305121  1
  Cr  Cr4  1  0.50056875  0.00011082  0.49908321  1
  Cr  Cr5  1  0.00056875  0.49988918  0.99908321  1
  W  W6  1  0.50007293  0.00066734  0.00031071  1
  W  W7  1  0.00007293  0.49933266  0.50031071  1
  O  O8  1  0.08865142  0.47138593  0.24734350  1
  O  O9  1  0.20184555  0.21510971  0.94779428  1
  O  O10  1  0.20749055  0.20656937  0.54499126  1
  O  O11  1  0.29782175  0.70382153  0.95341941  1
  O  O12  1  0.30096457  0.71212000  0.55452591  1
  O  O13  1  0.40407481  0.97648667  0.25146837  1
  O  O14  1  0.58865142  0.02861407  0.74734350  1
  O  O15  1  0.70184555  0.28489029  0.44779428  1
  O  O16  1  0.70749055  0.29343063  0.04499126  1
  O  O17  1  0.79782175  0.79617847  0.45341941  1
  O  O18  1  0.80096457  0.78788000  0.05452591  1
  O  O19  1  0.90407481  0.52351333  0.75146837  1
