# generated using pymatgen
data_ZnCrPO5
_symmetry_space_group_name_H-M   'P 1'
_cell_length_a   5.41294175
_cell_length_b   7.23508183
_cell_length_c   8.08058193
_cell_angle_alpha   89.97453339
_cell_angle_beta   41.64647061
_cell_angle_gamma   72.22516940
_symmetry_Int_Tables_number   1
_chemical_formula_structural   ZnCrPO5
_chemical_formula_sum   'Zn2 Cr2 P2 O10'
_cell_volume   186.84892272
_cell_formula_units_Z   2
loop_
 _symmetry_equiv_pos_site_id
 _symmetry_equiv_pos_as_xyz
  1  'x, y, z'
loop_
 _atom_site_type_symbol
 _atom_site_label
 _atom_site_symmetry_multiplicity
 _atom_site_fract_x
 _atom_site_fract_y
 _atom_site_fract_z
 _atom_site_occupancy
  Zn  Zn0  1  0.50868514  0.22722696  0.67121447  1
  Zn  Zn1  1  0.51491598  0.72579367  0.30765262  1
  Cr  Cr2  1  0.49963130  0.48609249  0.99569854  1
  Cr  Cr3  1  0.49957063  0.98608317  0.99534657  1
  P  P4  1  0.49758347  0.23673747  0.34141633  1
  P  P5  1  0.49470385  0.73713747  0.65308184  1
  O  O6  1  0.39366326  0.09140979  0.28585816  1
  O  O7  1  0.60309857  0.38460246  0.18322680  1
  O  O8  1  0.59657311  0.88599562  0.70706605  1
  O  O9  1  0.38753566  0.59264547  0.81476324  1
  O  O10  1  0.85995631  0.60974403  0.34576343  1
  O  O11  1  0.13849859  0.85873922  0.70257075  1
  O  O12  1  0.13815642  0.36030334  0.64849239  1
  O  O13  1  0.85963647  0.11114055  0.28639490  1
  O  O14  1  0.49595547  0.73696907  0.08848839  1
  O  O15  1  0.49856478  0.23650922  0.90497953  1
