# generated using pymatgen
data_Sr5Ca3FeCo7O24
_symmetry_space_group_name_H-M   'P 1'
_cell_length_a   7.73118237
_cell_length_b   7.64759287
_cell_length_c   7.73118237
_cell_angle_alpha   90.02093555
_cell_angle_beta   90.06210521
_cell_angle_gamma   89.97906445
_symmetry_Int_Tables_number   1
_chemical_formula_structural   Sr5Ca3FeCo7O24
_chemical_formula_sum   'Sr5 Ca3 Fe1 Co7 O24'
_cell_volume   457.10532662
_cell_formula_units_Z   1
loop_
 _symmetry_equiv_pos_site_id
 _symmetry_equiv_pos_as_xyz
  1  'x, y, z'
loop_
 _atom_site_type_symbol
 _atom_site_label
 _atom_site_symmetry_multiplicity
 _atom_site_fract_x
 _atom_site_fract_y
 _atom_site_fract_z
 _atom_site_occupancy
  Sr  Sr0  1  0.24766321  0.25244483  0.24729835  1
  Sr  Sr1  1  0.24755104  0.25306749  0.75244896  1
  Sr  Sr2  1  0.75209784  0.25278386  0.24790216  1
  Sr  Sr3  1  0.75270165  0.25244483  0.75233679  1
  Sr  Sr4  1  0.75219017  0.74786823  0.24780983  1
  Ca  Ca5  1  0.24385501  0.74218096  0.24293703  1
  Ca  Ca6  1  0.24473750  0.74247393  0.75526250  1
  Ca  Ca7  1  0.75706297  0.74218096  0.75614499  1
  Fe  Fe8  1  0.00067903  0.99751826  0.99932097  1
  Co  Co9  1  0.00105438  0.99584557  0.50067407  1
  Co  Co10  1  0.00019960  0.50133030  -0.00019960  1
  Co  Co11  1  0.00040918  0.50169453  0.50064455  1
  Co  Co12  1  0.49932593  0.99584557  0.99894562  1
  Co  Co13  1  0.49886172  -0.00250306  0.50113828  1
  Co  Co14  1  0.49935545  0.50169453  0.99959082  1
  Co  Co15  1  0.49892859  0.50415837  0.50107141  1
  O  O16  1  0.25096688  0.99222506  0.99926657  1
  O  O17  1  0.23526473  0.99586148  0.50133317  1
  O  O18  1  0.24472107  0.50791287  0.99956553  1
  O  O19  1  0.25730339  0.50842027  0.50309300  1
  O  O20  1  0.74942847  0.99418486  0.99671574  1
  O  O21  1  0.76527794  0.99725117  0.50150841  1
  O  O22  1  0.75601999  0.50658398  0.99361376  1
  O  O23  1  0.74169463  0.50503129  0.50239702  1
  O  O24  1  0.00049946  0.25360349  0.99950054  1
  O  O25  1  0.00039240  0.26565735  0.49997065  1
  O  O26  1  0.00332307  0.74559050  0.99667693  1
  O  O27  1  0.00135775  0.73620833  0.50252401  1
  O  O28  1  0.50002935  0.26565735  -0.00039240  1
  O  O29  1  0.49905925  0.23386624  0.50094075  1
  O  O30  1  0.49747599  0.73620833  0.99864225  1
  O  O31  1  0.49800556  0.76723726  0.50199444  1
  O  O32  1  0.00328426  0.99418486  0.25057153  1
  O  O33  1  0.00073343  0.99222506  0.74903312  1
  O  O34  1  0.00638624  0.50658398  0.24398001  1
  O  O35  1  0.00043447  0.50791287  0.75527893  1
  O  O36  1  0.49849159  0.99725117  0.23472206  1
  O  O37  1  0.49866683  0.99586148  0.76473527  1
  O  O38  1  0.49760298  0.50503129  0.25830537  1
  O  O39  1  0.49690700  0.50842027  0.74269661  1
