# generated using pymatgen
data_CaFeSiO5
_symmetry_space_group_name_H-M   'P 1'
_cell_length_a   5.52833973
_cell_length_b   6.98818836
_cell_length_c   8.84936193
_cell_angle_alpha   89.87702121
_cell_angle_beta   143.16239995
_cell_angle_gamma   76.03031386
_symmetry_Int_Tables_number   1
_chemical_formula_structural   CaFeSiO5
_chemical_formula_sum   'Ca2 Fe2 Si2 O10'
_cell_volume   187.36257109
_cell_formula_units_Z   2
loop_
 _symmetry_equiv_pos_site_id
 _symmetry_equiv_pos_as_xyz
  1  'x, y, z'
loop_
 _atom_site_type_symbol
 _atom_site_label
 _atom_site_symmetry_multiplicity
 _atom_site_fract_x
 _atom_site_fract_y
 _atom_site_fract_z
 _atom_site_occupancy
  Ca  Ca0  1  0.49813280  0.24682354  0.16962633  1
  Ca  Ca1  1  0.49463601  0.74418756  0.82858018  1
  Fe  Fe2  1  0.49658425  0.49597848  0.49912401  1
  Fe  Fe3  1  0.49648646  0.99595447  0.49916543  1
  Si  Si4  1  0.49735137  0.24564603  0.81753867  1
  Si  Si5  1  0.49556174  0.74618259  0.18066285  1
  O  O6  1  0.29602986  0.10888763  0.61378221  1
  O  O7  1  0.70117413  0.38101217  0.81540407  1
  O  O8  1  0.69666585  0.88299510  0.38431691  1
  O  O9  1  0.29174670  0.61078508  0.18279209  1
  O  O10  1  0.86502848  0.58731411  0.24725071  1
  O  O11  1  0.12721791  0.90343365  0.87659494  1
  O  O12  1  0.12822692  0.40467208  0.75113915  1
  O  O13  1  0.86586658  0.08843423  0.12163432  1
  O  O14  1  0.49645170  0.74563579  0.56877569  1
  O  O15  1  0.49683623  0.24621949  0.42962044  1
