# generated using pymatgen
data_Mg2TiWO6
_symmetry_space_group_name_H-M   'P 1'
_cell_length_a   5.20612760
_cell_length_b   5.57323248
_cell_length_c   7.59546826
_cell_angle_alpha   95.33646187
_cell_angle_beta   133.10482569
_cell_angle_gamma   117.62872377
_symmetry_Int_Tables_number   1
_chemical_formula_structural   Mg2TiWO6
_chemical_formula_sum   'Mg2 Ti1 W1 O6'
_cell_volume   110.28007171
_cell_formula_units_Z   1
loop_
 _symmetry_equiv_pos_site_id
 _symmetry_equiv_pos_as_xyz
  1  'x, y, z'
loop_
 _atom_site_type_symbol
 _atom_site_label
 _atom_site_symmetry_multiplicity
 _atom_site_fract_x
 _atom_site_fract_y
 _atom_site_fract_z
 _atom_site_occupancy
  Mg  Mg0  1  0.99194007  0.56032504  0.20662631  1
  Mg  Mg1  1  0.99363723  0.56983731  0.69810781  1
  Ti  Ti2  1  0.99104495  0.98487215  0.49147671  1
  W  W3  1  0.98949686  0.97973276  0.99584161  1
  O  O4  1  0.26574867  0.08275445  0.39113718  1
  O  O5  1  0.72560646  0.80984539  0.61288818  1
  O  O6  1  0.68674111  0.49790469  0.29481719  1
  O  O7  1  0.59931437  0.08424065  0.88915855  1
  O  O8  1  0.35101636  0.81909546  0.12618025  1
  O  O9  1  0.36616093  0.45300008  0.76747620  1
