# generated using pymatgen
data_Ba2YCo2F11
_symmetry_space_group_name_H-M   'P 1'
_cell_length_a   7.92267843
_cell_length_b   7.92267836
_cell_length_c   13.60974558
_cell_angle_alpha   90.00000000
_cell_angle_beta   90.00000000
_cell_angle_gamma   120.00000026
_symmetry_Int_Tables_number   1
_chemical_formula_structural   Ba2YCo2F11
_chemical_formula_sum   'Ba6 Y3 Co6 F33'
_cell_volume   739.81765527
_cell_formula_units_Z   3
loop_
 _symmetry_equiv_pos_site_id
 _symmetry_equiv_pos_as_xyz
  1  'x, y, z'
loop_
 _atom_site_type_symbol
 _atom_site_label
 _atom_site_symmetry_multiplicity
 _atom_site_fract_x
 _atom_site_fract_y
 _atom_site_fract_z
 _atom_site_occupancy
  Ba  Ba0  1  0.55303707  0.18561986  0.66358659  1
  Ba  Ba1  1  0.16749344  0.52463952  0.82128119  1
  Ba  Ba2  1  0.63258280  0.44696293  0.99691959  1
  Ba  Ba3  1  0.47536048  0.64285291  0.48794719  1
  Ba  Ba4  1  0.35714709  0.83250656  0.15461419  1
  Ba  Ba5  1  0.81438014  0.36741720  0.33025259  1
  Y  Y6  1  0.13055846  0.00707556  0.89409936  1
  Y  Y7  1  0.87651810  0.86944154  0.22743236  1
  Y  Y8  1  0.99292444  0.12348190  0.56076536  1
  Co  Co9  1  0.62747669  0.99337788  0.88324628  1
  Co  Co10  1  0.78200173  0.73722827  0.72165824  1
  Co  Co11  1  0.26277173  0.04477345  0.38832424  1
  Co  Co12  1  0.36590119  0.37252331  0.21657928  1
  Co  Co13  1  0.95522655  0.21799827  0.05499124  1
  Co  Co14  1  0.00662212  0.63409881  0.54991228  1
  F  F15  1  0.66722159  0.09757704  0.02519149  1
  F  F16  1  0.50302139  0.71999595  0.93094637  1
  F  F17  1  0.43035545  0.33277841  0.35852449  1
  F  F18  1  0.08232745  0.41593640  0.49010271  1
  F  F19  1  0.56879353  0.30344200  0.17768655  1
  F  F20  1  0.96364730  0.65633094  0.19282357  1
  F  F21  1  0.58406360  0.66639105  0.15676971  1
  F  F22  1  0.34366906  0.30731636  0.85949057  1
  F  F23  1  0.73464747  0.43120647  0.51101955  1
  F  F24  1  0.24485903  0.33178955  0.07895069  1
  F  F25  1  0.33360895  0.91767255  0.82343671  1
  F  F26  1  0.90242296  0.56964455  0.69185849  1
  F  F27  1  0.30958483  0.01581862  0.01131891  1
  F  F28  1  0.01379552  0.48478031  0.00862665  1
  F  F29  1  0.70623379  0.69041517  0.34465191  1
  F  F30  1  0.28000405  0.78302544  0.59761237  1
  F  F31  1  0.94956367  0.14789776  0.90205297  1
  F  F32  1  0.08693051  0.75514097  0.41228369  1
  F  F33  1  0.99880193  0.05922677  0.39108726  1
  F  F34  1  0.98418138  0.29376621  0.67798491  1
  F  F35  1  0.06042483  0.00119807  0.72442126  1
  F  F36  1  0.51521969  0.52901521  0.67529365  1
  F  F37  1  0.47098479  0.98620448  0.34195965  1
  F  F38  1  0.19833408  0.05043633  0.23538597  1
  F  F39  1  0.66821045  0.91306949  0.74561769  1
  F  F40  1  0.69655800  0.26535253  0.84435355  1
  F  F41  1  0.21697456  0.49697861  0.26427937  1
  F  F42  1  0.87782075  0.71446409  0.86530918  1
  F  F43  1  0.83664334  0.12217925  0.19864218  1
  F  F44  1  0.94077323  0.93957517  0.05775426  1
  F  F45  1  0.69268364  0.03635270  0.52615657  1
  F  F46  1  0.85210224  0.80166592  0.56871897  1
  F  F47  1  0.28553591  0.16335666  0.53197518  1
