# generated using pymatgen
data_Sr3Ca5Fe5(CoO8)3
_symmetry_space_group_name_H-M   'P 1'
_cell_length_a   7.68611054
_cell_length_b   7.70192191
_cell_length_c   7.68621764
_cell_angle_alpha   90.02343850
_cell_angle_beta   89.98679451
_cell_angle_gamma   89.99795718
_symmetry_Int_Tables_number   1
_chemical_formula_structural   Sr3Ca5Fe5(CoO8)3
_chemical_formula_sum   'Sr3 Ca5 Fe5 Co3 O24'
_cell_volume   455.00730264
_cell_formula_units_Z   1
loop_
 _symmetry_equiv_pos_site_id
 _symmetry_equiv_pos_as_xyz
  1  'x, y, z'
loop_
 _atom_site_type_symbol
 _atom_site_label
 _atom_site_symmetry_multiplicity
 _atom_site_fract_x
 _atom_site_fract_y
 _atom_site_fract_z
 _atom_site_occupancy
  Sr  Sr0  1  0.25128610  0.25139368  0.25284027  1
  Sr  Sr1  1  0.25124055  0.25142953  0.74708588  1
  Sr  Sr2  1  0.74861396  0.25117656  0.74693274  1
  Ca  Ca3  1  0.25189136  0.74862571  0.25313012  1
  Ca  Ca4  1  0.25178051  0.74879120  0.74697880  1
  Ca  Ca5  1  0.74819442  0.25140819  0.25292471  1
  Ca  Ca6  1  0.74853153  0.74829258  0.25287779  1
  Ca  Ca7  1  0.74856839  0.74838478  0.74705571  1
  Fe  Fe8  1  0.99933709  0.99781559  0.00079766  1
  Fe  Fe9  1  0.99910405  0.99743834  0.49944382  1
  Fe  Fe10  1  0.99940881  0.50165771  0.00089262  1
  Fe  Fe11  1  0.50060236  0.99808150  0.00072637  1
  Fe  Fe12  1  0.50060989  0.50174806  0.00106174  1
  Co  Co13  1  0.99916741  0.50223223  0.49929709  1
  Co  Co14  1  0.50083557  0.99716064  0.49914672  1
  Co  Co15  1  0.50093130  0.50256139  0.49934481  1
  O  O16  1  0.25001508  0.99408067  0.00086339  1
  O  O17  1  0.25755942  0.99463580  0.49912193  1
  O  O18  1  0.25259218  0.50646994  0.00067536  1
  O  O19  1  0.24586843  0.50813661  0.49906021  1
  O  O20  1  0.74995696  0.99538276  0.00258430  1
  O  O21  1  0.74262822  0.99515902  0.49769835  1
  O  O22  1  0.74756548  0.50421807  0.00287511  1
  O  O23  1  0.75411944  0.50482073  0.49703857  1
  O  O24  1  0.99689838  0.24998590  0.00289661  1
  O  O25  1  0.99606595  0.25429609  0.49691953  1
  O  O26  1  0.99942795  0.74974974  0.00096806  1
  O  O27  1  0.00002140  0.74585895  0.49906041  1
  O  O28  1  0.50261046  0.25282761  0.00306403  1
  O  O29  1  0.50351990  0.24856776  0.49641443  1
  O  O30  1  0.50123871  0.74742316  0.00079986  1
  O  O31  1  0.50115270  0.75134871  0.49902421  1
  O  O32  1  0.99741066  0.99556725  0.25164790  1
  O  O33  1  0.99922222  0.99369589  0.74846457  1
  O  O34  1  0.99687617  0.50496556  0.25268378  1
  O  O35  1  0.99851292  0.50678081  0.74744653  1
  O  O36  1  0.50258861  0.99516543  0.25231472  1
  O  O37  1  0.50065539  0.99248851  0.74787049  1
  O  O38  1  0.50255425  0.50446131  0.26081977  1
  O  O39  1  0.50083582  0.50571601  0.73915103  1
