# generated using pymatgen
data_SrCa3TiMn3O10
_symmetry_space_group_name_H-M   'P 1'
_cell_length_a   11.00674180
_cell_length_b   11.27526361
_cell_length_c   17.24497899
_cell_angle_alpha   108.91949003
_cell_angle_beta   108.53626419
_cell_angle_gamma   89.97779398
_symmetry_Int_Tables_number   1
_chemical_formula_structural   SrCa3TiMn3O10
_chemical_formula_sum   'Sr8 Ca24 Ti8 Mn24 O80'
_cell_volume   1906.89599195
_cell_formula_units_Z   8
loop_
 _symmetry_equiv_pos_site_id
 _symmetry_equiv_pos_as_xyz
  1  'x, y, z'
loop_
 _atom_site_type_symbol
 _atom_site_label
 _atom_site_symmetry_multiplicity
 _atom_site_fract_x
 _atom_site_fract_y
 _atom_site_fract_z
 _atom_site_occupancy
  Sr  Sr0  1  0.30977436  0.56101936  0.60938983  1
  Sr  Sr1  1  0.80885615  0.06250335  0.60986374  1
  Sr  Sr2  1  0.19358387  0.43738451  0.88905367  1
  Sr  Sr3  1  0.05856251  0.29729876  0.60843104  1
  Sr  Sr4  1  0.05928909  0.79859781  0.60982936  1
  Sr  Sr5  1  0.55845688  0.29989549  0.61003516  1
  Sr  Sr6  1  0.44106245  0.19814029  0.88622507  1
  Sr  Sr7  1  0.94412019  0.20153815  0.38719646  1
  Ca  Ca8  1  0.29932991  0.07051684  0.11232280  1
  Ca  Ca9  1  0.30393054  0.06146981  0.60480381  1
  Ca  Ca10  1  0.30345486  0.56478220  0.11370098  1
  Ca  Ca11  1  0.80473833  0.06728050  0.10882749  1
  Ca  Ca12  1  0.80329605  0.56834553  0.11353473  1
  Ca  Ca13  1  0.80621153  0.56387188  0.60546518  1
  Ca  Ca14  1  0.20004253  0.43477563  0.39321174  1
  Ca  Ca15  1  0.19157243  0.93269693  0.38982157  1
  Ca  Ca16  1  0.19566607  0.93566630  0.89252227  1
  Ca  Ca17  1  0.69918938  0.43597624  0.39238563  1
  Ca  Ca18  1  0.69742413  0.43638216  0.89191597  1
  Ca  Ca19  1  0.69918510  0.93188775  0.39032482  1
  Ca  Ca20  1  0.68938333  0.93258150  0.88753488  1
  Ca  Ca21  1  0.05600453  0.29031451  0.11150172  1
  Ca  Ca22  1  0.05095653  0.79976349  0.11403719  1
  Ca  Ca23  1  0.55286981  0.29362015  0.11234190  1
  Ca  Ca24  1  0.55634135  0.79463237  0.11390018  1
  Ca  Ca25  1  0.55810522  0.79078991  0.60666899  1
  Ca  Ca26  1  0.45129035  0.20940901  0.39076341  1
  Ca  Ca27  1  0.44853941  0.70474743  0.39037810  1
  Ca  Ca28  1  0.44292263  0.70729534  0.89067812  1
  Ca  Ca29  1  0.95074719  0.21107697  0.89242860  1
  Ca  Ca30  1  0.94571230  0.70716966  0.39155790  1
  Ca  Ca31  1  0.94171467  0.70086294  0.88936951  1
  Ti  Ti32  1  0.00106113  0.99731347  0.99550709  1
  Ti  Ti33  1  0.00518106  0.50278970  0.00649401  1
  Ti  Ti34  1  0.50432899  0.00000828  0.00396730  1
  Ti  Ti35  1  0.50413857  0.99694360  0.49668921  1
  Ti  Ti36  1  0.50386466  0.50240385  0.00171515  1
  Ti  Ti37  1  0.25391669  0.75274361  0.00551436  1
  Ti  Ti38  1  0.75157558  0.25074255  0.99893985  1
  Ti  Ti39  1  0.75431232  0.75048956  0.00092736  1
  Mn  Mn40  1  0.00541428  0.99674794  0.49762380  1
  Mn  Mn41  1  0.00426932  0.50061954  0.49691174  1
  Mn  Mn42  1  0.50588763  0.50150022  0.49749680  1
  Mn  Mn43  1  0.25557435  0.25175384  0.00273729  1
  Mn  Mn44  1  0.25512455  0.24527297  0.49645273  1
  Mn  Mn45  1  0.25727691  0.74977794  0.49733087  1
  Mn  Mn46  1  0.75318496  0.25085846  0.49680566  1
  Mn  Mn47  1  0.75446264  0.74753534  0.49700762  1
  Mn  Mn48  1  0.11022047  0.09591749  0.24829300  1
  Mn  Mn49  1  0.10938127  0.09192769  0.75336500  1
  Mn  Mn50  1  0.10958258  0.59166781  0.25208479  1
  Mn  Mn51  1  0.10953113  0.60249082  0.75131187  1
  Mn  Mn52  1  0.60303797  0.09327355  0.24977670  1
  Mn  Mn53  1  0.60845323  0.09214991  0.74767494  1
  Mn  Mn54  1  0.61037867  0.59165700  0.25001063  1
  Mn  Mn55  1  0.61468603  0.60127141  0.75269224  1
  Mn  Mn56  1  0.35565240  0.40286556  0.25018180  1
  Mn  Mn57  1  0.36678673  0.40733675  0.75099040  1
  Mn  Mn58  1  0.35947633  0.90811293  0.25139899  1
  Mn  Mn59  1  0.36546611  0.90331377  0.74924327  1
  Mn  Mn60  1  0.85625426  0.40421290  0.24808436  1
  Mn  Mn61  1  0.85861664  0.40781716  0.75160314  1
  Mn  Mn62  1  0.85711312  0.90431112  0.24778617  1
  Mn  Mn63  1  0.85505736  0.90280479  0.75032556  1
  O  O64  1  0.12709343  0.11557786  0.48858819  1
  O  O65  1  0.12033472  0.11467272  0.99023077  1
  O  O66  1  0.12478517  0.62229842  0.48274255  1
  O  O67  1  0.12401563  0.62584750  0.98833612  1
  O  O68  1  0.62000559  0.11804292  0.48184782  1
  O  O69  1  0.62956464  0.12051212  0.98849983  1
  O  O70  1  0.62221357  0.61934438  0.48302623  1
  O  O71  1  0.62784946  0.62115253  0.98554286  1
  O  O72  1  0.13315477  0.38774087  0.01677013  1
  O  O73  1  0.13582450  0.37300051  0.50378443  1
  O  O74  1  0.14314091  0.88222605  0.01864841  1
  O  O75  1  0.13986796  0.87951113  0.50888832  1
  O  O76  1  0.64241601  0.38069644  0.01793464  1
  O  O77  1  0.63439152  0.38220420  0.50709157  1
  O  O78  1  0.64190608  0.87912685  0.01749044  1
  O  O79  1  0.63423821  0.87613291  0.51079235  1
  O  O80  1  0.37084694  0.11060155  0.48080352  1
  O  O81  1  0.37708466  0.11036420  0.99085770  1
  O  O82  1  0.37396406  0.61821019  0.48337690  1
  O  O83  1  0.37956402  0.62047070  0.98803009  1
  O  O84  1  0.87119090  0.11617459  0.48810478  1
  O  O85  1  0.87504636  0.11560511  0.98728931  1
  O  O86  1  0.86827164  0.61866643  0.48378690  1
  O  O87  1  0.87485873  0.61600738  0.98567735  1
  O  O88  1  0.39361644  0.39316077  0.01909222  1
  O  O89  1  0.38222736  0.37643231  0.50179147  1
  O  O90  1  0.39184375  0.88303256  0.01647485  1
  O  O91  1  0.38853470  0.88361294  0.51280065  1
  O  O92  1  0.88908377  0.38740185  0.01733319  1
  O  O93  1  0.87900628  0.38258014  0.50888295  1
  O  O94  1  0.89228755  0.88614994  0.01850764  1
  O  O95  1  0.88307409  0.87685974  0.50636938  1
  O  O96  1  0.08311247  0.09302143  0.13260863  1
  O  O97  1  0.07521089  0.08063382  0.63296006  1
  O  O98  1  0.08101239  0.60114324  0.12971981  1
  O  O99  1  0.07323872  0.58517887  0.63121466  1
  O  O100  1  0.58684974  0.09589225  0.12772917  1
  O  O101  1  0.57806038  0.08840226  0.62486340  1
  O  O102  1  0.58856035  0.59815186  0.12872659  1
  O  O103  1  0.57669396  0.58939669  0.62716623  1
  O  O104  1  0.44418900  0.40857109  0.36477672  1
  O  O105  1  0.45902055  0.41047747  0.87609031  1
  O  O106  1  0.45388296  0.90002847  0.37002720  1
  O  O107  1  0.46128227  0.90779301  0.87528307  1
  O  O108  1  0.94287888  0.41396298  0.36330220  1
  O  O109  1  0.94824511  0.40939008  0.87179420  1
  O  O110  1  0.95122334  0.90592501  0.36828421  1
  O  O111  1  0.95509002  0.89936076  0.87460560  1
  O  O112  1  0.32770346  0.28973389  0.13298969  1
  O  O113  1  0.32640733  0.28564545  0.62678581  1
  O  O114  1  0.33356464  0.77843917  0.12815013  1
  O  O115  1  0.32721992  0.78779191  0.62656120  1
  O  O116  1  0.83484409  0.28654208  0.13065771  1
  O  O117  1  0.82026295  0.29695517  0.63156862  1
  O  O118  1  0.83474473  0.77815321  0.12719002  1
  O  O119  1  0.82307172  0.78327107  0.62740859  1
  O  O120  1  0.19107052  0.20592921  0.36378649  1
  O  O121  1  0.19441557  0.20896277  0.87315671  1
  O  O122  1  0.20599498  0.71842751  0.36901500  1
  O  O123  1  0.20225712  0.71764709  0.87328191  1
  O  O124  1  0.69356752  0.21742876  0.36906660  1
  O  O125  1  0.70518440  0.21909707  0.87521676  1
  O  O126  1  0.69775301  0.71540492  0.36882364  1
  O  O127  1  0.71272027  0.72376937  0.87581042  1
  O  O128  1  0.41352398  0.08156897  0.24801939  1
  O  O129  1  0.41905081  0.07266776  0.74281039  1
  O  O130  1  0.42131080  0.56429896  0.24815688  1
  O  O131  1  0.43341500  0.58189310  0.75878601  1
  O  O132  1  0.92602590  0.07090340  0.24052243  1
  O  O133  1  0.92942562  0.07798382  0.75981980  1
  O  O134  1  0.92015149  0.56947537  0.24913558  1
  O  O135  1  0.92609197  0.57616699  0.75147177  1
  O  O136  1  0.17262257  0.41591537  0.24904332  1
  O  O137  1  0.18287788  0.44091981  0.75113143  1
  O  O138  1  0.17015380  0.92990364  0.24898649  1
  O  O139  1  0.18377861  0.93280602  0.76029468  1
  O  O140  1  0.67327944  0.41682183  0.24783284  1
  O  O141  1  0.68033461  0.43260465  0.75913742  1
  O  O142  1  0.66993481  0.92233276  0.24902269  1
  O  O143  1  0.66778446  0.91886747  0.75084843  1
