# generated using pymatgen
data_Cr3AsC
_symmetry_space_group_name_H-M   'P 1'
_cell_length_a   2.97837438
_cell_length_b   5.33759653
_cell_length_c   7.46558302
_cell_angle_alpha   90.00000000
_cell_angle_beta   90.00000000
_cell_angle_gamma   106.20051044
_symmetry_Int_Tables_number   1
_chemical_formula_structural   Cr3AsC
_chemical_formula_sum   'Cr6 As2 C2'
_cell_volume   113.97030433
_cell_formula_units_Z   2
loop_
 _symmetry_equiv_pos_site_id
 _symmetry_equiv_pos_as_xyz
  1  'x, y, z'
loop_
 _atom_site_type_symbol
 _atom_site_label
 _atom_site_symmetry_multiplicity
 _atom_site_fract_x
 _atom_site_fract_y
 _atom_site_fract_z
 _atom_site_occupancy
  Cr  Cr0  1  0.37701061  0.75402121  0.44808780  1
  Cr  Cr1  1  0.62298939  0.24597879  0.55191220  1
  Cr  Cr2  1  0.37701061  0.75402121  0.05191220  1
  Cr  Cr3  1  0.62298939  0.24597879  0.94808780  1
  Cr  Cr4  1  0.03900531  0.07801061  0.25000000  1
  Cr  Cr5  1  0.96099469  0.92198939  0.75000000  1
  As  As6  1  0.73768021  0.47536042  0.25000000  1
  As  As7  1  0.26231979  0.52463958  0.75000000  1
  C  C8  1  -0.00000000  0.00000000  0.50000000  1
  C  C9  1  -0.00000000  0.00000000  0.00000000  1
