# generated using pymatgen
data_ErBO3
_symmetry_space_group_name_H-M   'P 1'
_cell_length_a   7.18248736
_cell_length_b   8.98394032
_cell_length_c   9.83816768
_cell_angle_alpha   81.33542210
_cell_angle_beta   85.65878113
_cell_angle_gamma   77.35866460
_symmetry_Int_Tables_number   1
_chemical_formula_structural   ErBO3
_chemical_formula_sum   'Er12 B12 O36'
_cell_volume   611.76850193
_cell_formula_units_Z   12
loop_
 _symmetry_equiv_pos_site_id
 _symmetry_equiv_pos_as_xyz
  1  'x, y, z'
loop_
 _atom_site_type_symbol
 _atom_site_label
 _atom_site_symmetry_multiplicity
 _atom_site_fract_x
 _atom_site_fract_y
 _atom_site_fract_z
 _atom_site_occupancy
  B  B0  1  0.47784068  0.28488368  0.92186725  1
  B  B1  1  0.52215932  0.71511632  0.07813275  1
  B  B2  1  0.46645850  0.77979015  0.38660099  1
  B  B3  1  0.53354150  0.22020985  0.61339901  1
  B  B4  1  0.83142582  0.72802751  0.79404743  1
  B  B5  1  0.16857418  0.27197249  0.20595257  1
  B  B6  1  0.21951921  0.78275208  0.69191361  1
  B  B7  1  0.78048079  0.21724792  0.30808639  1
  B  B8  1  0.88510058  0.74377429  0.05144021  1
  B  B9  1  0.11489942  0.25622571  0.94855979  1
  B  B10  1  0.10669982  0.75225460  0.44774650  1
  B  B11  1  0.89330018  0.24774540  0.55225350  1
  O  O12  1  0.06495660  0.18590830  0.62990260  1
  O  O13  1  0.93504340  0.81409170  0.37009740  1
  O  O14  1  0.94119764  0.31831583  0.87325684  1
  O  O15  1  0.05880236  0.68168417  0.12674316  1
  O  O16  1  0.92010576  0.16107301  0.42775543  1
  O  O17  1  0.07989424  0.83892699  0.57224457  1
  O  O18  1  0.08147475  0.33456606  0.08066766  1
  O  O19  1  0.91852525  0.66543394  0.91933234  1
  O  O20  1  0.85024685  0.41272038  0.53441621  1
  O  O21  1  0.14975315  0.58727962  0.46558379  1
  O  O22  1  0.15282170  0.08999539  0.96447545  1
  O  O23  1  0.84717830  0.91000461  0.03552455  1
  O  O24  1  0.26810901  0.81767365  0.36363306  1
  O  O25  1  0.73189099  0.18232635  0.63636694  1
  O  O26  1  0.27143155  0.32350881  0.87237081  1
  O  O27  1  0.72856845  0.67649119  0.12762919  1
  O  O28  1  0.84318871  0.12466558  0.19756022  1
  O  O29  1  0.15681129  0.87533442  0.80243978  1
  O  O30  1  0.16850345  0.37009113  0.30076025  1
  O  O31  1  0.83149655  0.62990887  0.69923975  1
  O  O32  1  0.75518259  0.38356901  0.26301344  1
  O  O33  1  0.24481741  0.61643099  0.73698656  1
  O  O34  1  0.24594787  0.11666658  0.23978778  1
  O  O35  1  0.75405213  0.88333342  0.76021222  1
  O  O36  1  0.45361890  0.09303625  0.62561863  1
  O  O37  1  0.54638110  0.90696375  0.37438137  1
  O  O38  1  0.43511384  0.59268682  0.14930520  1
  O  O39  1  0.56488616  0.40731318  0.85069480  1
  O  O40  1  0.56612673  0.63172625  0.41609867  1
  O  O41  1  0.43387327  0.36827375  0.58390133  1
  O  O42  1  0.42847986  0.87283691  0.08818544  1
  O  O43  1  0.57152014  0.12716309  0.91181456  1
  O  O44  1  0.59146334  0.18705181  0.36797447  1
  O  O45  1  0.40853666  0.81294819  0.63202553  1
  O  O46  1  0.47375630  0.31072769  0.07123603  1
  O  O47  1  0.52624370  0.68927231  0.92876397  1
  Er  Er48  1  0.26314672  0.55848690  0.97259799  1
  Er  Er49  1  0.73685328  0.44151310  0.02740201  1
  Er  Er50  1  0.75068157  0.95765126  0.51903464  1
  Er  Er51  1  0.24931843  0.04234874  0.48096536  1
  Er  Er52  1  0.90216524  0.06738225  0.83709651  1
  Er  Er53  1  0.09783476  0.93261775  0.16290349  1
  Er  Er54  1  0.09731032  0.43587646  0.67099661  1
  Er  Er55  1  0.90268968  0.56412354  0.32900339  1
  Er  Er56  1  0.56426096  0.55847805  0.65679016  1
  Er  Er57  1  0.43573904  0.44152195  0.34320984  1
  Er  Er58  1  0.42727188  0.94301410  0.84503256  1
  Er  Er59  1  0.57272812  0.05698590  0.15496744  1
