# generated using pymatgen
data_KNa(WO3)2
_symmetry_space_group_name_H-M   'P 1'
_cell_length_a   8.01503327
_cell_length_b   8.01503327
_cell_length_c   7.95588836
_cell_angle_alpha   90.00000000
_cell_angle_beta   90.00000000
_cell_angle_gamma   90.00000000
_symmetry_Int_Tables_number   1
_chemical_formula_structural   KNa(WO3)2
_chemical_formula_sum   'K4 Na4 W8 O24'
_cell_volume   511.09230135
_cell_formula_units_Z   4
loop_
 _symmetry_equiv_pos_site_id
 _symmetry_equiv_pos_as_xyz
  1  'x, y, z'
loop_
 _atom_site_type_symbol
 _atom_site_label
 _atom_site_symmetry_multiplicity
 _atom_site_fract_x
 _atom_site_fract_y
 _atom_site_fract_z
 _atom_site_occupancy
  K  K0  1  0.25000000  0.25000000  0.25000000  1
  K  K1  1  0.25000000  0.75000000  0.25000000  1
  K  K2  1  0.75000000  0.25000000  0.25000000  1
  K  K3  1  0.75000000  0.75000000  0.25000000  1
  Na  Na4  1  0.25000000  0.25000000  0.75000000  1
  Na  Na5  1  0.25000000  0.75000000  0.75000000  1
  Na  Na6  1  0.75000000  0.25000000  0.75000000  1
  Na  Na7  1  0.75000000  0.75000000  0.75000000  1
  W  W8  1  0.00000000  -0.00000000  0.99865793  1
  W  W9  1  -0.00000000  0.00000000  0.50134207  1
  W  W10  1  -0.00000000  0.50000000  0.99865793  1
  W  W11  1  0.00000000  0.50000000  0.50134207  1
  W  W12  1  0.50000000  -0.00000000  0.99865793  1
  W  W13  1  0.50000000  -0.00000000  0.50134207  1
  W  W14  1  0.50000000  0.50000000  0.99865793  1
  W  W15  1  0.50000000  0.50000000  0.50134207  1
  O  O16  1  0.25000000  -0.00000000  0.99717768  1
  O  O17  1  0.25000000  -0.00000000  0.50282232  1
  O  O18  1  0.25000000  0.50000000  0.99717768  1
  O  O19  1  0.25000000  0.50000000  0.50282232  1
  O  O20  1  0.75000000  0.00000000  0.99717768  1
  O  O21  1  0.75000000  -0.00000000  0.50282232  1
  O  O22  1  0.75000000  0.50000000  0.99717768  1
  O  O23  1  0.75000000  0.50000000  0.50282232  1
  O  O24  1  -0.00000000  0.25000000  0.99717768  1
  O  O25  1  -0.00000000  0.25000000  0.50282232  1
  O  O26  1  -0.00000000  0.75000000  0.99717768  1
  O  O27  1  -0.00000000  0.75000000  0.50282232  1
  O  O28  1  0.50000000  0.25000000  0.99717768  1
  O  O29  1  0.50000000  0.25000000  0.50282232  1
  O  O30  1  0.50000000  0.75000000  0.99717768  1
  O  O31  1  0.50000000  0.75000000  0.50282232  1
  O  O32  1  -0.00000000  -0.00000000  0.25000000  1
  O  O33  1  -0.00000000  -0.00000000  0.75000000  1
  O  O34  1  -0.00000000  0.50000000  0.25000000  1
  O  O35  1  -0.00000000  0.50000000  0.75000000  1
  O  O36  1  0.50000000  -0.00000000  0.25000000  1
  O  O37  1  0.50000000  -0.00000000  0.75000000  1
  O  O38  1  0.50000000  0.50000000  0.25000000  1
  O  O39  1  0.50000000  0.50000000  0.75000000  1
