# generated using pymatgen
data_Ba2Sr6Co5(CuO8)3
_symmetry_space_group_name_H-M   'P 1'
_cell_length_a   7.77022795
_cell_length_b   7.90000215
_cell_length_c   7.89094252
_cell_angle_alpha   90.00000000
_cell_angle_beta   90.06695414
_cell_angle_gamma   90.00000000
_symmetry_Int_Tables_number   1
_chemical_formula_structural   Ba2Sr6Co5(CuO8)3
_chemical_formula_sum   'Ba2 Sr6 Co5 Cu3 O24'
_cell_volume   484.38373605
_cell_formula_units_Z   1
loop_
 _symmetry_equiv_pos_site_id
 _symmetry_equiv_pos_as_xyz
  1  'x, y, z'
loop_
 _atom_site_type_symbol
 _atom_site_label
 _atom_site_symmetry_multiplicity
 _atom_site_fract_x
 _atom_site_fract_y
 _atom_site_fract_z
 _atom_site_occupancy
  Ba  Ba0  1  0.24836944  0.75195229  0.25016814  1
  Ba  Ba1  1  0.75163056  0.75195229  0.74983186  1
  Sr  Sr2  1  0.24798325  0.24604861  0.25009672  1
  Sr  Sr3  1  0.24909760  0.24658000  0.74984446  1
  Sr  Sr4  1  0.24930178  0.75449341  0.74979927  1
  Sr  Sr5  1  0.75090240  0.24658000  0.25015554  1
  Sr  Sr6  1  0.75201675  0.24604861  0.74990328  1
  Sr  Sr7  1  0.75069822  0.75449341  0.25020073  1
  Co  Co8  1  -0.00000000  0.49323227  0.50000000  1
  Co  Co9  1  0.50000000  0.00283253  0.00000000  1
  Co  Co10  1  0.50000000  0.00215402  0.50000000  1
  Co  Co11  1  0.50000000  0.49793788  0.00000000  1
  Co  Co12  1  0.50000000  0.49721741  0.50000000  1
  Cu  Cu13  1  -0.00000000  0.00097235  0.00000000  1
  Cu  Cu14  1  -0.00000000  0.99935124  0.50000000  1
  Cu  Cu15  1  -0.00000000  0.49852793  0.00000000  1
  O  O16  1  0.26096674  0.00540609  0.99693280  1
  O  O17  1  0.26020177  0.00467384  0.50296448  1
  O  O18  1  0.26576505  0.49417305  0.99676108  1
  O  O19  1  0.23294853  0.49445006  0.50019510  1
  O  O20  1  0.73903326  0.00540609  0.00306720  1
  O  O21  1  0.73979823  0.00467384  0.49703552  1
  O  O22  1  0.73423495  0.49417305  0.00323892  1
  O  O23  1  0.76705147  0.49445006  0.49980490  1
  O  O24  1  -0.00000000  0.24975550  0.00000000  1
  O  O25  1  -0.00000000  0.24561291  0.50000000  1
  O  O26  1  -0.00000000  0.75002454  0.00000000  1
  O  O27  1  -0.00000000  0.75281063  0.50000000  1
  O  O28  1  0.50000000  0.25175895  0.00000000  1
  O  O29  1  0.50000000  0.24998803  0.50000000  1
  O  O30  1  0.50000000  0.74867881  0.00000000  1
  O  O31  1  0.50000000  0.74941979  0.50000000  1
  O  O32  1  0.99382256  0.01132662  0.24946112  1
  O  O33  1  0.00617744  0.01132662  0.75053888  1
  O  O34  1  0.99529158  0.49238955  0.24813395  1
  O  O35  1  0.00470842  0.49238955  0.75186605  1
  O  O36  1  0.50100470  0.00852221  0.25064330  1
  O  O37  1  0.49899530  0.00852221  0.74935670  1
  O  O38  1  0.50234746  0.49484690  0.27118539  1
  O  O39  1  0.49765254  0.49484690  0.72881461  1
