# generated using pymatgen
data_SrMg14Mn
_symmetry_space_group_name_H-M   'P 1'
_cell_length_a   6.53713856
_cell_length_b   6.47458797
_cell_length_c   10.43599395
_cell_angle_alpha   90.00000000
_cell_angle_beta   90.00000000
_cell_angle_gamma   119.68398378
_symmetry_Int_Tables_number   1
_chemical_formula_structural   SrMg14Mn
_chemical_formula_sum   'Sr1 Mg14 Mn1'
_cell_volume   383.74121845
_cell_formula_units_Z   1
loop_
 _symmetry_equiv_pos_site_id
 _symmetry_equiv_pos_as_xyz
  1  'x, y, z'
loop_
 _atom_site_type_symbol
 _atom_site_label
 _atom_site_symmetry_multiplicity
 _atom_site_fract_x
 _atom_site_fract_y
 _atom_site_fract_z
 _atom_site_occupancy
  Sr  Sr0  1  0.16117457  0.83058679  0.12500000  1
  Mg  Mg1  1  0.16436669  0.33218285  0.62500000  1
  Mg  Mg2  1  0.16761209  0.83380555  0.62500000  1
  Mg  Mg3  1  0.65588382  0.33696059  0.12500000  1
  Mg  Mg4  1  0.66652410  0.33079996  0.62500000  1
  Mg  Mg5  1  0.65588382  0.81892223  0.12500000  1
  Mg  Mg6  1  0.66652410  0.83572313  0.62500000  1
  Mg  Mg7  1  0.33661897  0.17773271  0.38111603  1
  Mg  Mg8  1  0.33661897  0.17773271  0.86888397  1
  Mg  Mg9  1  0.33661897  0.65888726  0.38111603  1
  Mg  Mg10  1  0.33661897  0.65888726  0.86888397  1
  Mg  Mg11  1  0.84129106  0.17064603  0.36371476  1
  Mg  Mg12  1  0.84129106  0.17064603  0.88628524  1
  Mg  Mg13  1  0.82642426  0.66321263  0.38755224  1
  Mg  Mg14  1  0.82642426  0.66321263  0.86244776  1
  Mn  Mn15  1  0.18012428  0.34006164  0.12500000  1
