# generated using pymatgen
data_Sr6Ca2Co5Cu3O20
_symmetry_space_group_name_H-M   'P 1'
_cell_length_a   10.91384886
_cell_length_b   11.00019533
_cell_length_c   17.49954603
_cell_angle_alpha   108.03207282
_cell_angle_beta   108.10921142
_cell_angle_gamma   90.53307412
_symmetry_Int_Tables_number   1
_chemical_formula_structural   Sr6Ca2Co5Cu3O20
_chemical_formula_sum   'Sr24 Ca8 Co20 Cu12 O80'
_cell_volume   1885.76869364
_cell_formula_units_Z   4
loop_
 _symmetry_equiv_pos_site_id
 _symmetry_equiv_pos_as_xyz
  1  'x, y, z'
loop_
 _atom_site_type_symbol
 _atom_site_label
 _atom_site_symmetry_multiplicity
 _atom_site_fract_x
 _atom_site_fract_y
 _atom_site_fract_z
 _atom_site_occupancy
  Sr  Sr0  1  0.31090997  0.05676014  0.61349099  1
  Sr  Sr1  1  0.30821962  0.55923760  0.61495547  1
  Sr  Sr2  1  0.80465114  0.06251895  0.61277212  1
  Sr  Sr3  1  0.80888228  0.55505761  0.61507659  1
  Sr  Sr4  1  0.19589134  0.43809424  0.38799021  1
  Sr  Sr5  1  0.19482792  0.44214898  0.88722936  1
  Sr  Sr6  1  0.19674979  0.93947928  0.38743503  1
  Sr  Sr7  1  0.69501961  0.43877055  0.38633276  1
  Sr  Sr8  1  0.69629951  0.44217706  0.88771212  1
  Sr  Sr9  1  0.69119013  0.94179029  0.38606434  1
  Sr  Sr10  1  0.69511514  0.94094374  0.88857837  1
  Sr  Sr11  1  0.05551024  0.29706103  0.11164827  1
  Sr  Sr12  1  0.05730794  0.30346849  0.61349278  1
  Sr  Sr13  1  0.06041855  0.80747606  0.61524057  1
  Sr  Sr14  1  0.55795383  0.30139485  0.61165498  1
  Sr  Sr15  1  0.55807372  0.80862232  0.11534348  1
  Sr  Sr16  1  0.55666627  0.80540388  0.61415440  1
  Sr  Sr17  1  0.44433096  0.19446076  0.38479371  1
  Sr  Sr18  1  0.44460267  0.19313891  0.88796843  1
  Sr  Sr19  1  0.44267274  0.69629088  0.38520831  1
  Sr  Sr20  1  0.44447260  0.69803241  0.88954060  1
  Sr  Sr21  1  0.93988413  0.19232464  0.38288134  1
  Sr  Sr22  1  0.94444899  0.19420940  0.88707970  1
  Sr  Sr23  1  0.94567766  0.69896727  0.38554999  1
  Ca  Ca24  1  0.30243297  0.06094773  0.10678998  1
  Ca  Ca25  1  0.29809826  0.56549153  0.10755270  1
  Ca  Ca26  1  0.79821220  0.05849766  0.10705885  1
  Ca  Ca27  1  0.79956708  0.56548222  0.10779925  1
  Ca  Ca28  1  0.19915459  0.93913813  0.89435445  1
  Ca  Ca29  1  0.05574910  0.79403221  0.10736463  1
  Ca  Ca30  1  0.54859385  0.28835459  0.10718051  1
  Ca  Ca31  1  0.95148349  0.70781943  0.89404346  1
  Co  Co32  1  0.00342889  0.99920527  0.00065077  1
  Co  Co33  1  0.00131740  0.99973330  0.49951487  1
  Co  Co34  1  0.00271059  0.50097491  0.00067484  1
  Co  Co35  1  0.00272556  0.50123990  0.50360344  1
  Co  Co36  1  0.50323517  0.00020101  0.00275586  1
  Co  Co37  1  0.50034280  -0.00117511  0.49900296  1
  Co  Co38  1  0.50319953  0.49849675  0.00128105  1
  Co  Co39  1  0.50229413  0.49972618  0.50018496  1
  Co  Co40  1  0.25579854  0.24877180  0.00385621  1
  Co  Co41  1  0.25625315  0.24986560  0.50709692  1
  Co  Co42  1  0.25232327  0.75458449  0.00458627  1
  Co  Co43  1  0.25418529  0.75232270  0.50558684  1
  Co  Co44  1  0.75475674  0.24958581  0.00349981  1
  Co  Co45  1  0.74886494  0.24780829  0.49739610  1
  Co  Co46  1  0.75727690  0.75353995  0.00479349  1
  Co  Co47  1  0.75460133  0.75570978  0.50796234  1
  Co  Co48  1  0.10971707  0.08702267  0.24341183  1
  Co  Co49  1  0.10619098  0.59441411  0.24505316  1
  Co  Co50  1  0.60686646  0.58866793  0.24331290  1
  Co  Co51  1  0.85196747  0.40134376  0.24356115  1
  Cu  Cu52  1  0.11679009  0.09846920  0.75272561  1
  Cu  Cu53  1  0.11199297  0.60734504  0.75381971  1
  Cu  Cu54  1  0.60792139  0.09909731  0.24650914  1
  Cu  Cu55  1  0.61949707  0.10192012  0.75229551  1
  Cu  Cu56  1  0.61996906  0.60262094  0.75131494  1
  Cu  Cu57  1  0.35960858  0.40372202  0.24646852  1
  Cu  Cu58  1  0.36706326  0.40136966  0.75235359  1
  Cu  Cu59  1  0.35167921  0.90458071  0.24526225  1
  Cu  Cu60  1  0.36099343  0.90078696  0.75447377  1
  Cu  Cu61  1  0.86764039  0.40524881  0.75362283  1
  Cu  Cu62  1  0.86882611  0.89900971  0.24712407  1
  Cu  Cu63  1  0.87015893  0.89656628  0.75209619  1
  O  O64  1  0.12717416  0.13121033  0.49544585  1
  O  O65  1  0.12921891  0.12681892  0.99327662  1
  O  O66  1  0.12931884  0.62795022  0.49435611  1
  O  O67  1  0.12828633  0.63005579  0.99182259  1
  O  O68  1  0.62162525  0.12500251  0.49484362  1
  O  O69  1  0.62899478  0.13310126  0.99891913  1
  O  O70  1  0.63249589  0.62898907  0.49495482  1
  O  O71  1  0.63407892  0.62809101  0.99528961  1
  O  O72  1  0.12552965  0.38868814  0.01017893  1
  O  O73  1  0.12119317  0.38391284  0.50417074  1
  O  O74  1  0.12838463  0.88408452  0.01010459  1
  O  O75  1  0.12849122  0.87771386  0.50430461  1
  O  O76  1  0.62515980  0.38696671  0.01449245  1
  O  O77  1  0.63089080  0.37310280  0.50412966  1
  O  O78  1  0.63271389  0.88426837  0.01009296  1
  O  O79  1  0.62388930  0.87920716  0.50404536  1
  O  O80  1  0.37542301  0.11670095  0.49494696  1
  O  O81  1  0.37380035  0.11337241  0.99481892  1
  O  O82  1  0.37316295  0.61991535  0.49450627  1
  O  O83  1  0.38261207  0.61377410  0.99918038  1
  O  O84  1  0.87015569  0.12617773  0.49609506  1
  O  O85  1  0.87668148  0.11402840  0.99582161  1
  O  O86  1  0.88246334  0.61536239  0.49380594  1
  O  O87  1  0.88532285  0.61767974  0.99676208  1
  O  O88  1  0.37588457  0.37548236  0.01304439  1
  O  O89  1  0.36978777  0.37026282  0.50308904  1
  O  O90  1  0.37348589  0.87411360  0.00796602  1
  O  O91  1  0.37331879  0.87007308  0.50331922  1
  O  O92  1  0.87219118  0.38004132  0.01340098  1
  O  O93  1  0.87657052  0.37495728  0.50226030  1
  O  O94  1  0.88154088  0.87371731  0.01000570  1
  O  O95  1  0.87283256  0.87035514  0.50266911  1
  O  O96  1  0.09334526  0.09032469  0.13861516  1
  O  O97  1  0.07600027  0.07894382  0.63730734  1
  O  O98  1  0.09183204  0.60182321  0.14024833  1
  O  O99  1  0.07150079  0.58548382  0.63775165  1
  O  O100  1  0.57907333  0.08820877  0.13330809  1
  O  O101  1  0.57595377  0.08413388  0.63736970  1
  O  O102  1  0.59337677  0.59962786  0.14167050  1
  O  O103  1  0.57409847  0.58555211  0.63616166  1
  O  O104  1  0.43853547  0.42000485  0.36284615  1
  O  O105  1  0.44088445  0.41330702  0.86761776  1
  O  O106  1  0.43505580  0.92006734  0.36139085  1
  O  O107  1  0.44246815  0.91667795  0.86907867  1
  O  O108  1  0.93195578  0.40951328  0.35213663  1
  O  O109  1  0.93924883  0.41207613  0.86615430  1
  O  O110  1  0.93964229  0.92146838  0.36379498  1
  O  O111  1  0.94685173  0.90757016  0.86550109  1
  O  O112  1  0.33210982  0.28801478  0.13582319  1
  O  O113  1  0.32503240  0.29913152  0.63657666  1
  O  O114  1  0.32257577  0.79123996  0.13332622  1
  O  O115  1  0.32176461  0.80206431  0.63828962  1
  O  O116  1  0.83240922  0.28360005  0.14062127  1
  O  O117  1  0.83083441  0.30944115  0.63941636  1
  O  O118  1  0.83674442  0.78928103  0.13563427  1
  O  O119  1  0.82704737  0.79960129  0.63642030  1
  O  O120  1  0.18245657  0.18990134  0.35044300  1
  O  O121  1  0.19088674  0.20381027  0.86511434  1
  O  O122  1  0.18089689  0.69746218  0.35305469  1
  O  O123  1  0.19202307  0.70947569  0.86685334  1
  O  O124  1  0.68096671  0.19501617  0.36254272  1
  O  O125  1  0.69010613  0.20286923  0.86736509  1
  O  O126  1  0.68291957  0.69199285  0.35059509  1
  O  O127  1  0.70132139  0.70104865  0.86460798  1
  O  O128  1  0.43163736  0.05969856  0.23843737  1
  O  O129  1  0.45426232  0.04618809  0.75183139  1
  O  O130  1  0.43362437  0.55894503  0.23756226  1
  O  O131  1  0.45664860  0.55393744  0.75333020  1
  O  O132  1  0.93894463  0.05523146  0.23696593  1
  O  O133  1  0.95075943  0.05447612  0.74995558  1
  O  O134  1  0.92942657  0.55516145  0.23769855  1
  O  O135  1  0.94749583  0.57517240  0.76180380  1
  O  O136  1  0.18854691  0.44314688  0.24795738  1
  O  O137  1  0.20352110  0.45777823  0.75144162  1
  O  O138  1  0.17429310  0.92654375  0.24071717  1
  O  O139  1  0.19482507  0.93571468  0.76123920  1
  O  O140  1  0.67593217  0.42762820  0.23872537  1
  O  O141  1  0.70159136  0.44667808  0.74930649  1
  O  O142  1  0.70646521  0.95796020  0.25028426  1
  O  O143  1  0.70816320  0.95145956  0.75279712  1
