# generated using pymatgen
data_CoNiAs
_symmetry_space_group_name_H-M   'P 1'
_cell_length_a   3.40448259
_cell_length_b   6.09340148
_cell_length_c   6.09603309
_cell_angle_alpha   119.98572142
_cell_angle_beta   90.00000000
_cell_angle_gamma   90.00000000
_symmetry_Int_Tables_number   1
_chemical_formula_structural   CoNiAs
_chemical_formula_sum   'Co3 Ni3 As3'
_cell_volume   109.53460015
_cell_formula_units_Z   3
loop_
 _symmetry_equiv_pos_site_id
 _symmetry_equiv_pos_as_xyz
  1  'x, y, z'
loop_
 _atom_site_type_symbol
 _atom_site_label
 _atom_site_symmetry_multiplicity
 _atom_site_fract_x
 _atom_site_fract_y
 _atom_site_fract_z
 _atom_site_occupancy
  Co  Co0  1  0.50000000  0.60896814  0.00000000  1
  Co  Co1  1  0.50000000  0.39089593  0.39080242  1
  Co  Co2  1  0.50000000  0.00009351  0.60919758  1
  Ni  Ni3  1  0.00000000  0.26155782  0.00000000  1
  Ni  Ni4  1  0.00000000  0.73850948  0.73850469  1
  Ni  Ni5  1  -0.00000000  0.00000479  0.26149531  1
  As  As6  1  0.00000000  0.33327374  0.66658548  1
  As  As7  1  0.00000000  0.66668826  0.33341452  1
  As  As8  1  0.50000000  0.99990833  0.00000000  1
