# generated using pymatgen
data_MgSn2
_symmetry_space_group_name_H-M   'P 1'
_cell_length_a   11.29511158
_cell_length_b   3.70351523
_cell_length_c   8.02933007
_cell_angle_alpha   90.00000000
_cell_angle_beta   112.72981082
_cell_angle_gamma   90.00000000
_symmetry_Int_Tables_number   1
_chemical_formula_structural   MgSn2
_chemical_formula_sum   'Mg4 Sn8'
_cell_volume   309.79448863
_cell_formula_units_Z   4
loop_
 _symmetry_equiv_pos_site_id
 _symmetry_equiv_pos_as_xyz
  1  'x, y, z'
loop_
 _atom_site_type_symbol
 _atom_site_label
 _atom_site_symmetry_multiplicity
 _atom_site_fract_x
 _atom_site_fract_y
 _atom_site_fract_z
 _atom_site_occupancy
  Mg  Mg0  1  0.18870645  0.00000000  0.63893708  1
  Mg  Mg1  1  0.31129355  0.50000000  0.36106292  1
  Mg  Mg2  1  0.68870645  0.50000000  0.63893708  1
  Mg  Mg3  1  0.81129355  -0.00000000  0.36106292  1
  Sn  Sn4  1  0.35582335  0.50000000  0.96662324  1
  Sn  Sn5  1  0.47132717  0.00000000  0.68641974  1
  Sn  Sn6  1  0.02867283  0.50000000  0.31358026  1
  Sn  Sn7  1  0.14417665  -0.00000000  0.03337676  1
  Sn  Sn8  1  0.85582335  0.00000000  0.96662324  1
  Sn  Sn9  1  0.97132717  0.50000000  0.68641974  1
  Sn  Sn10  1  0.52867283  -0.00000000  0.31358026  1
  Sn  Sn11  1  0.64417665  0.50000000  0.03337676  1
