# generated using pymatgen
data_Sr2Mg
_symmetry_space_group_name_H-M   'P 1'
_cell_length_a   4.10663764
_cell_length_b   20.05123456
_cell_length_c   6.25326233
_cell_angle_alpha   90.00000000
_cell_angle_beta   90.00000000
_cell_angle_gamma   90.00000000
_symmetry_Int_Tables_number   1
_chemical_formula_structural   Sr2Mg
_chemical_formula_sum   'Sr8 Mg4'
_cell_volume   514.91334662
_cell_formula_units_Z   4
loop_
 _symmetry_equiv_pos_site_id
 _symmetry_equiv_pos_as_xyz
  1  'x, y, z'
loop_
 _atom_site_type_symbol
 _atom_site_label
 _atom_site_symmetry_multiplicity
 _atom_site_fract_x
 _atom_site_fract_y
 _atom_site_fract_z
 _atom_site_occupancy
  Sr  Sr0  1  0.50000000  0.41612021  0.25000000  1
  Sr  Sr1  1  0.00000000  0.21078814  0.25000000  1
  Sr  Sr2  1  0.50000000  0.28921186  0.75000000  1
  Sr  Sr3  1  0.00000000  0.08387979  0.75000000  1
  Sr  Sr4  1  0.00000000  0.91612021  0.25000000  1
  Sr  Sr5  1  0.50000000  0.71078814  0.25000000  1
  Sr  Sr6  1  -0.00000000  0.78921186  0.75000000  1
  Sr  Sr7  1  0.50000000  0.58387979  0.75000000  1
  Mg  Mg8  1  0.50000000  0.06043927  0.25000000  1
  Mg  Mg9  1  0.00000000  0.43956073  0.75000000  1
  Mg  Mg10  1  -0.00000000  0.56043927  0.25000000  1
  Mg  Mg11  1  0.50000000  0.93956073  0.75000000  1
