# generated using pymatgen
data_TeMoWSe2S
_symmetry_space_group_name_H-M   'P 1'
_cell_length_a   3.34309041
_cell_length_b   3.34306350
_cell_length_c   38.16836429
_cell_angle_alpha   90.00014867
_cell_angle_beta   90.00000000
_cell_angle_gamma   120.00027403
_symmetry_Int_Tables_number   1
_chemical_formula_structural   TeMoWSe2S
_chemical_formula_sum   'Te2 Mo2 W2 Se4 S2'
_cell_volume   369.42452899
_cell_formula_units_Z   2
loop_
 _symmetry_equiv_pos_site_id
 _symmetry_equiv_pos_as_xyz
  1  'x, y, z'
loop_
 _atom_site_type_symbol
 _atom_site_label
 _atom_site_symmetry_multiplicity
 _atom_site_fract_x
 _atom_site_fract_y
 _atom_site_fract_z
 _atom_site_occupancy
  Te  Te0  1  0.66664733  0.33329366  0.41967937  1
  Te  Te1  1  0.66664783  0.33329466  0.51960478  1
  Mo  Mo2  1  0.33331062  0.66662125  0.09393746  1
  Mo  Mo3  1  0.66668871  0.33337743  0.65755246  1
  W  W4  1  0.33331057  0.66662115  0.46964287  1
  W  W5  1  0.66668754  0.33337509  0.28180039  1
  Se  Se6  1  0.33335683  0.66671466  0.70117159  1
  Se  Se7  1  0.66664747  0.33329394  0.05030570  1
  Se  Se8  1  0.66664657  0.33329213  0.13754340  1
  Se  Se9  1  0.33334941  0.66669981  0.61393171  1
  S  S10  1  0.33335276  0.66670652  0.32170098  1
  S  S11  1  0.33335435  0.66670970  0.24187728  1
