# generated using pymatgen
data_NiPSe3
_symmetry_space_group_name_H-M   'P 1'
_cell_length_a   6.16327707
_cell_length_b   6.16327707
_cell_length_c   6.93231553
_cell_angle_alpha   98.48843177
_cell_angle_beta   98.48843177
_cell_angle_gamma   120.03129315
_symmetry_Int_Tables_number   1
_chemical_formula_structural   NiPSe3
_chemical_formula_sum   'Ni2 P2 Se6'
_cell_volume   217.80824222
_cell_formula_units_Z   2
loop_
 _symmetry_equiv_pos_site_id
 _symmetry_equiv_pos_as_xyz
  1  'x, y, z'
loop_
 _atom_site_type_symbol
 _atom_site_label
 _atom_site_symmetry_multiplicity
 _atom_site_fract_x
 _atom_site_fract_y
 _atom_site_fract_z
 _atom_site_occupancy
  Ni  Ni0  1  0.66664925  0.33335075  -0.00000000  1
  Ni  Ni1  1  0.33335075  0.66664925  -0.00000000  1
  P  P2  1  0.05641290  0.05641290  0.16920391  1
  P  P3  1  0.94358710  0.94358710  0.83079609  1
  Se  Se4  1  0.71845025  0.71845025  0.23114944  1
  Se  Se5  1  0.28154975  0.28154975  0.76885056  1
  Se  Se6  1  0.07724382  0.43554646  0.23104757  1
  Se  Se7  1  0.43554646  0.07724382  0.23104757  1
  Se  Se8  1  0.92275618  0.56445354  0.76895243  1
  Se  Se9  1  0.56445354  0.92275618  0.76895243  1
