# generated using pymatgen
data_LiSmSn2
_symmetry_space_group_name_H-M   'P 1'
_cell_length_a   4.46329147
_cell_length_b   4.53744751
_cell_length_c   9.85132988
_cell_angle_alpha   90.00000000
_cell_angle_beta   103.09300963
_cell_angle_gamma   90.00000000
_symmetry_Int_Tables_number   1
_chemical_formula_structural   LiSmSn2
_chemical_formula_sum   'Li2 Sm2 Sn4'
_cell_volume   194.32214368
_cell_formula_units_Z   2
loop_
 _symmetry_equiv_pos_site_id
 _symmetry_equiv_pos_as_xyz
  1  'x, y, z'
loop_
 _atom_site_type_symbol
 _atom_site_label
 _atom_site_symmetry_multiplicity
 _atom_site_fract_x
 _atom_site_fract_y
 _atom_site_fract_z
 _atom_site_occupancy
  Li  Li0  1  0.67504186  0.75000000  0.35008372  1
  Li  Li1  1  0.32495814  0.25000000  0.64991628  1
  Sm  Sm2  1  0.89477751  0.75000000  0.78955501  1
  Sm  Sm3  1  0.10522249  0.25000000  0.21044499  1
  Sn  Sn4  1  0.54458764  0.75000000  0.08917528  1
  Sn  Sn5  1  0.45541236  0.25000000  0.91082472  1
  Sn  Sn6  1  0.25076106  0.75000000  0.50152211  1
  Sn  Sn7  1  0.74923894  0.25000000  0.49847789  1
