# generated using pymatgen
data_Sn2P2O7
_symmetry_space_group_name_H-M   'P 1'
_cell_length_a   9.44422494
_cell_length_b   10.77110996
_cell_length_c   11.81781515
_cell_angle_alpha   62.77949564
_cell_angle_beta   102.81568117
_cell_angle_gamma   89.91656695
_symmetry_Int_Tables_number   1
_chemical_formula_structural   Sn2P2O7
_chemical_formula_sum   'Sn12 P12 O42'
_cell_volume   1035.02873541
_cell_formula_units_Z   6
loop_
 _symmetry_equiv_pos_site_id
 _symmetry_equiv_pos_as_xyz
  1  'x, y, z'
loop_
 _atom_site_type_symbol
 _atom_site_label
 _atom_site_symmetry_multiplicity
 _atom_site_fract_x
 _atom_site_fract_y
 _atom_site_fract_z
 _atom_site_occupancy
  Sn  Sn0  1  0.98918772  0.83177012  0.99462191  1
  Sn  Sn1  1  0.83257490  0.82757715  0.67288393  1
  Sn  Sn2  1  0.79976749  0.50200237  0.65194285  1
  Sn  Sn3  1  0.69978054  0.15364228  0.35021728  1
  Sn  Sn4  1  0.66421646  0.50064471  0.32754652  1
  Sn  Sn5  1  0.50808500  0.82661966  0.00560728  1
  Sn  Sn6  1  0.49125269  0.17172992  0.99551635  1
  Sn  Sn7  1  0.33290446  0.49971416  0.67339377  1
  Sn  Sn8  1  0.29919115  0.84717626  0.65091863  1
  Sn  Sn9  1  0.19973669  0.49788083  0.35042118  1
  Sn  Sn10  1  0.16521875  0.17372627  0.32708028  1
  Sn  Sn11  1  0.00985001  0.16556922  0.00654714  1
  P  P12  1  0.98257386  0.25631463  0.51904044  1
  P  P13  1  0.85031303  0.42807572  0.13945599  1
  P  P14  1  0.81604025  0.89662022  0.19184986  1
  P  P15  1  0.68169081  0.08915356  0.80841296  1
  P  P16  1  0.64683619  0.56699402  0.86071643  1
  P  P17  1  0.51529544  0.77399865  0.48193887  1
  P  P18  1  0.48276953  0.22516766  0.51965372  1
  P  P19  1  0.35105257  0.43312610  0.13950936  1
  P  P20  1  0.31778334  0.90902414  0.19304795  1
  P  P21  1  0.18169943  0.10333335  0.80773942  1
  P  P22  1  0.14695239  0.57288130  0.86046684  1
  P  P23  1  0.01473815  0.74453973  0.48173959  1
  O  O24  1  0.95418764  0.29804522  0.17817101  1
  O  O25  1  0.91249264  0.55872897  0.13289493  1
  O  O26  1  0.92068824  0.94771972  0.09589842  1
  O  O27  1  0.92763664  0.79610648  0.33236275  1
  O  O28  1  0.89664265  0.70937509  0.56364158  1
  O  O29  1  0.90364406  0.13702028  0.50673028  1
  O  O30  1  0.88642073  0.38905111  0.48203896  1
  O  O31  1  0.74759433  0.45233366  0.00076850  1
  O  O32  1  0.74457407  0.37889567  0.23597861  1
  O  O33  1  0.74111483  0.01909160  0.19328525  1
  O  O34  1  0.71931052  0.79588945  0.16070524  1
  O  O35  1  0.78049511  0.95797200  0.84038626  1
  O  O36  1  0.75381368  0.21518923  0.80444702  1
  O  O37  1  0.75435298  0.61322100  0.76587798  1
  O  O38  1  0.61087892  0.87025984  0.51815688  1
  O  O39  1  0.59430627  0.64147838  0.49581360  1
  O  O40  1  0.60044235  0.27157077  0.43726939  1
  O  O41  1  0.45490669  0.52505485  0.17670048  1
  O  O42  1  0.56990600  0.12606594  0.66885099  1
  O  O43  1  0.57821836  0.04349532  0.90529787  1
  O  O44  1  0.41338605  0.30743700  0.13537489  1
  O  O45  1  0.58354090  0.69227625  0.86503783  1
  O  O46  1  0.42087689  0.95493279  0.09581576  1
  O  O47  1  0.42981433  0.87298262  0.33217658  1
  O  O48  1  0.54379626  0.47542811  0.82214890  1
  O  O49  1  0.39651400  0.72818220  0.56304146  1
  O  O50  1  0.40432984  0.35753871  0.50658636  1
  O  O51  1  0.38633363  0.12922342  0.48376256  1
  O  O52  1  0.24897799  0.54713759  -0.00010372  1
  O  O53  1  0.24475432  0.38746072  0.23558298  1
  O  O54  1  0.24649851  0.78226944  0.19775752  1
  O  O55  1  0.21818891  0.03969670  0.16092478  1
  O  O56  1  0.28000142  0.20245250  0.83980466  1
  O  O57  1  0.25447145  0.98178716  0.80335347  1
  O  O58  1  0.25365758  0.62159937  0.76488523  1
  O  O59  1  0.11002127  0.61167910  0.51788794  1
  O  O60  1  0.09406315  0.86323304  0.49483838  1
  O  O61  1  0.10064942  0.29114806  0.43715609  1
  O  O62  1  0.06901026  0.20637188  0.66827559  1
  O  O63  1  0.07832813  0.05092903  0.90481610  1
  O  O64  1  0.08351814  0.44317682  0.86550827  1
  O  O65  1  0.04408898  0.70343384  0.82207180  1
