# generated using pymatgen
data_LiCo(PO3)4
_symmetry_space_group_name_H-M   'P 1'
_cell_length_a   9.33662912
_cell_length_b   10.33547471
_cell_length_c   9.10993359
_cell_angle_alpha   90.00000000
_cell_angle_beta   91.74470119
_cell_angle_gamma   90.00000000
_symmetry_Int_Tables_number   1
_chemical_formula_structural   LiCo(PO3)4
_chemical_formula_sum   'Li4 Co4 P16 O48'
_cell_volume   878.68733413
_cell_formula_units_Z   4
loop_
 _symmetry_equiv_pos_site_id
 _symmetry_equiv_pos_as_xyz
  1  'x, y, z'
loop_
 _atom_site_type_symbol
 _atom_site_label
 _atom_site_symmetry_multiplicity
 _atom_site_fract_x
 _atom_site_fract_y
 _atom_site_fract_z
 _atom_site_occupancy
  Li  Li0  1  0.99289632  0.17916095  0.60100047  1
  Li  Li1  1  0.49564599  0.31495588  0.89635392  1
  Li  Li2  1  0.00435401  0.81495588  0.10364608  1
  Li  Li3  1  0.50710368  0.67916095  0.39899953  1
  Co  Co4  1  0.51453678  0.29415950  0.25931538  1
  Co  Co5  1  0.98546322  0.79415950  0.74068462  1
  Co  Co6  1  0.01473528  0.20577659  0.24603589  1
  Co  Co7  1  0.48526472  0.70577659  0.75396411  1
  P  P8  1  0.76930081  0.52614692  0.75753851  1
  P  P9  1  0.27006519  0.97428660  0.75563796  1
  P  P10  1  0.29407635  0.10956308  0.06162604  1
  P  P11  1  0.22993481  0.47428660  0.24436204  1
  P  P12  1  0.79411030  0.39869533  0.46601092  1
  P  P13  1  0.19915752  0.38793541  0.73667497  1
  P  P14  1  0.69868408  0.11285762  0.73210805  1
  P  P15  1  0.30084248  0.88793541  0.26332503  1
  P  P16  1  0.71136609  0.88755716  0.94066126  1
  P  P17  1  0.20592365  0.60956308  0.93837396  1
  P  P18  1  0.78863391  0.38755716  0.05933874  1
  P  P19  1  0.21180926  0.60421522  0.53396382  1
  P  P20  1  0.80131592  0.61285762  0.26789195  1
  P  P21  1  0.73069919  0.02614692  0.24246149  1
  P  P22  1  0.70588970  0.89869533  0.53398908  1
  P  P23  1  0.28819074  0.10421522  0.46603618  1
  O  O24  1  0.85985586  0.87679979  0.58338366  1
  O  O25  1  0.85187657  0.53895452  0.42202958  1
  O  O26  1  0.60169824  0.22294547  0.75685233  1
  O  O27  1  0.89736723  0.29121089  0.42940090  1
  O  O28  1  0.85457017  0.49729992  0.15923417  1
  O  O29  1  0.19117300  0.58531023  0.35836525  1
  O  O30  1  0.68599212  0.94831821  0.09962016  1
  O  O31  1  0.13050831  0.13103375  0.43055603  1
  O  O32  1  0.38892341  0.44355842  0.25642163  1
  O  O33  1  0.13802917  0.13034099  0.09123683  1
  O  O34  1  0.10825875  0.70470802  0.58441711  1
  O  O35  1  0.31066282  0.04931951  0.90136298  1
  O  O36  1  0.61461430  0.77162990  0.92116811  1
  O  O37  1  0.36197083  0.63034099  0.90876317  1
  O  O38  1  0.14500507  0.87972360  0.23278282  1
  O  O39  1  0.62902546  0.36737475  0.07661228  1
  O  O40  1  0.64328900  0.62338523  0.26379665  1
  O  O41  1  0.85671100  0.12338523  0.73620335  1
  O  O42  1  0.86558726  0.64225980  0.74440575  1
  O  O43  1  0.30882700  0.08531023  0.64163475  1
  O  O44  1  0.16763175  0.46118203  0.57917084  1
  O  O45  1  0.13146863  0.35975462  0.25744157  1
  O  O46  1  0.36949169  0.63103375  0.56944397  1
  O  O47  1  0.35499493  0.37972360  0.76721718  1
  O  O48  1  0.11107659  0.94355842  0.74357837  1
  O  O49  1  0.88994693  0.05593811  0.25198399  1
  O  O50  1  0.13065440  0.50033149  0.84211970  1
  O  O51  1  0.39170335  0.22687752  0.07193537  1
  O  O52  1  0.64812343  0.03895452  0.57797042  1
  O  O53  1  0.80549184  0.41662502  0.64153688  1
  O  O54  1  0.33236825  0.96118203  0.42082916  1
  O  O55  1  0.10829665  0.72687752  0.92806463  1
  O  O56  1  0.88538570  0.27162990  0.07883189  1
  O  O57  1  0.10140767  0.27564196  0.73881894  1
  O  O58  1  0.87097454  0.86737475  0.92338772  1
  O  O59  1  0.64014414  0.37679979  0.41661634  1
  O  O60  1  0.69450816  0.91662502  0.35846312  1
  O  O61  1  0.61005307  0.55593811  0.74801601  1
  O  O62  1  0.81400788  0.44831821  0.90037984  1
  O  O63  1  0.39859233  0.77564196  0.26118106  1
  O  O64  1  0.64542983  0.99729992  0.84076583  1
  O  O65  1  0.89830176  0.72294547  0.24314767  1
  O  O66  1  0.39174125  0.20470802  0.41558289  1
  O  O67  1  0.60263277  0.79121089  0.57059910  1
  O  O68  1  0.36934560  0.00033149  0.15788030  1
  O  O69  1  0.36853137  0.85975462  0.74255843  1
  O  O70  1  0.63441274  0.14225980  0.25559425  1
  O  O71  1  0.18933718  0.54931951  0.09863702  1
