# generated using pymatgen
data_TlInO2
_symmetry_space_group_name_H-M   'P 1'
_cell_length_a   3.38307969
_cell_length_b   6.81024758
_cell_length_c   3.38307948
_cell_angle_alpha   104.38175489
_cell_angle_beta   60.00000874
_cell_angle_gamma   104.38175631
_symmetry_Int_Tables_number   1
_chemical_formula_structural   TlInO2
_chemical_formula_sum   'Tl1 In1 O2'
_cell_volume   64.66635018
_cell_formula_units_Z   1
loop_
 _symmetry_equiv_pos_site_id
 _symmetry_equiv_pos_as_xyz
  1  'x, y, z'
loop_
 _atom_site_type_symbol
 _atom_site_label
 _atom_site_symmetry_multiplicity
 _atom_site_fract_x
 _atom_site_fract_y
 _atom_site_fract_z
 _atom_site_occupancy
  Tl  Tl0  1  0.00000000  0.00000000  0.00000000  1
  In  In1  1  0.50000000  0.50000000  0.50000000  1
  O  O2  1  0.22393987  0.67182060  0.22393987  1
  O  O3  1  0.77606013  0.32817940  0.77606013  1
