# generated using pymatgen
data_YTa3O9
_symmetry_space_group_name_H-M   'P 1'
_cell_length_a   11.85828466
_cell_length_b   8.84359476
_cell_length_c   8.86476074
_cell_angle_alpha   66.17304629
_cell_angle_beta   63.27567962
_cell_angle_gamma   26.54898576
_symmetry_Int_Tables_number   1
_chemical_formula_structural   YTa3O9
_chemical_formula_sum   'Y2 Ta6 O18'
_cell_volume   371.12861359
_cell_formula_units_Z   2
loop_
 _symmetry_equiv_pos_site_id
 _symmetry_equiv_pos_as_xyz
  1  'x, y, z'
loop_
 _atom_site_type_symbol
 _atom_site_label
 _atom_site_symmetry_multiplicity
 _atom_site_fract_x
 _atom_site_fract_y
 _atom_site_fract_z
 _atom_site_occupancy
  Y  Y0  1  0.31517869  0.04703881  0.00742413  1
  Y  Y1  1  0.68482131  0.95296119  0.99257587  1
  Ta  Ta2  1  0.07411749  0.52090392  0.25674361  1
  Ta  Ta3  1  0.24914036  0.51629091  0.73628702  1
  Ta  Ta4  1  0.41730291  0.50003705  0.24805321  1
  Ta  Ta5  1  0.75085964  0.48370909  0.26371298  1
  Ta  Ta6  1  0.58269709  0.49996295  0.75194679  1
  Ta  Ta7  1  0.92588251  0.47909608  0.74325639  1
  O  O8  1  0.09680089  0.00500782  0.23303288  1
  O  O9  1  0.17191383  0.48464707  -0.00038755  1
  O  O10  1  -0.00000000  0.50000000  0.50000000  1
  O  O11  1  0.43102375  0.00154842  0.20937035  1
  O  O12  1  0.07296527  0.49446256  0.79062965  1
  O  O13  1  0.26554871  0.48526166  0.23466086  1
  O  O14  1  0.50000000  0.50000000  -0.00000000  1
  O  O15  1  0.33674693  0.49195464  0.49780359  1
  O  O16  1  0.74898006  0.00183031  0.23466086  1
  O  O17  1  0.43164348  0.46654781  0.76696712  1
  O  O18  1  0.56835652  0.53345219  0.23303288  1
  O  O19  1  0.25101994  -0.00183031  0.76533914  1
  O  O20  1  0.82808617  0.51535293  0.00038755  1
  O  O21  1  0.66325307  0.50804536  0.50219641  1
  O  O22  1  0.73445129  0.51473834  0.76533914  1
  O  O23  1  0.92703473  0.50553744  0.20937035  1
  O  O24  1  0.56897625  -0.00154842  0.79062965  1
  O  O25  1  0.90319911  0.99499218  0.76696712  1
