# generated using pymatgen
data_TiMn3Cu2(PO4)6
_symmetry_space_group_name_H-M   'P 1'
_cell_length_a   8.57271780
_cell_length_b   8.57271831
_cell_length_c   8.57271760
_cell_angle_alpha   60.03685396
_cell_angle_beta   60.03685184
_cell_angle_gamma   60.03685575
_symmetry_Int_Tables_number   1
_chemical_formula_structural   TiMn3Cu2(PO4)6
_chemical_formula_sum   'Ti1 Mn3 Cu2 P6 O24'
_cell_volume   445.86486220
_cell_formula_units_Z   1
loop_
 _symmetry_equiv_pos_site_id
 _symmetry_equiv_pos_as_xyz
  1  'x, y, z'
loop_
 _atom_site_type_symbol
 _atom_site_label
 _atom_site_symmetry_multiplicity
 _atom_site_fract_x
 _atom_site_fract_y
 _atom_site_fract_z
 _atom_site_occupancy
  Ti  Ti0  1  0.85712127  0.85712127  0.85712127  1
  Mn  Mn1  1  0.14340026  0.14340026  0.14340026  1
  Mn  Mn2  1  0.35763440  0.35763440  0.35763440  1
  Mn  Mn3  1  0.64290127  0.64290127  0.64290127  1
  Cu  Cu4  1  0.99961875  0.99961875  0.99961875  1
  Cu  Cu5  1  0.50099018  0.50099018  0.50099018  1
  P  P6  1  0.74966415  0.45612957  0.04202640  1
  P  P7  1  0.04202640  0.74966415  0.45612957  1
  P  P8  1  0.45612957  0.04202640  0.74966415  1
  P  P9  1  0.25178106  0.53969908  0.96043686  1
  P  P10  1  0.53969908  0.96043686  0.25178106  1
  P  P11  1  0.96043686  0.25178106  0.53969908  1
  O  O12  1  0.12034951  0.30656709  0.50941547  1
  O  O13  1  0.30656709  0.50941547  0.12034951  1
  O  O14  1  0.05781873  0.91660545  0.26144032  1
  O  O15  1  0.50941547  0.12034951  0.30656709  1
  O  O16  1  -0.00071608  0.80785696  0.62129420  1
  O  O17  1  0.23850400  0.58366413  0.44618498  1
  O  O18  1  0.26144032  0.05781873  0.91660545  1
  O  O19  1  0.44618498  0.23850400  0.58366413  1
  O  O20  1  0.19479869  0.38122649  0.99126282  1
  O  O21  1  0.58366413  0.44618498  0.23850400  1
  O  O22  1  0.08529523  0.73598474  0.94041623  1
  O  O23  1  0.38122649  0.99126282  0.19479869  1
  O  O24  1  0.62129420  -0.00071608  0.80785696  1
  O  O25  1  0.91660545  0.26144032  0.05781873  1
  O  O26  1  0.41765211  0.55511904  0.76325139  1
  O  O27  1  0.80785696  0.62129420  -0.00071608  1
  O  O28  1  0.55511904  0.76325139  0.41765211  1
  O  O29  1  0.73598474  0.94041623  0.08529523  1
  O  O30  1  0.76325139  0.41765211  0.55511904  1
  O  O31  1  0.99126282  0.19479869  0.38122649  1
  O  O32  1  0.48792196  0.88319472  0.69348961  1
  O  O33  1  0.94041623  0.08529523  0.73598474  1
  O  O34  1  0.69348961  0.48792196  0.88319472  1
  O  O35  1  0.88319472  0.69348961  0.48792196  1
