# generated using pymatgen
data_V4CrFeO12
_symmetry_space_group_name_H-M   'P 1'
_cell_length_a   6.88696443
_cell_length_b   6.88696518
_cell_length_c   5.63354752
_cell_angle_alpha   75.07508274
_cell_angle_beta   104.92492035
_cell_angle_gamma   95.45722785
_symmetry_Int_Tables_number   1
_chemical_formula_structural   V4CrFeO12
_chemical_formula_sum   'V4 Cr1 Fe1 O12'
_cell_volume   249.35791787
_cell_formula_units_Z   1
loop_
 _symmetry_equiv_pos_site_id
 _symmetry_equiv_pos_as_xyz
  1  'x, y, z'
loop_
 _atom_site_type_symbol
 _atom_site_label
 _atom_site_symmetry_multiplicity
 _atom_site_fract_x
 _atom_site_fract_y
 _atom_site_fract_z
 _atom_site_occupancy
  V  V0  1  0.18780528  0.60058665  0.74521951  1
  V  V1  1  0.39326089  0.79722527  0.25110776  1
  V  V2  1  0.60058665  0.18780528  0.75478049  1
  V  V3  1  0.79722527  0.39326089  0.24889224  1
  Cr  Cr4  1  0.08114756  0.08114756  0.75000000  1
  Fe  Fe5  1  0.91072587  0.91072587  0.25000000  1
  O  O6  1  0.03110509  0.82134794  0.63220589  1
  O  O7  1  0.09147337  0.35833165  0.80092665  1
  O  O8  1  0.18691365  0.96079999  0.13222643  1
  O  O9  1  0.37855710  0.65740564  0.55167331  1
  O  O10  1  0.35833165  0.09147337  0.69907335  1
  O  O11  1  0.35946463  0.63528597  0.05300586  1
  O  O12  1  0.65740564  0.37855710  0.94832669  1
  O  O13  1  0.62532465  0.92323681  0.25867660  1
  O  O14  1  0.63528597  0.35946463  0.44699414  1
  O  O15  1  0.82134794  0.03110509  0.86779411  1
  O  O16  1  0.92323681  0.62532465  0.24132340  1
  O  O17  1  0.96079999  0.18691365  0.36777357  1
