# generated using pymatgen
data_K2MoSO3
_symmetry_space_group_name_H-M   'P 1'
_cell_length_a   6.24521661
_cell_length_b   7.23917592
_cell_length_c   7.86554520
_cell_angle_alpha   107.76536270
_cell_angle_beta   90.00000000
_cell_angle_gamma   115.55317540
_symmetry_Int_Tables_number   1
_chemical_formula_structural   K2MoSO3
_chemical_formula_sum   'K4 Mo2 S2 O6'
_cell_volume   301.91523273
_cell_formula_units_Z   2
loop_
 _symmetry_equiv_pos_site_id
 _symmetry_equiv_pos_as_xyz
  1  'x, y, z'
loop_
 _atom_site_type_symbol
 _atom_site_label
 _atom_site_symmetry_multiplicity
 _atom_site_fract_x
 _atom_site_fract_y
 _atom_site_fract_z
 _atom_site_occupancy
  K  K0  1  0.49223402  0.98446804  0.20541492  1
  K  K1  1  0.50776598  0.01553196  0.79458508  1
  K  K2  1  0.17374756  0.34749512  0.72977200  1
  K  K3  1  0.82625244  0.65250488  0.27022800  1
  Mo  Mo4  1  0.15053529  0.30107058  0.20844645  1
  Mo  Mo5  1  0.84946471  0.69892942  0.79155355  1
  S  S6  1  0.32115270  0.64230539  0.41246868  1
  S  S7  1  0.67884730  0.35769461  0.58753132  1
  O  O8  1  0.05225205  0.10450411  0.32025318  1
  O  O9  1  0.94774795  0.89549589  0.67974682  1
  O  O10  1  0.89786152  0.26760091  0.07207172  1
  O  O11  1  0.36973939  0.26760091  0.07207172  1
  O  O12  1  0.10213848  0.73239909  0.92792828  1
  O  O13  1  0.63026061  0.73239909  0.92792828  1
