# generated using pymatgen
data_NdAl4
_symmetry_space_group_name_H-M   'P 1'
_cell_length_a   4.43143227
_cell_length_b   8.66144984
_cell_length_c   8.66144984
_cell_angle_alpha   81.97299333
_cell_angle_beta   75.17820233
_cell_angle_gamma   75.17820233
_symmetry_Int_Tables_number   1
_chemical_formula_structural   NdAl4
_chemical_formula_sum   'Nd3 Al12'
_cell_volume   309.71275733
_cell_formula_units_Z   3
loop_
 _symmetry_equiv_pos_site_id
 _symmetry_equiv_pos_as_xyz
  1  'x, y, z'
loop_
 _atom_site_type_symbol
 _atom_site_label
 _atom_site_symmetry_multiplicity
 _atom_site_fract_x
 _atom_site_fract_y
 _atom_site_fract_z
 _atom_site_occupancy
  Nd  Nd0  1  0.00000000  0.98819570  0.01180430  1
  Nd  Nd1  1  0.33118641  0.68748250  0.65014468  1
  Nd  Nd2  1  0.66881359  0.34985532  0.31251750  1
  Al  Al3  1  -0.00000000  0.40876138  0.59123862  1
  Al  Al4  1  0.00000000  0.63232397  0.36767603  1
  Al  Al5  1  0.50000000  0.75838216  0.24161784  1
  Al  Al6  1  0.50000000  0.27798765  0.72201235  1
  Al  Al7  1  0.84634880  0.39869070  0.90861171  1
  Al  Al8  1  0.15365120  0.09138829  0.60130930  1
  Al  Al9  1  0.67737849  0.71337724  0.93186579  1
  Al  Al10  1  0.32262151  0.06813421  0.28662276  1
  Al  Al11  1  0.65222087  0.95974976  0.73580850  1
  Al  Al12  1  0.34777913  0.26419150  0.04025024  1
  Al  Al13  1  0.81824825  0.94249157  0.42101193  1
  Al  Al14  1  0.18175175  0.57898807  0.05750843  1
