# generated using pymatgen
data_Cu2Ag(SO5)2
_symmetry_space_group_name_H-M   'P 1'
_cell_length_a   5.41178411
_cell_length_b   5.41178411
_cell_length_c   7.69647391
_cell_angle_alpha   101.84151305
_cell_angle_beta   103.55157867
_cell_angle_gamma   112.01935533
_symmetry_Int_Tables_number   1
_chemical_formula_structural   Cu2Ag(SO5)2
_chemical_formula_sum   'Cu2 Ag1 S2 O10'
_cell_volume   192.11004927
_cell_formula_units_Z   1
loop_
 _symmetry_equiv_pos_site_id
 _symmetry_equiv_pos_as_xyz
  1  'x, y, z'
loop_
 _atom_site_type_symbol
 _atom_site_label
 _atom_site_symmetry_multiplicity
 _atom_site_fract_x
 _atom_site_fract_y
 _atom_site_fract_z
 _atom_site_occupancy
  Cu  Cu0  1  0.00000000  0.50000000  0.00000000  1
  Cu  Cu1  1  0.50000000  0.00000000  0.00000000  1
  Ag  Ag2  1  0.00000000  0.50000000  0.50000000  1
  S  S3  1  0.78808063  0.91942318  0.70750381  1
  S  S4  1  0.21191937  0.08057682  0.29249619  1
  O  O5  1  0.98400834  0.82446126  0.80846960  1
  O  O6  1  0.01599166  0.17553874  0.19153040  1
  O  O7  1  0.70009343  0.80285224  0.50294567  1
  O  O8  1  0.29990657  0.19714776  0.49705433  1
  O  O9  1  0.51896732  0.82830878  0.76042520  1
  O  O10  1  0.93211642  0.24145788  0.76042520  1
  O  O11  1  0.48103268  0.17169122  0.23957480  1
  O  O12  1  0.06788358  0.75854212  0.23957480  1
  O  O13  1  0.62458345  0.33356365  0.95814710  1
  O  O14  1  0.37541655  0.66643635  0.04185290  1
