# generated using pymatgen
data_NaFe5O8
_symmetry_space_group_name_H-M   'P 1'
_cell_length_a   8.62192221
_cell_length_b   8.62192221
_cell_length_c   8.62192221
_cell_angle_alpha   90.00000000
_cell_angle_beta   90.00000000
_cell_angle_gamma   90.00000000
_symmetry_Int_Tables_number   1
_chemical_formula_structural   NaFe5O8
_chemical_formula_sum   'Na4 Fe20 O32'
_cell_volume   640.93250954
_cell_formula_units_Z   4
loop_
 _symmetry_equiv_pos_site_id
 _symmetry_equiv_pos_as_xyz
  1  'x, y, z'
loop_
 _atom_site_type_symbol
 _atom_site_label
 _atom_site_symmetry_multiplicity
 _atom_site_fract_x
 _atom_site_fract_y
 _atom_site_fract_z
 _atom_site_occupancy
  Na  Na0  1  0.12500000  0.87500000  0.37500000  1
  Na  Na1  1  0.37500000  0.12500000  0.87500000  1
  Na  Na2  1  0.62500000  0.62500000  0.62500000  1
  Na  Na3  1  0.87500000  0.37500000  0.12500000  1
  Fe  Fe4  1  0.99675801  0.99675801  0.99675801  1
  Fe  Fe5  1  0.00324199  0.49675801  0.50324199  1
  Fe  Fe6  1  0.12788795  0.12211205  0.62500000  1
  Fe  Fe7  1  0.12211205  0.62500000  0.12788795  1
  Fe  Fe8  1  0.12500000  0.37211205  0.87788795  1
  Fe  Fe9  1  0.25324199  0.25324199  0.25324199  1
  Fe  Fe10  1  0.24675801  0.74675801  0.75324199  1
  Fe  Fe11  1  0.37788795  0.37500000  0.62788795  1
  Fe  Fe12  1  0.37500000  0.62788795  0.37788795  1
  Fe  Fe13  1  0.37211205  0.87788795  0.12500000  1
  Fe  Fe14  1  0.50324199  0.00324199  0.49675801  1
  Fe  Fe15  1  0.49675801  0.50324199  0.00324199  1
  Fe  Fe16  1  0.62500000  0.12788795  0.12211205  1
  Fe  Fe17  1  0.62788795  0.37788795  0.37500000  1
  Fe  Fe18  1  0.62211205  0.87500000  0.87211205  1
  Fe  Fe19  1  0.75324199  0.24675801  0.74675801  1
  Fe  Fe20  1  0.74675801  0.75324199  0.24675801  1
  Fe  Fe21  1  0.87788795  0.12500000  0.37211205  1
  Fe  Fe22  1  0.87211205  0.62211205  0.87500000  1
  Fe  Fe23  1  0.87500000  0.87211205  0.62211205  1
  O  O24  1  0.14072782  0.38458954  0.11093499  1
  O  O25  1  0.13641710  0.36358290  0.63641710  1
  O  O26  1  0.13906501  0.86541046  0.10927218  1
  O  O27  1  0.11541046  0.88906501  0.64072782  1
  O  O28  1  0.11093499  0.14072782  0.38458954  1
  O  O29  1  0.10927218  0.13906501  0.86541046  1
  O  O30  1  0.13458954  0.60927218  0.36093499  1
  O  O31  1  0.11358290  0.61358290  0.88641710  1
  O  O32  1  0.38458954  0.11093499  0.14072782  1
  O  O33  1  0.38641710  0.38641710  0.38641710  1
  O  O34  1  0.36093499  0.13458954  0.60927218  1
  O  O35  1  0.36541046  0.39072782  0.86093499  1
  O  O36  1  0.36358290  0.63641710  0.13641710  1
  O  O37  1  0.39072782  0.86093499  0.36541046  1
  O  O38  1  0.35927218  0.61541046  0.61093499  1
  O  O39  1  0.38906501  0.85927218  0.88458954  1
  O  O40  1  0.63641710  0.13641710  0.36358290  1
  O  O41  1  0.60927218  0.36093499  0.13458954  1
  O  O42  1  0.61093499  0.35927218  0.61541046  1
  O  O43  1  0.61541046  0.61093499  0.35927218  1
  O  O44  1  0.64072782  0.11541046  0.88906501  1
  O  O45  1  0.63906501  0.63458954  0.89072782  1
  O  O46  1  0.61358290  0.88641710  0.11358290  1
  O  O47  1  0.63458954  0.89072782  0.63906501  1
  O  O48  1  0.86541046  0.10927218  0.13906501  1
  O  O49  1  0.88641710  0.11358290  0.61358290  1
  O  O50  1  0.86093499  0.36541046  0.39072782  1
  O  O51  1  0.88906501  0.64072782  0.11541046  1
  O  O52  1  0.89072782  0.63906501  0.63458954  1
  O  O53  1  0.88458954  0.38906501  0.85927218  1
  O  O54  1  0.85927218  0.88458954  0.38906501  1
  O  O55  1  0.86358290  0.86358290  0.86358290  1
