# generated using pymatgen
data_Cr(PO3)4
_symmetry_space_group_name_H-M   'P 1'
_cell_length_a   8.44884316
_cell_length_b   8.44884262
_cell_length_c   7.62839592
_cell_angle_alpha   83.04068266
_cell_angle_beta   96.95931691
_cell_angle_gamma   69.72256242
_symmetry_Int_Tables_number   1
_chemical_formula_structural   Cr(PO3)4
_chemical_formula_sum   'Cr2 P8 O24'
_cell_volume   499.18199787
_cell_formula_units_Z   2
loop_
 _symmetry_equiv_pos_site_id
 _symmetry_equiv_pos_as_xyz
  1  'x, y, z'
loop_
 _atom_site_type_symbol
 _atom_site_label
 _atom_site_symmetry_multiplicity
 _atom_site_fract_x
 _atom_site_fract_y
 _atom_site_fract_z
 _atom_site_occupancy
  Cr  Cr0  1  0.86772239  0.86772239  0.25000000  1
  Cr  Cr1  1  0.13227761  0.13227761  0.75000000  1
  P  P2  1  0.75674007  0.56471756  0.12645661  1
  P  P3  1  0.20107324  0.95196828  0.16554018  1
  P  P4  1  0.56471756  0.75674007  0.37354339  1
  P  P5  1  0.04803172  0.79892676  0.66554018  1
  P  P6  1  0.24325993  0.43528244  0.87354339  1
  P  P7  1  0.43528244  0.24325993  0.62645661  1
  P  P8  1  0.95196828  0.20107324  0.33445982  1
  P  P9  1  0.79892676  0.04803172  0.83445982  1
  O  O10  1  0.85564245  0.08070570  0.34317204  1
  O  O11  1  0.73832106  0.00287769  0.00457376  1
  O  O12  1  0.00287769  0.73832106  0.49542624  1
  O  O13  1  0.60880259  0.67235732  0.56541273  1
  O  O14  1  0.67235732  0.60880259  0.93458727  1
  O  O15  1  0.12165145  0.12165145  0.25000000  1
  O  O16  1  0.36092309  0.84202853  0.31785481  1
  O  O17  1  0.08070570  0.85564245  0.15682796  1
  O  O18  1  0.35763447  0.11121377  0.68114016  1
  O  O19  1  0.64236553  0.88878623  0.31885984  1
  O  O20  1  0.91929430  0.14435755  0.84317204  1
  O  O21  1  0.15797147  0.63907691  0.81785481  1
  O  O22  1  0.87834855  0.87834855  0.75000000  1
  O  O23  1  0.39119741  0.32764268  0.43458727  1
  O  O24  1  0.60947787  0.60947787  0.25000000  1
  O  O25  1  0.14435755  0.91929430  0.65682796  1
  O  O26  1  0.63907691  0.15797147  0.68214519  1
  O  O27  1  0.84202853  0.36092309  0.18214519  1
  O  O28  1  0.88878623  0.64236553  0.18114016  1
  O  O29  1  0.11121377  0.35763447  0.81885984  1
  O  O30  1  0.26167894  0.99712231  0.99542624  1
  O  O31  1  0.32764268  0.39119741  0.06541273  1
  O  O32  1  0.99712231  0.26167894  0.50457376  1
  O  O33  1  0.39052213  0.39052213  0.75000000  1
