# generated using pymatgen
data_Tl(Mo3Se4)2
_symmetry_space_group_name_H-M   'P 1'
_cell_length_a   6.96426334
_cell_length_b   6.96426334
_cell_length_c   6.96426303
_cell_angle_alpha   88.76341166
_cell_angle_beta   88.76341166
_cell_angle_gamma   88.76340728
_symmetry_Int_Tables_number   1
_chemical_formula_structural   Tl(Mo3Se4)2
_chemical_formula_sum   'Tl1 Mo6 Se8'
_cell_volume   337.54081494
_cell_formula_units_Z   1
loop_
 _symmetry_equiv_pos_site_id
 _symmetry_equiv_pos_as_xyz
  1  'x, y, z'
loop_
 _atom_site_type_symbol
 _atom_site_label
 _atom_site_symmetry_multiplicity
 _atom_site_fract_x
 _atom_site_fract_y
 _atom_site_fract_z
 _atom_site_occupancy
  Tl  Tl0  1  -0.00000000  -0.00000000  -0.00000000  1
  Mo  Mo1  1  0.57920645  0.75676036  0.43776039  1
  Mo  Mo2  1  0.75676036  0.43776039  0.57920645  1
  Mo  Mo3  1  0.43776039  0.57920645  0.75676036  1
  Mo  Mo4  1  0.42079355  0.24323964  0.56223961  1
  Mo  Mo5  1  0.24323964  0.56223961  0.42079355  1
  Mo  Mo6  1  0.56223961  0.42079355  0.24323964  1
  Se  Se7  1  0.75274907  0.75274907  0.75274907  1
  Se  Se8  1  0.24725093  0.24725093  0.24725093  1
  Se  Se9  1  0.60958586  0.25945009  0.87869476  1
  Se  Se10  1  0.25945009  0.87869476  0.60958586  1
  Se  Se11  1  0.87869476  0.60958586  0.25945009  1
  Se  Se12  1  0.39041414  0.74054991  0.12130524  1
  Se  Se13  1  0.74054991  0.12130524  0.39041414  1
  Se  Se14  1  0.12130524  0.39041414  0.74054991  1
