# generated using pymatgen
data_UCoS3
_symmetry_space_group_name_H-M   'P 1'
_cell_length_a   5.90234704
_cell_length_b   6.85250904
_cell_length_c   8.39637913
_cell_angle_alpha   90.00000000
_cell_angle_beta   90.00000000
_cell_angle_gamma   90.00000000
_symmetry_Int_Tables_number   1
_chemical_formula_structural   UCoS3
_chemical_formula_sum   'U4 Co4 S12'
_cell_volume   339.59899687
_cell_formula_units_Z   4
loop_
 _symmetry_equiv_pos_site_id
 _symmetry_equiv_pos_as_xyz
  1  'x, y, z'
loop_
 _atom_site_type_symbol
 _atom_site_label
 _atom_site_symmetry_multiplicity
 _atom_site_fract_x
 _atom_site_fract_y
 _atom_site_fract_z
 _atom_site_occupancy
  U  U0  1  0.56548337  0.37629905  0.99101062  1
  U  U1  1  0.43451663  0.62370095  0.49101062  1
  U  U2  1  0.06548337  0.12370095  0.49101062  1
  U  U3  1  0.93451663  0.87629905  0.99101062  1
  Co  Co4  1  0.00217688  0.49939021  0.24106581  1
  Co  Co5  1  0.99782312  0.50060979  0.74106581  1
  Co  Co6  1  0.50217688  0.00060979  0.74106581  1
  Co  Co7  1  0.49782312  0.99939021  0.24106581  1
  S  S8  1  0.83934775  0.18368314  0.79129677  1
  S  S9  1  0.16065225  0.81631686  0.29129677  1
  S  S10  1  0.33934775  0.31631686  0.29129677  1
  S  S11  1  0.66065225  0.68368314  0.79129677  1
  S  S12  1  0.83850438  0.18230083  0.19092615  1
  S  S13  1  0.16149562  0.81769917  0.69092615  1
  S  S14  1  0.33850438  0.31769917  0.69092615  1
  S  S15  1  0.66149562  0.68230083  0.19092615  1
  S  S16  1  0.85729004  0.46439858  0.49070065  1
  S  S17  1  0.14270996  0.53560142  0.99070065  1
  S  S18  1  0.35729004  0.03560142  0.99070065  1
  S  S19  1  0.64270996  0.96439858  0.49070065  1
