# generated using pymatgen
data_K2NaAuF6
_symmetry_space_group_name_H-M   'P 1'
_cell_length_a   6.20410670
_cell_length_b   6.20410679
_cell_length_c   6.20410679
_cell_angle_alpha   59.99999965
_cell_angle_beta   59.99999949
_cell_angle_gamma   59.99999950
_symmetry_Int_Tables_number   1
_chemical_formula_structural   K2NaAuF6
_chemical_formula_sum   'K2 Na1 Au1 F6'
_cell_volume   168.85844491
_cell_formula_units_Z   1
loop_
 _symmetry_equiv_pos_site_id
 _symmetry_equiv_pos_as_xyz
  1  'x, y, z'
loop_
 _atom_site_type_symbol
 _atom_site_label
 _atom_site_symmetry_multiplicity
 _atom_site_fract_x
 _atom_site_fract_y
 _atom_site_fract_z
 _atom_site_occupancy
  K  K0  1  0.25000000  0.25000000  0.25000000  1
  K  K1  1  0.75000000  0.75000000  0.75000000  1
  Na  Na2  1  0.50000000  0.50000000  0.50000000  1
  Au  Au3  1  0.00000000  -0.00000000  -0.00000000  1
  F  F4  1  0.24414128  0.75585872  0.24414129  1
  F  F5  1  0.75585872  0.75585871  0.24414128  1
  F  F6  1  0.75585872  0.24414128  0.75585871  1
  F  F7  1  0.75585872  0.24414129  0.24414129  1
  F  F8  1  0.24414128  0.75585871  0.75585871  1
  F  F9  1  0.24414128  0.24414129  0.75585872  1
