# generated using pymatgen
data_Mg14MnCo
_symmetry_space_group_name_H-M   'P 1'
_cell_length_a   6.23025365
_cell_length_b   6.23025316
_cell_length_c   9.84968406
_cell_angle_alpha   90.00000000
_cell_angle_beta   90.00000000
_cell_angle_gamma   120.00000255
_symmetry_Int_Tables_number   1
_chemical_formula_structural   Mg14MnCo
_chemical_formula_sum   'Mg14 Mn1 Co1'
_cell_volume   331.10393579
_cell_formula_units_Z   1
loop_
 _symmetry_equiv_pos_site_id
 _symmetry_equiv_pos_as_xyz
  1  'x, y, z'
loop_
 _atom_site_type_symbol
 _atom_site_label
 _atom_site_symmetry_multiplicity
 _atom_site_fract_x
 _atom_site_fract_y
 _atom_site_fract_z
 _atom_site_occupancy
  Mg  Mg0  1  0.17041981  0.83520941  0.12500000  1
  Mg  Mg1  1  0.16476575  0.83238237  0.62500000  1
  Mg  Mg2  1  0.66479059  0.32958019  0.12500000  1
  Mg  Mg3  1  0.66761763  0.33523425  0.62500000  1
  Mg  Mg4  1  0.66479059  0.83520941  0.12500000  1
  Mg  Mg5  1  0.66761763  0.83238237  0.62500000  1
  Mg  Mg6  1  0.32547671  0.17452329  0.38214379  1
  Mg  Mg7  1  0.32547671  0.17452329  0.86785621  1
  Mg  Mg8  1  0.32547671  0.65095441  0.38214379  1
  Mg  Mg9  1  0.32547671  0.65095441  0.86785621  1
  Mg  Mg10  1  0.84904559  0.17452329  0.38214379  1
  Mg  Mg11  1  0.84904559  0.17452329  0.86785621  1
  Mg  Mg12  1  0.83333300  0.66666700  0.37276945  1
  Mg  Mg13  1  0.83333300  0.66666700  0.87723055  1
  Mn  Mn14  1  0.16666700  0.33333300  0.12500000  1
  Co  Co15  1  0.16666700  0.33333300  0.62500000  1
