# generated using pymatgen
data_K2SrCl4
_symmetry_space_group_name_H-M   'P 1'
_cell_length_a   9.49263254
_cell_length_b   9.49263225
_cell_length_c   9.49263235
_cell_angle_alpha   32.60765655
_cell_angle_beta   32.60765772
_cell_angle_gamma   32.60765916
_symmetry_Int_Tables_number   1
_chemical_formula_structural   K2SrCl4
_chemical_formula_sum   'K2 Sr1 Cl4'
_cell_volume   220.91390734
_cell_formula_units_Z   1
loop_
 _symmetry_equiv_pos_site_id
 _symmetry_equiv_pos_as_xyz
  1  'x, y, z'
loop_
 _atom_site_type_symbol
 _atom_site_label
 _atom_site_symmetry_multiplicity
 _atom_site_fract_x
 _atom_site_fract_y
 _atom_site_fract_z
 _atom_site_occupancy
  K  K0  1  0.77012923  0.77012923  0.77012923  1
  K  K1  1  0.22987077  0.22987077  0.22987077  1
  Sr  Sr2  1  -0.00000000  -0.00000000  0.00000000  1
  Cl  Cl3  1  0.89033799  0.89033799  0.89033799  1
  Cl  Cl4  1  0.10966201  0.10966201  0.10966201  1
  Cl  Cl5  1  0.64039528  0.64039528  0.64039528  1
  Cl  Cl6  1  0.35960472  0.35960472  0.35960472  1
