# generated using pymatgen
data_Nd4Mg2Ti3(Si2O11)2
_symmetry_space_group_name_H-M   'P 1'
_cell_length_a   5.83925691
_cell_length_b   10.97530611
_cell_length_c   13.51691050
_cell_angle_alpha   101.30054258
_cell_angle_beta   90.00000000
_cell_angle_gamma   90.00000000
_symmetry_Int_Tables_number   1
_chemical_formula_structural   Nd4Mg2Ti3(Si2O11)2
_chemical_formula_sum   'Nd8 Mg4 Ti6 Si8 O44'
_cell_volume   849.47230112
_cell_formula_units_Z   2
loop_
 _symmetry_equiv_pos_site_id
 _symmetry_equiv_pos_as_xyz
  1  'x, y, z'
loop_
 _atom_site_type_symbol
 _atom_site_label
 _atom_site_symmetry_multiplicity
 _atom_site_fract_x
 _atom_site_fract_y
 _atom_site_fract_z
 _atom_site_occupancy
  Nd  Nd0  1  0.02290787  0.23387294  0.35789877  1
  Nd  Nd1  1  0.04483239  0.75585377  0.93320175  1
  Nd  Nd2  1  0.45516761  0.75585377  0.43320175  1
  Nd  Nd3  1  0.47709213  0.23387294  0.85789877  1
  Nd  Nd4  1  0.52290787  0.76612706  0.14210123  1
  Nd  Nd5  1  0.54483239  0.24414623  0.56679825  1
  Nd  Nd6  1  0.95516761  0.24414623  0.06679825  1
  Nd  Nd7  1  0.97709213  0.76612706  0.64210123  1
  Mg  Mg8  1  0.50000000  0.50000000  0.50000000  1
  Mg  Mg9  1  0.50000000  -0.00000000  0.00000000  1
  Mg  Mg10  1  -0.00000000  -0.00000000  0.50000000  1
  Mg  Mg11  1  -0.00000000  0.50000000  0.00000000  1
  Ti  Ti12  1  0.22645565  0.49779641  0.22898971  1
  Ti  Ti13  1  0.27354435  0.49779641  0.72898971  1
  Ti  Ti14  1  0.50000000  0.50000000  0.00000000  1
  Ti  Ti15  1  0.72645565  0.50220359  0.27101029  1
  Ti  Ti16  1  0.77354435  0.50220359  0.77101029  1
  Ti  Ti17  1  -0.00000000  0.50000000  0.50000000  1
  Si  Si18  1  0.99907052  0.95409333  0.13770603  1
  Si  Si19  1  0.00158868  0.22744158  0.70289665  1
  Si  Si20  1  0.49841132  0.22744158  0.20289665  1
  Si  Si21  1  0.50092948  0.95409333  0.63770603  1
  Si  Si22  1  0.49907052  0.04590667  0.36229397  1
  Si  Si23  1  0.50158868  0.77255842  0.79710335  1
  Si  Si24  1  0.99841132  0.77255842  0.29710335  1
  Si  Si25  1  0.00092948  0.04590667  0.86229397  1
  O  O26  1  0.01678152  0.49219552  0.34200646  1
  O  O27  1  0.02052860  0.52784245  0.85255389  1
  O  O28  1  0.98615361  0.10069182  0.18259749  1
  O  O29  1  0.06701200  0.83737376  0.40990041  1
  O  O30  1  0.06662059  0.12892587  0.77544369  1
  O  O31  1  0.19947361  0.09693760  0.94916773  1
  O  O32  1  0.28178295  0.68417320  0.75096082  1
  O  O33  1  0.25959844  0.37351028  0.97896910  1
  O  O34  1  0.23045141  0.62879940  0.52851027  1
  O  O35  1  0.23594525  0.31247579  0.70843083  1
  O  O36  1  0.25110889  0.90429984  0.59137994  1
  O  O37  1  0.24889111  0.90429984  0.09137994  1
  O  O38  1  0.26954859  0.62879940  0.02851027  1
  O  O39  1  0.26405475  0.31247579  0.20843083  1
  O  O40  1  0.24040156  0.37351028  0.47896910  1
  O  O41  1  0.21821705  0.68417320  0.25096082  1
  O  O42  1  0.30052639  0.09693760  0.44916773  1
  O  O43  1  0.43337941  0.12892587  0.27544369  1
  O  O44  1  0.43298800  0.83737376  0.90990041  1
  O  O45  1  0.51384639  0.10069182  0.68259749  1
  O  O46  1  0.47947140  0.52784245  0.35255389  1
  O  O47  1  0.48321848  0.49219552  0.84200646  1
  O  O48  1  0.51678152  0.50780448  0.15799354  1
  O  O49  1  0.52052860  0.47215755  0.64744611  1
  O  O50  1  0.48615361  0.89930818  0.31740251  1
  O  O51  1  0.56701200  0.16262624  0.09009959  1
  O  O52  1  0.56662059  0.87107413  0.72455631  1
  O  O53  1  0.69947361  0.90306240  0.55083227  1
  O  O54  1  0.78178295  0.31582680  0.74903918  1
  O  O55  1  0.75959844  0.62648972  0.52103090  1
  O  O56  1  0.73594525  0.68752421  0.79156917  1
  O  O57  1  0.73045141  0.37120060  0.97148973  1
  O  O58  1  0.75110889  0.09570016  0.90862006  1
  O  O59  1  0.74889111  0.09570016  0.40862006  1
  O  O60  1  0.76405475  0.68752421  0.29156917  1
  O  O61  1  0.76954859  0.37120060  0.47148973  1
  O  O62  1  0.74040156  0.62648972  0.02103090  1
  O  O63  1  0.71821705  0.31582680  0.24903918  1
  O  O64  1  0.80052639  0.90306240  0.05083227  1
  O  O65  1  0.93337941  0.87107413  0.22455631  1
  O  O66  1  0.93298800  0.16262624  0.59009959  1
  O  O67  1  0.01384639  0.89930818  0.81740251  1
  O  O68  1  0.97947140  0.47215755  0.14744611  1
  O  O69  1  0.98321848  0.50780448  0.65799354  1
