# generated using pymatgen
data_TaRhO4
_symmetry_space_group_name_H-M   'P 1'
_cell_length_a   3.14404690
_cell_length_b   4.69745391
_cell_length_c   4.69745391
_cell_angle_alpha   90.61960852
_cell_angle_beta   90.00000000
_cell_angle_gamma   90.00000000
_symmetry_Int_Tables_number   1
_chemical_formula_structural   TaRhO4
_chemical_formula_sum   'Ta1 Rh1 O4'
_cell_volume   69.37271246
_cell_formula_units_Z   1
loop_
 _symmetry_equiv_pos_site_id
 _symmetry_equiv_pos_as_xyz
  1  'x, y, z'
loop_
 _atom_site_type_symbol
 _atom_site_label
 _atom_site_symmetry_multiplicity
 _atom_site_fract_x
 _atom_site_fract_y
 _atom_site_fract_z
 _atom_site_occupancy
  Ta  Ta0  1  0.00000000  0.00000000  -0.00000000  1
  Rh  Rh1  1  0.50000000  0.50000000  0.50000000  1
  O  O2  1  0.50000000  0.19105459  0.80894541  1
  O  O3  1  0.50000000  0.80894541  0.19105459  1
  O  O4  1  0.00000000  0.30092233  0.30092233  1
  O  O5  1  -0.00000000  0.69907767  0.69907767  1
