# generated using pymatgen
data_LiCoO2
_symmetry_space_group_name_H-M   'P 1'
_cell_length_a   2.93856699
_cell_length_b   2.93865996
_cell_length_c   9.85992540
_cell_angle_alpha   89.99788250
_cell_angle_beta   89.99738736
_cell_angle_gamma   59.99817426
_symmetry_Int_Tables_number   1
_chemical_formula_structural   LiCoO2
_chemical_formula_sum   'Li2 Co2 O4'
_cell_volume   73.73627618
_cell_formula_units_Z   2
loop_
 _symmetry_equiv_pos_site_id
 _symmetry_equiv_pos_as_xyz
  1  'x, y, z'
loop_
 _atom_site_type_symbol
 _atom_site_label
 _atom_site_symmetry_multiplicity
 _atom_site_fract_x
 _atom_site_fract_y
 _atom_site_fract_z
 _atom_site_occupancy
  Li  Li0  1  0.33331186  0.33337517  0.74179236  1
  Li  Li1  1  0.66662516  0.66668662  0.24179955  1
  Co  Co2  1  0.33335364  0.33330104  0.99948738  1
  Co  Co3  1  0.66670224  0.66664506  0.49948857  1
  O  O4  1  0.99997240  0.00001610  0.11323346  1
  O  O5  1  0.00003589  0.00000669  0.61321945  1
  O  O6  1  0.33336204  0.33328277  0.38655698  1
  O  O7  1  0.66673777  0.66658555  0.88654225  1
