# generated using pymatgen
data_Li3MnCoO5
_symmetry_space_group_name_H-M   'P 1'
_cell_length_a   4.98146820
_cell_length_b   5.93708667
_cell_length_c   6.62068153
_cell_angle_alpha   76.77956494
_cell_angle_beta   83.09934302
_cell_angle_gamma   106.56596894
_symmetry_Int_Tables_number   1
_chemical_formula_structural   Li3MnCoO5
_chemical_formula_sum   'Li6 Mn2 Co2 O10'
_cell_volume   179.06654753
_cell_formula_units_Z   2
loop_
 _symmetry_equiv_pos_site_id
 _symmetry_equiv_pos_as_xyz
  1  'x, y, z'
loop_
 _atom_site_type_symbol
 _atom_site_label
 _atom_site_symmetry_multiplicity
 _atom_site_fract_x
 _atom_site_fract_y
 _atom_site_fract_z
 _atom_site_occupancy
  Li  Li0  1  0.80656594  0.10319210  0.40399618  1
  Li  Li1  1  0.99830025  0.49855805  0.99220146  1
  Li  Li2  1  0.59343406  0.69680790  0.79600382  1
  Li  Li3  1  0.40169975  0.30144195  0.20779854  1
  Li  Li4  1  0.20000000  0.90000000  0.60000000  1
  Li  Li5  1  0.20000000  0.40000000  0.60000000  1
  Mn  Mn6  1  0.00077200  0.00164301  0.99719185  1
  Mn  Mn7  1  0.39922800  0.79835699  0.20280815  1
  Co  Co8  1  0.60520808  0.21213144  0.78659956  1
  Co  Co9  1  0.79479192  0.58786856  0.41340044  1
  O  O10  1  0.70556617  0.12405099  0.09733688  1
  O  O11  1  0.87741074  0.54524074  0.69857347  1
  O  O12  1  0.51161624  0.75136047  0.47124077  1
  O  O13  1  0.29267700  0.31385343  0.90871073  1
  O  O14  1  0.11359655  0.94341392  0.27975038  1
  O  O15  1  0.88838376  0.04863953  0.72875923  1
  O  O16  1  0.10732300  0.48614657  0.29128927  1
  O  O17  1  0.69443383  0.67594901  0.10266312  1
  O  O18  1  0.52258926  0.25475926  0.50142653  1
  O  O19  1  0.28640345  0.85658608  0.92024962  1
