# generated using pymatgen
data_Na7Li4Yb5C12O37
_symmetry_space_group_name_H-M   'P 1'
_cell_length_a   10.27883031
_cell_length_b   10.33175369
_cell_length_c   10.33175339
_cell_angle_alpha   59.19813536
_cell_angle_beta   61.31083802
_cell_angle_gamma   61.31083307
_symmetry_Int_Tables_number   1
_chemical_formula_structural   Na7Li4Yb5C12O37
_chemical_formula_sum   'Na7 Li4 Yb5 C12 O37'
_cell_volume   785.78661011
_cell_formula_units_Z   1
loop_
 _symmetry_equiv_pos_site_id
 _symmetry_equiv_pos_as_xyz
  1  'x, y, z'
loop_
 _atom_site_type_symbol
 _atom_site_label
 _atom_site_symmetry_multiplicity
 _atom_site_fract_x
 _atom_site_fract_y
 _atom_site_fract_z
 _atom_site_occupancy
  Na  Na0  1  0.11961414  0.11751989  0.63737971  1
  Na  Na1  1  0.11961414  0.63737971  0.11751989  1
  Na  Na2  1  0.10723304  0.63484482  0.63484482  1
  Na  Na3  1  0.63745568  0.11055170  0.11055170  1
  Na  Na4  1  0.37237804  0.89460700  0.89460700  1
  Na  Na5  1  0.87766590  0.87058933  0.35723004  1
  Na  Na6  1  0.87766590  0.35723004  0.87058933  1
  Li  Li7  1  0.00998729  0.99763076  0.99763076  1
  Li  Li8  1  0.00300923  0.99512850  0.49745271  1
  Li  Li9  1  0.00300923  0.49745271  0.99512850  1
  Li  Li10  1  0.68443054  0.71028089  0.71028089  1
  Yb  Yb11  1  0.39354657  0.35881781  0.87191690  1
  Yb  Yb12  1  0.39354657  0.87191690  0.35881781  1
  Yb  Yb13  1  0.62823358  0.11644677  0.63034583  1
  Yb  Yb14  1  0.62823358  0.63034583  0.11644677  1
  Yb  Yb15  1  0.87573708  0.37606945  0.37606945  1
  C  C16  1  0.20778040  0.22173076  0.22173076  1
  C  C17  1  0.93477262  0.51664637  0.51664637  1
  C  C18  1  0.22355653  0.23280899  0.82884101  1
  C  C19  1  0.51073962  0.50730299  0.94942010  1
  C  C20  1  0.22355653  0.82884101  0.23280899  1
  C  C21  1  0.14545468  0.78576386  0.78576386  1
  C  C22  1  0.52146128  0.52105460  0.52105460  1
  C  C23  1  0.83196858  0.22812314  0.22812314  1
  C  C24  1  0.78867453  0.13708374  0.78205526  1
  C  C25  1  0.78867453  0.78205526  0.13708374  1
  C  C26  1  0.51073962  0.94942010  0.50730299  1
  C  C27  1  0.78795342  0.79189639  0.79189639  1
  O  O28  1  0.13310018  0.36501377  0.14704740  1
  O  O29  1  0.13310018  0.14704740  0.36501377  1
  O  O30  1  0.35213538  0.15472477  0.15472477  1
  O  O31  1  0.14634412  0.15475377  0.84528754  1
  O  O32  1  0.14634412  0.84528754  0.15475377  1
  O  O33  1  0.15503782  0.37179000  0.84017333  1
  O  O34  1  0.15503782  0.84017333  0.37179000  1
  O  O35  1  0.37404573  0.17409724  0.80212966  1
  O  O36  1  0.37404573  0.80212966  0.17409724  1
  O  O37  1  0.13960808  0.86003574  0.64294866  1
  O  O38  1  0.13960808  0.64294866  0.86003574  1
  O  O39  1  0.52397867  0.36630105  0.36630105  1
  O  O40  1  0.83663403  0.15553658  0.15553658  1
  O  O41  1  0.15683918  0.85355919  0.85355919  1
  O  O42  1  0.39068005  0.59720311  0.59720311  1
  O  O43  1  0.83103053  0.15758322  0.37571876  1
  O  O44  1  0.83103053  0.37571876  0.15758322  1
  O  O45  1  0.59058146  0.59225309  0.37446172  1
  O  O46  1  0.59058146  0.37446172  0.59225309  1
  O  O47  1  0.64428295  0.14187587  0.85077707  1
  O  O48  1  0.64428295  0.85077707  0.14187587  1
  O  O49  1  0.36580658  0.00015722  0.52380043  1
  O  O50  1  0.36580658  0.52380043  0.00015722  1
  O  O51  1  0.85427549  0.63741245  0.14047268  1
  O  O52  1  0.85427549  0.14047268  0.63741245  1
  O  O53  1  0.60844945  0.38647164  0.90917377  1
  O  O54  1  0.60844945  0.90917377  0.38647164  1
  O  O55  1  0.56111939  0.61104587  0.93219885  1
  O  O56  1  0.56111939  0.93219885  0.61104587  1
  O  O57  1  0.86682004  0.85558935  0.12607323  1
  O  O58  1  0.86682004  0.12607323  0.85558935  1
  O  O59  1  0.95750534  0.36647994  0.58095992  1
  O  O60  1  0.95750534  0.58095992  0.36647994  1
  O  O61  1  0.88668086  0.59987682  0.59987682  1
  O  O62  1  0.64628164  0.86130472  0.86130472  1
  O  O63  1  0.85453151  0.86617384  0.64499639  1
  O  O64  1  0.85453151  0.64499639  0.86617384  1
