# generated using pymatgen
data_Li4Co3O7
_symmetry_space_group_name_H-M   'P 1'
_cell_length_a   5.10216156
_cell_length_b   7.74725985
_cell_length_c   7.74330312
_cell_angle_alpha   64.61873089
_cell_angle_beta   83.68105912
_cell_angle_gamma   109.90938889
_symmetry_Int_Tables_number   1
_chemical_formula_structural   Li4Co3O7
_chemical_formula_sum   'Li8 Co6 O14'
_cell_volume   247.91360926
_cell_formula_units_Z   2
loop_
 _symmetry_equiv_pos_site_id
 _symmetry_equiv_pos_as_xyz
  1  'x, y, z'
loop_
 _atom_site_type_symbol
 _atom_site_label
 _atom_site_symmetry_multiplicity
 _atom_site_fract_x
 _atom_site_fract_y
 _atom_site_fract_z
 _atom_site_occupancy
  Li  Li0  1  0.56040441  0.07003279  0.78352757  1
  Li  Li1  1  -0.00134872  0.49391935  0.50213266  1
  Li  Li2  1  0.42925084  0.92888286  0.21118172  1
  Li  Li3  1  0.85646316  0.35683114  0.93167528  1
  Li  Li4  1  0.28706272  0.79179465  0.64072434  1
  Li  Li5  1  0.72531059  0.21568221  0.35932943  1
  Li  Li6  1  0.14285700  0.64285700  0.07142900  1
  Li  Li7  1  0.14285700  0.14285700  0.57142900  1
  Co  Co8  1  -0.00419084  0.00244584  0.99542339  1
  Co  Co9  1  0.28990484  0.28326816  0.14743361  1
  Co  Co10  1  0.43420139  0.42754784  0.71222809  1
  Co  Co11  1  0.85151261  0.85816616  0.43062891  1
  Co  Co12  1  0.72819094  0.72534707  0.85287454  1
  Co  Co13  1  0.55752406  0.56036793  0.28998246  1
  O  O14  1  0.11851146  0.88020940  0.82940010  1
  O  O15  1  0.56633517  0.33781288  0.54619578  1
  O  O16  1  0.97298368  0.76441007  0.25399957  1
  O  O17  1  0.42285441  0.19505388  0.94966209  1
  O  O18  1  0.83114519  0.61478399  0.66692044  1
  O  O19  1  0.24488352  0.02806150  0.38255667  1
  O  O20  1  0.70238200  0.46193364  0.11355705  1
  O  O21  1  0.04083048  0.25765250  0.76030033  1
  O  O22  1  0.45456881  0.67093001  0.47593656  1
  O  O23  1  0.86285959  0.09066012  0.19319491  1
  O  O24  1  0.31273132  0.52130493  0.88885743  1
  O  O25  1  0.71937883  0.94790112  0.59666222  1
  O  O26  1  0.16720354  0.40550560  0.31345690  1
  O  O27  1  0.58333200  0.82378036  0.02929995  1
