# generated using pymatgen
data_Li5Mn(CoO4)2
_symmetry_space_group_name_H-M   'P 1'
_cell_length_a   5.11978943
_cell_length_b   5.90683828
_cell_length_c   4.95334069
_cell_angle_alpha   89.53348334
_cell_angle_beta   100.28127882
_cell_angle_gamma   107.33775889
_symmetry_Int_Tables_number   1
_chemical_formula_structural   Li5Mn(CoO4)2
_chemical_formula_sum   'Li5 Mn1 Co2 O8'
_cell_volume   140.53379833
_cell_formula_units_Z   1
loop_
 _symmetry_equiv_pos_site_id
 _symmetry_equiv_pos_as_xyz
  1  'x, y, z'
loop_
 _atom_site_type_symbol
 _atom_site_label
 _atom_site_symmetry_multiplicity
 _atom_site_fract_x
 _atom_site_fract_y
 _atom_site_fract_z
 _atom_site_occupancy
  Li  Li0  1  0.50290194  0.38125273  0.24454351  1
  Li  Li1  1  0.49709806  0.61874727  0.75545649  1
  Li  Li2  1  0.49796798  0.87052649  0.24715200  1
  Li  Li3  1  0.50203202  0.12947351  0.75284800  1
  Li  Li4  1  -0.00000000  0.50000000  0.00000000  1
  Mn  Mn5  1  -0.00000000  0.00000000  0.00000000  1
  Co  Co6  1  0.00049831  0.25990417  0.49908490  1
  Co  Co7  1  -0.00049831  0.74009583  0.50091510  1
  O  O8  1  0.23532287  0.55727039  0.39534277  1
  O  O9  1  0.21819716  0.82412194  0.86096565  1
  O  O10  1  0.22678170  0.05226036  0.35576645  1
  O  O11  1  0.22506434  0.28805628  0.86416988  1
  O  O12  1  0.78180284  0.17587806  0.13903435  1
  O  O13  1  0.76467713  0.44272961  0.60465723  1
  O  O14  1  0.77493566  0.71194372  0.13583012  1
  O  O15  1  0.77321830  0.94773964  0.64423355  1
