# generated using pymatgen
data_Li2MnCoO4
_symmetry_space_group_name_H-M   'P 1'
_cell_length_a   3.05984946
_cell_length_b   5.09467427
_cell_length_c   5.03364493
_cell_angle_alpha   73.44048175
_cell_angle_beta   87.62312443
_cell_angle_gamma   91.20522298
_symmetry_Int_Tables_number   1
_chemical_formula_structural   Li2MnCoO4
_chemical_formula_sum   'Li2 Mn1 Co1 O4'
_cell_volume   75.10565487
_cell_formula_units_Z   1
loop_
 _symmetry_equiv_pos_site_id
 _symmetry_equiv_pos_as_xyz
  1  'x, y, z'
loop_
 _atom_site_type_symbol
 _atom_site_label
 _atom_site_symmetry_multiplicity
 _atom_site_fract_x
 _atom_site_fract_y
 _atom_site_fract_z
 _atom_site_occupancy
  Li  Li0  1  -0.00000000  0.50000000  0.50000000  1
  Li  Li1  1  0.50000000  0.50000000  0.00000000  1
  Mn  Mn2  1  0.50000000  -0.00000000  0.50000000  1
  Co  Co3  1  -0.00000000  -0.00000000  0.00000000  1
  O  O4  1  0.51277994  0.22668025  0.75230212  1
  O  O5  1  0.96296983  0.23166727  0.24421197  1
  O  O6  1  0.48722006  0.77331975  0.24769788  1
  O  O7  1  0.03703017  0.76833273  0.75578803  1
