# generated using pymatgen
data_Li2MnCoO4
_symmetry_space_group_name_H-M   'P 1'
_cell_length_a   3.06324864
_cell_length_b   5.03709997
_cell_length_c   5.15804094
_cell_angle_alpha   78.69818921
_cell_angle_beta   75.63024150
_cell_angle_gamma   92.50209789
_symmetry_Int_Tables_number   1
_chemical_formula_structural   Li2MnCoO4
_chemical_formula_sum   'Li2 Mn1 Co1 O4'
_cell_volume   75.24530543
_cell_formula_units_Z   1
loop_
 _symmetry_equiv_pos_site_id
 _symmetry_equiv_pos_as_xyz
  1  'x, y, z'
loop_
 _atom_site_type_symbol
 _atom_site_label
 _atom_site_symmetry_multiplicity
 _atom_site_fract_x
 _atom_site_fract_y
 _atom_site_fract_z
 _atom_site_occupancy
  Li  Li0  1  0.74197885  0.24817870  0.50440239  1
  Li  Li1  1  0.25802115  0.75182130  0.49559761  1
  Mn  Mn2  1  0.50000000  0.50000000  0.00000000  1
  Co  Co3  1  0.00000000  0.00000000  0.00000000  1
  O  O4  1  0.40090387  0.13453704  0.22579782  1
  O  O5  1  0.84868437  0.63996285  0.23178079  1
  O  O6  1  0.15131563  0.36003715  0.76821921  1
  O  O7  1  0.59909613  0.86546296  0.77420218  1
