# generated using pymatgen
data_Li7Co5O12
_symmetry_space_group_name_H-M   'P 1'
_cell_length_a   5.10824452
_cell_length_b   8.72957533
_cell_length_c   5.02959284
_cell_angle_alpha   90.00000000
_cell_angle_beta   70.28395583
_cell_angle_gamma   90.00000000
_symmetry_Int_Tables_number   1
_chemical_formula_structural   Li7Co5O12
_chemical_formula_sum   'Li7 Co5 O12'
_cell_volume   211.13527486
_cell_formula_units_Z   1
loop_
 _symmetry_equiv_pos_site_id
 _symmetry_equiv_pos_as_xyz
  1  'x, y, z'
loop_
 _atom_site_type_symbol
 _atom_site_label
 _atom_site_symmetry_multiplicity
 _atom_site_fract_x
 _atom_site_fract_y
 _atom_site_fract_z
 _atom_site_occupancy
  Li  Li0  1  0.50000000  0.16558723  0.00000000  1
  Li  Li1  1  0.50000000  0.33333300  0.50000000  1
  Li  Li2  1  0.50000000  0.50107977  0.00000000  1
  Li  Li3  1  0.50000000  0.67630316  0.50000000  1
  Li  Li4  1  0.50000000  0.83333300  0.00000000  1
  Li  Li5  1  0.50000000  0.99036384  0.50000000  1
  Li  Li6  1  -0.00000000  0.83333300  0.50000000  1
  Co  Co7  1  -0.00000000  0.99530374  0.00000000  1
  Co  Co8  1  -0.00000000  0.67136326  0.00000000  1
  Co  Co9  1  -0.00000000  0.16772178  0.50000000  1
  Co  Co10  1  -0.00000000  0.33333300  0.00000000  1
  Co  Co11  1  -0.00000000  0.49894522  0.50000000  1
  O  O12  1  0.21758994  0.17391693  0.74960837  1
  O  O13  1  0.22033860  0.33333300  0.27725858  1
  O  O14  1  0.21758994  0.49275007  0.74960837  1
  O  O15  1  0.22058377  0.64638294  0.25852250  1
  O  O16  1  0.24580727  0.83333300  0.77368247  1
  O  O17  1  0.22058377  0.02028406  0.25852250  1
  O  O18  1  0.78241006  0.17391693  0.25039163  1
  O  O19  1  0.77966140  0.33333300  0.72274142  1
  O  O20  1  0.78241006  0.49275007  0.25039163  1
  O  O21  1  0.77941623  0.64638294  0.74147750  1
  O  O22  1  0.75419273  0.83333300  0.22631753  1
  O  O23  1  0.77941623  0.02028406  0.74147750  1
