# generated using pymatgen
data_Li2MnO3
_symmetry_space_group_name_H-M   'P 1'
_cell_length_a   2.89523927
_cell_length_b   5.06995646
_cell_length_c   7.67645482
_cell_angle_alpha   108.08014853
_cell_angle_beta   79.13012029
_cell_angle_gamma   89.99999534
_symmetry_Int_Tables_number   1
_chemical_formula_structural   Li2MnO3
_chemical_formula_sum   'Li4 Mn2 O6'
_cell_volume   104.98805997
_cell_formula_units_Z   2
loop_
 _symmetry_equiv_pos_site_id
 _symmetry_equiv_pos_as_xyz
  1  'x, y, z'
loop_
 _atom_site_type_symbol
 _atom_site_label
 _atom_site_symmetry_multiplicity
 _atom_site_fract_x
 _atom_site_fract_y
 _atom_site_fract_z
 _atom_site_occupancy
  Li  Li0  1  0.82816905  0.51328463  0.34366089  1
  Li  Li1  1  0.16666700  0.50000000  0.66666700  1
  Li  Li2  1  0.50516395  0.48671537  0.98967211  1
  Li  Li3  1  0.66666700  0.00000000  0.66666700  1
  Mn  Mn4  1  0.00462136  0.00598732  0.99075728  1
  Mn  Mn5  1  0.32871164  0.99401268  0.34257572  1
  O  O6  1  0.76017268  0.22367532  0.47965564  1
  O  O7  1  0.07517351  0.23850838  0.84965298  1
  O  O8  1  0.42259517  0.21342931  0.15480865  1
  O  O9  1  0.91073783  0.78657069  0.17852435  1
  O  O10  1  0.25815949  0.76149162  0.48368002  1
  O  O11  1  0.57316132  0.77632468  0.85367836  1
