# generated using pymatgen
data_Li2MnO3
_symmetry_space_group_name_H-M   'P 1'
_cell_length_a   2.89539993
_cell_length_b   7.67311565
_cell_length_c   5.06852694
_cell_angle_alpha   107.92390484
_cell_angle_beta   90.24657904
_cell_angle_gamma   79.38453709
_symmetry_Int_Tables_number   1
_chemical_formula_structural   Li2MnO3
_chemical_formula_sum   'Li4 Mn2 O6'
_cell_volume   105.14190097
_cell_formula_units_Z   2
loop_
 _symmetry_equiv_pos_site_id
 _symmetry_equiv_pos_as_xyz
  1  'x, y, z'
loop_
 _atom_site_type_symbol
 _atom_site_label
 _atom_site_symmetry_multiplicity
 _atom_site_fract_x
 _atom_site_fract_y
 _atom_site_fract_z
 _atom_site_occupancy
  Li  Li0  1  0.82951593  0.34318998  0.51247696  1
  Li  Li1  1  0.16666700  0.66666700  0.50000000  1
  Li  Li2  1  0.50381707  0.99014302  0.48752304  1
  Li  Li3  1  0.66666700  0.66666700  0.00000000  1
  Mn  Mn4  1  0.00076273  0.99116583  0.00663188  1
  Mn  Mn5  1  0.33257027  0.34216717  0.99336812  1
  O  O6  1  0.42341839  0.15475468  0.21367480  1
  O  O7  1  0.76646090  0.47918734  0.22241966  1
  O  O8  1  0.07162672  0.84967116  0.23935694  1
  O  O9  1  0.26170628  0.48366184  0.76064306  1
  O  O10  1  0.56687310  0.85414666  0.77758034  1
  O  O11  1  0.90991461  0.17857832  0.78632520  1
