# generated using pymatgen
data_Li4MnCo2O7
_symmetry_space_group_name_H-M   'P 1'
_cell_length_a   4.97664775
_cell_length_b   7.78464620
_cell_length_c   6.61520139
_cell_angle_alpha   94.51863766
_cell_angle_beta   82.31458181
_cell_angle_gamma   101.82563561
_symmetry_Int_Tables_number   1
_chemical_formula_structural   Li4MnCo2O7
_chemical_formula_sum   'Li8 Mn2 Co4 O14'
_cell_volume   248.24084380
_cell_formula_units_Z   2
loop_
 _symmetry_equiv_pos_site_id
 _symmetry_equiv_pos_as_xyz
  1  'x, y, z'
loop_
 _atom_site_type_symbol
 _atom_site_label
 _atom_site_symmetry_multiplicity
 _atom_site_fract_x
 _atom_site_fract_y
 _atom_site_fract_z
 _atom_site_occupancy
  Li  Li0  1  0.79271204  0.07756720  0.43463616  1
  Li  Li1  1  0.92894850  0.36245767  0.14300193  1
  Li  Li2  1  0.64741134  0.77871798  0.71458115  1
  Li  Li3  1  0.49346677  0.50012948  0.99384283  1
  Li  Li4  1  0.34698580  0.22024964  0.29429069  1
  Li  Li5  1  0.21909874  0.93209700  0.56658041  1
  Li  Li6  1  0.07655309  0.62929972  0.85151906  1
  Li  Li7  1  0.14546901  0.28809859  0.71276724  1
  Mn  Mn8  1  0.00031198  0.00074909  0.99894153  1
  Mn  Mn9  1  0.57261630  0.14597803  0.85563068  1
  Co  Co10  1  0.28275877  0.56800184  0.43245628  1
  Co  Co11  1  0.43011355  0.85958426  0.13949919  1
  Co  Co12  1  0.71090763  0.42192528  0.57797758  1
  Co  Co13  1  0.85434957  0.71251264  0.28630842  1
  O  O14  1  0.67840569  0.09178620  0.12333357  1
  O  O15  1  0.79625339  0.37350532  0.86031342  1
  O  O16  1  0.54086835  0.81948721  0.39836008  1
  O  O17  1  0.41103350  0.53414597  0.70055868  1
  O  O18  1  0.24967670  0.22571356  0.99624825  1
  O  O19  1  0.11380009  0.95894297  0.26208779  1
  O  O20  1  0.97699443  0.67513239  0.55957668  1
  O  O21  1  0.87983111  0.03456958  0.74273532  1
  O  O22  1  0.02105744  0.33266155  0.43226098  1
  O  O23  1  0.75137082  0.76995602  0.00920174  1
  O  O24  1  0.59731364  0.47482736  0.29361325  1
  O  O25  1  0.47722760  0.17332371  0.59507683  1
  O  O26  1  0.32107882  0.90748584  0.87705143  1
  O  O27  1  0.18338533  0.63109388  0.14754880  1
