# generated using pymatgen
data_Li7Mn4CoO12
_symmetry_space_group_name_H-M   'P 1'
_cell_length_a   2.95568036
_cell_length_b   8.17961048
_cell_length_c   9.84406371
_cell_angle_alpha   65.56964539
_cell_angle_beta   93.56968950
_cell_angle_gamma   90.96118668
_symmetry_Int_Tables_number   1
_chemical_formula_structural   Li7Mn4CoO12
_chemical_formula_sum   'Li7 Mn4 Co1 O12'
_cell_volume   216.25341872
_cell_formula_units_Z   1
loop_
 _symmetry_equiv_pos_site_id
 _symmetry_equiv_pos_as_xyz
  1  'x, y, z'
loop_
 _atom_site_type_symbol
 _atom_site_label
 _atom_site_symmetry_multiplicity
 _atom_site_fract_x
 _atom_site_fract_y
 _atom_site_fract_z
 _atom_site_occupancy
  Li  Li0  1  -0.00000000  0.83333300  0.33333300  1
  Li  Li1  1  0.50000000  0.33333300  0.83333300  1
  Li  Li2  1  0.48912602  0.99874368  0.50969326  1
  Li  Li3  1  0.99237932  0.51898275  0.99915969  1
  Li  Li4  1  0.00762068  0.14768425  0.66750731  1
  Li  Li5  1  0.51087398  0.66792332  0.15697374  1
  Li  Li6  1  0.50000000  0.83333300  0.83333300  1
  Mn  Mn7  1  0.00894934  0.99216946  0.99566985  1
  Mn  Mn8  1  0.99105066  0.67449754  0.67099715  1
  Mn  Mn9  1  0.49230846  0.49491933  0.50205517  1
  Mn  Mn10  1  0.50769154  0.17174767  0.16461183  1
  Co  Co11  1  -0.00000000  0.33333300  0.33333300  1
  O  O12  1  0.52774757  0.93292378  0.14936558  1
  O  O13  1  0.96098256  0.42997195  0.66157443  1
  O  O14  1  0.97155035  0.09789880  0.32487379  1
  O  O15  1  0.51504584  0.59446766  0.81165933  1
  O  O16  1  0.46696015  0.25827264  0.49205796  1
  O  O17  1  0.99527381  0.76618668  0.00331013  1
  O  O18  1  0.47225243  0.73374222  0.51730042  1
  O  O19  1  0.03901744  0.23669405  0.00509157  1
  O  O20  1  0.00472619  0.90048032  0.66335687  1
  O  O21  1  0.53303985  0.40839436  0.17460904  1
  O  O22  1  0.48495416  0.07219934  0.85500767  1
  O  O23  1  0.02844965  0.56876820  0.34179321  1
