# generated using pymatgen
data_Li7Mn2(CoO4)3
_symmetry_space_group_name_H-M   'P 1'
_cell_length_a   5.02895959
_cell_length_b   7.75735097
_cell_length_c   5.86285859
_cell_angle_alpha   78.54876187
_cell_angle_beta   73.09768392
_cell_angle_gamma   77.57560887
_symmetry_Int_Tables_number   1
_chemical_formula_structural   Li7Mn2(CoO4)3
_chemical_formula_sum   'Li7 Mn2 Co3 O12'
_cell_volume   211.43794921
_cell_formula_units_Z   1
loop_
 _symmetry_equiv_pos_site_id
 _symmetry_equiv_pos_as_xyz
  1  'x, y, z'
loop_
 _atom_site_type_symbol
 _atom_site_label
 _atom_site_symmetry_multiplicity
 _atom_site_fract_x
 _atom_site_fract_y
 _atom_site_fract_z
 _atom_site_occupancy
  Li  Li0  1  0.99704380  0.99841711  0.50243323  1
  Li  Li1  1  0.99255474  0.34135171  0.16973720  1
  Li  Li2  1  0.50985611  0.82588841  0.66112642  1
  Li  Li3  1  0.50323941  0.17205865  0.33636160  1
  Li  Li4  1  0.00576904  0.66343583  0.82570641  1
  Li  Li5  1  0.49123082  0.50088017  0.00306981  1
  Li  Li6  1  0.00164259  0.66402975  0.33436438  1
  Mn  Mn7  1  0.00034441  0.99623742  0.00316311  1
  Mn  Mn8  1  0.49949685  0.82771151  0.17264354  1
  Co  Co9  1  0.00123672  0.33826563  0.66141004  1
  Co  Co10  1  0.49870904  0.17156249  0.83112609  1
  Co  Co11  1  0.49983186  0.50338410  0.49757943  1
  O  O12  1  0.74551545  0.91823710  0.30778266  1
  O  O13  1  0.77868427  0.23429008  0.99199154  1
  O  O14  1  0.28166635  0.74052454  0.48254186  1
  O  O15  1  0.24596491  0.06210362  0.16286745  1
  O  O16  1  0.73556042  0.56897478  0.65365951  1
  O  O17  1  0.25882233  0.42633602  0.80647703  1
  O  O18  1  0.22354661  0.08285022  0.68781720  1
  O  O19  1  0.26269362  0.41961597  0.35566664  1
  O  O20  1  0.75821072  0.91019552  0.85919153  1
  O  O21  1  0.73856106  0.27287764  0.49965972  1
  O  O22  1  0.25411806  0.76930494  0.00848530  1
  O  O23  1  0.71570081  0.59146681  0.18513831  1
