# generated using pymatgen
data_Li4MnCo2O7
_symmetry_space_group_name_H-M   'P 1'
_cell_length_a   5.14695232
_cell_length_b   10.29114933
_cell_length_c   5.09913357
_cell_angle_alpha   104.34403548
_cell_angle_beta   68.99439128
_cell_angle_gamma   95.09492319
_symmetry_Int_Tables_number   1
_chemical_formula_structural   Li4MnCo2O7
_chemical_formula_sum   'Li8 Mn2 Co4 O14'
_cell_volume   244.28198503
_cell_formula_units_Z   2
loop_
 _symmetry_equiv_pos_site_id
 _symmetry_equiv_pos_as_xyz
  1  'x, y, z'
loop_
 _atom_site_type_symbol
 _atom_site_label
 _atom_site_symmetry_multiplicity
 _atom_site_fract_x
 _atom_site_fract_y
 _atom_site_fract_z
 _atom_site_occupancy
  Li  Li0  1  0.50000000  0.14006928  0.07003514  1
  Li  Li1  1  0.50000000  0.28398290  0.64199145  1
  Li  Li2  1  0.50000000  0.42497427  0.21248764  1
  Li  Li3  1  0.50000000  0.57368532  0.78684216  1
  Li  Li4  1  0.50000000  0.72418978  0.36209489  1
  Li  Li5  1  0.50000000  0.85551074  0.92775487  1
  Li  Li6  1  0.50000000  0.99511294  0.49755647  1
  Li  Li7  1  1.00000000  0.85806593  0.42903246  1
  Mn  Mn8  1  1.00000000  0.99829192  0.99914596  1
  Mn  Mn9  1  0.00000000  0.57455851  0.28727876  1
  Co  Co10  1  1.00000000  0.14269884  0.57134992  1
  Co  Co11  1  1.00000000  0.28498092  0.14249046  1
  Co  Co12  1  0.00000000  0.42717969  0.71359035  1
  Co  Co13  1  0.00000000  0.71544054  0.85772027  1
  O  O14  1  0.23131353  0.14369830  0.84552545  1
  O  O15  1  0.22429602  0.28779403  0.41853341  1
  O  O16  1  0.23017100  0.42763711  0.98892348  1
  O  O17  1  0.21376290  0.57102198  0.53895637  1
  O  O18  1  0.22173504  0.70400070  0.09891613  1
  O  O19  1  0.23158387  0.85808922  0.70887914  1
  O  O20  1  0.21541451  0.00838786  0.25214162  1
  O  O21  1  0.76868647  0.14369830  0.29817385  1
  O  O22  1  0.77570398  0.28779403  0.86926062  1
  O  O23  1  0.76982900  0.42763711  0.43871463  1
  O  O24  1  0.78623710  0.57102198  0.03206461  1
  O  O25  1  0.77826496  0.70400070  0.60508458  1
  O  O26  1  0.76841613  0.85808922  0.14920908  1
  O  O27  1  0.78458549  0.00838786  0.75624624  1
