# generated using pymatgen
data_Li5Mn3O8
_symmetry_space_group_name_H-M   'P 1'
_cell_length_a   2.94626747
_cell_length_b   6.45532849
_cell_length_c   7.88263765
_cell_angle_alpha   93.68979114
_cell_angle_beta   79.22903526
_cell_angle_gamma   103.19138066
_symmetry_Int_Tables_number   1
_chemical_formula_structural   Li5Mn3O8
_chemical_formula_sum   'Li5 Mn3 O8'
_cell_volume   143.35640873
_cell_formula_units_Z   1
loop_
 _symmetry_equiv_pos_site_id
 _symmetry_equiv_pos_as_xyz
  1  'x, y, z'
loop_
 _atom_site_type_symbol
 _atom_site_label
 _atom_site_symmetry_multiplicity
 _atom_site_fract_x
 _atom_site_fract_y
 _atom_site_fract_z
 _atom_site_occupancy
  Li  Li0  1  0.13208720  0.87070904  0.60653464  1
  Li  Li1  1  0.36791280  0.62929096  0.89346536  1
  Li  Li2  1  0.63528832  0.39199980  0.12142317  1
  Li  Li3  1  0.86471168  0.10800020  0.37857683  1
  Li  Li4  1  0.25000000  0.75000000  0.25000000  1
  Mn  Mn5  1  0.99291157  0.99524678  0.00942365  1
  Mn  Mn6  1  0.50708843  0.50475322  0.49057635  1
  Mn  Mn7  1  0.75000000  0.25000000  0.75000000  1
  O  O8  1  0.18348879  0.30277772  0.93580013  1
  O  O9  1  0.44681376  0.05774689  0.16411937  1
  O  O10  1  0.67060699  0.78940639  0.44819241  1
  O  O11  1  0.93724189  0.54104225  0.66655846  1
  O  O12  1  0.05318624  0.44225311  0.33588063  1
  O  O13  1  0.31651121  0.19722228  0.56419987  1
  O  O14  1  0.56275811  0.95895775  0.83344154  1
  O  O15  1  0.82939301  0.71059361  0.05180759  1
