# generated using pymatgen
data_Li7Mn4CoO12
_symmetry_space_group_name_H-M   'P 1'
_cell_length_a   2.96057679
_cell_length_b   5.99255114
_cell_length_c   12.60017431
_cell_angle_alpha   103.40599130
_cell_angle_beta   88.28377733
_cell_angle_gamma   93.47928708
_symmetry_Int_Tables_number   1
_chemical_formula_structural   Li7Mn4CoO12
_chemical_formula_sum   'Li7 Mn4 Co1 O12'
_cell_volume   217.02376379
_cell_formula_units_Z   1
loop_
 _symmetry_equiv_pos_site_id
 _symmetry_equiv_pos_as_xyz
  1  'x, y, z'
loop_
 _atom_site_type_symbol
 _atom_site_label
 _atom_site_symmetry_multiplicity
 _atom_site_fract_x
 _atom_site_fract_y
 _atom_site_fract_z
 _atom_site_occupancy
  Li  Li0  1  0.99776908  0.48841726  0.98893643  1
  Li  Li1  1  0.50076100  0.32987917  0.16548575  1
  Li  Li2  1  0.50067756  0.66652211  0.83362440  1
  Li  Li3  1  0.00282536  0.84226335  0.67536238  1
  Li  Li4  1  0.49823175  0.00322591  0.50036541  1
  Li  Li5  1  0.00004927  0.16904586  0.33544492  1
  Li  Li6  1  0.49990442  0.16732342  0.83227119  1
  Mn  Mn7  1  0.99601064  0.00415588  0.99143152  1
  Mn  Mn8  1  0.00337393  0.33061080  0.67284170  1
  Mn  Mn9  1  0.49512560  0.83711165  0.16674621  1
  Mn  Mn10  1  0.00021822  0.66396420  0.33572344  1
  Co  Co11  1  0.50936664  0.49533586  0.50124379  1
  O  O12  1  0.51763196  0.21967695  0.99925146  1
  O  O13  1  0.96354385  0.07144348  0.15830406  1
  O  O14  1  0.99624584  0.41476077  0.82069043  1
  O  O15  1  0.52189376  0.55147318  0.65963457  1
  O  O16  1  0.96914759  0.73325248  0.49767804  1
  O  O17  1  0.46454494  0.90655936  0.32896420  1
  O  O18  1  0.47874818  0.78102211  0.00425649  1
  O  O19  1  0.03288560  0.59436366  0.17163748  1
  O  O20  1  0.00419689  0.91999309  0.84430093  1
  O  O21  1  0.48144116  0.11482123  0.66542962  1
  O  O22  1  0.03374102  0.26895725  0.50808969  1
  O  O23  1  0.53166572  0.42582097  0.34228588  1
