# generated using pymatgen
data_Li7Mn4CoO12
_symmetry_space_group_name_H-M   'P 1'
_cell_length_a   2.89308191
_cell_length_b   14.70236345
_cell_length_c   5.25654193
_cell_angle_alpha   87.05335925
_cell_angle_beta   90.00000000
_cell_angle_gamma   90.00000000
_symmetry_Int_Tables_number   1
_chemical_formula_structural   Li7Mn4CoO12
_chemical_formula_sum   'Li7 Mn4 Co1 O12'
_cell_volume   223.29213787
_cell_formula_units_Z   1
loop_
 _symmetry_equiv_pos_site_id
 _symmetry_equiv_pos_as_xyz
  1  'x, y, z'
loop_
 _atom_site_type_symbol
 _atom_site_label
 _atom_site_symmetry_multiplicity
 _atom_site_fract_x
 _atom_site_fract_y
 _atom_site_fract_z
 _atom_site_occupancy
  Li  Li0  1  0.50000000  0.00915819  0.49276911  1
  Li  Li1  1  0.00000000  0.18024147  0.69329653  1
  Li  Li2  1  0.50000000  0.32451011  0.82947120  1
  Li  Li3  1  0.00000000  0.48889288  0.00192964  1
  Li  Li4  1  -0.00000000  0.83126948  0.33316671  1
  Li  Li5  1  0.50000000  0.66169107  0.15803047  1
  Li  Li6  1  0.00000000  0.33475946  0.32802490  1
  Mn  Mn7  1  -0.00000000  0.00378097  0.01134359  1
  Mn  Mn8  1  0.50000000  0.49290463  0.47452302  1
  Mn  Mn9  1  0.00000000  0.66406876  0.64882512  1
  Mn  Mn10  1  0.50000000  0.83278583  0.84298316  1
  Co  Co11  1  0.50000000  0.18365136  0.20638681  1
  O  O12  1  0.50000000  0.92805229  0.16739401  1
  O  O13  1  0.00000000  0.08076265  0.28763310  1
  O  O14  1  0.50000000  0.24091374  0.49584498  1
  O  O15  1  0.00000000  0.42780037  0.64597029  1
  O  O16  1  0.00000000  0.75704219  0.99262318  1
  O  O17  1  0.50000000  0.58712879  0.78795496  1
  O  O18  1  0.50000000  0.06933966  0.84492030  1
  O  O19  1  -0.00000000  0.24625750  0.01043890  1
  O  O20  1  0.50000000  0.42430968  0.19808377  1
  O  O21  1  0.00000000  0.57322394  0.33092133  1
  O  O22  1  -0.00000000  0.91362318  0.71164037  1
  O  O23  1  0.50000000  0.74383179  0.50582453  1
