# generated using pymatgen
data_Li6Mn3CoO10
_symmetry_space_group_name_H-M   'P 1'
_cell_length_a   2.94420324
_cell_length_b   12.64110733
_cell_length_c   5.07716141
_cell_angle_alpha   101.20967430
_cell_angle_beta   75.77612172
_cell_angle_gamma   91.56911026
_symmetry_Int_Tables_number   1
_chemical_formula_structural   Li6Mn3CoO10
_chemical_formula_sum   'Li6 Mn3 Co1 O10'
_cell_volume   179.63302458
_cell_formula_units_Z   1
loop_
 _symmetry_equiv_pos_site_id
 _symmetry_equiv_pos_as_xyz
  1  'x, y, z'
loop_
 _atom_site_type_symbol
 _atom_site_label
 _atom_site_symmetry_multiplicity
 _atom_site_fract_x
 _atom_site_fract_y
 _atom_site_fract_z
 _atom_site_occupancy
  Li  Li0  1  0.67800126  0.11291755  0.61112966  1
  Li  Li1  1  0.12197314  0.28698181  0.79029225  1
  Li  Li2  1  0.48993476  0.50132773  0.00695128  1
  Li  Li3  1  0.90102837  0.69777464  0.20353440  1
  Li  Li4  1  0.30806977  0.90070988  0.38876914  1
  Li  Li5  1  0.39922245  0.20100628  0.20136914  1
  Mn  Mn6  1  0.99107100  0.00732604  0.00155076  1
  Mn  Mn7  1  0.80710140  0.39484736  0.39898470  1
  Mn  Mn8  1  0.59203795  0.79791849  0.80313947  1
  Co  Co9  1  0.21492196  0.59884206  0.59401909  1
  O  O10  1  0.38473205  0.04387150  0.25854889  1
  O  O11  1  0.74379971  0.26437396  0.50635820  1
  O  O12  1  0.19156479  0.45278436  0.66413961  1
  O  O13  1  0.53416152  0.64950744  0.88034677  1
  O  O14  1  0.91482142  0.85428657  0.08828613  1
  O  O15  1  0.05548597  0.13761943  0.89542311  1
  O  O16  1  0.41349321  0.35819059  0.14147087  1
  O  O17  1  0.87781211  0.54650879  0.31995935  1
  O  O18  1  0.27460451  0.74407356  0.51174084  1
  O  O19  1  0.60616267  0.94913195  0.73398637  1
