# generated using pymatgen
data_Li4MnCo2O7
_symmetry_space_group_name_H-M   'P 1'
_cell_length_a   5.06682366
_cell_length_b   5.08555248
_cell_length_c   10.35260132
_cell_angle_alpha   107.65394992
_cell_angle_beta   76.57400451
_cell_angle_gamma   98.84713405
_symmetry_Int_Tables_number   1
_chemical_formula_structural   Li4MnCo2O7
_chemical_formula_sum   'Li8 Mn2 Co4 O14'
_cell_volume   246.24900067
_cell_formula_units_Z   2
loop_
 _symmetry_equiv_pos_site_id
 _symmetry_equiv_pos_as_xyz
  1  'x, y, z'
loop_
 _atom_site_type_symbol
 _atom_site_label
 _atom_site_symmetry_multiplicity
 _atom_site_fract_x
 _atom_site_fract_y
 _atom_site_fract_z
 _atom_site_occupancy
  Li  Li0  1  0.70836529  0.51850075  0.08252882  1
  Li  Li1  1  0.58542672  0.48442328  0.34978332  1
  Li  Li2  1  0.13857843  0.50486003  0.21866281  1
  Li  Li3  1  0.00265213  0.49292280  0.49556415  1
  Li  Li4  1  0.43469619  0.49539675  0.64113846  1
  Li  Li5  1  0.85733274  0.50112093  0.78256913  1
  Li  Li6  1  0.28179841  0.50448102  0.93189076  1
  Li  Li7  1  0.86065490  0.99644004  0.28448262  1
  Mn  Mn8  1  0.99414723  0.00501174  0.00638569  1
  Mn  Mn9  1  0.28925204  0.99272497  0.42241106  1
  Co  Co10  1  0.72018000  0.99303640  0.56372147  1
  Co  Co11  1  0.56755291  0.00842963  0.85378869  1
  Co  Co12  1  0.42519203  0.00227246  0.14469916  1
  Co  Co13  1  0.14144047  0.99833000  0.71296754  1
  O  O14  1  0.93750818  0.22090272  0.88502579  1
  O  O15  1  0.77463965  0.22660900  0.16442843  1
  O  O16  1  0.33363135  0.22544324  0.03931466  1
  O  O17  1  0.23657277  0.22112764  0.31882111  1
  O  O18  1  0.62637912  0.21994500  0.46882930  1
  O  O19  1  0.08450690  0.22065547  0.59956252  1
  O  O20  1  0.50523962  0.24195025  0.75647491  1
  O  O21  1  0.48221933  0.77367889  0.25409339  1
  O  O22  1  0.35039852  0.77618254  0.54246828  1
  O  O23  1  0.95112075  0.76245011  0.39852288  1
  O  O24  1  0.77781235  0.76567192  0.67986994  1
  O  O25  1  0.20006009  0.78007779  0.82834477  1
  O  O26  1  0.64712686  0.78758647  0.97213605  1
  O  O27  1  0.08551504  0.77976816  0.10151430  1
