# generated using pymatgen
data_Li4MnCo2O7
_symmetry_space_group_name_H-M   'P 1'
_cell_length_a   5.10114617
_cell_length_b   5.87677411
_cell_length_c   8.60841359
_cell_angle_alpha   88.25639191
_cell_angle_beta   94.62170954
_cell_angle_gamma   71.52267655
_symmetry_Int_Tables_number   1
_chemical_formula_structural   Li4MnCo2O7
_chemical_formula_sum   'Li8 Mn2 Co4 O14'
_cell_volume   243.53825290
_cell_formula_units_Z   2
loop_
 _symmetry_equiv_pos_site_id
 _symmetry_equiv_pos_as_xyz
  1  'x, y, z'
loop_
 _atom_site_type_symbol
 _atom_site_label
 _atom_site_symmetry_multiplicity
 _atom_site_fract_x
 _atom_site_fract_y
 _atom_site_fract_z
 _atom_site_occupancy
  Li  Li0  1  0.14571263  0.21277197  0.28838039  1
  Li  Li1  1  0.28165555  0.92850558  0.56712865  1
  Li  Li2  1  0.71854214  0.06695126  0.42363375  1
  Li  Li3  1  0.85757514  0.78504068  0.71093921  1
  Li  Li4  1  0.42859222  0.63963911  0.85642064  1
  Li  Li5  1  0.99962899  0.50195514  0.00494682  1
  Li  Li6  1  0.56795807  0.36599107  0.14771886  1
  Li  Li7  1  0.14307113  0.71378321  0.28665590  1
  Mn  Mn8  1  0.00158460  0.99671714  0.00359019  1
  Mn  Mn9  1  0.71293156  0.57340591  0.42641550  1
  Co  Co10  1  0.28516527  0.42900260  0.57073255  1
  Co  Co11  1  0.42734013  0.14478623  0.85559343  1
  Co  Co12  1  0.57240994  0.85573547  0.14425549  1
  Co  Co13  1  0.85700908  0.28578387  0.71331493  1
  O  O14  1  0.84277541  0.02525526  0.19632129  1
  O  O15  1  0.99610206  0.71896308  0.49890233  1
  O  O16  1  0.45437172  0.87844678  0.35227415  1
  O  O17  1  0.59212415  0.59471390  0.63920000  1
  O  O18  1  0.16356513  0.44540867  0.78025036  1
  O  O19  1  0.73664466  0.30785695  0.92101193  1
  O  O20  1  0.28307812  0.15486197  0.06144812  1
  O  O21  1  0.44022446  0.40768282  0.37433169  1
  O  O22  1  0.55044857  0.12504513  0.65220193  1
  O  O23  1  0.98034437  0.26013514  0.50512208  1
  O  O24  1  0.12131147  0.97978196  0.79067123  1
  O  O25  1  0.71718447  0.84726079  0.93832054  1
  O  O26  1  0.28990155  0.70597799  0.06926407  1
  O  O27  1  0.83274742  0.54854031  0.22095397  1
