# generated using pymatgen
data_LiNbCo3(PO4)6
_symmetry_space_group_name_H-M   'P 1'
_cell_length_a   8.85840360
_cell_length_b   8.85840367
_cell_length_c   8.85840386
_cell_angle_alpha   59.02681607
_cell_angle_beta   59.02681440
_cell_angle_gamma   59.02681368
_symmetry_Int_Tables_number   1
_chemical_formula_structural   LiNbCo3(PO4)6
_chemical_formula_sum   'Li1 Nb1 Co3 P6 O24'
_cell_volume   480.62185332
_cell_formula_units_Z   1
loop_
 _symmetry_equiv_pos_site_id
 _symmetry_equiv_pos_as_xyz
  1  'x, y, z'
loop_
 _atom_site_type_symbol
 _atom_site_label
 _atom_site_symmetry_multiplicity
 _atom_site_fract_x
 _atom_site_fract_y
 _atom_site_fract_z
 _atom_site_occupancy
  Li  Li0  1  0.02099268  0.02099268  0.02099268  1
  Nb  Nb1  1  0.85688506  0.85688506  0.85688506  1
  Co  Co2  1  0.14723763  0.14723763  0.14723763  1
  Co  Co3  1  0.35789230  0.35789230  0.35789230  1
  Co  Co4  1  0.64163156  0.64163156  0.64163156  1
  P  P5  1  0.03482212  0.75217970  0.45445609  1
  P  P6  1  0.45445609  0.03482212  0.75217970  1
  P  P7  1  0.75217970  0.45445609  0.03482212  1
  P  P8  1  0.25286201  0.53240633  0.96691431  1
  P  P9  1  0.53240633  0.96691431  0.25286201  1
  P  P10  1  0.96691431  0.25286201  0.53240633  1
  O  O11  1  0.13686781  0.27786062  0.51050011  1
  O  O12  1  0.27786062  0.51050011  0.13686781  1
  O  O13  1  0.06394453  0.91774400  0.27010600  1
  O  O14  1  0.51050011  0.13686781  0.27786062  1
  O  O15  1  0.20990039  0.57599785  0.44617522  1
  O  O16  1  0.99568247  0.79892499  0.62195080  1
  O  O17  1  0.27010600  0.06394453  0.91774400  1
  O  O18  1  0.44617522  0.20990039  0.57599785  1
  O  O19  1  0.57599785  0.44617522  0.20990039  1
  O  O20  1  0.20901466  0.37281839  0.99276218  1
  O  O21  1  0.08392049  0.71895718  0.93373225  1
  O  O22  1  0.37281839  0.99276218  0.20901466  1
  O  O23  1  0.62195080  0.99568247  0.79892499  1
  O  O24  1  0.91774400  0.27010600  0.06394453  1
  O  O25  1  0.79892499  0.62195080  0.99568247  1
  O  O26  1  0.42775400  0.55301791  0.79310156  1
  O  O27  1  0.55301791  0.79310156  0.42775400  1
  O  O28  1  0.71895718  0.93373225  0.08392049  1
  O  O29  1  0.99276218  0.20901466  0.37281839  1
  O  O30  1  0.79310156  0.42775400  0.55301791  1
  O  O31  1  0.48709388  0.86490752  0.71898442  1
  O  O32  1  0.93373225  0.08392049  0.71895718  1
  O  O33  1  0.71898442  0.48709388  0.86490752  1
  O  O34  1  0.86490752  0.71898442  0.48709388  1
