# generated using pymatgen
data_Li7Mn4CoO12
_symmetry_space_group_name_H-M   'P 1'
_cell_length_a   2.88095969
_cell_length_b   5.10940416
_cell_length_c   15.86105563
_cell_angle_alpha   97.36893779
_cell_angle_beta   89.99999958
_cell_angle_gamma   106.37526456
_symmetry_Int_Tables_number   1
_chemical_formula_structural   Li7Mn4CoO12
_chemical_formula_sum   'Li7 Mn4 Co1 O12'
_cell_volume   221.99327246
_cell_formula_units_Z   1
loop_
 _symmetry_equiv_pos_site_id
 _symmetry_equiv_pos_as_xyz
  1  'x, y, z'
loop_
 _atom_site_type_symbol
 _atom_site_label
 _atom_site_symmetry_multiplicity
 _atom_site_fract_x
 _atom_site_fract_y
 _atom_site_fract_z
 _atom_site_occupancy
  Li  Li0  1  0.74559604  0.49119209  0.07724886  1
  Li  Li1  1  0.25258498  0.50516996  0.25251153  1
  Li  Li2  1  0.76293586  0.52587172  0.42935412  1
  Li  Li3  1  0.25406788  0.50813576  0.59570229  1
  Li  Li4  1  0.72917525  0.45835050  0.73949108  1
  Li  Li5  1  0.24204154  0.48408308  0.90303994  1
  Li  Li6  1  0.99968119  0.99936239  0.66579611  1
  Mn  Mn7  1  0.99479666  0.98959333  0.99350240  1
  Mn  Mn8  1  0.51496838  0.02993676  0.51185972  1
  Mn  Mn9  1  0.49489344  0.98978687  0.16503313  1
  Mn  Mn10  1  0.01073006  0.02146012  0.33983877  1
  Co  Co11  1  0.48202517  0.96405034  0.81090557  1
  O  O12  1  0.61251517  0.22503035  0.96743710  1
  O  O13  1  0.10409718  0.20819436  0.12136148  1
  O  O14  1  0.62083110  0.24166219  0.29682332  1
  O  O15  1  0.12413695  0.24827390  0.46732204  1
  O  O16  1  0.61778013  0.23556026  0.61488592  1
  O  O17  1  0.11262812  0.22525624  0.79367465  1
  O  O18  1  0.88133577  0.76267154  0.20368806  1
  O  O19  1  0.40026335  0.80052670  0.38122294  1
  O  O20  1  0.89706313  0.79412626  0.53758298  1
  O  O21  1  0.36969603  0.73939206  0.71343339  1
  O  O22  1  0.89316161  0.78632322  0.88459314  1
  O  O23  1  0.38299500  0.76599001  0.03369146  1
