# generated using pymatgen
data_KMg14Al
_symmetry_space_group_name_H-M   'P 1'
_cell_length_a   6.46356787
_cell_length_b   6.51808475
_cell_length_c   10.56004140
_cell_angle_alpha   90.00000000
_cell_angle_beta   90.00000000
_cell_angle_gamma   120.27941067
_symmetry_Int_Tables_number   1
_chemical_formula_structural   KMg14Al
_chemical_formula_sum   'K1 Mg14 Al1'
_cell_volume   384.20136394
_cell_formula_units_Z   1
loop_
 _symmetry_equiv_pos_site_id
 _symmetry_equiv_pos_as_xyz
  1  'x, y, z'
loop_
 _atom_site_type_symbol
 _atom_site_label
 _atom_site_symmetry_multiplicity
 _atom_site_fract_x
 _atom_site_fract_y
 _atom_site_fract_z
 _atom_site_occupancy
  K  K0  1  0.16687814  0.83343857  0.12500000  1
  Mg  Mg1  1  0.16589717  0.33294809  0.62500000  1
  Mg  Mg2  1  0.16975305  0.83487603  0.62500000  1
  Mg  Mg3  1  0.66238158  0.33924186  0.12500000  1
  Mg  Mg4  1  0.66720708  0.33094688  0.62500000  1
  Mg  Mg5  1  0.66238158  0.82313872  0.12500000  1
  Mg  Mg6  1  0.66720708  0.83625919  0.62500000  1
  Mg  Mg7  1  0.33363812  0.17730516  0.38261541  1
  Mg  Mg8  1  0.33363812  0.17730516  0.86738459  1
  Mg  Mg9  1  0.33363812  0.65633396  0.38261541  1
  Mg  Mg10  1  0.33363812  0.65633396  0.86738459  1
  Mg  Mg11  1  0.83620827  0.16810464  0.36576642  1
  Mg  Mg12  1  0.83620827  0.16810464  0.88423358  1
  Mg  Mg13  1  0.82235919  0.66118010  0.38885159  1
  Mg  Mg14  1  0.82235919  0.66118010  0.86114841  1
  Al  Al15  1  0.18660691  0.34330295  0.12500000  1
