# generated using pymatgen
data_Li9Fe4(BO3)8
_symmetry_space_group_name_H-M   'P 1'
_cell_length_a   10.34855042
_cell_length_b   10.44804880
_cell_length_c   11.03777080
_cell_angle_alpha   77.29375180
_cell_angle_beta   102.79938885
_cell_angle_gamma   60.70831050
_symmetry_Int_Tables_number   1
_chemical_formula_structural   Li9Fe4(BO3)8
_chemical_formula_sum   'Li18 Fe8 B16 O48'
_cell_volume   936.28145167
_cell_formula_units_Z   2
loop_
 _symmetry_equiv_pos_site_id
 _symmetry_equiv_pos_as_xyz
  1  'x, y, z'
loop_
 _atom_site_type_symbol
 _atom_site_label
 _atom_site_symmetry_multiplicity
 _atom_site_fract_x
 _atom_site_fract_y
 _atom_site_fract_z
 _atom_site_occupancy
  Li  Li0  1  0.87731429  0.15792680  0.06664223  1
  Li  Li1  1  0.60089449  0.06601859  0.38054906  1
  Li  Li2  1  0.76389913  0.25249470  0.67805488  1
  Li  Li3  1  0.57729151  0.47386278  0.16506050  1
  Li  Li4  1  0.89283709  0.45138556  0.61913184  1
  Li  Li5  1  0.51099443  0.02013557  0.84321032  1
  Li  Li6  1  0.00583554  0.52314579  0.83564884  1
  Li  Li7  1  0.98971851  0.47623732  0.16963290  1
  Li  Li8  1  0.49710101  0.97789780  0.17700124  1
  Li  Li9  1  0.52523685  0.46094333  0.88616327  1
  Li  Li10  1  0.29125334  0.85556351  0.13163085  1
  Li  Li11  1  0.10296460  0.56293916  0.37277947  1
  Li  Li12  1  0.20562092  0.28055431  0.58928394  1
  Li  Li13  1  0.70550252  0.78113318  0.59616433  1
  Li  Li14  1  0.26216246  0.75991206  0.65962387  1
  Li  Li15  1  0.38872793  0.95221387  0.62250072  1
  Li  Li16  1  0.20225612  0.64460124  0.88259321  1
  Li  Li17  1  0.01545894  0.96320414  0.90214242  1
  Fe  Fe18  1  0.16684471  0.14990060  0.87362664  1
  Fe  Fe19  1  0.66700786  0.65417582  0.87605644  1
  Fe  Fe20  1  0.32544004  0.35249388  0.12200517  1
  Fe  Fe21  1  0.82765747  0.85578302  0.11919118  1
  Fe  Fe22  1  0.09279398  0.08067284  0.37191369  1
  Fe  Fe23  1  0.59548529  0.58487886  0.37741100  1
  Fe  Fe24  1  0.39592137  0.42354763  0.62194631  1
  Fe  Fe25  1  0.89940605  0.92079739  0.62845111  1
  B  B26  1  0.62353618  0.18676667  0.11034761  1
  B  B27  1  0.92875236  0.39040288  0.38132639  1
  B  B28  1  0.56264195  0.11282979  0.62551395  1
  B  B29  1  0.15724795  0.18521432  0.13052514  1
  B  B30  1  0.65182877  0.69858066  0.12784665  1
  B  B31  1  0.86611637  0.32816147  0.87203356  1
  B  B32  1  0.43636950  0.40797380  0.36308954  1
  B  B33  1  0.93687716  0.89827394  0.37213324  1
  B  B34  1  0.05717933  0.09713739  0.63043908  1
  B  B35  1  0.55877946  0.59995873  0.63168650  1
  B  B36  1  0.13082066  0.68308046  0.11501798  1
  B  B37  1  0.33155542  0.32261695  0.86260619  1
  B  B38  1  0.84229928  0.81360632  0.86687372  1
  B  B39  1  0.42740273  0.89578805  0.38285989  1
  B  B40  1  0.06309077  0.61319158  0.62265339  1
  B  B41  1  0.35705815  0.82039216  0.87629067  1
  O  O42  1  0.75715891  0.06903628  0.10127174  1
  O  O43  1  0.90952991  0.27897138  0.34981057  1
  O  O44  1  0.93598695  0.08119735  0.64666169  1
  O  O45  1  0.51992627  0.15410950  0.15021020  1
  O  O46  1  0.59136318  0.33527402  0.07906282  1
  O  O47  1  0.67481793  0.99378834  0.59494987  1
  O  O48  1  0.25094214  0.08109028  0.07813145  1
  O  O49  1  0.74444159  0.59558799  0.07499400  1
  O  O50  1  0.81871412  0.49805020  0.41811418  1
  O  O51  1  0.89118763  0.18467168  0.88030415  1
  O  O52  1  0.97636653  0.35684132  0.84415429  1
  O  O53  1  0.42446306  0.29948265  0.31687233  1
  O  O54  1  0.92978380  0.79109534  0.32224748  1
  O  O55  1  0.43402764  0.11487390  0.63890430  1
  O  O56  1  0.93238370  0.61812048  0.63369404  1
  O  O57  1  0.54308368  0.44245475  0.34095858  1
  O  O58  1  0.58780337  0.22817628  0.64313747  1
  O  O59  1  0.05525623  0.15832378  0.17686708  1
  O  O60  1  0.54822549  0.67409377  0.17477707  1
  O  O61  1  0.16425628  0.31206394  0.13724866  1
  O  O62  1  0.66261700  0.82286780  0.13676648  1
  O  O63  1  0.16175853  0.00158285  0.57966387  1
  O  O64  1  0.66493989  0.50588670  0.58066379  1
  O  O65  1  0.25144339  0.57146658  0.08730250  1
  O  O66  1  0.73903753  0.43629819  0.89603195  1
  O  O67  1  0.33490412  0.47806935  0.42550941  1
  O  O68  1  0.83345140  0.96904846  0.43200812  1
  O  O69  1  0.32195486  0.19783149  0.85284365  1
  O  O70  1  0.82381394  0.69550036  0.84864268  1
  O  O71  1  0.42968740  0.35279512  0.81373483  1
  O  O72  1  0.95504676  0.82948706  0.82832710  1
  O  O73  1  0.40705068  0.78790277  0.34292330  1
  O  O74  1  0.44010694  0.57892275  0.64624826  1
  O  O75  1  0.05727453  0.39555114  0.37901034  1
  O  O76  1  0.55725858  0.89956954  0.38415346  1
  O  O77  1  0.07717335  0.20660858  0.66953906  1
  O  O78  1  0.57094583  0.71404088  0.66851720  1
  O  O79  1  0.02649367  0.65180355  0.15385941  1
  O  O80  1  0.11174997  0.82516789  0.09537956  1
  O  O81  1  0.16855163  0.49923435  0.58378852  1
  O  O82  1  0.24259576  0.42291387  0.91975562  1
  O  O83  1  0.75139897  0.91187577  0.92223396  1
  O  O84  1  0.31642172  0.00079506  0.42026947  1
  O  O85  1  0.36727244  0.68807346  0.86635655  1
  O  O86  1  0.46851445  0.85108884  0.85167022  1
  O  O87  1  0.04996279  0.92654015  0.36169038  1
  O  O88  1  0.09663740  0.71881988  0.65584021  1
  O  O89  1  0.23523861  0.92941037  0.90644224  1
