# generated using pymatgen
data_Na2Sb4O11
_symmetry_space_group_name_H-M   'P 1'
_cell_length_a   7.64189875
_cell_length_b   10.62051666
_cell_length_c   7.28032884
_cell_angle_alpha   84.83384344
_cell_angle_beta   90.00000000
_cell_angle_gamma   68.91389311
_symmetry_Int_Tables_number   1
_chemical_formula_structural   Na2Sb4O11
_chemical_formula_sum   'Na4 Sb8 O22'
_cell_volume   548.74008322
_cell_formula_units_Z   2
loop_
 _symmetry_equiv_pos_site_id
 _symmetry_equiv_pos_as_xyz
  1  'x, y, z'
loop_
 _atom_site_type_symbol
 _atom_site_label
 _atom_site_symmetry_multiplicity
 _atom_site_fract_x
 _atom_site_fract_y
 _atom_site_fract_z
 _atom_site_occupancy
  Na  Na0  1  0.03133121  0.93733657  0.28114359  1
  Na  Na1  1  0.73465906  0.53068189  0.07609150  1
  Na  Na2  1  0.26534094  0.46931811  0.92390850  1
  Na  Na3  1  0.96866879  0.06266343  0.71885641  1
  Sb  Sb4  1  0.57596115  0.84807769  0.61712008  1
  Sb  Sb5  1  0.57103162  0.85793676  0.09691836  1
  Sb  Sb6  1  0.41591980  0.65169614  0.43605663  1
  Sb  Sb7  1  0.93238506  0.65169614  0.43605663  1
  Sb  Sb8  1  0.58408020  0.34830386  0.56394337  1
  Sb  Sb9  1  0.06761494  0.34830386  0.56394337  1
  Sb  Sb10  1  0.42896838  0.14206324  0.90308164  1
  Sb  Sb11  1  0.42403885  0.15192231  0.38287992  1
  O  O12  1  0.52313922  0.95372056  0.34400045  1
  O  O13  1  0.33091896  0.82544809  0.56475947  1
  O  O14  1  0.84363295  0.82544809  0.56475947  1
  O  O15  1  0.61920522  0.76159056  0.86915813  1
  O  O16  1  0.43873407  0.73648825  0.18550659  1
  O  O17  1  0.82477768  0.73648825  0.18550659  1
  O  O18  1  0.66747177  0.66505647  0.51451382  1
  O  O19  1  0.15430647  0.69138806  0.35307734  1
  O  O20  1  0.03095748  0.52630078  0.66690183  1
  O  O21  1  0.44274175  0.52630078  0.66690183  1
  O  O22  1  0.96904252  0.47369922  0.33309817  1
  O  O23  1  0.55725825  0.47369922  0.33309817  1
  O  O24  1  0.84569353  0.30861194  0.64692266  1
  O  O25  1  0.33252823  0.33494353  0.48548618  1
  O  O26  1  0.56126593  0.26351175  0.81449341  1
  O  O27  1  0.17522232  0.26351175  0.81449341  1
  O  O28  1  0.38079478  0.23840944  0.13084187  1
  O  O29  1  0.15636705  0.17455191  0.43524053  1
  O  O30  1  0.66908104  0.17455191  0.43524053  1
  O  O31  1  0.47686078  0.04627944  0.65599955  1
  O  O32  1  0.32554197  0.00000000  -0.00000000  1
  O  O33  1  0.67445803  0.00000000  -0.00000000  1
