# generated using pymatgen
data_LiMnP2O7
_symmetry_space_group_name_H-M   'P 1'
_cell_length_a   9.90475910
_cell_length_b   9.73686947
_cell_length_c   11.14920393
_cell_angle_alpha   89.70365502
_cell_angle_beta   100.89823383
_cell_angle_gamma   90.81177825
_symmetry_Int_Tables_number   1
_chemical_formula_structural   LiMnP2O7
_chemical_formula_sum   'Li8 Mn8 P16 O56'
_cell_volume   1055.74233900
_cell_formula_units_Z   8
loop_
 _symmetry_equiv_pos_site_id
 _symmetry_equiv_pos_as_xyz
  1  'x, y, z'
loop_
 _atom_site_type_symbol
 _atom_site_label
 _atom_site_symmetry_multiplicity
 _atom_site_fract_x
 _atom_site_fract_y
 _atom_site_fract_z
 _atom_site_occupancy
  Li  Li0  1  0.08077033  0.11392298  0.02160966  1
  Li  Li1  1  0.41058330  0.58438194  0.97971925  1
  Li  Li2  1  0.39738857  0.96674492  0.49973269  1
  Li  Li3  1  0.62426931  0.78749683  0.45287196  1
  Li  Li4  1  0.64510990  0.15066240  0.03523520  1
  Li  Li5  1  0.90554018  0.89096014  0.97855510  1
  Li  Li6  1  0.91315415  0.56264227  0.51062628  1
  Li  Li7  1  0.89563224  0.27255831  0.55094767  1
  Mn  Mn8  1  0.20240658  0.92901338  0.67037775  1
  Mn  Mn9  1  0.27554705  0.22728070  0.83913123  1
  Mn  Mn10  1  0.21042491  0.71679892  0.15906192  1
  Mn  Mn11  1  0.31537698  0.41761733  0.34369193  1
  Mn  Mn12  1  0.69792137  0.57048546  0.66940532  1
  Mn  Mn13  1  0.75673014  0.28675380  0.82558190  1
  Mn  Mn14  1  0.70721781  0.77406930  0.15732393  1
  Mn  Mn15  1  0.81354393  0.07710954  0.33900849  1
  P  P16  1  0.01828819  0.44313291  0.75639457  1
  P  P17  1  0.12187965  0.71335007  0.87794556  1
  P  P18  1  0.06091159  0.93446747  0.24396066  1
  P  P19  1  0.14010818  0.14828296  0.43562507  1
  P  P20  1  0.37805831  0.64565670  0.56557626  1
  P  P21  1  0.42614590  0.42054744  0.75114901  1
  P  P22  1  0.52148575  0.05052309  0.75048787  1
  P  P23  1  0.37474359  0.20977515  0.12296150  1
  P  P24  1  0.61555605  0.77853518  0.87417835  1
  P  P25  1  0.46090270  0.93248928  0.23452652  1
  P  P26  1  0.56322165  0.56702595  0.24433504  1
  P  P27  1  0.63905744  0.35304232  0.43060810  1
  P  P28  1  0.88076201  0.86037450  0.57217598  1
  P  P29  1  0.93613609  0.07367952  0.76206381  1
  P  P30  1  0.87945913  0.28961848  0.12015841  1
  P  P31  1  0.95894614  0.56773737  0.23480798  1
  O  O32  1  0.00712155  0.42372210  0.62103850  1
  O  O33  1  0.03234678  0.85435635  0.56565132  1
  O  O34  1  0.08440151  0.08352402  0.73994758  1
  O  O35  1  0.10194363  0.34110516  0.84222694  1
  O  O36  1  0.08963480  0.59088509  0.77959614  1
  O  O37  1  0.20213076  0.81793249  0.81232828  1
  O  O38  1  0.22243171  0.65443982  0.99124794  1
  O  O39  1  0.02003092  0.25610991  0.10360767  1
  O  O40  1  0.13581924  0.06849484  0.30772584  1
  O  O41  1  0.05990125  0.94396996  0.10835425  1
  O  O42  1  0.10043566  0.56015170  0.19164438  1
  O  O43  1  0.20408814  0.28690727  0.41726429  1
  O  O44  1  0.15174018  0.81139900  0.29468519  1
  O  O45  1  0.22762916  0.05726830  0.53387278  1
  O  O46  1  0.29381011  0.56262964  0.46113190  1
  O  O47  1  0.33150943  0.30049841  0.69212142  1
  O  O48  1  0.32503650  0.78834396  0.58231974  1
  O  O49  1  0.37516518  0.04369315  0.78777677  1
  O  O50  1  0.36814987  0.56070588  0.68977232  1
  O  O51  1  0.40255396  0.41586017  0.88285991  1
  O  O52  1  0.48244669  0.72654105  0.89818611  1
  O  O53  1  0.26823636  0.16418767  0.00645254  1
  O  O54  1  0.30971069  0.31751415  0.19320097  1
  O  O55  1  0.39012443  0.07896814  0.21537136  1
  O  O56  1  0.41560032  0.56638536  0.27091487  1
  O  O57  1  0.36765135  0.83229704  0.14917889  1
  O  O58  1  0.52169015  0.07413627  0.61902914  1
  O  O59  1  0.49274598  0.33220717  0.44490853  1
  O  O60  1  0.53387607  0.65351512  0.56016694  1
  O  O61  1  0.47667710  0.90297864  0.36917117  1
  O  O62  1  0.61235375  0.14917990  0.84454067  1
  O  O63  1  0.57796695  0.41274266  0.73680164  1
  O  O64  1  0.59226743  0.90351932  0.77935881  1
  O  O65  1  0.70209059  0.67878047  0.81223571  1
  O  O66  1  0.71282271  0.84036749  0.99045254  1
  O  O67  1  0.51117405  0.24315357  0.09259325  1
  O  O68  1  0.57046809  0.58042799  0.11083672  1
  O  O69  1  0.63827113  0.43195625  0.30179526  1
  O  O70  1  0.60292206  0.94147139  0.19088468  1
  O  O71  1  0.72221366  0.22331360  0.42053351  1
  O  O72  1  0.65462535  0.68975689  0.30606125  1
  O  O73  1  0.72732294  0.44466969  0.53165692  1
  O  O74  1  0.78881458  0.93875091  0.46665751  1
  O  O75  1  0.84331846  0.19229791  0.69992043  1
  O  O76  1  0.81501042  0.71782254  0.57965232  1
  O  O77  1  0.86668201  0.45240264  0.78896345  1
  O  O78  1  0.92045407  0.06634151  0.89413310  1
  O  O79  1  0.86668208  0.93637632  0.69672267  1
  O  O80  1  0.98992247  0.75843851  0.90775865  1
  O  O81  1  0.77171435  0.31781843  0.00186578  1
  O  O82  1  0.80401051  0.17650626  0.18598172  1
  O  O83  1  0.88454484  0.41993065  0.20642234  1
  O  O84  1  0.86943443  0.67027404  0.14822719  1
  O  O85  1  0.91348219  0.92928309  0.27392195  1
  O  O86  1  0.99145650  0.15951750  0.45227807  1
  O  O87  1  0.96682979  0.58991803  0.36716721  1
