# generated using pymatgen
data_Li6TiMn3(PO4)6
_symmetry_space_group_name_H-M   'P 1'
_cell_length_a   8.76632000
_cell_length_b   8.65660088
_cell_length_c   8.62003672
_cell_angle_alpha   61.40643945
_cell_angle_beta   61.38097074
_cell_angle_gamma   61.44259938
_symmetry_Int_Tables_number   1
_chemical_formula_structural   Li6TiMn3(PO4)6
_chemical_formula_sum   'Li6 Ti1 Mn3 P6 O24'
_cell_volume   477.19925085
_cell_formula_units_Z   1
loop_
 _symmetry_equiv_pos_site_id
 _symmetry_equiv_pos_as_xyz
  1  'x, y, z'
loop_
 _atom_site_type_symbol
 _atom_site_label
 _atom_site_symmetry_multiplicity
 _atom_site_fract_x
 _atom_site_fract_y
 _atom_site_fract_z
 _atom_site_occupancy
  Li  Li0  1  0.02601874  0.01906852  0.99662028  1
  Li  Li1  1  0.74223377  0.16468985  0.35133756  1
  Li  Li2  1  0.47867793  0.50732867  0.49245062  1
  Li  Li3  1  0.28056645  0.84740663  0.65695277  1
  Li  Li4  1  0.65367168  0.28582694  0.84664104  1
  Li  Li5  1  0.85616428  0.65418271  0.27488752  1
  Ti  Ti6  1  0.85130542  0.84874203  0.85131067  1
  Mn  Mn7  1  0.14566495  0.14349334  0.14540601  1
  Mn  Mn8  1  0.35387726  0.36003461  0.35679900  1
  Mn  Mn9  1  0.64971509  0.65321491  0.64588407  1
  P  P10  1  0.05386564  0.75098095  0.44033355  1
  P  P11  1  0.44749775  0.04869403  0.75136634  1
  P  P12  1  0.74838389  0.44837301  0.04427417  1
  P  P13  1  0.24247362  0.54086483  0.95872905  1
  P  P14  1  0.55270336  0.95917099  0.25018976  1
  P  P15  1  0.95125452  0.24429447  0.54069154  1
  O  O16  1  0.12439952  0.26953731  0.50864290  1
  O  O17  1  0.28624170  0.52106824  0.12026699  1
  O  O18  1  0.06566377  0.92189124  0.25721627  1
  O  O19  1  0.55142180  0.11509766  0.29090330  1
  O  O20  1  0.23879802  0.59711839  0.44160902  1
  O  O21  1  0.98443530  0.81626710  0.61160592  1
  O  O22  1  0.26301091  0.07754617  0.90981513  1
  O  O23  1  0.46533416  0.22878711  0.58274316  1
  O  O24  1  0.60303114  0.44454467  0.23810734  1
  O  O25  1  0.18091054  0.38194690  0.00242531  1
  O  O26  1  0.08418675  0.73560361  0.92243029  1
  O  O27  1  0.38283454  0.00617323  0.21011423  1
  O  O28  1  0.61506638  0.98026903  0.81619355  1
  O  O29  1  0.89934011  0.25692264  0.06515977  1
  O  O30  1  0.81931972  0.61309865  0.97664542  1
  O  O31  1  0.40154712  0.55757845  0.76877868  1
  O  O32  1  0.57089432  0.76800853  0.41222574  1
  O  O33  1  0.73847293  0.91737674  0.08616375  1
  O  O34  1  0.96406972  0.19663084  0.38175425  1
  O  O35  1  0.77052268  0.41225254  0.56197035  1
  O  O36  1  0.46082925  0.89749241  0.69410967  1
  O  O37  1  0.91204458  0.08722690  0.73672959  1
  O  O38  1  0.67745631  0.47856979  0.89575586  1
  O  O39  1  0.90609337  0.69162536  0.45575455  1
