# generated using pymatgen
data_Li7Mn5O12
_symmetry_space_group_name_H-M   'P 1'
_cell_length_a   2.98591997
_cell_length_b   8.12374950
_cell_length_c   9.87352735
_cell_angle_alpha   114.10036677
_cell_angle_beta   90.00000000
_cell_angle_gamma   90.00000000
_symmetry_Int_Tables_number   1
_chemical_formula_structural   Li7Mn5O12
_chemical_formula_sum   'Li7 Mn5 O12'
_cell_volume   218.62391572
_cell_formula_units_Z   1
loop_
 _symmetry_equiv_pos_site_id
 _symmetry_equiv_pos_as_xyz
  1  'x, y, z'
loop_
 _atom_site_type_symbol
 _atom_site_label
 _atom_site_symmetry_multiplicity
 _atom_site_fract_x
 _atom_site_fract_y
 _atom_site_fract_z
 _atom_site_occupancy
  Li  Li0  1  0.00000000  0.85198425  0.67146860  1
  Li  Li1  1  -0.00000000  0.48134875  0.99519840  1
  Li  Li2  1  0.00000000  0.16666700  0.33333300  1
  Li  Li3  1  0.50000000  0.32904694  0.15437179  1
  Li  Li4  1  0.50000000  0.00428606  0.51229521  1
  Li  Li5  1  0.50000000  0.66666700  0.83333300  1
  Li  Li6  1  0.50000000  0.16666700  0.83333300  1
  Mn  Mn7  1  0.00000000  0.00590774  0.99442185  1
  Mn  Mn8  1  -0.00000000  0.32742526  0.67224515  1
  Mn  Mn9  1  0.00000000  0.66666700  0.33333300  1
  Mn  Mn10  1  0.50000000  0.50585611  0.50627405  1
  Mn  Mn11  1  0.50000000  0.82747689  0.16039295  1
  O  O12  1  0.00000000  0.23391013  0.00350848  1
  O  O13  1  -0.00000000  0.90248372  0.32820390  1
  O  O14  1  0.00000000  0.57102076  0.66433395  1
  O  O15  1  0.50000000  0.73909202  0.50007781  1
  O  O16  1  0.50000000  0.40501629  0.81103022  1
  O  O17  1  0.50000000  0.06315556  0.15028687  1
  O  O18  1  -0.00000000  0.43084928  0.33846310  1
  O  O19  1  -0.00000000  0.09942387  0.66315752  1
  O  O20  1  -0.00000000  0.76231224  0.00233305  1
  O  O21  1  0.50000000  0.92831671  0.85563678  1
  O  O22  1  0.50000000  0.59424198  0.16658819  1
  O  O23  1  0.50000000  0.27017744  0.51638013  1
