# generated using pymatgen
data_Li9Co7O16
_symmetry_space_group_name_H-M   'P 1'
_cell_length_a   5.76169594
_cell_length_b   6.50362193
_cell_length_c   8.77825021
_cell_angle_alpha   97.95879654
_cell_angle_beta   70.82785510
_cell_angle_gamma   116.19910248
_symmetry_Int_Tables_number   1
_chemical_formula_structural   Li9Co7O16
_chemical_formula_sum   'Li9 Co7 O16'
_cell_volume   278.76621529
_cell_formula_units_Z   1
loop_
 _symmetry_equiv_pos_site_id
 _symmetry_equiv_pos_as_xyz
  1  'x, y, z'
loop_
 _atom_site_type_symbol
 _atom_site_label
 _atom_site_symmetry_multiplicity
 _atom_site_fract_x
 _atom_site_fract_y
 _atom_site_fract_z
 _atom_site_occupancy
  Li  Li0  1  0.25460729  0.24699476  0.24396447  1
  Li  Li1  1  0.75115042  0.00185464  0.49932645  1
  Li  Li2  1  0.74853419  0.24714593  0.24445482  1
  Li  Li3  1  0.24884958  0.99814536  0.50067355  1
  Li  Li4  1  0.25146581  0.75285407  0.75554518  1
  Li  Li5  1  0.74539271  0.75300524  0.75603553  1
  Li  Li6  1  0.74927867  0.49841447  0.00025111  1
  Li  Li7  1  0.25072133  0.50158553  0.99974889  1
  Li  Li8  1  0.50000000  -0.00000000  -0.00000000  1
  Co  Co9  1  0.00000000  -0.00000000  -0.00000000  1
  Co  Co10  1  0.50121152  0.75614951  0.24373953  1
  Co  Co11  1  0.00000000  0.50000000  0.50000000  1
  Co  Co12  1  0.49878848  0.24385049  0.75626047  1
  Co  Co13  1  0.01059406  0.75579249  0.24397878  1
  Co  Co14  1  0.50000000  0.50000000  0.50000000  1
  Co  Co15  1  0.98940594  0.24420751  0.75602122  1
  O  O16  1  0.87940947  0.99401713  0.23413461  1
  O  O17  1  0.36585652  0.72128471  0.49657199  1
  O  O18  1  0.36196927  0.98038018  0.25553760  1
  O  O19  1  0.85830339  0.72159247  0.49644074  1
  O  O20  1  0.87796063  0.49100067  0.73413484  1
  O  O21  1  0.37520255  0.48306091  0.73194397  1
  O  O22  1  0.34952681  0.23240937  0.99241234  1
  O  O23  1  0.89053327  0.23287902  0.99226312  1
  O  O24  1  0.62479745  0.51693909  0.26805603  1
  O  O25  1  0.14169661  0.27840753  0.50355926  1
  O  O26  1  0.12203937  0.50899933  0.26586516  1
  O  O27  1  0.63414348  0.27871529  0.50342801  1
  O  O28  1  0.63803073  0.01961982  0.74446240  1
  O  O29  1  0.12059053  0.00598287  0.76586539  1
  O  O30  1  0.10946673  0.76712098  0.00773688  1
  O  O31  1  0.65047319  0.76759063  0.00758766  1
