# generated using pymatgen
data_Li9Co7O16
_symmetry_space_group_name_H-M   'P 1'
_cell_length_a   5.85756922
_cell_length_b   8.68490913
_cell_length_c   5.84149524
_cell_angle_alpha   70.38407156
_cell_angle_beta   89.66039602
_cell_angle_gamma   89.10769764
_symmetry_Int_Tables_number   1
_chemical_formula_structural   Li9Co7O16
_chemical_formula_sum   'Li9 Co7 O16'
_cell_volume   279.89060826
_cell_formula_units_Z   1
loop_
 _symmetry_equiv_pos_site_id
 _symmetry_equiv_pos_as_xyz
  1  'x, y, z'
loop_
 _atom_site_type_symbol
 _atom_site_label
 _atom_site_symmetry_multiplicity
 _atom_site_fract_x
 _atom_site_fract_y
 _atom_site_fract_z
 _atom_site_occupancy
  Li  Li0  1  0.25000000  0.25000000  0.12500000  1
  Li  Li1  1  0.99714914  0.49653824  0.24918295  1
  Li  Li2  1  0.25000000  0.25000000  0.62500000  1
  Li  Li3  1  0.99668621  0.49058543  0.75838206  1
  Li  Li4  1  0.74912370  0.75051260  0.87492760  1
  Li  Li5  1  0.75087630  0.74948740  0.37507240  1
  Li  Li6  1  0.50331379  0.00941457  0.49161794  1
  Li  Li7  1  0.50285086  0.00346176  0.00081705  1
  Li  Li8  1  0.75000000  0.25000000  0.12500000  1
  Co  Co9  1  0.99404238  0.01125083  0.99783957  1
  Co  Co10  1  0.75000000  0.25000000  0.62500000  1
  Co  Co11  1  0.50595762  0.48874917  0.25216043  1
  Co  Co12  1  0.25081713  0.75003162  0.37402229  1
  Co  Co13  1  0.99439211  0.00533166  0.49480090  1
  Co  Co14  1  0.50560789  0.49466834  0.75519910  1
  Co  Co15  1  0.24918287  0.74996838  0.87597771  1
  O  O16  1  0.98676187  0.23821941  0.86685242  1
  O  O17  1  0.72494310  0.50434119  0.98125810  1
  O  O18  1  0.98609117  0.23045585  0.40069273  1
  O  O19  1  0.73648273  0.48800053  0.51793441  1
  O  O20  1  0.48873282  0.73114557  0.63789072  1
  O  O21  1  0.48802000  0.74627683  0.13162172  1
  O  O22  1  0.23215459  0.99833454  0.26175926  1
  O  O23  1  0.22862189  0.99171443  0.73833515  1
  O  O24  1  0.51323813  0.26178059  0.38314758  1
  O  O25  1  0.27137811  0.50828557  0.51166485  1
  O  O26  1  0.51390883  0.26954415  0.84930827  1
  O  O27  1  0.26784541  0.50166546  0.98824074  1
  O  O28  1  0.01198000  0.75372317  0.11837728  1
  O  O29  1  0.01126718  0.76885443  0.61210828  1
  O  O30  1  0.76351727  0.01199947  0.73206559  1
  O  O31  1  0.77505690  0.99565881  0.26874090  1
