# generated using pymatgen
data_Li4CoO4
_symmetry_space_group_name_H-M   'P 1'
_cell_length_a   8.05750946
_cell_length_b   7.49565894
_cell_length_c   6.60487013
_cell_angle_alpha   90.00000000
_cell_angle_beta   90.00000000
_cell_angle_gamma   89.60791903
_symmetry_Int_Tables_number   1
_chemical_formula_structural   Li4CoO4
_chemical_formula_sum   'Li16 Co4 O16'
_cell_volume   398.90066050
_cell_formula_units_Z   4
loop_
 _symmetry_equiv_pos_site_id
 _symmetry_equiv_pos_as_xyz
  1  'x, y, z'
loop_
 _atom_site_type_symbol
 _atom_site_label
 _atom_site_symmetry_multiplicity
 _atom_site_fract_x
 _atom_site_fract_y
 _atom_site_fract_z
 _atom_site_occupancy
  Li  Li0  1  0.03461821  0.69536534  0.50000000  1
  Li  Li1  1  0.15128753  0.97295385  0.24915357  1
  Li  Li2  1  0.15128753  0.97295385  0.75084643  1
  Li  Li3  1  0.33458230  0.46865249  0.25938814  1
  Li  Li4  1  0.33458230  0.46865249  0.74061186  1
  Li  Li5  1  0.43694057  0.25183733  -0.00000000  1
  Li  Li6  1  0.49141938  0.00709203  0.73506345  1
  Li  Li7  1  0.49141938  0.00709203  0.26493655  1
  Li  Li8  1  0.55656739  0.74913358  -0.00000000  1
  Li  Li9  1  0.66058447  0.51187370  0.25020522  1
  Li  Li10  1  0.66058447  0.51187370  0.74979478  1
  Li  Li11  1  0.81977380  0.29117779  -0.00000000  1
  Li  Li12  1  0.70327406  0.76391646  0.50000000  1
  Li  Li13  1  0.83428658  0.01605861  0.25369047  1
  Li  Li14  1  0.83428658  0.01605861  0.74630953  1
  Li  Li15  1  0.99073140  0.31720457  0.50000000  1
  Co  Co16  1  0.12711021  0.23339902  -0.00000000  1
  Co  Co17  1  0.37744985  0.73738151  0.50000000  1
  Co  Co18  1  0.63237230  0.26310860  0.50000000  1
  Co  Co19  1  0.87241861  0.75985553  -0.00000000  1
  O  O20  1  0.99553642  0.20565647  0.21952157  1
  O  O21  1  0.99553642  0.20565647  0.78047843  1
  O  O22  1  0.25078234  0.42743060  -0.00000000  1
  O  O23  1  0.23281999  0.55565700  0.50000000  1
  O  O24  1  0.28315726  0.04826733  -0.00000000  1
  O  O25  1  0.28941845  0.95671985  0.50000000  1
  O  O26  1  0.51376155  0.71939514  0.28378356  1
  O  O27  1  0.51376155  0.71939514  0.71621644  1
  O  O28  1  0.52265696  0.28990787  0.26440499  1
  O  O29  1  0.52265696  0.28990787  0.73559501  1
  O  O30  1  0.69892227  0.03157916  0.50000000  1
  O  O31  1  0.71425991  0.95240305  -0.00000000  1
  O  O32  1  0.77430331  0.45191354  0.50000000  1
  O  O33  1  0.75870338  0.55241616  -0.00000000  1
  O  O34  1  0.96907316  0.79841663  0.24127355  1
  O  O35  1  0.96907316  0.79841663  0.75872645  1
