# generated using pymatgen
data_Li6MnV3(PO4)6
_symmetry_space_group_name_H-M   'P 1'
_cell_length_a   9.85533443
_cell_length_b   9.84614761
_cell_length_c   9.87553197
_cell_angle_alpha   87.08762594
_cell_angle_beta   86.99010057
_cell_angle_gamma   87.20486894
_symmetry_Int_Tables_number   1
_chemical_formula_structural   Li6MnV3(PO4)6
_chemical_formula_sum   'Li12 Mn2 V6 P12 O48'
_cell_volume   954.71333331
_cell_formula_units_Z   2
loop_
 _symmetry_equiv_pos_site_id
 _symmetry_equiv_pos_as_xyz
  1  'x, y, z'
loop_
 _atom_site_type_symbol
 _atom_site_label
 _atom_site_symmetry_multiplicity
 _atom_site_fract_x
 _atom_site_fract_y
 _atom_site_fract_z
 _atom_site_occupancy
  Li  Li0  1  0.00396157  0.04649355  0.98259082  1
  Li  Li1  1  0.05181658  0.73543835  0.14241022  1
  Li  Li2  1  0.13318982  0.06694433  0.73062645  1
  Li  Li3  1  0.22634111  0.55179040  0.65043695  1
  Li  Li4  1  0.27459162  0.84790858  0.95099381  1
  Li  Li5  1  0.36743304  0.77138240  0.43311949  1
  Li  Li6  1  0.44557597  0.35961048  0.76316253  1
  Li  Li7  1  0.49453707  0.51766190  0.45245266  1
  Li  Li8  1  0.64429669  0.23358491  0.54265637  1
  Li  Li9  1  0.76780895  0.46829306  0.35023024  1
  Li  Li10  1  0.73243078  0.14788839  0.03622706  1
  Li  Li11  1  0.85336996  0.95198986  0.26527573  1
  Mn  Mn12  1  0.25016106  0.24475145  0.25691318  1
  Mn  Mn13  1  0.97121193  0.75603720  0.53043590  1
  V  V14  1  0.03027292  0.25975413  0.47744095  1
  V  V15  1  0.25007379  0.46458217  0.03713789  1
  V  V16  1  0.46940524  0.02262462  0.24043794  1
  V  V17  1  0.53184941  0.96515848  0.74830633  1
  V  V18  1  0.75074191  0.52815020  0.97227648  1
  V  V19  1  0.75183933  0.74634498  0.75037099  1
  P  P20  1  0.05228006  0.66884229  0.85708889  1
  P  P21  1  0.14583683  0.95348867  0.33074981  1
  P  P22  1  0.17206466  0.55432287  0.35606571  1
  P  P23  1  0.32799619  0.14581102  0.94826509  1
  P  P24  1  0.35354774  0.16856776  0.54700684  1
  P  P25  1  0.44971070  0.64489926  0.83067296  1
  P  P26  1  0.54756326  0.34346258  0.17909270  1
  P  P27  1  0.64598154  0.82194257  0.44997992  1
  P  P28  1  0.67411034  0.84920421  0.04640597  1
  P  P29  1  0.82695032  0.45225717  0.65085976  1
  P  P30  1  0.85269969  0.04630495  0.67396375  1
  P  P31  1  0.95263439  0.32177898  0.15783197  1
  O  O32  1  0.03259827  0.62575936  0.40021073  1
  O  O33  1  0.05461985  0.90956431  0.22196656  1
  O  O34  1  0.11479919  0.32665110  0.13025975  1
  O  O35  1  0.12205904  0.11486175  0.33676104  1
  O  O36  1  0.09158640  0.69219693  0.70451085  1
  O  O37  1  0.10746452  0.89023871  0.47346777  1
  O  O38  1  0.09448937  0.78075809  0.94743454  1
  O  O39  1  0.11754039  0.52879554  0.90310905  1
  O  O40  1  0.16434646  0.39742083  0.38609571  1
  O  O41  1  0.18874017  0.58851824  0.20049941  1
  O  O42  1  0.19901762  0.19455849  0.58260166  1
  O  O43  1  0.21194755  0.06163144  0.90304960  1
  O  O44  1  0.33358535  0.11515435  0.10507402  1
  O  O45  1  0.28684445  0.59906814  0.44107149  1
  O  O46  1  0.29962844  0.91681339  0.30324104  1
  O  O47  1  0.31253649  0.30202136  0.91373441  1
  O  O48  1  0.37736958  0.16370796  0.38538812  1
  O  O49  1  0.38569485  0.37221503  0.17472416  1
  O  O50  1  0.39446673  0.02781912  0.61073779  1
  O  O51  1  0.37924077  0.60503257  0.96965618  1
  O  O52  1  0.40493337  0.55610941  0.71934341  1
  O  O53  1  0.44306050  0.28040714  0.58959034  1
  O  O54  1  0.41551481  0.80052164  0.80549491  1
  O  O55  1  0.46698130  0.09924329  0.87969267  1
  O  O56  1  0.52996002  0.88909976  0.10608383  1
  O  O57  1  0.57968351  0.18652847  0.18113524  1
  O  O58  1  0.59269456  0.40865909  0.30466699  1
  O  O59  1  0.56119607  0.70440387  0.41468036  1
  O  O60  1  0.61241653  0.39851364  0.04351458  1
  O  O61  1  0.59308058  0.95982491  0.38463368  1
  O  O62  1  0.60886982  0.62162294  0.83712113  1
  O  O63  1  0.62480396  0.83179259  0.61145012  1
  O  O64  1  0.69640012  0.07999897  0.68715319  1
  O  O65  1  0.70827906  0.69729083  0.07800869  1
  O  O66  1  0.72113929  0.40581630  0.55666759  1
  O  O67  1  0.67133250  0.87730025  0.88500622  1
  O  O68  1  0.77944188  0.94539423  0.09140487  1
  O  O69  1  0.79411001  0.42205885  0.80299618  1
  O  O70  1  0.79954134  0.80921653  0.40882324  1
  O  O71  1  0.83179435  0.61340272  0.61973506  1
  O  O72  1  0.88715075  0.45793894  0.10477074  1
  O  O73  1  0.90815787  0.19661944  0.09070591  1
  O  O74  1  0.90129859  0.11597903  0.53799914  1
  O  O75  1  0.91974829  0.31790034  0.31432795  1
  O  O76  1  0.88038652  0.88420151  0.66237861  1
  O  O77  1  0.93441448  0.08208194  0.79282560  1
  O  O78  1  0.89169891  0.66287135  0.87712406  1
  O  O79  1  0.97105206  0.39188557  0.61084548  1
