# generated using pymatgen
data_Li5V6O5F19
_symmetry_space_group_name_H-M   'P 1'
_cell_length_a   5.19919268
_cell_length_b   5.40585978
_cell_length_c   16.29272230
_cell_angle_alpha   80.27286226
_cell_angle_beta   89.87774441
_cell_angle_gamma   90.44320066
_symmetry_Int_Tables_number   1
_chemical_formula_structural   Li5V6O5F19
_chemical_formula_sum   'Li5 V6 O5 F19'
_cell_volume   451.32540278
_cell_formula_units_Z   1
loop_
 _symmetry_equiv_pos_site_id
 _symmetry_equiv_pos_as_xyz
  1  'x, y, z'
loop_
 _atom_site_type_symbol
 _atom_site_label
 _atom_site_symmetry_multiplicity
 _atom_site_fract_x
 _atom_site_fract_y
 _atom_site_fract_z
 _atom_site_occupancy
  Li  Li0  1  0.54356407  0.18365638  0.44244814  1
  Li  Li1  1  0.95206442  0.57020073  0.12953329  1
  Li  Li2  1  0.71947307  0.34419230  0.84858347  1
  Li  Li3  1  0.96313991  0.68615872  0.43748071  1
  Li  Li4  1  0.23708723  0.81060236  0.82950049  1
  V  V5  1  0.03170972  0.29546548  0.33265503  1
  V  V6  1  0.48242364  0.14201166  0.66447302  1
  V  V7  1  0.97120711  0.03146722  0.99619820  1
  V  V8  1  0.46598166  0.51674241  0.00331268  1
  V  V9  1  0.47870273  0.80142453  0.32761940  1
  V  V10  1  0.00507851  0.67032835  0.66191652  1
  O  O11  1  0.19376972  0.01592660  0.36037965  1
  O  O12  1  0.20164628  0.68879246  0.01471356  1
  O  O13  1  0.30782110  0.52292334  0.36218189  1
  O  O14  1  0.78356643  0.28779563  0.97284886  1
  O  O15  1  0.28659838  0.87741363  0.68788596  1
  F  F16  1  0.28721280  0.18995326  0.02735232  1
  F  F17  1  0.69619355  0.14906559  0.31146141  1
  F  F18  1  0.08823145  0.05199237  0.88132699  1
  F  F19  1  0.42327735  0.21895105  0.55018795  1
  F  F20  1  0.10335441  0.38047722  0.22003839  1
  F  F21  1  0.61746409  0.45736633  0.10795055  1
  F  F22  1  0.58915607  0.12683302  0.77710528  1
  F  F23  1  0.88799273  0.32307890  0.44160871  1
  F  F24  1  0.20928777  0.37210339  0.68604873  1
  F  F25  1  0.70795387  0.45974482  0.64560103  1
  F  F26  1  0.80864094  0.63966371  0.31042325  1
  F  F27  1  0.42606953  0.53348736  0.88023879  1
  F  F28  1  0.91458114  0.91911278  0.10909049  1
  F  F29  1  0.07828600  0.70583379  0.55211889  1
  F  F30  1  0.42317650  0.89123372  0.21945368  1
  F  F31  1  0.92374413  0.62146968  0.77546659  1
  F  F32  1  0.62026679  0.82495377  0.43863884  1
  F  F33  1  0.70647586  0.79613548  0.96836456  1
  F  F34  1  0.79527406  0.96714496  0.64058471  1
