# generated using pymatgen
data_Li3Fe8(BO3)8
_symmetry_space_group_name_H-M   'P 1'
_cell_length_a   5.28912920
_cell_length_b   9.05424349
_cell_length_c   11.49833099
_cell_angle_alpha   113.50809746
_cell_angle_beta   77.27244199
_cell_angle_gamma   89.81462659
_symmetry_Int_Tables_number   1
_chemical_formula_structural   Li3Fe8(BO3)8
_chemical_formula_sum   'Li3 Fe8 B8 O24'
_cell_volume   489.97375566
_cell_formula_units_Z   1
loop_
 _symmetry_equiv_pos_site_id
 _symmetry_equiv_pos_as_xyz
  1  'x, y, z'
loop_
 _atom_site_type_symbol
 _atom_site_label
 _atom_site_symmetry_multiplicity
 _atom_site_fract_x
 _atom_site_fract_y
 _atom_site_fract_z
 _atom_site_occupancy
  Li  Li0  1  0.60518848  0.05837567  0.11102712  1
  Li  Li1  1  0.68055535  0.66576606  0.33890044  1
  Li  Li2  1  0.41987810  0.92896672  0.84940498  1
  Fe  Fe3  1  0.40376865  0.27389157  0.86934846  1
  Fe  Fe4  1  0.09853088  0.22395674  0.11890332  1
  Fe  Fe5  1  0.85012809  0.14454882  0.62244611  1
  Fe  Fe6  1  0.65913511  0.34697158  0.36846738  1
  Fe  Fe7  1  0.33846928  0.63918161  0.62117426  1
  Fe  Fe8  1  0.15157238  0.85189115  0.37522248  1
  Fe  Fe9  1  0.91069814  0.76951171  0.87076621  1
  Fe  Fe10  1  0.58978120  0.73063755  0.12268338  1
  B  B11  1  0.65800832  0.01330412  0.36697271  1
  B  B12  1  0.89176303  0.10472972  0.87204715  1
  B  B13  1  0.13637574  0.51740779  0.37346251  1
  B  B14  1  0.40896945  0.60390926  0.87046561  1
  B  B15  1  0.85013924  0.47784358  0.61847712  1
  B  B16  1  0.58780618  0.39475635  0.12530688  1
  B  B17  1  0.34602058  0.98462593  0.63217094  1
  B  B18  1  0.11249474  0.89314603  0.11825121  1
  O  O19  1  0.13513744  0.13044556  0.90213540  1
  O  O20  1  0.47043472  0.12567806  0.67365212  1
  O  O21  1  0.24918956  0.01159723  0.09669070  1
  O  O22  1  0.57548378  0.13532607  0.33754514  1
  O  O23  1  0.84708132  0.02981758  0.43529288  1
  O  O24  1  0.78893002  0.20499866  0.82454604  1
  O  O25  1  0.30349699  0.46483661  0.85940692  1
  O  O26  1  0.03591669  0.36767595  0.32984996  1
  O  O27  1  0.69497425  0.29063921  0.17006306  1
  O  O28  1  0.63629650  0.47526531  0.56257359  1
  O  O29  1  0.93650589  0.34702155  0.63098907  1
  O  O30  1  0.39715953  0.34075992  0.05774144  1
  O  O31  1  0.60994803  0.65514169  0.93271876  1
  O  O32  1  0.37387129  0.52747814  0.41542596  1
  O  O33  1  0.31576200  0.70451188  0.81802054  1
  O  O34  1  0.96809467  0.62162255  0.66058089  1
  O  O35  1  0.66784180  0.54574896  0.15455296  1
  O  O36  1  0.21503139  0.79540659  0.16728727  1
  O  O37  1  0.13783734  0.98298986  0.57843675  1
  O  O38  1  0.43030243  0.85108101  0.64762198  1
  O  O39  1  0.01364529  0.64945300  0.37569868  1
  O  O40  1  0.75566382  0.98557583  0.89389421  1
  O  O41  1  0.55702510  0.86304805  0.32244880  1
  O  O42  1  0.87038322  0.86538378  0.08592561  1
