# generated using pymatgen
data_Li3MnV(PO4)3
_symmetry_space_group_name_H-M   'P 1'
_cell_length_a   8.66092888
_cell_length_b   8.75751261
_cell_length_c   15.10120033
_cell_angle_alpha   106.99001572
_cell_angle_beta   90.42905587
_cell_angle_gamma   61.54984514
_symmetry_Int_Tables_number   1
_chemical_formula_structural   Li3MnV(PO4)3
_chemical_formula_sum   'Li12 Mn4 V4 P12 O48'
_cell_volume   951.22845935
_cell_formula_units_Z   4
loop_
 _symmetry_equiv_pos_site_id
 _symmetry_equiv_pos_as_xyz
  1  'x, y, z'
loop_
 _atom_site_type_symbol
 _atom_site_label
 _atom_site_symmetry_multiplicity
 _atom_site_fract_x
 _atom_site_fract_y
 _atom_site_fract_z
 _atom_site_occupancy
  Li  Li0  1  0.30241345  0.74693227  0.31963686  1
  Li  Li1  1  0.18420912  0.70682816  0.55488163  1
  Li  Li2  1  0.68336688  0.70907001  0.05524910  1
  Li  Li3  1  0.17333115  0.24906321  0.18948328  1
  Li  Li4  1  0.21066441  0.67672424  0.82545381  1
  Li  Li5  1  0.71288719  0.67703866  0.32513908  1
  Li  Li6  1  0.26106289  0.20719687  0.63112082  1
  Li  Li7  1  0.76026477  0.20698082  0.13041983  1
  Li  Li8  1  0.80498006  0.74647230  0.81894840  1
  Li  Li9  1  0.67432806  0.24606221  0.68775819  1
  Li  Li10  1  0.36719930  0.17733197  0.98158773  1
  Li  Li11  1  0.86537780  0.17547761  0.48158411  1
  Mn  Mn12  1  0.28482491  0.85616219  0.07425544  1
  Mn  Mn13  1  0.03163429  0.35784791  0.82091699  1
  Mn  Mn14  1  0.78610052  0.85397594  0.57378445  1
  Mn  Mn15  1  0.97899710  0.63852991  0.17510153  1
  V  V16  1  0.47340072  0.64020553  0.67924598  1
  V  V17  1  0.53074441  0.35855916  0.32165960  1
  V  V18  1  0.21854571  0.14045637  0.42404381  1
  V  V19  1  0.71796254  0.14312573  0.92350079  1
  P  P20  1  0.01322531  0.95385211  0.73464928  1
  P  P21  1  0.51442497  0.95464026  0.23525875  1
  P  P22  1  0.02228615  0.26168253  0.02272768  1
  P  P23  1  0.09645828  0.53845595  0.37580436  1
  P  P24  1  0.40721839  0.45397949  0.12528771  1
  P  P25  1  0.47615891  0.75491235  0.47816411  1
  P  P26  1  0.52172387  0.25607614  0.52387217  1
  P  P27  1  0.59792319  0.54059939  0.87527853  1
  P  P28  1  0.90591798  0.45290297  0.62668633  1
  P  P29  1  0.97426304  0.75955280  0.97713044  1
  P  P30  1  0.48657313  0.04022297  0.76257884  1
  P  P31  1  0.98558952  0.03624288  0.26193129  1
  O  O32  1  0.02295510  0.83619427  0.23844781  1
  O  O33  1  0.45586892  0.91860489  0.13592626  1
  O  O34  1  0.40057833  0.94379565  0.30948223  1
  O  O35  1  0.01018064  0.68020521  0.47493776  1
  O  O36  1  0.29876851  0.91727326  0.47044514  1
  O  O37  1  0.36024053  0.64383260  0.12594260  1
  O  O38  1  0.23991240  0.43718789  0.14321853  1
  O  O39  1  0.26521808  0.54990408  0.35193146  1
  O  O40  1  0.20491768  0.79346306  0.72477909  1
  O  O41  1  0.70480663  0.79489089  0.22515789  1
  O  O42  1  0.20305153  0.11459517  0.03748892  1
  O  O43  1  0.15365176  0.33929697  0.37018858  1
  O  O44  1  0.10277471  0.04978564  0.18996167  1
  O  O45  1  0.01595235  0.29154476  0.53523544  1
  O  O46  1  0.12325450  0.81044752  0.99711996  1
  O  O47  1  0.42840796  0.69433536  0.55530944  1
  O  O48  1  0.51568603  0.29415524  0.03279958  1
  O  O49  1  0.02691667  0.41315116  0.70466303  1
  O  O50  1  0.04829318  0.60983176  0.87810067  1
  O  O51  1  0.62474436  0.80589023  0.49601006  1
  O  O52  1  0.92319596  0.69746885  0.05173699  1
  O  O53  1  0.03226142  0.08163211  0.36260321  1
  O  O54  1  0.52890504  0.41235096  0.20145385  1
  O  O55  1  0.54953532  0.60029162  0.37962573  1
  O  O56  1  0.52364631  0.84103394  0.73871317  1
  O  O57  1  0.49288929  0.14653994  0.25917507  1
  O  O58  1  0.43819957  0.42228022  0.61672686  1
  O  O59  1  0.93772163  0.43146617  0.11606895  1
  O  O60  1  0.95689402  0.91339753  0.63509948  1
  O  O61  1  0.46936880  0.58607861  0.80217197  1
  O  O62  1  0.06831284  0.30925424  0.93906858  1
  O  O63  1  0.38313712  0.19107740  0.50848099  1
  O  O64  1  0.96786807  0.58198602  0.30411053  1
  O  O65  1  0.56351273  0.30873746  0.44167643  1
  O  O66  1  0.88081328  0.20077479  0.00997902  1
  O  O67  1  0.90115715  0.94270399  0.80967672  1
  O  O68  1  0.50738437  0.68264572  0.97361877  1
  O  O69  1  0.79712846  0.92552806  0.97108164  1
  O  O70  1  0.86488265  0.64127832  0.62718114  1
  O  O71  1  0.29528250  0.18042393  0.75855346  1
  O  O72  1  0.79362028  0.17721473  0.25919155  1
  O  O73  1  0.73615151  0.44108533  0.64446617  1
  O  O74  1  0.76499813  0.55429353  0.85290631  1
  O  O75  1  0.70489869  0.10857558  0.53690506  1
  O  O76  1  0.65221985  0.34212734  0.86835423  1
  O  O77  1  0.60537120  0.05121696  0.69039520  1
  O  O78  1  0.53095881  0.08789337  0.86364888  1
  O  O79  1  0.99244709  0.14292971  0.75604602  1
