# generated using pymatgen
data_Li6MnV3(PO4)6
_symmetry_space_group_name_H-M   'P 1'
_cell_length_a   9.89396820
_cell_length_b   9.84847200
_cell_length_c   9.84316725
_cell_angle_alpha   87.50298547
_cell_angle_beta   86.96458458
_cell_angle_gamma   86.98584402
_symmetry_Int_Tables_number   1
_chemical_formula_structural   Li6MnV3(PO4)6
_chemical_formula_sum   'Li12 Mn2 V6 P12 O48'
_cell_volume   955.65197200
_cell_formula_units_Z   2
loop_
 _symmetry_equiv_pos_site_id
 _symmetry_equiv_pos_as_xyz
  1  'x, y, z'
loop_
 _atom_site_type_symbol
 _atom_site_label
 _atom_site_symmetry_multiplicity
 _atom_site_fract_x
 _atom_site_fract_y
 _atom_site_fract_z
 _atom_site_occupancy
  Li  Li0  1  0.00156852  0.04676607  0.98390549  1
  Li  Li1  1  0.05272994  0.73322520  0.14417164  1
  Li  Li2  1  0.13258156  0.07118348  0.73435905  1
  Li  Li3  1  0.22866827  0.55534005  0.64790536  1
  Li  Li4  1  0.27167578  0.84962669  0.94984679  1
  Li  Li5  1  0.36494233  0.76639885  0.42438275  1
  Li  Li6  1  0.44283994  0.35962185  0.76359248  1
  Li  Li7  1  0.49655892  0.51711249  0.45111719  1
  Li  Li8  1  0.64584475  0.23618015  0.54700802  1
  Li  Li9  1  0.77170504  0.46198925  0.34744497  1
  Li  Li10  1  0.73320331  0.14523897  0.04489421  1
  Li  Li11  1  0.85190701  0.95021108  0.26808572  1
  Mn  Mn12  1  0.47069736  0.02201136  0.24526145  1
  Mn  Mn13  1  0.97125117  0.75220467  0.53124765  1
  V  V14  1  0.03288487  0.25482563  0.47559086  1
  V  V15  1  0.25112505  0.24674922  0.25166001  1
  V  V16  1  0.25162619  0.46609096  0.03627674  1
  V  V17  1  0.53495424  0.96080982  0.74735754  1
  V  V18  1  0.74990151  0.53140528  0.97162139  1
  V  V19  1  0.75234342  0.74757939  0.75031390  1
  P  P20  1  0.05219221  0.66991723  0.85846559  1
  P  P21  1  0.13992260  0.94977315  0.33164182  1
  P  P22  1  0.17457268  0.55004194  0.35540856  1
  P  P23  1  0.32799455  0.14335993  0.95186797  1
  P  P24  1  0.35701901  0.16501350  0.54618041  1
  P  P25  1  0.44931716  0.64648190  0.82973503  1
  P  P26  1  0.54965366  0.34855641  0.17551225  1
  P  P27  1  0.64381042  0.82058576  0.44761691  1
  P  P28  1  0.67409514  0.85239388  0.04877666  1
  P  P29  1  0.83150649  0.45412292  0.64776620  1
  P  P30  1  0.85155752  0.04791397  0.67447872  1
  P  P31  1  0.95272494  0.32349194  0.15509424  1
  O  O32  1  0.03485602  0.61725464  0.40185139  1
  O  O33  1  0.04683778  0.90710433  0.22380576  1
  O  O34  1  0.11323837  0.32869809  0.12368304  1
  O  O35  1  0.12085787  0.11107368  0.33671067  1
  O  O36  1  0.09241985  0.69271461  0.70599397  1
  O  O37  1  0.09711279  0.88838246  0.47569241  1
  O  O38  1  0.09305027  0.78169878  0.94989173  1
  O  O39  1  0.11701087  0.52980957  0.90463858  1
  O  O40  1  0.17147221  0.39003631  0.38070142  1
  O  O41  1  0.19119934  0.58797449  0.20093171  1
  O  O42  1  0.20197185  0.19043713  0.58125667  1
  O  O43  1  0.20992495  0.06102641  0.91022728  1
  O  O44  1  0.33186332  0.11625180  0.11304270  1
  O  O45  1  0.28752507  0.59282987  0.44312207  1
  O  O46  1  0.29062899  0.90746093  0.30531032  1
  O  O47  1  0.31517587  0.29863404  0.91572940  1
  O  O48  1  0.38159415  0.15987909  0.38446914  1
  O  O49  1  0.38748050  0.37736236  0.17281755  1
  O  O50  1  0.39808906  0.02578281  0.61200007  1
  O  O51  1  0.37833785  0.60781945  0.96909586  1
  O  O52  1  0.40565165  0.55621150  0.71859155  1
  O  O53  1  0.44388039  0.27817494  0.58980400  1
  O  O54  1  0.41238484  0.80199466  0.80498595  1
  O  O55  1  0.46386433  0.08991236  0.88624037  1
  O  O56  1  0.53001966  0.89006252  0.11248859  1
  O  O57  1  0.58442618  0.19401218  0.17495256  1
  O  O58  1  0.59369975  0.41442764  0.30173006  1
  O  O59  1  0.55650834  0.70643481  0.41235377  1
  O  O60  1  0.60977999  0.40921147  0.03916245  1
  O  O61  1  0.59307111  0.96174676  0.38466308  1
  O  O62  1  0.60820994  0.62440059  0.83584935  1
  O  O63  1  0.62399793  0.82951030  0.61077296  1
  O  O64  1  0.69525993  0.08387571  0.68999551  1
  O  O65  1  0.70939618  0.70070566  0.07926381  1
  O  O66  1  0.72472226  0.40961987  0.55415118  1
  O  O67  1  0.67020620  0.87896067  0.88704599  1
  O  O68  1  0.77775493  0.94872537  0.09346540  1
  O  O69  1  0.79887828  0.42689561  0.80039661  1
  O  O70  1  0.79588644  0.80624825  0.40598020  1
  O  O71  1  0.83729891  0.61641218  0.61744201  1
  O  O72  1  0.88323669  0.46021723  0.10863119  1
  O  O73  1  0.90806011  0.19954876  0.08675768  1
  O  O74  1  0.89804515  0.11743423  0.53754495  1
  O  O75  1  0.92389127  0.31630687  0.31321978  1
  O  O76  1  0.87685757  0.88598350  0.66210191  1
  O  O77  1  0.93482355  0.08367961  0.79212177  1
  O  O78  1  0.89172451  0.66504069  0.87731555  1
  O  O79  1  0.97444633  0.39253125  0.60667543  1
