# generated using pymatgen
data_Li5Co3(SbO5)2
_symmetry_space_group_name_H-M   'P 1'
_cell_length_a   5.25597231
_cell_length_b   5.28696055
_cell_length_c   8.08824082
_cell_angle_alpha   106.78015708
_cell_angle_beta   103.28784375
_cell_angle_gamma   101.52906729
_symmetry_Int_Tables_number   1
_chemical_formula_structural   Li5Co3(SbO5)2
_chemical_formula_sum   'Li5 Co3 Sb2 O10'
_cell_volume   200.69601437
_cell_formula_units_Z   1
loop_
 _symmetry_equiv_pos_site_id
 _symmetry_equiv_pos_as_xyz
  1  'x, y, z'
loop_
 _atom_site_type_symbol
 _atom_site_label
 _atom_site_symmetry_multiplicity
 _atom_site_fract_x
 _atom_site_fract_y
 _atom_site_fract_z
 _atom_site_occupancy
  Li  Li0  1  0.23131663  0.89941193  0.39284222  1
  Li  Li1  1  0.41949938  0.29600770  0.80320813  1
  Li  Li2  1  0.50000000  0.50000000  0.50000000  1
  Li  Li3  1  0.58050062  0.70399230  0.19679187  1
  Li  Li4  1  0.76868337  0.10058807  0.60715778  1
  Co  Co5  1  0.00000000  0.50000000  0.00000000  1
  Co  Co6  1  0.73013978  0.90443159  0.90874318  1
  Co  Co7  1  0.26986022  0.09556841  0.09125682  1
  Sb  Sb8  1  0.11324241  0.70431391  0.69993709  1
  Sb  Sb9  1  0.88675759  0.29568609  0.30006291  1
  O  O10  1  0.05718843  0.06781589  0.82452980  1
  O  O11  1  0.33849274  0.68630493  0.93196497  1
  O  O12  1  0.13783929  0.32761966  0.54578612  1
  O  O13  1  0.21519869  0.49312414  0.24623639  1
  O  O14  1  0.44262728  0.89433706  0.65703070  1
  O  O15  1  0.55737272  0.10566294  0.34296930  1
  O  O16  1  0.78480131  0.50687586  0.75376361  1
  O  O17  1  0.86216071  0.67238034  0.45421388  1
  O  O18  1  0.66150726  0.31369507  0.06803503  1
  O  O19  1  0.94281157  0.93218411  0.17547020  1
