# generated using pymatgen
data_Li6MnV3(PO4)6
_symmetry_space_group_name_H-M   'P 1'
_cell_length_a   9.82312745
_cell_length_b   9.84397077
_cell_length_c   9.89290423
_cell_angle_alpha   87.38846339
_cell_angle_beta   86.96390240
_cell_angle_gamma   87.24129475
_symmetry_Int_Tables_number   1
_chemical_formula_structural   Li6MnV3(PO4)6
_chemical_formula_sum   'Li12 Mn2 V6 P12 O48'
_cell_volume   953.29222676
_cell_formula_units_Z   2
loop_
 _symmetry_equiv_pos_site_id
 _symmetry_equiv_pos_as_xyz
  1  'x, y, z'
loop_
 _atom_site_type_symbol
 _atom_site_label
 _atom_site_symmetry_multiplicity
 _atom_site_fract_x
 _atom_site_fract_y
 _atom_site_fract_z
 _atom_site_occupancy
  Li  Li0  1  0.00199573  0.04718351  0.98462224  1
  Li  Li1  1  0.05218132  0.73489639  0.14501680  1
  Li  Li2  1  0.13358340  0.06872559  0.73314028  1
  Li  Li3  1  0.22591789  0.55088958  0.64670535  1
  Li  Li4  1  0.27436215  0.85050148  0.95196945  1
  Li  Li5  1  0.36605084  0.76886568  0.43216759  1
  Li  Li6  1  0.44367943  0.35934295  0.76070289  1
  Li  Li7  1  0.49525280  0.51581044  0.45230548  1
  Li  Li8  1  0.64357174  0.23403408  0.54340563  1
  Li  Li9  1  0.77209120  0.46846988  0.34443531  1
  Li  Li10  1  0.73040639  0.14786521  0.03821059  1
  Li  Li11  1  0.85371787  0.95053354  0.26737879  1
  Mn  Mn12  1  0.25160862  0.47102223  0.03051617  1
  Mn  Mn13  1  0.97112591  0.75413924  0.53132814  1
  V  V14  1  0.03193874  0.25720666  0.47611324  1
  V  V15  1  0.24948390  0.25006731  0.25111012  1
  V  V16  1  0.46811177  0.02378781  0.24257269  1
  V  V17  1  0.53415708  0.96313860  0.74839289  1
  V  V18  1  0.75026727  0.52922299  0.97157968  1
  V  V19  1  0.75257538  0.74611679  0.75124701  1
  P  P20  1  0.05428092  0.66883286  0.85805387  1
  P  P21  1  0.14429006  0.95266968  0.33182785  1
  P  P22  1  0.17347425  0.55250681  0.35867910  1
  P  P23  1  0.32666910  0.14133187  0.95043252  1
  P  P24  1  0.35516910  0.16767223  0.54596601  1
  P  P25  1  0.44772875  0.64617621  0.82943800  1
  P  P26  1  0.54724312  0.34660556  0.17415420  1
  P  P27  1  0.64522057  0.82202043  0.45020288  1
  P  P28  1  0.67527797  0.85139269  0.04665731  1
  P  P29  1  0.82872154  0.45324398  0.64884999  1
  P  P30  1  0.85238744  0.04660988  0.67398606  1
  P  P31  1  0.95197001  0.32574598  0.15555421  1
  O  O32  1  0.03212676  0.61577334  0.40926569  1
  O  O33  1  0.05289276  0.90783903  0.22367202  1
  O  O34  1  0.11327965  0.33360581  0.12290989  1
  O  O35  1  0.12042693  0.11282346  0.33737939  1
  O  O36  1  0.09362784  0.69204666  0.70642925  1
  O  O37  1  0.10616556  0.88693625  0.47384970  1
  O  O38  1  0.09567491  0.77813360  0.95118493  1
  O  O39  1  0.12075052  0.52617506  0.90025978  1
  O  O40  1  0.17087205  0.39157877  0.38155927  1
  O  O41  1  0.18864208  0.59266746  0.20711709  1
  O  O42  1  0.19942566  0.19376538  0.58267582  1
  O  O43  1  0.20910878  0.05624793  0.90969290  1
  O  O44  1  0.32751075  0.11900515  0.11111316  1
  O  O45  1  0.28731074  0.59364798  0.44736824  1
  O  O46  1  0.29898264  0.91503271  0.30475569  1
  O  O47  1  0.31650534  0.29396748  0.90921845  1
  O  O48  1  0.37908631  0.16423036  0.38542222  1
  O  O49  1  0.38587918  0.37978141  0.16721984  1
  O  O50  1  0.39526769  0.02814852  0.61117599  1
  O  O51  1  0.37710517  0.61096255  0.97089991  1
  O  O52  1  0.40229226  0.55406067  0.72144398  1
  O  O53  1  0.44395125  0.28084753  0.58883526  1
  O  O54  1  0.41198502  0.80088315  0.80204984  1
  O  O55  1  0.46561975  0.08250451  0.89153024  1
  O  O56  1  0.53046768  0.89024917  0.10758287  1
  O  O57  1  0.57699065  0.18909482  0.17817267  1
  O  O58  1  0.59285303  0.41192653  0.29949226  1
  O  O59  1  0.55803707  0.70514749  0.41687191  1
  O  O60  1  0.61370837  0.39787037  0.03795501  1
  O  O61  1  0.59405253  0.96046944  0.38572655  1
  O  O62  1  0.60676198  0.62237150  0.83746308  1
  O  O63  1  0.62532213  0.83113734  0.61245172  1
  O  O64  1  0.69489123  0.08188081  0.68735567  1
  O  O65  1  0.70947696  0.69929641  0.07715550  1
  O  O66  1  0.72102968  0.40827165  0.55567450  1
  O  O67  1  0.67418237  0.87791214  0.88552726  1
  O  O68  1  0.78067519  0.94797372  0.09134801  1
  O  O69  1  0.79703158  0.42470657  0.80085046  1
  O  O70  1  0.79871764  0.80689244  0.40839493  1
  O  O71  1  0.83398190  0.61522581  0.61926346  1
  O  O72  1  0.88177390  0.46261765  0.11000088  1
  O  O73  1  0.90687565  0.20150181  0.08783114  1
  O  O74  1  0.89990453  0.11573534  0.53773009  1
  O  O75  1  0.92295797  0.31863868  0.31287191  1
  O  O76  1  0.87969191  0.88469148  0.66203436  1
  O  O77  1  0.93475333  0.08218778  0.79226711  1
  O  O78  1  0.89378750  0.66102152  0.87750624  1
  O  O79  1  0.97307136  0.39262657  0.60798256  1
