# generated using pymatgen
data_Li4V2(PO4)3
_symmetry_space_group_name_H-M   'P 1'
_cell_length_a   9.12292944
_cell_length_b   8.91985356
_cell_length_c   8.83391197
_cell_angle_alpha   58.12209460
_cell_angle_beta   58.91170794
_cell_angle_gamma   59.24398409
_symmetry_Int_Tables_number   1
_chemical_formula_structural   Li4V2(PO4)3
_chemical_formula_sum   'Li8 V4 P6 O24'
_cell_volume   493.80217125
_cell_formula_units_Z   2
loop_
 _symmetry_equiv_pos_site_id
 _symmetry_equiv_pos_as_xyz
  1  'x, y, z'
loop_
 _atom_site_type_symbol
 _atom_site_label
 _atom_site_symmetry_multiplicity
 _atom_site_fract_x
 _atom_site_fract_y
 _atom_site_fract_z
 _atom_site_occupancy
  Li  Li0  1  0.20948647  0.95233730  0.13212396  1
  Li  Li1  1  0.79394773  0.54766270  0.36787604  1
  Li  Li2  1  0.80674691  0.20108473  0.06480169  1
  Li  Li3  1  0.42741654  0.70110410  0.56484703  1
  Li  Li4  1  0.57263333  0.29891527  0.43519831  1
  Li  Li5  1  0.19336767  0.79889590  0.93515297  1
  Li  Li6  1  0.20617031  0.45280828  0.63162246  1
  Li  Li7  1  0.79060105  0.04719172  0.86837754  1
  V  V8  1  0.64046585  0.64526872  0.07472733  1
  V  V9  1  0.86046191  0.85473128  0.42527267  1
  V  V10  1  0.13946643  0.14524856  0.57482751  1
  V  V11  1  0.35954249  0.35475144  0.92517249  1
  P  P12  1  0.55392053  0.96078202  0.24545019  1
  P  P13  1  0.26015274  0.53921798  0.25454981  1
  P  P14  1  0.96476420  0.25000000  0.25000000  1
  P  P15  1  0.03512656  0.75000000  0.75000000  1
  P  P16  1  0.73979997  0.46071433  0.74557189  1
  P  P17  1  0.44608519  0.03928567  0.75442811  1
  O  O18  1  0.72655099  0.96927523  0.23379991  1
  O  O19  1  0.59069370  0.75636933  0.27355026  1
  O  O20  1  0.38528998  0.99297682  0.41875727  1
  O  O21  1  0.29702507  0.50702318  0.08124273  1
  O  O22  1  0.12061429  0.74363067  0.22644974  1
  O  O23  1  0.42962613  0.53072477  0.26620009  1
  O  O24  1  0.12960317  0.28437753  0.07283908  1
  O  O25  1  0.77832619  0.41008015  0.25296745  1
  O  O26  1  0.01327662  0.78416019  0.57292175  1
  O  O27  1  0.05867996  0.91005027  0.75298796  1
  O  O28  1  0.53240145  0.10445862  0.05126845  1
  O  O29  1  0.81182391  0.60442475  0.55126429  1
  O  O30  1  0.18812851  0.39554138  0.44873155  1
  O  O31  1  0.46751295  0.89557525  0.94873571  1
  O  O32  1  0.94137378  0.08991985  0.24703255  1
  O  O33  1  0.98682078  0.21562247  0.42716092  1
  O  O34  1  0.22171820  0.58994973  0.74701204  1
  O  O35  1  0.87035756  0.71583981  0.92707825  1
  O  O36  1  0.57021124  0.46937688  0.73395399  1
  O  O37  1  0.87921187  0.25626515  0.77364692  1
  O  O38  1  0.70311302  0.49297263  0.91867505  1
  O  O39  1  0.61476170  0.00702737  0.58132495  1
  O  O40  1  0.40912294  0.24373485  0.72635308  1
  O  O41  1  0.27354110  0.03062312  0.76604601  1
