# generated using pymatgen
data_Li3MnV(PO4)3
_symmetry_space_group_name_H-M   'P 1'
_cell_length_a   8.55907731
_cell_length_b   8.84110502
_cell_length_c   12.38573632
_cell_angle_alpha   89.84180944
_cell_angle_beta   87.53071675
_cell_angle_gamma   89.57388241
_symmetry_Int_Tables_number   1
_chemical_formula_structural   Li3MnV(PO4)3
_chemical_formula_sum   'Li12 Mn4 V4 P12 O48'
_cell_volume   936.35077884
_cell_formula_units_Z   4
loop_
 _symmetry_equiv_pos_site_id
 _symmetry_equiv_pos_as_xyz
  1  'x, y, z'
loop_
 _atom_site_type_symbol
 _atom_site_label
 _atom_site_symmetry_multiplicity
 _atom_site_fract_x
 _atom_site_fract_y
 _atom_site_fract_z
 _atom_site_occupancy
  Li  Li0  1  0.00759259  0.99839736  0.00132407  1
  Li  Li1  1  0.98744448  0.10975621  0.24681638  1
  Li  Li2  1  0.00167862  0.99657449  0.50575235  1
  Li  Li3  1  0.02509579  0.89335168  0.74237195  1
  Li  Li4  1  0.28168475  0.81144644  0.04721708  1
  Li  Li5  1  0.27237322  0.19154508  0.56198588  1
  Li  Li6  1  0.51023858  0.51539992  0.00342356  1
  Li  Li7  1  0.50514556  0.40493277  0.26499004  1
  Li  Li8  1  0.50926173  0.49376909  0.50305075  1
  Li  Li9  1  0.50273049  0.59730690  0.75721714  1
  Li  Li10  1  0.71087668  0.79943577  0.44378961  1
  Li  Li11  1  0.73695897  0.19236806  0.93736722  1
  Mn  Mn12  1  0.28853202  0.00570817  0.85496911  1
  Mn  Mn13  1  0.71479005  0.99764329  0.64318822  1
  Mn  Mn14  1  0.79203237  0.49962767  0.35428526  1
  Mn  Mn15  1  0.79083076  0.49820288  0.85437444  1
  V  V16  1  0.21109629  0.50063087  0.14457618  1
  V  V17  1  0.21633549  0.49939972  0.64393533  1
  V  V18  1  0.28478651  0.99752282  0.35529941  1
  V  V19  1  0.71488225  0.00278172  0.14164972  1
  P  P20  1  0.99721832  0.80459134  0.25011126  1
  P  P21  1  0.00958748  0.19575038  0.74869037  1
  P  P22  1  0.16491232  0.35457195  0.39579881  1
  P  P23  1  0.15501311  0.64362370  0.89292325  1
  P  P24  1  0.34555830  0.14725732  0.10590657  1
  P  P25  1  0.34610803  0.84679245  0.59667113  1
  P  P26  1  0.49519693  0.71079350  0.24754809  1
  P  P27  1  0.50854325  0.29051023  0.74791368  1
  P  P28  1  0.64851842  0.14125513  0.39797702  1
  P  P29  1  0.64353186  0.85889596  0.89714954  1
  P  P30  1  0.83792981  0.35972267  0.10505872  1
  P  P31  1  0.83927533  0.64245978  0.60957276  1
  O  O32  1  0.00237506  0.42198739  0.11445642  1
  O  O33  1  0.00587834  0.58190556  0.60983687  1
  O  O34  1  0.07167755  0.91942012  0.33123160  1
  O  O35  1  0.08275351  0.09180384  0.83861788  1
  O  O36  1  0.12103415  0.70424646  0.19108790  1
  O  O37  1  0.13451451  0.29644261  0.69158934  1
  O  O38  1  0.16225034  0.17531547  0.41260503  1
  O  O39  1  0.14081994  0.82088437  0.90390432  1
  O  O40  1  0.26026612  0.40362261  0.29315481  1
  O  O41  1  0.24931923  0.05047321  0.02871579  1
  O  O42  1  0.25829936  0.40545065  0.49459760  1
  O  O43  1  0.25257821  0.59566983  0.79034636  1
  O  O44  1  0.24888803  0.93005801  0.50794972  1
  O  O45  1  0.27232224  0.10539957  0.22014828  1
  O  O46  1  0.24938644  0.59276645  0.99153354  1
  O  O47  1  0.26358602  0.90040186  0.70288634  1
  O  O48  1  0.33121564  0.31958698  0.08506955  1
  O  O49  1  0.33769010  0.67257552  0.58122758  1
  O  O50  1  0.36504648  0.81422409  0.30225144  1
  O  O51  1  0.38744236  0.19462684  0.81040076  1
  O  O52  1  0.42541234  0.60466053  0.16112968  1
  O  O53  1  0.43744753  0.40208616  0.66471756  1
  O  O54  1  0.47739008  0.08019771  0.40205969  1
  O  O55  1  0.46654062  0.90157890  0.90631788  1
  O  O56  1  0.52168398  0.11112047  0.09879284  1
  O  O57  1  0.51946774  0.88593689  0.58674073  1
  O  O58  1  0.55886897  0.61328364  0.33923773  1
  O  O59  1  0.58105449  0.39379284  0.83590159  1
  O  O60  1  0.61329429  0.81125562  0.18745697  1
  O  O61  1  0.62733154  0.19246694  0.68264530  1
  O  O62  1  0.63254266  0.31309461  0.41258865  1
  O  O63  1  0.64253647  0.68653497  0.91505323  1
  O  O64  1  0.73482373  0.09707338  0.28959792  1
  O  O65  1  0.74975979  0.41395920  0.00299117  1
  O  O66  1  0.72140740  0.90857119  0.78790651  1
  O  O67  1  0.74600639  0.05581474  0.48394719  1
  O  O68  1  0.73098477  0.40211692  0.20274334  1
  O  O69  1  0.73880832  0.59232250  0.51587074  1
  O  O70  1  0.73960386  0.94809416  0.98070250  1
  O  O71  1  0.74712523  0.59770319  0.71583906  1
  O  O72  1  0.85739733  0.18328298  0.08919152  1
  O  O73  1  0.85549063  0.82111464  0.59794029  1
  O  O74  1  0.87072058  0.72306236  0.31684264  1
  O  O75  1  0.87859773  0.27961283  0.81130945  1
  O  O76  1  0.93269407  0.91233601  0.16043613  1
  O  O77  1  0.95447058  0.08449144  0.66171364  1
  O  O78  1  0.99644598  0.40265503  0.39431414  1
  O  O79  1  0.98898990  0.58289141  0.89149387  1
