# generated using pymatgen
data_Li2Mn2P3(HO4)3
_symmetry_space_group_name_H-M   'P 1'
_cell_length_a   12.87373087
_cell_length_b   12.19227328
_cell_length_c   7.24570444
_cell_angle_alpha   90.00000000
_cell_angle_beta   96.27897816
_cell_angle_gamma   90.00000000
_symmetry_Int_Tables_number   1
_chemical_formula_structural   Li2Mn2P3(HO4)3
_chemical_formula_sum   'Li8 Mn8 P12 H12 O48'
_cell_volume   1130.46368604
_cell_formula_units_Z   4
loop_
 _symmetry_equiv_pos_site_id
 _symmetry_equiv_pos_as_xyz
  1  'x, y, z'
loop_
 _atom_site_type_symbol
 _atom_site_label
 _atom_site_symmetry_multiplicity
 _atom_site_fract_x
 _atom_site_fract_y
 _atom_site_fract_z
 _atom_site_occupancy
  Li  Li0  1  0.19503980  0.35867601  0.51487110  1
  Li  Li1  1  0.19503980  0.14132399  0.01487110  1
  Li  Li2  1  0.26757330  0.62573092  0.91420013  1
  Li  Li3  1  0.26757330  0.87426908  0.41420013  1
  Li  Li4  1  0.73242670  0.12573092  0.58579987  1
  Li  Li5  1  0.73242670  0.37426908  0.08579987  1
  Li  Li6  1  0.80496020  0.85867601  0.98512890  1
  Li  Li7  1  0.80496020  0.64132399  0.48512890  1
  Mn  Mn8  1  0.03188179  0.58719780  0.83392406  1
  Mn  Mn9  1  0.03188179  0.91280220  0.33392406  1
  Mn  Mn10  1  0.34923184  0.94268697  0.86328664  1
  Mn  Mn11  1  0.34923184  0.55731303  0.36328664  1
  Mn  Mn12  1  0.65076816  0.44268697  0.63671336  1
  Mn  Mn13  1  0.65076816  0.05731303  0.13671336  1
  Mn  Mn14  1  0.96811821  0.08719780  0.66607594  1
  Mn  Mn15  1  0.96811821  0.41280220  0.16607594  1
  P  P16  1  0.15641394  0.81452660  0.00547773  1
  P  P17  1  0.15641394  0.68547340  0.50547773  1
  P  P18  1  0.17937529  0.09043632  0.59037868  1
  P  P19  1  0.17937529  0.40956368  0.09037868  1
  P  P20  1  0.43575523  0.36277585  0.61543395  1
  P  P21  1  0.43575523  0.13722415  0.11543395  1
  P  P22  1  0.56424477  0.86277585  0.88456605  1
  P  P23  1  0.56424477  0.63722415  0.38456605  1
  P  P24  1  0.82062471  0.59043632  0.90962132  1
  P  P25  1  0.82062471  0.90956368  0.40962132  1
  P  P26  1  0.84358606  0.31452660  0.49452227  1
  P  P27  1  0.84358606  0.18547340  0.99452227  1
  H  H28  1  0.08411834  0.84778815  0.72675853  1
  H  H29  1  0.08411834  0.65221185  0.22675853  1
  H  H30  1  0.31506307  0.21438479  0.59016843  1
  H  H31  1  0.31506307  0.28561521  0.09016843  1
  H  H32  1  0.46485424  0.17821669  0.82086335  1
  H  H33  1  0.46485424  0.32178331  0.32086335  1
  H  H34  1  0.53514576  0.67821669  0.67913665  1
  H  H35  1  0.53514576  0.82178331  0.17913665  1
  H  H36  1  0.68493693  0.71438479  0.90983157  1
  H  H37  1  0.68493693  0.78561521  0.40983157  1
  H  H38  1  0.91588166  0.34778815  0.77324147  1
  H  H39  1  0.91588166  0.15221185  0.27324147  1
  O  O40  1  0.07803977  0.87747683  0.85665353  1
  O  O41  1  0.08761982  0.43725204  0.94071583  1
  O  O42  1  0.07803977  0.62252317  0.35665353  1
  O  O43  1  0.12708498  0.11054811  0.77265729  1
  O  O44  1  0.08761982  0.06274796  0.44071583  1
  O  O45  1  0.10988630  0.80105684  0.53319818  1
  O  O46  1  0.16156454  0.61514809  0.68275748  1
  O  O47  1  0.12708498  0.38945189  0.27265729  1
  O  O48  1  0.10988630  0.69894316  0.03319818  1
  O  O49  1  0.16156454  0.88485191  0.18275748  1
  O  O50  1  0.22970994  0.29938942  0.03144657  1
  O  O51  1  0.22970994  0.20061058  0.53144657  1
  O  O52  1  0.26465654  0.80072317  0.93408272  1
  O  O53  1  0.26257845  0.99876760  0.61102008  1
  O  O54  1  0.26465654  0.69927683  0.43408272  1
  O  O55  1  0.26257845  0.50123240  0.11102008  1
  O  O56  1  0.33405026  0.43056494  0.56496414  1
  O  O57  1  0.40573795  0.24302466  0.65881188  1
  O  O58  1  0.33405026  0.06943506  0.06496414  1
  O  O59  1  0.40573795  0.25697534  0.15881188  1
  O  O60  1  0.48384782  0.90913223  0.73499244  1
  O  O61  1  0.49792427  0.13466254  0.93394632  1
  O  O62  1  0.48384782  0.59086777  0.23499244  1
  O  O63  1  0.49792427  0.36533746  0.43394632  1
  O  O64  1  0.50207573  0.63466254  0.56605368  1
  O  O65  1  0.51615218  0.40913223  0.76500756  1
  O  O66  1  0.50207573  0.86533746  0.06605368  1
  O  O67  1  0.51615218  0.09086677  0.26500756  1
  O  O68  1  0.59426205  0.74302466  0.84118812  1
  O  O69  1  0.66594974  0.93056494  0.93503586  1
  O  O70  1  0.59426205  0.75697534  0.34118812  1
  O  O71  1  0.66594974  0.56943506  0.43503586  1
  O  O72  1  0.73742155  0.49876760  0.88897992  1
  O  O73  1  0.73534346  0.30072317  0.56591728  1
  O  O74  1  0.73742155  0.00123240  0.38897992  1
  O  O75  1  0.73534346  0.19927683  0.06591728  1
  O  O76  1  0.77029006  0.79938942  0.46855343  1
  O  O77  1  0.77029006  0.70061058  0.96855343  1
  O  O78  1  0.83843546  0.11514809  0.81724252  1
  O  O79  1  0.89011370  0.30105684  0.96680182  1
  O  O80  1  0.87291502  0.61054811  0.72734271  1
  O  O81  1  0.83843546  0.38485191  0.31724252  1
  O  O82  1  0.89011370  0.19894316  0.46680182  1
  O  O83  1  0.91238018  0.93725204  0.55928417  1
  O  O84  1  0.87291502  0.88945189  0.22734271  1
  O  O85  1  0.92196023  0.37747683  0.64334647  1
  O  O86  1  0.91238018  0.56274796  0.05928417  1
  O  O87  1  0.92196023  0.12252317  0.14334647  1
