# generated using pymatgen
data_Li2Mn3P5O18
_symmetry_space_group_name_H-M   'P 1'
_cell_length_a   4.86815424
_cell_length_b   12.75287138
_cell_length_c   12.58071873
_cell_angle_alpha   87.74317951
_cell_angle_beta   90.00000000
_cell_angle_gamma   78.99672732
_symmetry_Int_Tables_number   1
_chemical_formula_structural   Li2Mn3P5O18
_chemical_formula_sum   'Li4 Mn6 P10 O36'
_cell_volume   766.07233028
_cell_formula_units_Z   2
loop_
 _symmetry_equiv_pos_site_id
 _symmetry_equiv_pos_as_xyz
  1  'x, y, z'
loop_
 _atom_site_type_symbol
 _atom_site_label
 _atom_site_symmetry_multiplicity
 _atom_site_fract_x
 _atom_site_fract_y
 _atom_site_fract_z
 _atom_site_occupancy
  Li  Li0  1  0.51128952  0.68782536  0.86473562  1
  Li  Li1  1  0.80088512  0.68782536  0.36473562  1
  Li  Li2  1  0.19911488  0.31217464  0.63526438  1
  Li  Li3  1  0.48871048  0.31217464  0.13526438  1
  Mn  Mn4  1  0.17025416  0.60364277  0.62026972  1
  Mn  Mn5  1  0.22610307  0.60364277  0.12026972  1
  Mn  Mn6  1  0.77389693  0.39635723  0.87973028  1
  Mn  Mn7  1  0.82974584  0.39635723  0.37973028  1
  Mn  Mn8  1  0.50000000  0.00000000  0.50000000  1
  Mn  Mn9  1  0.50000000  0.00000000  -0.00000000  1
  P  P10  1  0.06654251  0.86373258  0.58768016  1
  P  P11  1  0.06972491  0.86373258  0.08768016  1
  P  P12  1  0.15726001  0.54965897  0.87218795  1
  P  P13  1  0.29308001  0.54965897  0.37218795  1
  P  P14  1  0.70691999  0.45034103  0.62781205  1
  P  P15  1  0.84273999  0.45034103  0.12781205  1
  P  P16  1  0.93027509  0.13626742  0.91231984  1
  P  P17  1  0.93345749  0.13626742  0.41231984  1
  P  P18  1  0.73527954  0.00000000  0.75000000  1
  P  P19  1  0.26472046  1.00000000  0.25000000  1
  O  O20  1  0.61366582  0.93805452  0.83617710  1
  O  O21  1  0.22307669  0.91182457  0.99729074  1
  O  O22  1  0.44827966  0.93805452  0.33617710  1
  O  O23  1  0.99652278  0.92455022  0.69540566  1
  O  O24  1  0.86509875  0.91182457  0.49729074  1
  O  O25  1  0.07892699  0.92455022  0.19540566  1
  O  O26  1  0.36796998  0.86961275  0.56001759  1
  O  O27  1  0.76241727  0.86961275  0.06001759  1
  O  O28  1  0.02267237  0.75057608  0.61902477  1
  O  O29  1  0.22675054  0.75057608  0.11902477  1
  O  O30  1  0.23026559  0.61849461  0.96410454  1
  O  O31  1  0.23464836  0.61673686  0.77384975  1
  O  O32  1  0.15123880  0.61849461  0.46410454  1
  O  O33  1  0.14861479  0.61673686  0.27384975  1
  O  O34  1  0.75509289  0.56525502  0.62383294  1
  O  O35  1  0.83569507  0.54689957  0.87436203  1
  O  O36  1  0.67965209  0.56525502  0.12383294  1
  O  O37  1  0.61740536  0.54689957  0.37436203  1
  O  O38  1  0.38259464  0.45310043  0.62563797  1
  O  O39  1  0.32034791  0.43474498  0.87616706  1
  O  O40  1  0.16430493  0.45310043  0.12563797  1
  O  O41  1  0.24490711  0.43474498  0.37616706  1
  O  O42  1  0.85138521  0.38326314  0.72615025  1
  O  O43  1  0.84876120  0.38150539  0.53589546  1
  O  O44  1  0.76535164  0.38326314  0.22615025  1
  O  O45  1  0.76973441  0.38150539  0.03589546  1
  O  O46  1  0.77324946  0.24942392  0.88097523  1
  O  O47  1  0.97732763  0.24942392  0.38097523  1
  O  O48  1  0.23758273  0.13038725  0.93998241  1
  O  O49  1  0.63203002  0.13038725  0.43998241  1
  O  O50  1  0.92107301  0.07544978  0.80459434  1
  O  O51  1  0.13490125  0.08817543  0.50270926  1
  O  O52  1  0.00347722  0.07544978  0.30459434  1
  O  O53  1  0.55172034  0.06194548  0.66382290  1
  O  O54  1  0.77692331  0.08817543  0.00270926  1
  O  O55  1  0.38633418  0.06194548  0.16382290  1
