# generated using pymatgen
data_Li(FeO2)2
_symmetry_space_group_name_H-M   'P 1'
_cell_length_a   8.42692711
_cell_length_b   8.40716778
_cell_length_c   8.44235165
_cell_angle_alpha   90.13917768
_cell_angle_beta   89.81212366
_cell_angle_gamma   90.12142423
_symmetry_Int_Tables_number   1
_chemical_formula_structural   Li(FeO2)2
_chemical_formula_sum   'Li8 Fe16 O32'
_cell_volume   598.10551343
_cell_formula_units_Z   8
loop_
 _symmetry_equiv_pos_site_id
 _symmetry_equiv_pos_as_xyz
  1  'x, y, z'
loop_
 _atom_site_type_symbol
 _atom_site_label
 _atom_site_symmetry_multiplicity
 _atom_site_fract_x
 _atom_site_fract_y
 _atom_site_fract_z
 _atom_site_occupancy
  Li  Li0  1  0.12326259  0.87944562  0.37622158  1
  Li  Li1  1  0.25052097  0.74863001  0.75013423  1
  Li  Li2  1  0.25148605  0.25131588  0.24988470  1
  Li  Li3  1  0.37988733  0.12525242  0.87522616  1
  Li  Li4  1  0.62371294  0.62133415  0.62513270  1
  Li  Li5  1  0.74662152  0.75219342  0.24579586  1
  Li  Li6  1  0.74988807  0.24942640  0.74928378  1
  Li  Li7  1  0.87509076  0.37478168  0.12125382  1
  Fe  Fe8  1  0.00196646  0.49530515  0.50434827  1
  Fe  Fe9  1  0.11558579  0.62236261  0.12795950  1
  Fe  Fe10  1  0.12249781  0.37495836  0.88459379  1
  Fe  Fe11  1  0.12427724  0.11641826  0.62201021  1
  Fe  Fe12  1  0.37163231  0.88426212  0.12346741  1
  Fe  Fe13  1  0.37960391  0.62763981  0.38291138  1
  Fe  Fe14  1  0.38552816  0.37807686  0.62553861  1
  Fe  Fe15  1  0.49723123  0.50183224  0.00260972  1
  Fe  Fe16  1  0.50333932  0.00281269  0.50086013  1
  Fe  Fe17  1  0.61672270  0.87542850  0.87424395  1
  Fe  Fe18  1  0.62243041  0.12590772  0.11446625  1
  Fe  Fe19  1  0.62548798  0.38420741  0.37710842  1
  Fe  Fe20  1  0.87428774  0.61421409  0.87813288  1
  Fe  Fe21  1  0.87845052  0.87409662  0.61572132  1
  Fe  Fe22  1  0.88333715  0.12212182  0.37569368  1
  Fe  Fe23  1  0.99504371  -0.00017508  -0.00208776  1
  O  O24  1  0.10747580  0.12750540  0.38757490  1
  O  O25  1  0.11081181  0.89133957  0.62719745  1
  O  O26  1  0.11388278  0.61299315  0.88692789  1
  O  O27  1  0.12535016  0.38718239  0.10713644  1
  O  O28  1  0.12107761  0.13772042  0.86604921  1
  O  O29  1  0.13904987  0.36300856  0.63823879  1
  O  O30  1  0.13028160  0.62107255  0.36554987  1
  O  O31  1  0.13536038  0.86938642  0.11976942  1
  O  O32  1  0.36597704  0.14042285  0.62304921  1
  O  O33  1  0.36573164  0.38016718  0.86129224  1
  O  O34  1  0.36443349  0.63569695  0.13683330  1
  O  O35  1  0.37855273  0.86556857  0.36903488  1
  O  O36  1  0.37707800  0.60278056  0.61302685  1
  O  O37  1  0.38612107  0.38618886  0.38921755  1
  O  O38  1  0.39810047  0.11430064  0.12284831  1
  O  O39  1  0.39517370  0.87473917  0.88848391  1
  O  O40  1  0.60673671  0.37317317  0.61310128  1
  O  O41  1  0.61357151  0.60959604  0.37377885  1
  O  O42  1  0.61355634  0.89096406  0.11288066  1
  O  O43  1  0.62991843  0.10899546  0.89119911  1
  O  O44  1  0.62181632  0.36017661  0.13132494  1
  O  O45  1  0.63814881  0.13452320  0.36249693  1
  O  O46  1  0.63342877  0.87664276  0.63839076  1
  O  O47  1  0.63549387  0.63425394  0.88048028  1
  O  O48  1  0.86441404  0.36149797  0.37879537  1
  O  O49  1  0.85849128  0.12435072  0.13288150  1
  O  O50  1  0.86093154  0.86135851  0.86583932  1
  O  O51  1  0.87730511  0.63329021  0.63861145  1
  O  O52  1  0.87375191  0.89419244  0.38714719  1
  O  O53  1  0.88494091  0.11349461  0.61541428  1
  O  O54  1  0.88904552  0.39084161  0.87134464  1
  O  O55  1  0.88609811  0.62080570  0.10365264  1
