# generated using pymatgen
data_Li2V2F7
_symmetry_space_group_name_H-M   'P 1'
_cell_length_a   7.88246466
_cell_length_b   13.01164417
_cell_length_c   4.90819045
_cell_angle_alpha   90.00000000
_cell_angle_beta   90.00000000
_cell_angle_gamma   93.25272752
_symmetry_Int_Tables_number   1
_chemical_formula_structural   Li2V2F7
_chemical_formula_sum   'Li8 V8 F28'
_cell_volume   502.59179114
_cell_formula_units_Z   4
loop_
 _symmetry_equiv_pos_site_id
 _symmetry_equiv_pos_as_xyz
  1  'x, y, z'
loop_
 _atom_site_type_symbol
 _atom_site_label
 _atom_site_symmetry_multiplicity
 _atom_site_fract_x
 _atom_site_fract_y
 _atom_site_fract_z
 _atom_site_occupancy
  Li  Li0  1  0.01578052  0.84454050  0.28968663  1
  Li  Li1  1  0.06302055  0.31265967  0.26771369  1
  Li  Li2  1  0.28609443  0.73375375  0.75649425  1
  Li  Li3  1  0.44003714  0.90883369  0.27569614  1
  Li  Li4  1  0.55996286  0.09116631  0.77569614  1
  Li  Li5  1  0.71390557  0.26624625  0.25649425  1
  Li  Li6  1  0.93697945  0.68734033  0.76771369  1
  Li  Li7  1  0.98421948  0.15545950  0.78968663  1
  V  V8  1  0.17127724  0.95164459  0.78811077  1
  V  V9  1  0.17231602  0.54177258  0.26948956  1
  V  V10  1  0.34130088  0.16850538  0.26341728  1
  V  V11  1  0.42768147  0.38728622  0.76714486  1
  V  V12  1  0.57231853  0.61271378  0.26714486  1
  V  V13  1  0.65869912  0.83149462  0.76341728  1
  V  V14  1  0.82768398  0.45822742  0.76948956  1
  V  V15  1  0.82872276  0.04835541  0.28811077  1
  F  F16  1  0.02351138  0.43774033  0.50316072  1
  F  F17  1  0.08583116  0.80559477  0.93908208  1
  F  F18  1  0.05738900  0.01681819  0.11901490  1
  F  F19  1  0.12736341  0.65319116  0.52364922  1
  F  F20  1  0.15596298  0.20919571  0.03618312  1
  F  F21  1  0.23659845  0.87128104  0.45256540  1
  F  F22  1  0.22676939  0.42398845  0.03362590  1
  F  F23  1  0.25201188  0.08991591  0.57504410  1
  F  F24  1  0.28565123  0.29318026  0.48837097  1
  F  F25  1  0.33921271  0.63262130  0.05249966  1
  F  F26  1  0.43133272  0.84480576  0.93106458  1
  F  F27  1  0.38722102  0.51567738  0.49606470  1
  F  F28  1  0.39955906  0.04032216  0.05030780  1
  F  F29  1  0.51206826  0.74082994  0.51410466  1
  F  F30  1  0.48793174  0.25917006  0.01410466  1
  F  F31  1  0.60044094  0.95967784  0.55030780  1
  F  F32  1  0.61277898  0.48432262  0.99606470  1
  F  F33  1  0.56866728  0.15519424  0.43106458  1
  F  F34  1  0.66078729  0.36737870  0.55249966  1
  F  F35  1  0.71434877  0.70681974  0.98837097  1
  F  F36  1  0.74798812  0.91008409  0.07504410  1
  F  F37  1  0.77323061  0.57601155  0.53362590  1
  F  F38  1  0.76340155  0.12871896  0.95256540  1
  F  F39  1  0.84403702  0.79080429  0.53618312  1
  F  F40  1  0.87263659  0.34680884  0.02364922  1
  F  F41  1  0.94261100  0.98318181  0.61901490  1
  F  F42  1  0.91416884  0.19440523  0.43908208  1
  F  F43  1  0.97648762  0.56225967  0.00316072  1
