# generated using pymatgen
data_Li3MnV(PO4)3
_symmetry_space_group_name_H-M   'P 1'
_cell_length_a   8.68138058
_cell_length_b   8.69823510
_cell_length_c   15.18545516
_cell_angle_alpha   106.76306121
_cell_angle_beta   90.58582971
_cell_angle_gamma   61.31770492
_symmetry_Int_Tables_number   1
_chemical_formula_structural   Li3MnV(PO4)3
_chemical_formula_sum   'Li12 Mn4 V4 P12 O48'
_cell_volume   951.95597711
_cell_formula_units_Z   4
loop_
 _symmetry_equiv_pos_site_id
 _symmetry_equiv_pos_as_xyz
  1  'x, y, z'
loop_
 _atom_site_type_symbol
 _atom_site_label
 _atom_site_symmetry_multiplicity
 _atom_site_fract_x
 _atom_site_fract_y
 _atom_site_fract_z
 _atom_site_occupancy
  Li  Li0  1  0.30168419  0.74836820  0.31816606  1
  Li  Li1  1  0.18356478  0.70796531  0.55508894  1
  Li  Li2  1  0.68371182  0.70627833  0.05549072  1
  Li  Li3  1  0.17302680  0.24823101  0.18782745  1
  Li  Li4  1  0.21320577  0.67669598  0.82469406  1
  Li  Li5  1  0.71150826  0.67663431  0.32580640  1
  Li  Li6  1  0.26081417  0.20742631  0.63073663  1
  Li  Li7  1  0.75969640  0.20986054  0.13068780  1
  Li  Li8  1  0.79860145  0.75086592  0.81881861  1
  Li  Li9  1  0.67193632  0.24849846  0.68934911  1
  Li  Li10  1  0.36863841  0.17471182  0.98032861  1
  Li  Li11  1  0.86592132  0.17708049  0.48154397  1
  Mn  Mn12  1  0.28404423  0.85725297  0.07382202  1
  Mn  Mn13  1  0.78365661  0.85691285  0.57375739  1
  Mn  Mn14  1  0.47880780  0.63748655  0.67538159  1
  Mn  Mn15  1  0.72501971  0.13906175  0.92342596  1
  V  V16  1  0.03145513  0.35676690  0.82144476  1
  V  V17  1  0.53186819  0.35927891  0.32079132  1
  V  V18  1  0.21773647  0.14328180  0.42383319  1
  V  V19  1  0.97385748  0.64268264  0.17924908  1
  P  P20  1  0.01554958  0.95197740  0.73437169  1
  P  P21  1  0.51348536  0.95530295  0.23524176  1
  P  P22  1  0.02238779  0.25636039  0.02450904  1
  P  P23  1  0.09832185  0.54114214  0.37512653  1
  P  P24  1  0.40521229  0.45433366  0.12440828  1
  P  P25  1  0.47551022  0.75582484  0.47679188  1
  P  P26  1  0.52167767  0.26008837  0.52434826  1
  P  P27  1  0.59909899  0.53499437  0.87655381  1
  P  P28  1  0.90638695  0.45380024  0.62521119  1
  P  P29  1  0.97566392  0.75779711  0.97726337  1
  P  P30  1  0.48447860  0.03701804  0.76263849  1
  P  P31  1  0.98622917  0.04316082  0.26354696  1
  O  O32  1  0.02430010  0.84204987  0.23922420  1
  O  O33  1  0.45615949  0.91747497  0.13647512  1
  O  O34  1  0.40342302  0.94261536  0.30971552  1
  O  O35  1  0.00940945  0.68214505  0.47257218  1
  O  O36  1  0.29902524  0.92151620  0.46866952  1
  O  O37  1  0.35958896  0.64706598  0.12542598  1
  O  O38  1  0.23493040  0.44451621  0.14450905  1
  O  O39  1  0.26666798  0.55182450  0.35207334  1
  O  O40  1  0.20817987  0.79238283  0.72352781  1
  O  O41  1  0.70611086  0.79447555  0.22456904  1
  O  O42  1  0.20700159  0.10617728  0.03732564  1
  O  O43  1  0.15250246  0.34086070  0.36831798  1
  O  O44  1  0.10118797  0.05797459  0.19283524  1
  O  O45  1  0.01557164  0.29318506  0.53372257  1
  O  O46  1  0.12516170  0.80689773  0.99515556  1
  O  O47  1  0.42383947  0.69594049  0.55153118  1
  O  O48  1  0.51209876  0.29328553  0.03391904  1
  O  O49  1  0.02660790  0.41344088  0.70207293  1
  O  O50  1  0.04639526  0.60324762  0.88010405  1
  O  O51  1  0.62455298  0.80651424  0.49561758  1
  O  O52  1  0.92387361  0.70110167  0.05449190  1
  O  O53  1  0.03134810  0.08777419  0.36415975  1
  O  O54  1  0.52580425  0.41544611  0.20150789  1
  O  O55  1  0.55000243  0.60247714  0.37857585  1
  O  O56  1  0.52298129  0.83421600  0.73726647  1
  O  O57  1  0.49281603  0.14690011  0.25926668  1
  O  O58  1  0.43864450  0.42860813  0.61747502  1
  O  O59  1  0.94182271  0.42360946  0.11634959  1
  O  O60  1  0.95533656  0.91882084  0.63569082  1
  O  O61  1  0.47159082  0.57647135  0.80439612  1
  O  O62  1  0.06404114  0.30842971  0.94214484  1
  O  O63  1  0.38036853  0.19899894  0.51110232  1
  O  O64  1  0.97026235  0.58677597  0.30211665  1
  O  O65  1  0.56490754  0.31101525  0.44237812  1
  O  O66  1  0.88358460  0.19299869  0.01190365  1
  O  O67  1  0.90651638  0.93532526  0.80737440  1
  O  O68  1  0.51442479  0.67633497  0.97432925  1
  O  O69  1  0.79626239  0.92434101  0.96910744  1
  O  O70  1  0.86012983  0.64498685  0.62537131  1
  O  O71  1  0.29142521  0.17844971  0.75911605  1
  O  O72  1  0.79270550  0.18304587  0.26107460  1
  O  O73  1  0.73881265  0.43790668  0.64275287  1
  O  O74  1  0.76779414  0.54528627  0.85189609  1
  O  O75  1  0.70352181  0.10994906  0.53834066  1
  O  O76  1  0.65501778  0.33240041  0.86997547  1
  O  O77  1  0.60015248  0.05214951  0.69156213  1
  O  O78  1  0.53059679  0.07791088  0.86225318  1
  O  O79  1  0.99278400  0.14536392  0.75940341  1
