# generated using pymatgen
data_Li19Mn8C16(SO16)4
_symmetry_space_group_name_H-M   'P 1'
_cell_length_a   9.55840556
_cell_length_b   9.45927204
_cell_length_c   16.55785650
_cell_angle_alpha   89.74526042
_cell_angle_beta   72.46087473
_cell_angle_gamma   119.71253598
_symmetry_Int_Tables_number   1
_chemical_formula_structural   Li19Mn8C16(SO16)4
_chemical_formula_sum   'Li19 Mn8 C16 S4 O64'
_cell_volume   1218.23620131
_cell_formula_units_Z   1
loop_
 _symmetry_equiv_pos_site_id
 _symmetry_equiv_pos_as_xyz
  1  'x, y, z'
loop_
 _atom_site_type_symbol
 _atom_site_label
 _atom_site_symmetry_multiplicity
 _atom_site_fract_x
 _atom_site_fract_y
 _atom_site_fract_z
 _atom_site_occupancy
  Li  Li0  1  0.08338430  0.09492097  0.32814351  1
  Li  Li1  1  0.34233320  0.13250106  0.46272399  1
  Li  Li2  1  0.07668317  0.99244524  0.83634202  1
  Li  Li3  1  0.08315703  0.49110730  0.33236402  1
  Li  Li4  1  0.67119521  0.08753567  0.33111413  1
  Li  Li5  1  0.66916501  0.38627239  0.03918008  1
  Li  Li6  1  0.92679478  0.43114652  0.15709076  1
  Li  Li7  1  0.65457742  0.77698174  0.04140469  1
  Li  Li8  1  0.32818939  0.69069486  0.45680036  1
  Li  Li9  1  0.32221028  0.19526449  0.96304073  1
  Li  Li10  1  0.31268115  0.62441943  0.95791994  1
  Li  Li11  1  0.32972783  0.91470475  0.67212119  1
  Li  Li12  1  0.91732417  0.48998973  0.66694405  1
  Li  Li13  1  0.92272671  0.99641151  0.15956591  1
  Li  Li14  1  0.67049744  0.58668846  0.83575234  1
  Li  Li15  1  0.91483384  0.70188926  0.45388585  1
  Li  Li16  1  0.66769212  0.88651883  0.53804988  1
  Li  Li17  1  0.91462933  0.21085697  0.95578987  1
  Li  Li18  1  0.90772476  0.92858788  0.66294903  1
  Mn  Mn19  1  0.50157060  0.00218744  0.00075605  1
  Mn  Mn20  1  0.50005231  0.25433213  0.25187439  1
  Mn  Mn21  1  0.00775894  0.75275233  0.24808605  1
  Mn  Mn22  1  0.00054720  0.25182701  0.74986606  1
  Mn  Mn23  1  0.50338996  0.75083551  0.25048311  1
  Mn  Mn24  1  0.50031673  0.49525953  0.50202958  1
  Mn  Mn25  1  0.50010468  0.24769977  0.74987061  1
  Mn  Mn26  1  0.49483825  0.75072575  0.75119718  1
  C  C27  1  0.28809313  0.09389965  0.14032128  1
  C  C28  1  0.67547977  0.09094921  0.13666463  1
  C  C29  1  0.33644657  0.41455756  0.36675041  1
  C  C30  1  0.28503493  0.69136845  0.14254067  1
  C  C31  1  0.26632750  0.18513501  0.64563335  1
  C  C32  1  0.72009959  0.11579423  0.66901887  1
  C  C33  1  0.71856696  0.41411391  0.36120250  1
  C  C34  1  0.72996581  0.62352353  0.16967116  1
  C  C35  1  0.28613666  0.58458653  0.63511473  1
  C  C36  1  0.27248569  0.88101664  0.33881423  1
  C  C37  1  0.28049334  0.38348685  0.83271697  1
  C  C38  1  0.72893811  0.31210464  0.85796028  1
  C  C39  1  0.71865712  0.80916174  0.36094554  1
  C  C40  1  0.66238156  0.58010694  0.63952503  1
  C  C41  1  0.34125267  0.92176220  0.85945453  1
  C  C42  1  0.72368319  0.91486216  0.86245987  1
  S  S43  1  0.11876331  0.30851485  0.05751374  1
  S  S44  1  0.12175748  0.80992697  0.56371419  1
  S  S45  1  0.87265806  0.18179162  0.43034671  1
  S  S46  1  0.86358182  0.68691378  0.93742769  1
  O  O47  1  0.05025515  0.14580638  0.02688480  1
  O  O48  1  0.14576326  0.02510166  0.20444762  1
  O  O49  1  0.29725236  0.04345781  0.06753313  1
  O  O50  1  0.05842883  0.40942652  0.02463820  1
  O  O51  1  0.04779259  0.27526938  0.15301080  1
  O  O52  1  0.28636135  0.02340902  0.33984423  1
  O  O53  1  0.30940790  0.39865842  0.02042029  1
  O  O54  1  0.42937421  0.21400725  0.14658726  1
  O  O55  1  0.67931746  0.15372609  0.06562524  1
  O  O56  1  0.12863590  0.19287517  0.65505383  1
  O  O57  1  0.32108970  0.32739691  0.30655885  1
  O  O58  1  0.13677968  0.66515087  0.14834299  1
  O  O59  1  0.67090687  0.16446338  0.20283305  1
  O  O60  1  0.30166176  0.65410848  0.21441256  1
  O  O61  1  0.36356131  0.36567004  0.43112831  1
  O  O62  1  0.27488085  0.11316163  0.70908233  1
  O  O63  1  0.13874300  0.25239513  0.83600609  1
  O  O64  1  0.12813828  0.74997016  0.34479739  1
  O  O65  1  0.58952721  0.27451204  0.35781330  1
  O  O66  1  0.32665987  0.54491451  0.36293572  1
  O  O67  1  0.34235817  0.06287723  0.85715960  1
  O  O68  1  0.41236348  0.75356343  0.07069540  1
  O  O69  1  0.38647731  0.24646831  0.57207116  1
  O  O70  1  0.68034923  0.07795471  0.46391840  1
  O  O71  1  0.06023441  0.64844012  0.53228511  1
  O  O72  1  0.71985075  0.48185384  0.16636687  1
  O  O73  1  0.14129874  0.50163201  0.69855066  1
  O  O74  1  0.59472597  0.63054856  0.17182330  1
  O  O75  1  0.57885759  0.11633014  0.67812964  1
  O  O76  1  0.30662188  0.52250078  0.56519240  1
  O  O77  1  0.06264502  0.77630870  0.65962663  1
  O  O78  1  0.04999675  0.90208674  0.53502465  1
  O  O79  1  0.93831984  0.08606074  0.46117095  1
  O  O80  1  0.93189883  0.20505467  0.33279355  1
  O  O81  1  0.70177323  0.48809831  0.42683551  1
  O  O82  1  0.41856530  0.37445463  0.82393149  1
  O  O83  1  0.40763285  0.87066631  0.33310207  1
  O  O84  1  0.86463185  0.48264888  0.30011168  1
  O  O85  1  0.29468697  0.52370795  0.83884533  1
  O  O86  1  0.31353571  0.91101175  0.52705352  1
  O  O87  1  0.93840107  0.34749028  0.45354486  1
  O  O88  1  0.65083791  0.43831549  0.64832508  1
  O  O89  1  0.58909549  0.74153313  0.43210245  1
  O  O90  1  0.67693705  0.95559273  0.14176739  1
  O  O91  1  0.60581535  0.25401704  0.93160651  1
  O  O92  1  0.86544630  0.75272537  0.17146831  1
  O  O93  1  0.40540714  0.72758532  0.63970140  1
  O  O94  1  0.85172984  0.24512425  0.67415562  1
  O  O95  1  0.65785658  0.63417621  0.56730151  1
  O  O96  1  0.70324779  0.86580230  0.29286203  1
  O  O97  1  0.72629054  0.38876616  0.79446088  1
  O  O98  1  0.33169464  0.84863376  0.79494732  1
  O  O99  1  0.86346829  0.82540628  0.35441322  1
  O  O100  1  0.85590814  0.28779500  0.84998635  1
  O  O101  1  0.68178113  0.67085308  0.69729376  1
  O  O102  1  0.35313016  0.86466576  0.92586593  1
  O  O103  1  0.59995593  0.77689110  0.85627203  1
  O  O104  1  0.66829764  0.59096078  0.97042555  1
  O  O105  1  0.71651207  0.97896315  0.65730243  1
  O  O106  1  0.91669336  0.58018290  0.96697227  1
  O  O107  1  0.92520888  0.73148212  0.84114586  1
  O  O108  1  0.71478541  0.97059401  0.93364730  1
  O  O109  1  0.86374918  0.99893349  0.79387972  1
  O  O110  1  0.92338761  0.84558163  0.97072255  1
