# generated using pymatgen
data_Mg14TiV
_symmetry_space_group_name_H-M   'P 1'
_cell_length_a   6.31890207
_cell_length_b   6.21615806
_cell_length_c   10.12664354
_cell_angle_alpha   90.00000000
_cell_angle_beta   90.00000000
_cell_angle_gamma   119.46357769
_symmetry_Int_Tables_number   1
_chemical_formula_structural   Mg14TiV
_chemical_formula_sum   'Mg14 Ti1 V1'
_cell_volume   346.32357261
_cell_formula_units_Z   1
loop_
 _symmetry_equiv_pos_site_id
 _symmetry_equiv_pos_as_xyz
  1  'x, y, z'
loop_
 _atom_site_type_symbol
 _atom_site_label
 _atom_site_symmetry_multiplicity
 _atom_site_fract_x
 _atom_site_fract_y
 _atom_site_fract_z
 _atom_site_occupancy
  Mg  Mg0  1  0.16633247  0.33316573  0.62500000  1
  Mg  Mg1  1  0.16677020  0.83338460  0.62500000  1
  Mg  Mg2  1  0.66232134  0.33329811  0.12500000  1
  Mg  Mg3  1  0.66536370  0.33215106  0.62500000  1
  Mg  Mg4  1  0.66232134  0.82902223  0.12500000  1
  Mg  Mg5  1  0.66536370  0.83321164  0.62500000  1
  Mg  Mg6  1  0.32909858  0.16462444  0.36737897  1
  Mg  Mg7  1  0.32909858  0.16462444  0.88262103  1
  Mg  Mg8  1  0.32909858  0.66447513  0.36737897  1
  Mg  Mg9  1  0.32909858  0.66447513  0.88262103  1
  Mg  Mg10  1  0.84173118  0.17086609  0.36911369  1
  Mg  Mg11  1  0.84173118  0.17086609  0.88088631  1
  Mg  Mg12  1  0.84150669  0.67075384  0.37239793  1
  Mg  Mg13  1  0.84150669  0.67075384  0.87760207  1
  Ti  Ti14  1  0.16285814  0.83142857  0.12500000  1
  V  V15  1  0.16579907  0.33289904  0.12500000  1
