# generated using pymatgen
data_Li3Co2(SiO4)2
_symmetry_space_group_name_H-M   'P 1'
_cell_length_a   5.32841313
_cell_length_b   5.32829494
_cell_length_c   6.30728388
_cell_angle_alpha   90.94059571
_cell_angle_beta   90.94087265
_cell_angle_gamma   90.42025533
_symmetry_Int_Tables_number   1
_chemical_formula_structural   Li3Co2(SiO4)2
_chemical_formula_sum   'Li3 Co2 Si2 O8'
_cell_volume   179.01889732
_cell_formula_units_Z   1
loop_
 _symmetry_equiv_pos_site_id
 _symmetry_equiv_pos_as_xyz
  1  'x, y, z'
loop_
 _atom_site_type_symbol
 _atom_site_label
 _atom_site_symmetry_multiplicity
 _atom_site_fract_x
 _atom_site_fract_y
 _atom_site_fract_z
 _atom_site_occupancy
  Li  Li0  1  0.81762962  0.82793746  0.23582627  1
  Li  Li1  1  0.30807972  0.69193541  0.50000714  1
  Li  Li2  1  0.17206615  0.18238009  0.76417370  1
  Co  Co3  1  0.33263810  0.66736452  0.00000740  1
  Co  Co4  1  0.67451046  0.32549713  0.50000393  1
  Si  Si5  1  0.82399359  0.82335888  0.74487926  1
  Si  Si6  1  0.17663841  0.17599128  0.25512378  1
  O  O7  1  0.21350177  0.86911253  0.24896882  1
  O  O8  1  0.13088410  0.78647184  0.75103903  1
  O  O9  1  0.69042923  0.73179581  0.95927153  1
  O  O10  1  0.69896787  0.68342150  0.52619340  1
  O  O11  1  0.26820380  0.30956353  0.04071594  1
  O  O12  1  0.31659672  0.30102321  0.47380035  1
  O  O13  1  0.86780528  0.20676474  0.28297087  1
  O  O14  1  0.79325819  0.13220006  0.71702957  1
