# generated using pymatgen
data_Li10Cr3Fe3(NiO8)2
_symmetry_space_group_name_H-M   'P 1'
_cell_length_a   5.97919844
_cell_length_b   5.97827330
_cell_length_c   9.86172591
_cell_angle_alpha   89.77588659
_cell_angle_beta   89.99436631
_cell_angle_gamma   119.73623984
_symmetry_Int_Tables_number   1
_chemical_formula_structural   Li10Cr3Fe3(NiO8)2
_chemical_formula_sum   'Li10 Cr3 Fe3 Ni2 O16'
_cell_volume   306.08773317
_cell_formula_units_Z   1
loop_
 _symmetry_equiv_pos_site_id
 _symmetry_equiv_pos_as_xyz
  1  'x, y, z'
loop_
 _atom_site_type_symbol
 _atom_site_label
 _atom_site_symmetry_multiplicity
 _atom_site_fract_x
 _atom_site_fract_y
 _atom_site_fract_z
 _atom_site_occupancy
  Li  Li0  1  0.18442597  0.79211875  0.05957012  1
  Li  Li1  1  0.98320948  0.98730255  0.98455717  1
  Li  Li2  1  0.98757845  0.98253695  0.48521814  1
  Li  Li3  1  0.59141521  0.78666128  0.05757832  1
  Li  Li4  1  0.32416653  0.64912130  0.28453908  1
  Li  Li5  1  0.18949525  0.38121451  0.05915727  1
  Li  Li6  1  0.38096199  0.19019279  0.55966170  1
  Li  Li7  1  0.64882672  0.32396490  0.78426778  1
  Li  Li8  1  0.78366206  0.59200169  0.55830351  1
  Li  Li9  1  0.79145895  0.18607126  0.56049413  1
  Cr  Cr10  1  0.15144755  0.82084204  0.78529381  1
  Cr  Cr11  1  0.64704367  0.82059077  0.78516936  1
  Cr  Cr12  1  0.82098836  0.64691492  0.28509391  1
  Fe  Fe13  1  0.15178773  0.32664613  0.78513076  1
  Fe  Fe14  1  0.32668441  0.15204812  0.28520362  1
  Fe  Fe15  1  0.82052844  0.15188883  0.28483804  1
  Ni  Ni16  1  0.31877741  0.65553790  0.53007430  1
  Ni  Ni17  1  0.65511694  0.31936475  0.02925986  1
  O  O18  1  0.14881049  0.82013658  0.40160955  1
  O  O19  1  0.47431655  0.97098481  0.66696983  1
  O  O20  1  0.31837120  0.65706087  0.90146634  1
  O  O21  1  0.00081352  0.49926093  0.66698874  1
  O  O22  1  0.98192152  0.98705186  0.67449290  1
  O  O23  1  0.98862190  0.98090759  0.17334955  1
  O  O24  1  0.66553769  0.81985085  0.40238862  1
  O  O25  1  0.47654005  0.49822490  0.66752089  1
  O  O26  1  0.82217289  0.66571259  0.90165540  1
  O  O27  1  0.15030704  0.30645411  0.40408097  1
  O  O28  1  0.49859909  0.47702159  0.16678292  1
  O  O29  1  0.97188391  0.47568925  0.16614134  1
  O  O30  1  0.65615615  0.31927941  0.40309559  1
  O  O31  1  0.30634695  0.14890445  0.90289183  1
  O  O32  1  0.49766435  0.00063761  0.16622405  1
  O  O33  1  0.81987060  0.14822615  0.90195659  1
