# generated using pymatgen
data_Li3Fe2(SiO4)2
_symmetry_space_group_name_H-M   'P 1'
_cell_length_a   5.29122196
_cell_length_b   5.29122260
_cell_length_c   6.42030138
_cell_angle_alpha   90.51866280
_cell_angle_beta   89.48133906
_cell_angle_gamma   92.37786882
_symmetry_Int_Tables_number   1
_chemical_formula_structural   Li3Fe2(SiO4)2
_chemical_formula_sum   'Li3 Fe2 Si2 O8'
_cell_volume   179.58048340
_cell_formula_units_Z   1
loop_
 _symmetry_equiv_pos_site_id
 _symmetry_equiv_pos_as_xyz
  1  'x, y, z'
loop_
 _atom_site_type_symbol
 _atom_site_label
 _atom_site_symmetry_multiplicity
 _atom_site_fract_x
 _atom_site_fract_y
 _atom_site_fract_z
 _atom_site_occupancy
  Li  Li0  1  0.30787677  0.68938800  0.50154866  1
  Li  Li1  1  0.68938800  0.30787677  0.99845134  1
  Li  Li2  1  0.82006522  0.82006522  0.25000000  1
  Fe  Fe3  1  0.31546746  0.67620720  0.99148837  1
  Fe  Fe4  1  0.67620720  0.31546746  0.50851163  1
  Si  Si5  1  0.18285698  0.18285698  0.25000000  1
  Si  Si6  1  0.82615447  0.82615447  0.75000000  1
  O  O7  1  0.12791538  0.77023878  0.75317999  1
  O  O8  1  0.21191144  0.87019596  0.24246758  1
  O  O9  1  0.31398181  0.31346414  0.45586245  1
  O  O10  1  0.31346414  0.31398181  0.04413755  1
  O  O11  1  0.70158092  0.69456847  0.53560644  1
  O  O12  1  0.69456847  0.70158092  0.96439356  1
  O  O13  1  0.77023878  0.12791538  0.74682001  1
  O  O14  1  0.87019596  0.21191144  0.25753242  1
