# generated using pymatgen
data_Cs2CeO3
_symmetry_space_group_name_H-M   'P 1'
_cell_length_a   6.93370671
_cell_length_b   7.48392463
_cell_length_c   14.66648197
_cell_angle_alpha   90.00000000
_cell_angle_beta   90.00000000
_cell_angle_gamma   117.59637812
_symmetry_Int_Tables_number   1
_chemical_formula_structural   Cs2CeO3
_chemical_formula_sum   'Cs8 Ce4 O12'
_cell_volume   674.47937853
_cell_formula_units_Z   4
loop_
 _symmetry_equiv_pos_site_id
 _symmetry_equiv_pos_as_xyz
  1  'x, y, z'
loop_
 _atom_site_type_symbol
 _atom_site_label
 _atom_site_symmetry_multiplicity
 _atom_site_fract_x
 _atom_site_fract_y
 _atom_site_fract_z
 _atom_site_occupancy
  Cs  Cs0  1  0.37311632  0.74623263  0.08178803  1
  Cs  Cs1  1  0.05374795  0.10749690  0.13297620  1
  Cs  Cs2  1  0.12688368  0.25376737  0.58178803  1
  Cs  Cs3  1  0.44625205  0.89250310  0.63297620  1
  Cs  Cs4  1  0.55374795  0.10749690  0.36702380  1
  Cs  Cs5  1  0.87311632  0.74623263  0.41821197  1
  Cs  Cs6  1  0.94625205  0.89250310  0.86702380  1
  Cs  Cs7  1  0.62688368  0.25376737  0.91821197  1
  Ce  Ce8  1  0.23906025  0.47812051  0.33936955  1
  Ce  Ce9  1  0.26093975  0.52187949  0.83936955  1
  Ce  Ce10  1  0.76093975  0.52187949  0.66063045  1
  Ce  Ce11  1  0.73906025  0.47812051  0.16063045  1
  O  O12  1  0.02038692  0.54077384  0.25000000  1
  O  O13  1  0.34087067  0.68174134  0.44459044  1
  O  O14  1  0.08836067  0.17672133  0.36954202  1
  O  O15  1  0.15912933  0.31825866  0.94459044  1
  O  O16  1  0.41163933  0.82327867  0.86954302  1
  O  O17  1  0.47961308  0.45922616  0.75000000  1
  O  O18  1  0.52038692  0.54077384  0.25000000  1
  O  O19  1  0.84087067  0.68174134  0.05540956  1
  O  O20  1  0.58836067  0.17672133  0.13045698  1
  O  O21  1  0.91163933  0.82327867  0.63045698  1
  O  O22  1  0.65912933  0.31825866  0.55540956  1
  O  O23  1  0.97961308  0.45922616  0.75000000  1
