# generated using pymatgen
data_AgClO3
_symmetry_space_group_name_H-M   'P 1'
_cell_length_a   4.32492148
_cell_length_b   4.32492140
_cell_length_c   4.32492140
_cell_angle_alpha   78.85145837
_cell_angle_beta   78.85146155
_cell_angle_gamma   78.85145600
_symmetry_Int_Tables_number   1
_chemical_formula_structural   AgClO3
_chemical_formula_sum   'Ag1 Cl1 O3'
_cell_volume   76.84406454
_cell_formula_units_Z   1
loop_
 _symmetry_equiv_pos_site_id
 _symmetry_equiv_pos_as_xyz
  1  'x, y, z'
loop_
 _atom_site_type_symbol
 _atom_site_label
 _atom_site_symmetry_multiplicity
 _atom_site_fract_x
 _atom_site_fract_y
 _atom_site_fract_z
 _atom_site_occupancy
  Ag  Ag0  1  0.97666346  0.97666346  0.97666346  1
  Cl  Cl1  1  0.49451602  0.49451602  0.49451602  1
  O  O2  1  0.13500808  0.57690672  0.57690672  1
  O  O3  1  0.57690672  0.13500808  0.57690672  1
  O  O4  1  0.57690672  0.57690672  0.13500808  1
