# generated using pymatgen
data_Li2Cr3CuO8
_symmetry_space_group_name_H-M   'P 1'
_cell_length_a   8.35949849
_cell_length_b   8.32655854
_cell_length_c   8.32502237
_cell_angle_alpha   90.15643383
_cell_angle_beta   89.95814561
_cell_angle_gamma   90.04085112
_symmetry_Int_Tables_number   1
_chemical_formula_structural   Li2Cr3CuO8
_chemical_formula_sum   'Li8 Cr12 Cu4 O32'
_cell_volume   579.46782731
_cell_formula_units_Z   4
loop_
 _symmetry_equiv_pos_site_id
 _symmetry_equiv_pos_as_xyz
  1  'x, y, z'
loop_
 _atom_site_type_symbol
 _atom_site_label
 _atom_site_symmetry_multiplicity
 _atom_site_fract_x
 _atom_site_fract_y
 _atom_site_fract_z
 _atom_site_occupancy
  Li  Li0  1  0.00135410  0.00093329  0.00169272  1
  Li  Li1  1  0.24841643  0.24915231  0.24694928  1
  Li  Li2  1  0.25028931  0.75126778  0.74733456  1
  Li  Li3  1  0.49709690  0.00015503  0.50169555  1
  Li  Li4  1  0.50016626  0.49517005  0.99968900  1
  Li  Li5  1  0.74856658  0.25123614  0.75072805  1
  Li  Li6  1  0.75415503  0.74640987  0.25184362  1
  Li  Li7  1  0.99583160  0.50256983  0.49668711  1
  Cr  Cr8  1  0.12378961  0.12701464  0.62170671  1
  Cr  Cr9  1  0.12358262  0.37816659  0.87487363  1
  Cr  Cr10  1  0.12656323  0.62273340  0.12682471  1
  Cr  Cr11  1  0.37444181  0.37481682  0.62273684  1
  Cr  Cr12  1  0.37426777  0.62414250  0.37240399  1
  Cr  Cr13  1  0.37380610  0.87666518  0.12665390  1
  Cr  Cr14  1  0.62315862  0.37269186  0.37487011  1
  Cr  Cr15  1  0.62536013  0.12700537  0.12722900  1
  Cr  Cr16  1  0.62599567  0.87248202  0.87539531  1
  Cr  Cr17  1  0.87593339  0.12456059  0.37259174  1
  Cr  Cr18  1  0.87442319  0.87596254  0.62537563  1
  Cr  Cr19  1  0.87466370  0.62427965  0.87569755  1
  Cu  Cu20  1  0.12720171  0.87789939  0.37447362  1
  Cu  Cu21  1  0.37409963  0.12553641  0.87671468  1
  Cu  Cu22  1  0.62478928  0.62651544  0.62622753  1
  Cu  Cu23  1  0.87815043  0.37318951  0.12452018  1
  O  O24  1  0.11081266  0.12234778  0.39327427  1
  O  O25  1  0.11325180  0.89873003  0.61909258  1
  O  O26  1  0.11840609  0.60638355  0.88544714  1
  O  O27  1  0.13089536  0.14318320  0.85456369  1
  O  O28  1  0.11697600  0.38549576  0.10853102  1
  O  O29  1  0.13952306  0.36273020  0.63251682  1
  O  O30  1  0.14493654  0.63677122  0.36555291  1
  O  O31  1  0.14713360  0.86257964  0.13031606  1
  O  O32  1  0.36180237  0.14468007  0.63401633  1
  O  O33  1  0.35482096  0.36920002  0.85999853  1
  O  O34  1  0.37101543  0.63650754  0.14280863  1
  O  O35  1  0.37477134  0.60664278  0.60526986  1
  O  O36  1  0.37030622  0.86259307  0.35627065  1
  O  O37  1  0.38379421  0.38620316  0.38610113  1
  O  O38  1  0.38940295  0.11158098  0.11626133  1
  O  O39  1  0.38700423  0.88337337  0.89500216  1
  O  O40  1  0.60249999  0.38124352  0.61360310  1
  O  O41  1  0.60531811  0.61025913  0.38327379  1
  O  O42  1  0.61028745  0.88851007  0.11449983  1
  O  O43  1  0.63465315  0.35114017  0.13216173  1
  O  O44  1  0.61646246  0.10803710  0.89438040  1
  O  O45  1  0.63744578  0.12786393  0.35714696  1
  O  O46  1  0.63583466  0.87302553  0.64786255  1
  O  O47  1  0.63739634  0.64470084  0.87273146  1
  O  O48  1  0.86090495  0.35425862  0.36826639  1
  O  O49  1  0.86195954  0.12636480  0.14403466  1
  O  O50  1  0.86099240  0.86484972  0.86557876  1
  O  O51  1  0.88729119  0.89408451  0.38586761  1
  O  O52  1  0.86506506  0.64033626  0.63815432  1
  O  O53  1  0.88655855  0.11938940  0.60719366  1
  O  O54  1  0.89501377  0.38241063  0.88284209  1
  O  O55  1  0.89135871  0.61410717  0.11260555  1
