# generated using pymatgen
data_Cr2Fe3Sn(PO4)6
_symmetry_space_group_name_H-M   'P 1'
_cell_length_a   8.57984841
_cell_length_b   8.57984841
_cell_length_c   8.57984863
_cell_angle_alpha   60.70727673
_cell_angle_beta   60.70727974
_cell_angle_gamma   60.70727836
_symmetry_Int_Tables_number   1
_chemical_formula_structural   Cr2Fe3Sn(PO4)6
_chemical_formula_sum   'Cr2 Fe3 Sn1 P6 O24'
_cell_volume   453.73427695
_cell_formula_units_Z   1
loop_
 _symmetry_equiv_pos_site_id
 _symmetry_equiv_pos_as_xyz
  1  'x, y, z'
loop_
 _atom_site_type_symbol
 _atom_site_label
 _atom_site_symmetry_multiplicity
 _atom_site_fract_x
 _atom_site_fract_y
 _atom_site_fract_z
 _atom_site_occupancy
  Cr  Cr0  1  0.00322587  0.00322587  0.00322587  1
  Cr  Cr1  1  0.49919420  0.49919420  0.49919420  1
  Fe  Fe2  1  0.14664824  0.14664824  0.14664824  1
  Fe  Fe3  1  0.35345325  0.35345325  0.35345325  1
  Fe  Fe4  1  0.64545923  0.64545923  0.64545923  1
  Sn  Sn5  1  0.85495248  0.85495248  0.85495248  1
  P  P6  1  0.25421754  0.54204426  0.95305977  1
  P  P7  1  0.54204426  0.95305977  0.25421754  1
  P  P8  1  0.95305977  0.25421754  0.54204426  1
  P  P9  1  0.04924302  0.74734338  0.44977987  1
  P  P10  1  0.44977987  0.04924302  0.74734338  1
  P  P11  1  0.74734338  0.44977987  0.04924302  1
  O  O12  1  0.10776869  0.31951214  0.50392264  1
  O  O13  1  0.31951214  0.50392264  0.10776869  1
  O  O14  1  0.06286301  0.90938966  0.25419269  1
  O  O15  1  0.50392264  0.10776869  0.31951214  1
  O  O16  1  0.01589417  0.81536221  0.60342526  1
  O  O17  1  0.24663303  0.58931979  0.43527734  1
  O  O18  1  0.25419269  0.06286301  0.90938966  1
  O  O19  1  0.43527734  0.24663303  0.58931979  1
  O  O20  1  0.18129596  0.39124078  0.99454553  1
  O  O21  1  0.58931979  0.43527734  0.24663303  1
  O  O22  1  0.09261195  0.74421817  0.93972454  1
  O  O23  1  0.39124078  0.99454553  0.18129596  1
  O  O24  1  0.60342526  0.01589417  0.81536221  1
  O  O25  1  0.90938966  0.25419269  0.06286301  1
  O  O26  1  0.41017607  0.55984482  0.75396910  1
  O  O27  1  0.81536221  0.60342526  0.01589417  1
  O  O28  1  0.55984482  0.75396910  0.41017607  1
  O  O29  1  0.74421817  0.93972454  0.09261195  1
  O  O30  1  0.75396910  0.41017607  0.55984482  1
  O  O31  1  0.99454553  0.18129596  0.39124078  1
  O  O32  1  0.49697330  0.89004593  0.68317212  1
  O  O33  1  0.93972454  0.09261195  0.74421817  1
  O  O34  1  0.68317212  0.49697330  0.89004593  1
  O  O35  1  0.89004593  0.68317212  0.49697330  1
