# generated using pymatgen
data_FeOF
_symmetry_space_group_name_H-M   'P 1'
_cell_length_a   14.21629655
_cell_length_b   14.24045077
_cell_length_c   3.09666964
_cell_angle_alpha   90.00000000
_cell_angle_beta   90.00000000
_cell_angle_gamma   90.35019415
_symmetry_Int_Tables_number   1
_chemical_formula_structural   FeOF
_chemical_formula_sum   'Fe18 O18 F18'
_cell_volume   626.89813133
_cell_formula_units_Z   18
loop_
 _symmetry_equiv_pos_site_id
 _symmetry_equiv_pos_as_xyz
  1  'x, y, z'
loop_
 _atom_site_type_symbol
 _atom_site_label
 _atom_site_symmetry_multiplicity
 _atom_site_fract_x
 _atom_site_fract_y
 _atom_site_fract_z
 _atom_site_occupancy
  Fe  Fe0  1  0.00382340  0.98856487  -0.00000000  1
  Fe  Fe1  1  0.00306870  0.34076327  0.00000000  1
  Fe  Fe2  1  0.01075009  0.66347427  0.00000000  1
  Fe  Fe3  1  0.15957565  0.18868695  0.50000000  1
  Fe  Fe4  1  0.15399930  0.49878148  0.50000000  1
  Fe  Fe5  1  0.15293256  0.83061690  0.50000000  1
  Fe  Fe6  1  0.33756131  0.00589745  0.00000000  1
  Fe  Fe7  1  0.33540056  0.32087314  -0.00000000  1
  Fe  Fe8  1  0.34616385  0.66374361  -0.00000000  1
  Fe  Fe9  1  0.50263381  0.51128567  0.50000000  1
  Fe  Fe10  1  0.48884054  0.16663172  0.50000000  1
  Fe  Fe11  1  0.50184869  0.81648241  0.50000000  1
  Fe  Fe12  1  0.67910541  0.99601985  0.00000000  1
  Fe  Fe13  1  0.68106837  0.33399123  0.00000000  1
  Fe  Fe14  1  0.65808514  0.66634232  0.00000000  1
  Fe  Fe15  1  0.81954827  0.16461188  0.50000000  1
  Fe  Fe16  1  0.83441756  0.48497594  0.50000000  1
  Fe  Fe17  1  0.83517518  0.84560947  0.50000000  1
  O  O18  1  0.05740139  0.26819947  0.50000000  1
  O  O19  1  0.06414226  0.60298851  0.50000000  1
  O  O20  1  0.07114317  0.93951819  0.50000000  1
  O  O21  1  0.10920214  0.43423804  0.00000000  1
  O  O22  1  0.10092212  0.77023171  0.00000000  1
  O  O23  1  0.23333516  0.23051917  0.00000000  1
  O  O24  1  0.40327364  0.27036621  0.50000000  1
  O  O25  1  0.39770207  0.60034768  0.50000000  1
  O  O26  1  0.43194421  0.09861185  0.00000000  1
  O  O27  1  0.43277607  0.77222167  0.00000000  1
  O  O28  1  0.56825268  0.56212195  -0.00000000  1
  O  O29  1  0.60654330  0.73280388  0.50000000  1
  O  O30  1  0.72975046  0.26845623  0.50000000  1
  O  O31  1  0.72548772  0.92858184  0.50000000  1
  O  O32  1  0.76741828  0.09876313  -0.00000000  1
  O  O33  1  0.76310239  0.44100975  0.00000000  1
  O  O34  1  0.89851323  0.89901821  0.00000000  1
  O  O35  1  0.93478756  0.39964520  0.50000000  1
  F  F36  1  0.10196927  0.10194698  0.00000000  1
  F  F37  1  0.23316980  0.56983991  0.00000000  1
  F  F38  1  0.23983367  0.90034867  0.00000000  1
  F  F39  1  0.26554712  0.05925380  0.50000000  1
  F  F40  1  0.26801151  0.73390638  0.50000000  1
  F  F41  1  0.27546102  0.40260174  0.50000000  1
  F  F42  1  0.39643574  0.93654918  0.50000000  1
  F  F43  1  0.43429388  0.43482492  0.00000000  1
  F  F44  1  0.56446821  0.22801114  0.00000000  1
  F  F45  1  0.55814625  0.90384814  0.00000000  1
  F  F46  1  0.59842709  0.06601253  0.50000000  1
  F  F47  1  0.59502136  0.39378937  0.50000000  1
  F  F48  1  0.73569523  0.60547988  0.50000000  1
  F  F49  1  0.77245602  0.76401837  0.00000000  1
  F  F50  1  0.89501300  0.22669377  0.00000000  1
  F  F51  1  0.89645162  0.57020940  0.00000000  1
  F  F52  1  0.93837593  0.06703569  0.50000000  1
  F  F53  1  0.93152903  0.73063501  0.50000000  1
