# generated using pymatgen
data_FeSnO3
_symmetry_space_group_name_H-M   'P 1'
_cell_length_a   5.39504031
_cell_length_b   5.52340997
_cell_length_c   7.82925265
_cell_angle_alpha   90.00000000
_cell_angle_beta   90.00000000
_cell_angle_gamma   90.00000000
_symmetry_Int_Tables_number   1
_chemical_formula_structural   FeSnO3
_chemical_formula_sum   'Fe4 Sn4 O12'
_cell_volume   233.30405189
_cell_formula_units_Z   4
loop_
 _symmetry_equiv_pos_site_id
 _symmetry_equiv_pos_as_xyz
  1  'x, y, z'
loop_
 _atom_site_type_symbol
 _atom_site_label
 _atom_site_symmetry_multiplicity
 _atom_site_fract_x
 _atom_site_fract_y
 _atom_site_fract_z
 _atom_site_occupancy
  Fe  Fe0  1  0.00991982  0.95284877  0.75000000  1
  Fe  Fe1  1  0.49008018  0.45284877  0.75000000  1
  Fe  Fe2  1  0.50991982  0.54715123  0.25000000  1
  Fe  Fe3  1  0.99008018  0.04715123  0.25000000  1
  Sn  Sn4  1  -0.00000000  0.50000000  -0.00000000  1
  Sn  Sn5  1  -0.00000000  0.50000000  0.50000000  1
  Sn  Sn6  1  0.50000000  -0.00000000  -0.00000000  1
  Sn  Sn7  1  0.50000000  -0.00000000  0.50000000  1
  O  O8  1  0.13183331  0.42007213  0.25000000  1
  O  O9  1  0.17328099  0.17827267  0.56804263  1
  O  O10  1  0.17328099  0.17827267  0.93195737  1
  O  O11  1  0.32671901  0.67827267  0.56804263  1
  O  O12  1  0.32671901  0.67827267  0.93195737  1
  O  O13  1  0.36816669  0.92007113  0.25000000  1
  O  O14  1  0.63183331  0.07992787  0.75000000  1
  O  O15  1  0.67328099  0.32172733  0.43195737  1
  O  O16  1  0.67328099  0.32172733  0.06804263  1
  O  O17  1  0.82671901  0.82172733  0.06804263  1
  O  O18  1  0.82671901  0.82172733  0.43195737  1
  O  O19  1  0.86816669  0.57992887  0.75000000  1
