# generated using pymatgen
data_FeOF
_symmetry_space_group_name_H-M   'P 1'
_cell_length_a   14.21079692
_cell_length_b   14.24318412
_cell_length_c   3.08953877
_cell_angle_alpha   90.00000000
_cell_angle_beta   90.00000000
_cell_angle_gamma   90.39181724
_symmetry_Int_Tables_number   1
_chemical_formula_structural   FeOF
_chemical_formula_sum   'Fe18 O18 F18'
_cell_volume   625.32964260
_cell_formula_units_Z   18
loop_
 _symmetry_equiv_pos_site_id
 _symmetry_equiv_pos_as_xyz
  1  'x, y, z'
loop_
 _atom_site_type_symbol
 _atom_site_label
 _atom_site_symmetry_multiplicity
 _atom_site_fract_x
 _atom_site_fract_y
 _atom_site_fract_z
 _atom_site_occupancy
  Fe  Fe0  1  0.01337432  0.99876584  -0.00000000  1
  Fe  Fe1  1  0.99552949  0.33610807  0.00000000  1
  Fe  Fe2  1  0.01127867  0.66263169  0.00000000  1
  Fe  Fe3  1  0.14376493  0.17457047  0.50000000  1
  Fe  Fe4  1  0.17015662  0.51487749  0.50000000  1
  Fe  Fe5  1  0.15252745  0.82988202  0.50000000  1
  Fe  Fe6  1  0.33815462  0.00567378  0.00000000  1
  Fe  Fe7  1  0.34616612  0.32981043  -0.00000000  1
  Fe  Fe8  1  0.33920214  0.65700282  -0.00000000  1
  Fe  Fe9  1  0.48831403  0.49819001  0.50000000  1
  Fe  Fe10  1  0.49003052  0.16440949  0.50000000  1
  Fe  Fe11  1  0.51965723  0.83423561  0.50000000  1
  Fe  Fe12  1  0.67364204  0.99116264  -0.00000000  1
  Fe  Fe13  1  0.68129912  0.33320460  -0.00000000  1
  Fe  Fe14  1  0.66757982  0.67655565  0.00000000  1
  Fe  Fe15  1  0.81492282  0.15999126  0.50000000  1
  Fe  Fe16  1  0.83361171  0.48686492  0.50000000  1
  Fe  Fe17  1  0.82116938  0.83092366  0.50000000  1
  O  O18  1  0.06108731  0.27537365  0.50000000  1
  O  O19  1  0.06161248  0.59741862  0.50000000  1
  O  O20  1  0.06640595  0.93452377  0.50000000  1
  O  O21  1  0.10218251  0.10328198  0.00000000  1
  O  O22  1  0.10372166  0.76683877  0.00000000  1
  O  O23  1  0.23469967  0.56816554  0.00000000  1
  O  O24  1  0.39890892  0.26509553  0.50000000  1
  O  O25  1  0.40577782  0.60813994  0.50000000  1
  O  O26  1  0.43341521  0.09714219  0.00000000  1
  O  O27  1  0.43347315  0.43581836  0.00000000  1
  O  O28  1  0.56162946  0.90367466  -0.00000000  1
  O  O29  1  0.60079374  0.72703686  0.50000000  1
  O  O30  1  0.72967720  0.26792222  0.50000000  1
  O  O31  1  0.73126051  0.93176173  0.50000000  1
  O  O32  1  0.76370976  0.09756101  0.00000000  1
  O  O33  1  0.76506382  0.44008847  0.00000000  1
  O  O34  1  0.77254318  0.76436859  0.00000000  1
  O  O35  1  0.93549785  0.40107634  0.50000000  1
  F  F36  1  0.10826765  0.43726477  -0.00000000  1
  F  F37  1  0.23253535  0.23101183  0.00000000  1
  F  F38  1  0.23700530  0.90249363  0.00000000  1
  F  F39  1  0.26924647  0.06353964  0.50000000  1
  F  F40  1  0.27223073  0.73854587  0.50000000  1
  F  F41  1  0.26659645  0.39396101  0.50000000  1
  F  F42  1  0.39279145  0.93413231  0.50000000  1
  F  F43  1  0.43177133  0.77555498  -0.00000000  1
  F  F44  1  0.56333258  0.23176928  0.00000000  1
  F  F45  1  0.57149142  0.55925719  0.00000000  1
  F  F46  1  0.59887943  0.06890803  0.50000000  1
  F  F47  1  0.59948255  0.39754779  0.50000000  1
  F  F48  1  0.73314182  0.60225962  0.50000000  1
  F  F49  1  0.89518206  0.22527797  -0.00000000  1
  F  F50  1  0.89495001  0.57226899  0.00000000  1
  F  F51  1  0.90034633  0.89987526  0.00000000  1
  F  F52  1  0.93431267  0.06339519  0.50000000  1
  F  F53  1  0.93659418  0.73279099  0.50000000  1
