# generated using pymatgen
data_Cs2CeO3
_symmetry_space_group_name_H-M   'P 1'
_cell_length_a   6.89643324
_cell_length_b   7.48297826
_cell_length_c   14.61778766
_cell_angle_alpha   90.04105002
_cell_angle_beta   90.02821571
_cell_angle_gamma   117.35448368
_symmetry_Int_Tables_number   1
_chemical_formula_structural   Cs2CeO3
_chemical_formula_sum   'Cs8 Ce4 O12'
_cell_volume   670.01064103
_cell_formula_units_Z   4
loop_
 _symmetry_equiv_pos_site_id
 _symmetry_equiv_pos_as_xyz
  1  'x, y, z'
loop_
 _atom_site_type_symbol
 _atom_site_label
 _atom_site_symmetry_multiplicity
 _atom_site_fract_x
 _atom_site_fract_y
 _atom_site_fract_z
 _atom_site_occupancy
  Cs  Cs0  1  0.37277384  0.74319704  0.08291300  1
  Cs  Cs1  1  0.05396321  0.10899795  0.13269643  1
  Cs  Cs2  1  0.12632126  0.25179362  0.58438910  1
  Cs  Cs3  1  0.44558858  0.89069403  0.63221533  1
  Cs  Cs4  1  0.55508272  0.10377442  0.36379286  1
  Cs  Cs5  1  0.87844115  0.74793611  0.41725057  1
  Cs  Cs6  1  0.94237975  0.88976061  0.86665890  1
  Cs  Cs7  1  0.62293705  0.24938124  0.91858550  1
  Ce  Ce8  1  0.23801811  0.47711920  0.34106113  1
  Ce  Ce9  1  0.25900557  0.52030697  0.84003165  1
  Ce  Ce10  1  0.75855496  0.52147611  0.66010047  1
  Ce  Ce11  1  0.74032146  0.47832335  0.16115543  1
  O  O12  1  0.02333658  0.54608171  0.25117580  1
  O  O13  1  0.34052582  0.68284920  0.44566946  1
  O  O14  1  0.08266818  0.17684422  0.36862232  1
  O  O15  1  0.16011528  0.32157313  0.94700567  1
  O  O16  1  0.40871728  0.82091898  0.86809975  1
  O  O17  1  0.47642474  0.45346931  0.75101173  1
  O  O18  1  0.51759496  0.53626194  0.25068080  1
  O  O19  1  0.83821695  0.68104569  0.05551389  1
  O  O20  1  0.59518675  0.17830442  0.13133629  1
  O  O21  1  0.90540980  0.82271383  0.63319587  1
  O  O22  1  0.66285089  0.32373676  0.55305287  1
  O  O23  1  0.98095510  0.45934814  0.74820520  1
