# generated using pymatgen
data_BP2Pb2O9
_symmetry_space_group_name_H-M   'P 1'
_cell_length_a   5.64369016
_cell_length_b   16.01412021
_cell_length_c   8.31411825
_cell_angle_alpha   90.00000000
_cell_angle_beta   90.00000000
_cell_angle_gamma   92.22614141
_symmetry_Int_Tables_number   1
_chemical_formula_structural   BP2Pb2O9
_chemical_formula_sum   'B4 P8 Pb8 O36'
_cell_volume   750.85237312
_cell_formula_units_Z   4
loop_
 _symmetry_equiv_pos_site_id
 _symmetry_equiv_pos_as_xyz
  1  'x, y, z'
loop_
 _atom_site_type_symbol
 _atom_site_label
 _atom_site_symmetry_multiplicity
 _atom_site_fract_x
 _atom_site_fract_y
 _atom_site_fract_z
 _atom_site_occupancy
  B  B0  1  0.13989238  0.71510581  0.75227508  1
  B  B1  1  0.36010762  0.78489419  0.25227508  1
  B  B2  1  0.86010762  0.28489419  0.24772492  1
  B  B3  1  0.63989238  0.21510581  0.74772492  1
  P  P4  1  0.29730266  0.58327423  0.56331885  1
  P  P5  1  0.20269734  0.91672577  0.06331885  1
  P  P6  1  0.70269734  0.41672577  0.43668115  1
  P  P7  1  0.79730266  0.08327423  0.93668115  1
  P  P8  1  0.28871312  0.64522731  0.04532612  1
  P  P9  1  0.21128688  0.85477269  0.54532612  1
  P  P10  1  0.71128688  0.35477269  0.95467388  1
  P  P11  1  0.78871312  0.14522731  0.45467388  1
  Pb  Pb12  1  0.80043988  0.63327373  0.31214876  1
  Pb  Pb13  1  0.69956012  0.86672627  0.81214876  1
  Pb  Pb14  1  0.19956012  0.36672627  0.68785124  1
  Pb  Pb15  1  0.30043988  0.13327373  0.18785124  1
  Pb  Pb16  1  0.25061945  0.43922901  0.18191454  1
  Pb  Pb17  1  0.24938055  0.06077099  0.68191454  1
  Pb  Pb18  1  0.74938055  0.56077099  0.81808546  1
  Pb  Pb19  1  0.75061945  0.93922901  0.31808546  1
  O  O20  1  0.18835538  0.55156927  0.40485734  1
  O  O21  1  0.31164462  0.94843073  0.90485734  1
  O  O22  1  0.81164462  0.44843073  0.59514266  1
  O  O23  1  0.68835538  0.05156927  0.09514266  1
  O  O24  1  0.24073218  0.70855082  0.18360487  1
  O  O25  1  0.25926782  0.79144918  0.68360487  1
  O  O26  1  0.75926782  0.29144918  0.81639513  1
  O  O27  1  0.74073218  0.20855082  0.31639513  1
  O  O28  1  0.11361724  0.64998920  0.62373937  1
  O  O29  1  0.38638276  0.85001080  0.12373937  1
  O  O30  1  0.88638276  0.35001080  0.37626063  1
  O  O31  1  0.61361724  0.14998920  0.87626063  1
  O  O32  1  0.07788262  0.58212701  0.04845524  1
  O  O33  1  0.42211738  0.91787299  0.54845524  1
  O  O34  1  0.92211738  0.41787299  0.95154476  1
  O  O35  1  0.57788262  0.08212701  0.45154476  1
  O  O36  1  0.52757632  0.60426971  0.07376626  1
  O  O37  1  0.97242368  0.89573029  0.57376626  1
  O  O38  1  0.47242368  0.39573029  0.92623374  1
  O  O39  1  0.02757632  0.10426971  0.42623374  1
  O  O40  1  0.31358468  0.51585901  0.69554481  1
  O  O41  1  0.18641532  0.98414099  0.19554481  1
  O  O42  1  0.68641532  0.48414099  0.30445519  1
  O  O43  1  0.81358468  0.01585901  0.80445519  1
  O  O44  1  0.90690266  0.72385258  0.81537946  1
  O  O45  1  0.59309734  0.77614742  0.31537946  1
  O  O46  1  0.09309734  0.27614742  0.18462054  1
  O  O47  1  0.40690266  0.22385258  0.68462054  1
  O  O48  1  0.31506488  0.69087657  0.87904781  1
  O  O49  1  0.18493512  0.80912343  0.37904781  1
  O  O50  1  0.68493512  0.30912343  0.12095219  1
  O  O51  1  0.81506488  0.19087657  0.62095219  1
  O  O52  1  0.54622848  0.62668215  0.54823406  1
  O  O53  1  0.95377152  0.87331785  0.04823406  1
  O  O54  1  0.45377152  0.37331785  0.45176594  1
  O  O55  1  0.04622848  0.12668215  0.95176594  1
