# generated using pymatgen
data_Al5O8
_symmetry_space_group_name_H-M   'P 1'
_cell_length_a   5.60503614
_cell_length_b   5.60534976
_cell_length_c   8.97169296
_cell_angle_alpha   90.00000000
_cell_angle_beta   90.00000000
_cell_angle_gamma   119.99814920
_symmetry_Int_Tables_number   1
_chemical_formula_structural   Al5O8
_chemical_formula_sum   'Al10 O16'
_cell_volume   244.11488808
_cell_formula_units_Z   2
loop_
 _symmetry_equiv_pos_site_id
 _symmetry_equiv_pos_as_xyz
  1  'x, y, z'
loop_
 _atom_site_type_symbol
 _atom_site_label
 _atom_site_symmetry_multiplicity
 _atom_site_fract_x
 _atom_site_fract_y
 _atom_site_fract_z
 _atom_site_occupancy
  Al  Al0  1  0.83827352  0.16160707  0.86913238  1
  Al  Al1  1  0.83826749  0.67653498  0.86905024  1
  Al  Al2  1  0.32333355  0.16160707  0.86913238  1
  Al  Al3  1  0.16172648  0.83839293  0.36913238  1
  Al  Al4  1  0.16173251  0.32346502  0.36905024  1
  Al  Al5  1  0.67666645  0.83839293  0.36913238  1
  Al  Al6  1  0.33341401  0.66682802  0.64824554  1
  Al  Al7  1  0.66658599  0.33317198  0.14824554  1
  Al  Al8  1  0.66671979  0.33343958  0.55706592  1
  Al  Al9  1  0.33328021  0.66656042  0.05706592  1
  O  O10  1  -0.00005122  -0.00010245  0.47103160  1
  O  O11  1  0.00005122  0.00010245  0.97103160  1
  O  O12  1  0.48735704  0.51270538  0.49962819  1
  O  O13  1  0.48730952  0.97461903  0.49964902  1
  O  O14  1  0.02534834  0.51270538  0.49962819  1
  O  O15  1  0.51264296  0.48729462  0.99962819  1
  O  O16  1  0.51269048  0.02538097  0.99964902  1
  O  O17  1  0.97465166  0.48729462  0.99962819  1
  O  O18  1  0.65968909  0.82984929  0.75845498  1
  O  O19  1  0.17016020  0.82984929  0.75845498  1
  O  O20  1  0.17009821  0.34019643  0.75846454  1
  O  O21  1  0.34031091  0.17015071  0.25845498  1
  O  O22  1  0.82983980  0.17015071  0.25845498  1
  O  O23  1  0.82990179  0.65980357  0.25846454  1
  O  O24  1  0.66663468  0.33326937  0.76006202  1
  O  O25  1  0.33336532  0.66673063  0.26006202  1
