# generated using pymatgen
data_Tl2Sn(GeO3)3
_symmetry_space_group_name_H-M   'P 1'
_cell_length_a   10.76800657
_cell_length_b   12.34945070
_cell_length_c   12.34973924
_cell_angle_alpha   120.00077683
_cell_angle_beta   90.00000000
_cell_angle_gamma   90.00293190
_symmetry_Int_Tables_number   1
_chemical_formula_structural   Tl2Sn(GeO3)3
_chemical_formula_sum   'Tl12 Sn6 Ge18 O54'
_cell_volume   1422.22389594
_cell_formula_units_Z   6
loop_
 _symmetry_equiv_pos_site_id
 _symmetry_equiv_pos_as_xyz
  1  'x, y, z'
loop_
 _atom_site_type_symbol
 _atom_site_label
 _atom_site_symmetry_multiplicity
 _atom_site_fract_x
 _atom_site_fract_y
 _atom_site_fract_z
 _atom_site_occupancy
  Tl  Tl0  1  0.97418000  0.36185034  0.99935505  1
  Tl  Tl1  1  0.97420079  0.00065150  0.36247706  1
  Tl  Tl2  1  0.97418782  0.63753159  0.63811573  1
  Tl  Tl3  1  0.47418000  0.36185034  0.36249529  1
  Tl  Tl4  1  0.47418782  0.63753159  0.99941585  1
  Tl  Tl5  1  0.47420079  0.00065150  0.63817445  1
  Tl  Tl6  1  0.02582000  0.63814966  0.00064495  1
  Tl  Tl7  1  0.02579921  0.99934850  0.63752294  1
  Tl  Tl8  1  0.02581218  0.36246841  0.36188427  1
  Tl  Tl9  1  0.52582000  0.63814966  0.63750471  1
  Tl  Tl10  1  0.52581218  0.36246841  0.00058415  1
  Tl  Tl11  1  0.52579921  0.99934850  0.36182555  1
  Sn  Sn12  1  0.50000000  -0.00000000  -0.00000000  1
  Sn  Sn13  1  0.00000000  -0.00000000  -0.00000000  1
  Sn  Sn14  1  0.99416221  0.33332328  0.66665130  1
  Sn  Sn15  1  0.49416221  0.33332328  0.66667199  1
  Sn  Sn16  1  0.00583779  0.66667672  0.33334870  1
  Sn  Sn17  1  0.50583779  0.66667672  0.33332801  1
  Ge  Ge18  1  0.74999792  0.17816084  0.00000643  1
  Ge  Ge19  1  0.75000000  1.00000000  0.17817589  1
  Ge  Ge20  1  0.75000208  0.82183916  0.82184559  1
  Ge  Ge21  1  0.24999792  0.17816084  0.17815441  1
  Ge  Ge22  1  0.25000208  0.82183916  0.99999357  1
  Ge  Ge23  1  0.25000000  0.00000000  0.82182411  1
  Ge  Ge24  1  0.26061660  0.83476268  0.28368730  1
  Ge  Ge25  1  0.26062444  0.71631749  0.55106944  1
  Ge  Ge26  1  0.26063970  0.44893041  0.16524258  1
  Ge  Ge27  1  0.76061660  0.83476268  0.55107537  1
  Ge  Ge28  1  0.76063970  0.44893041  0.28368784  1
  Ge  Ge29  1  0.76062444  0.71631749  0.16524806  1
  Ge  Ge30  1  0.73938340  0.16523732  0.71631270  1
  Ge  Ge31  1  0.73937556  0.28368251  0.44893056  1
  Ge  Ge32  1  0.73936030  0.55106959  0.83475742  1
  Ge  Ge33  1  0.23938340  0.16523732  0.44892463  1
  Ge  Ge34  1  0.23936030  0.55106959  0.71631216  1
  Ge  Ge35  1  0.23937556  0.28368251  0.83475194  1
  O  O36  1  0.75003913  0.62079640  0.00000838  1
  O  O37  1  0.75000000  1.00000000  0.62083736  1
  O  O38  1  0.74996087  0.37920360  0.37921197  1
  O  O39  1  0.25003913  0.62079640  0.62078803  1
  O  O40  1  0.24996087  0.37920360  -0.00000838  1
  O  O41  1  0.25000000  0.00000000  0.37916264  1
  O  O42  1  0.30239286  0.79742516  0.12759125  1
  O  O43  1  0.30240915  0.87236496  0.66980983  1
  O  O44  1  0.30242939  0.33018786  0.20252937  1
  O  O45  1  0.80239286  0.79742516  0.66983391  1
  O  O46  1  0.80242939  0.33018786  0.12765849  1
  O  O47  1  0.80240915  0.87236496  0.20255512  1
  O  O48  1  0.69760714  0.20257484  0.87240875  1
  O  O49  1  0.69759085  0.12763504  0.33019017  1
  O  O50  1  0.69757061  0.66981214  0.79747063  1
  O  O51  1  0.19760714  0.20257484  0.33016609  1
  O  O52  1  0.19757061  0.66981214  0.87234151  1
  O  O53  1  0.19759085  0.12763504  0.79744488  1
  O  O54  1  0.38419078  0.08993828  0.15619633  1
  O  O55  1  0.38419426  0.84379300  0.93373229  1
  O  O56  1  0.38421775  0.06625579  0.91004951  1
  O  O57  1  0.88419078  0.08993828  0.93374196  1
  O  O58  1  0.88421775  0.06625579  0.15620628  1
  O  O59  1  0.88419426  0.84379300  0.91006071  1
  O  O60  1  0.61580922  0.91006172  0.84380367  1
  O  O61  1  0.61580574  0.15620700  0.06626771  1
  O  O62  1  0.61578225  0.93374421  0.08995049  1
  O  O63  1  0.11580922  0.91006172  0.06625804  1
  O  O64  1  0.11578225  0.93374421  0.84379372  1
  O  O65  1  0.11580574  0.15620700  0.08993929  1
  O  O66  1  0.11234117  0.77241789  0.27808709  1
  O  O67  1  0.11237220  0.72192001  0.49434724  1
  O  O68  1  0.11237969  0.50568697  0.22760943  1
  O  O69  1  0.61234117  0.77241789  0.49433080  1
  O  O70  1  0.61237969  0.50568697  0.27807753  1
  O  O71  1  0.61237220  0.72192001  0.22757276  1
  O  O72  1  0.88765883  0.22758211  0.72191291  1
  O  O73  1  0.88762780  0.27807999  0.50565276  1
  O  O74  1  0.88762031  0.49431303  0.77239057  1
  O  O75  1  0.38765883  0.22758211  0.50566920  1
  O  O76  1  0.38762031  0.49431303  0.72192247  1
  O  O77  1  0.38762780  0.27807999  0.77242724  1
  O  O78  1  0.38622764  0.81078808  0.36099223  1
  O  O79  1  0.38623120  0.63897962  0.44975904  1
  O  O80  1  0.38624975  0.55020347  0.18917977  1
  O  O81  1  0.88622764  0.81078808  0.44979585  1
  O  O82  1  0.88624975  0.55020347  0.36102370  1
  O  O83  1  0.88623120  0.63897962  0.18922059  1
  O  O84  1  0.61377236  0.18921192  0.63900777  1
  O  O85  1  0.61376880  0.36102038  0.55024096  1
  O  O86  1  0.61375025  0.44979653  0.81082023  1
  O  O87  1  0.11377236  0.18921192  0.55020415  1
  O  O88  1  0.11375025  0.44979653  0.63897630  1
  O  O89  1  0.11376880  0.36102038  0.81077941  1
