# generated using pymatgen
data_Ba3Na(SiO4)2
_symmetry_space_group_name_H-M   'P 1'
_cell_length_a   5.85702620
_cell_length_b   5.83880199
_cell_length_c   15.01622823
_cell_angle_alpha   90.00000000
_cell_angle_beta   90.00000000
_cell_angle_gamma   120.10330897
_symmetry_Int_Tables_number   1
_chemical_formula_structural   Ba3Na(SiO4)2
_chemical_formula_sum   'Ba6 Na2 Si4 O16'
_cell_volume   444.26219650
_cell_formula_units_Z   2
loop_
 _symmetry_equiv_pos_site_id
 _symmetry_equiv_pos_as_xyz
  1  'x, y, z'
loop_
 _atom_site_type_symbol
 _atom_site_label
 _atom_site_symmetry_multiplicity
 _atom_site_fract_x
 _atom_site_fract_y
 _atom_site_fract_z
 _atom_site_occupancy
  Ba  Ba0  1  0.98587805  0.97175710  0.25000000  1
  Ba  Ba1  1  0.01412195  0.02824290  0.75000000  1
  Ba  Ba2  1  0.33492723  0.66985347  0.92306186  1
  Ba  Ba3  1  0.66507277  0.33014653  0.07693814  1
  Ba  Ba4  1  0.66507277  0.33014653  0.42306186  1
  Ba  Ba5  1  0.33492723  0.66985347  0.57693814  1
  Na  Na6  1  0.00000000  0.00000000  0.50000000  1
  Na  Na7  1  0.00000000  0.00000000  -0.00000000  1
  Si  Si8  1  0.33175460  0.66351020  0.36070015  1
  Si  Si9  1  0.66824540  0.33648980  0.63929985  1
  Si  Si10  1  0.66824540  0.33648980  0.86070015  1
  Si  Si11  1  0.33175460  0.66351020  0.13929985  1
  O  O12  1  0.18028629  0.81687204  0.39790965  1
  O  O13  1  0.17782678  0.35565357  0.39527946  1
  O  O14  1  0.63658575  0.81687204  0.39790965  1
  O  O15  1  0.81971371  0.18312796  0.60209035  1
  O  O16  1  0.82217322  0.64434643  0.60472054  1
  O  O17  1  0.36341425  0.18312796  0.60209035  1
  O  O18  1  0.81971371  0.18312796  0.89790965  1
  O  O19  1  0.82217322  0.64434643  0.89527946  1
  O  O20  1  0.36341425  0.18312796  0.89790965  1
  O  O21  1  0.18028629  0.81687204  0.10209035  1
  O  O22  1  0.17782678  0.35565357  0.10472054  1
  O  O23  1  0.63658575  0.81687204  0.10209035  1
  O  O24  1  0.33606634  0.67213268  0.25000000  1
  O  O25  1  0.66393366  0.32786732  0.75000000  1
  O  O26  1  0.30602808  0.61205615  0.75000000  1
  O  O27  1  0.69397192  0.38794385  0.25000000  1
