# generated using pymatgen
data_BaSb2
_symmetry_space_group_name_H-M   'P 1'
_cell_length_a   6.95849298
_cell_length_b   7.52918469
_cell_length_c   7.52598980
_cell_angle_alpha   142.37594906
_cell_angle_beta   98.73399782
_cell_angle_gamma   94.17602518
_symmetry_Int_Tables_number   1
_chemical_formula_structural   BaSb2
_chemical_formula_sum   'Ba2 Sb4'
_cell_volume   225.40942778
_cell_formula_units_Z   2
loop_
 _symmetry_equiv_pos_site_id
 _symmetry_equiv_pos_as_xyz
  1  'x, y, z'
loop_
 _atom_site_type_symbol
 _atom_site_label
 _atom_site_symmetry_multiplicity
 _atom_site_fract_x
 _atom_site_fract_y
 _atom_site_fract_z
 _atom_site_occupancy
  Ba  Ba0  1  0.75219112  0.74776501  0.49990151  1
  Ba  Ba1  1  0.25150633  0.24781653  0.49916461  1
  Sb  Sb2  1  0.31891923  0.97302110  0.84036918  1
  Sb  Sb3  1  0.81860367  0.47264315  0.84040269  1
  Sb  Sb4  1  0.68494371  0.02252557  0.15869342  1
  Sb  Sb5  1  0.18539692  0.52296065  0.15877159  1
