# generated using pymatgen
data_O2
_symmetry_space_group_name_H-M   'P 1'
_cell_length_a   5.43227898
_cell_length_b   5.43227898
_cell_length_c   3.11704676
_cell_angle_alpha   76.75601424
_cell_angle_beta   103.24398576
_cell_angle_gamma   91.53344286
_symmetry_Int_Tables_number   1
_chemical_formula_structural   O2
_chemical_formula_sum   O8
_cell_volume   87.12302745
_cell_formula_units_Z   4
loop_
 _symmetry_equiv_pos_site_id
 _symmetry_equiv_pos_as_xyz
  1  'x, y, z'
loop_
 _atom_site_type_symbol
 _atom_site_label
 _atom_site_symmetry_multiplicity
 _atom_site_fract_x
 _atom_site_fract_y
 _atom_site_fract_z
 _atom_site_occupancy
  O  O0  1  0.01637407  0.68025993  0.18335660  1
  O  O1  1  0.68025993  0.01637407  0.31664340  1
  O  O2  1  0.98362593  0.31974007  0.81664340  1
  O  O3  1  0.31974007  0.98362593  0.68335660  1
  O  O4  1  0.48928557  0.81910278  0.82076698  1
  O  O5  1  0.81910278  0.48928557  0.67923302  1
  O  O6  1  0.51071443  0.18089722  0.17923302  1
  O  O7  1  0.18089722  0.51071443  0.32076698  1
