# generated using pymatgen
data_Mg14TiNi
_symmetry_space_group_name_H-M   'P 1'
_cell_length_a   6.28804721
_cell_length_b   6.17567271
_cell_length_c   9.97127304
_cell_angle_alpha   90.00000000
_cell_angle_beta   90.00000000
_cell_angle_gamma   119.41057307
_symmetry_Int_Tables_number   1
_chemical_formula_structural   Mg14TiNi
_chemical_formula_sum   'Mg14 Ti1 Ni1'
_cell_volume   337.31080851
_cell_formula_units_Z   1
loop_
 _symmetry_equiv_pos_site_id
 _symmetry_equiv_pos_as_xyz
  1  'x, y, z'
loop_
 _atom_site_type_symbol
 _atom_site_label
 _atom_site_symmetry_multiplicity
 _atom_site_fract_x
 _atom_site_fract_y
 _atom_site_fract_z
 _atom_site_occupancy
  Mg  Mg0  1  0.16693894  0.33346897  0.62500000  1
  Mg  Mg1  1  0.17043881  0.83521890  0.62500000  1
  Mg  Mg2  1  0.66104337  0.33884947  0.12500000  1
  Mg  Mg3  1  0.66393575  0.32958791  0.62500000  1
  Mg  Mg4  1  0.66104337  0.82219291  0.12500000  1
  Mg  Mg5  1  0.66393575  0.83434684  0.62500000  1
  Mg  Mg6  1  0.32761316  0.16674382  0.35881197  1
  Mg  Mg7  1  0.32761316  0.16674382  0.89118803  1
  Mg  Mg8  1  0.32761316  0.66087035  0.35881197  1
  Mg  Mg9  1  0.32761316  0.66087035  0.89118803  1
  Mg  Mg10  1  0.84965966  0.17483033  0.35770254  1
  Mg  Mg11  1  0.84965966  0.17483033  0.89229746  1
  Mg  Mg12  1  0.84047760  0.67023930  0.37560927  1
  Mg  Mg13  1  0.84047760  0.67023930  0.87439073  1
  Ti  Ti14  1  0.14996732  0.82498316  0.12500000  1
  Ni  Ni15  1  0.17196952  0.33598426  0.12500000  1
