# generated using pymatgen
data_Sr(H8O5)2
_symmetry_space_group_name_H-M   'P 1'
_cell_length_a   6.28280758
_cell_length_b   6.31125522
_cell_length_c   6.72770990
_cell_angle_alpha   89.34031237
_cell_angle_beta   89.05937631
_cell_angle_gamma   90.20348059
_symmetry_Int_Tables_number   1
_chemical_formula_structural   Sr(H8O5)2
_chemical_formula_sum   'Sr1 H16 O10'
_cell_volume   266.71436339
_cell_formula_units_Z   1
loop_
 _symmetry_equiv_pos_site_id
 _symmetry_equiv_pos_as_xyz
  1  'x, y, z'
loop_
 _atom_site_type_symbol
 _atom_site_label
 _atom_site_symmetry_multiplicity
 _atom_site_fract_x
 _atom_site_fract_y
 _atom_site_fract_z
 _atom_site_occupancy
  Sr  Sr0  1  0.00797895  0.00000884  0.99066285  1
  H  H1  1  0.32902629  0.34462879  0.68378675  1
  H  H2  1  0.24640643  0.11241962  0.63552098  1
  H  H3  1  0.66904100  0.67709063  0.69216292  1
  H  H4  1  0.72444158  0.92685470  0.68768210  1
  H  H5  1  0.92431814  0.28014591  0.68794693  1
  H  H6  1  0.67264481  0.32988071  0.69099224  1
  H  H7  1  0.32536609  0.67113171  0.68884613  1
  H  H8  1  0.07327580  0.71665315  0.68415819  1
  H  H9  1  0.73288472  0.92429336  0.31025177  1
  H  H10  1  0.67321485  0.67432735  0.30431161  1
  H  H11  1  0.33443678  0.31967348  0.30674332  1
  H  H12  1  0.28079942  0.06652551  0.30030964  1
  H  H13  1  0.32723746  0.66894089  0.30681370  1
  H  H14  1  0.07786263  0.73611728  0.31307128  1
  H  H15  1  0.67609340  0.32767273  0.30327410  1
  H  H16  1  0.92329200  0.26332814  0.31516019  1
  O  O17  1  0.50307335  0.50233467  0.60822999  1
  O  O18  1  0.50079338  0.49911773  0.38546169  1
  O  O19  1  0.21584771  0.23178548  0.72254502  1
  O  O20  1  0.77028001  0.78912252  0.74235576  1
  O  O21  1  0.78508704  0.22609077  0.73717221  1
  O  O22  1  0.20835853  0.77021473  0.73524658  1
  O  O23  1  0.78130326  0.78625389  0.25968751  1
  O  O24  1  0.23051100  0.20822030  0.25885110  1
  O  O25  1  0.21917929  0.77725886  0.25882541  1
  O  O26  1  0.78724509  0.22168127  0.25686605  1
