# generated using pymatgen
data_USb2F15
_symmetry_space_group_name_H-M   'P 1'
_cell_length_a   8.53282948
_cell_length_b   10.49124150
_cell_length_c   15.90340174
_cell_angle_alpha   90.00000000
_cell_angle_beta   90.00000000
_cell_angle_gamma   87.43426784
_symmetry_Int_Tables_number   1
_chemical_formula_structural   USb2F15
_chemical_formula_sum   'U4 Sb8 F60'
_cell_volume   1422.24492299
_cell_formula_units_Z   4
loop_
 _symmetry_equiv_pos_site_id
 _symmetry_equiv_pos_as_xyz
  1  'x, y, z'
loop_
 _atom_site_type_symbol
 _atom_site_label
 _atom_site_symmetry_multiplicity
 _atom_site_fract_x
 _atom_site_fract_y
 _atom_site_fract_z
 _atom_site_occupancy
  U  U0  1  0.24711087  0.66508419  0.37619634  1
  U  U1  1  0.75288913  0.83491581  0.87619634  1
  U  U2  1  0.24711087  0.16508419  0.12380366  1
  U  U3  1  0.75288913  0.33491481  0.62380366  1
  Sb  Sb4  1  0.35650046  0.94836774  0.71631435  1
  Sb  Sb5  1  0.13097779  0.77778247  0.05276519  1
  Sb  Sb6  1  0.64349954  0.05163226  0.28368565  1
  Sb  Sb7  1  0.86902221  0.72221753  0.55276519  1
  Sb  Sb8  1  0.64349954  0.55163226  0.21631435  1
  Sb  Sb9  1  0.13097779  0.27778247  0.44723481  1
  Sb  Sb10  1  0.35650046  0.44836774  0.78368565  1
  Sb  Sb11  1  0.86902221  0.22221753  0.94723481  1
  F  F12  1  0.81574007  0.46811640  0.16346954  1
  F  F13  1  0.88201304  0.03544250  0.94585211  1
  F  F14  1  0.53022123  0.06008063  0.38448342  1
  F  F15  1  0.18425993  0.53188360  0.83653046  1
  F  F16  1  0.16661514  0.82557101  0.31805729  1
  F  F17  1  0.98146389  0.29179676  0.54603623  1
  F  F18  1  0.53001698  0.84872540  0.76854998  1
  F  F19  1  0.94567674  0.28294774  0.38058501  1
  F  F20  1  0.84709441  0.43561323  0.71713287  1
  F  F21  1  0.53022123  0.56008063  0.11551658  1
  F  F22  1  0.26822932  0.77800095  0.14632616  1
  F  F23  1  0.83338486  0.67442899  0.81805729  1
  F  F24  1  0.70716936  0.71321375  0.47154654  1
  F  F25  1  0.65024075  0.22049393  0.54036996  1
  F  F26  1  0.77282817  0.66887352  0.26705994  1
  F  F27  1  0.73177068  0.72199905  0.64632616  1
  F  F28  1  0.77282817  0.16887352  0.23294006  1
  F  F29  1  0.59475378  0.47062770  0.58360979  1
  F  F30  1  0.59475378  0.97062770  0.91639021  1
  F  F31  1  0.11798696  0.46455750  0.44585211  1
  F  F32  1  0.13052436  0.59802379  0.04489445  1
  F  F33  1  0.98146389  0.79179676  0.95396377  1
  F  F34  1  0.40691744  0.08932658  0.78124927  1
  F  F35  1  0.70716936  0.21321375  0.02845346  1
  F  F36  1  0.16661514  0.32557101  0.18194271  1
  F  F37  1  0.15290559  0.06438677  0.21713287  1
  F  F38  1  0.29283064  0.28678625  0.52845346  1
  F  F39  1  0.40524622  0.52937230  0.41639021  1
  F  F40  1  0.46998302  0.65127460  0.26854998  1
  F  F41  1  0.15290559  0.56438677  0.28286713  1
  F  F42  1  0.26822932  0.27800095  0.35367384  1
  F  F43  1  0.05432326  0.21705226  0.88058501  1
  F  F44  1  0.18425993  0.03188360  0.66346954  1
  F  F45  1  0.22717183  0.83112648  0.76705994  1
  F  F46  1  0.73177068  0.22199905  0.85367384  1
  F  F47  1  0.22717183  0.33112648  0.73294006  1
  F  F48  1  0.59308256  0.41067342  0.28124927  1
  F  F49  1  0.01853611  0.70820324  0.45396377  1
  F  F50  1  0.11798696  0.96455750  0.05414789  1
  F  F51  1  0.88201304  0.53544250  0.55414789  1
  F  F52  1  0.40691744  0.58932658  0.71875073  1
  F  F53  1  0.84709441  0.93561323  0.78286713  1
  F  F54  1  0.86947564  0.90197621  0.54489445  1
  F  F55  1  0.46998302  0.15127460  0.23145002  1
  F  F56  1  0.86947564  0.40197621  0.95510555  1
  F  F57  1  0.46977877  0.43991937  0.88448342  1
  F  F58  1  0.29283064  0.78678625  0.97154654  1
  F  F59  1  0.65024075  0.72049393  0.95963004  1
  F  F60  1  0.40524622  0.02937230  0.08360979  1
  F  F61  1  0.01853611  0.20820324  0.04603623  1
  F  F62  1  0.83338486  0.17442899  0.68194271  1
  F  F63  1  0.53001698  0.34872540  0.73145002  1
  F  F64  1  0.94567674  0.78294774  0.11941499  1
  F  F65  1  0.13052436  0.09802379  0.45510555  1
  F  F66  1  0.81574007  0.96811640  0.33653046  1
  F  F67  1  0.59308256  0.91067342  0.21875073  1
  F  F68  1  0.46977877  0.93991937  0.61551658  1
  F  F69  1  0.34975925  0.77950607  0.45963004  1
  F  F70  1  0.34975925  0.27950607  0.04036996  1
  F  F71  1  0.05432326  0.71705226  0.61941499  1
