# generated using pymatgen
data_SbF6
_symmetry_space_group_name_H-M   'P 1'
_cell_length_a   7.64330550
_cell_length_b   10.38707760
_cell_length_c   12.73603538
_cell_angle_alpha   90.00000000
_cell_angle_beta   90.00000000
_cell_angle_gamma   90.00000000
_symmetry_Int_Tables_number   1
_chemical_formula_structural   SbF6
_chemical_formula_sum   'Sb8 F48'
_cell_volume   1011.13432007
_cell_formula_units_Z   8
loop_
 _symmetry_equiv_pos_site_id
 _symmetry_equiv_pos_as_xyz
  1  'x, y, z'
loop_
 _atom_site_type_symbol
 _atom_site_label
 _atom_site_symmetry_multiplicity
 _atom_site_fract_x
 _atom_site_fract_y
 _atom_site_fract_z
 _atom_site_occupancy
  Sb  Sb0  1  0.88642944  0.78027343  0.78592027  1
  Sb  Sb1  1  0.61357056  0.21972657  0.28592027  1
  Sb  Sb2  1  0.38642944  0.71972657  0.21407973  1
  Sb  Sb3  1  0.11357056  0.28027343  0.71407973  1
  Sb  Sb4  1  0.58210035  0.58371877  0.58688519  1
  Sb  Sb5  1  0.91789965  0.41628123  0.08688519  1
  Sb  Sb6  1  0.08210035  0.91628123  0.41311481  1
  Sb  Sb7  1  0.41789965  0.08371877  0.91311481  1
  F  F8  1  0.41397751  0.59666852  0.95526183  1
  F  F9  1  0.08602249  0.40333148  0.45526183  1
  F  F10  1  0.91397751  0.90333148  0.04473817  1
  F  F11  1  0.58602249  0.09666852  0.54473817  1
  F  F12  1  0.80338616  0.66162145  0.66852148  1
  F  F13  1  0.69661384  0.33837855  0.16852148  1
  F  F14  1  0.30338616  0.83837855  0.33147852  1
  F  F15  1  0.19661384  0.16162145  0.83147852  1
  F  F16  1  0.05501872  0.85558804  0.69663265  1
  F  F17  1  0.44498128  0.14441196  0.19663265  1
  F  F18  1  0.55501872  0.64441196  0.30336735  1
  F  F19  1  0.94498128  0.35558804  0.80336735  1
  F  F20  1  0.05162151  0.65259637  0.82375967  1
  F  F21  1  0.44837849  0.34740363  0.32375967  1
  F  F22  1  0.55162151  0.84740363  0.17624033  1
  F  F23  1  0.94837849  0.15259637  0.67624033  1
  F  F24  1  0.96989281  0.90295640  0.89596173  1
  F  F25  1  0.53010719  0.09704360  0.39596173  1
  F  F26  1  0.46989281  0.59704360  0.10403827  1
  F  F27  1  0.03010719  0.40295640  0.60403827  1
  F  F28  1  0.72227846  0.70430185  0.87936259  1
  F  F29  1  0.77772154  0.29569815  0.37936259  1
  F  F30  1  0.22227846  0.79569815  0.12063741  1
  F  F31  1  0.27772154  0.20430185  0.62063741  1
  F  F32  1  0.71782157  0.90046272  0.73918074  1
  F  F33  1  0.78217843  0.09953728  0.23918074  1
  F  F34  1  0.21782157  0.59953728  0.26081926  1
  F  F35  1  0.28217843  0.40046272  0.76081926  1
  F  F36  1  0.75093518  0.54506879  0.48142941  1
  F  F37  1  0.74906482  0.45493121  0.98142941  1
  F  F38  1  0.25093518  0.95493121  0.51857059  1
  F  F39  1  0.24906482  0.04506879  0.01857059  1
  F  F40  1  0.05880206  0.74989268  0.47465599  1
  F  F41  1  0.44119794  0.25010732  0.97465599  1
  F  F42  1  0.55880206  0.75010732  0.52534401  1
  F  F43  1  0.94119794  0.24989268  0.02534401  1
  F  F44  1  0.39016480  0.50953283  0.51541972  1
  F  F45  1  0.10983520  0.49046717  0.01541972  1
  F  F46  1  0.89016480  0.99046717  0.48458028  1
  F  F47  1  0.60983520  0.00953283  0.98458028  1
  F  F48  1  0.45143591  0.64390479  0.70360519  1
  F  F49  1  0.04856409  0.35609521  0.20360519  1
  F  F50  1  0.95143591  0.85609521  0.29639481  1
  F  F51  1  0.54856409  0.14390479  0.79639481  1
  F  F52  1  0.64138717  0.42881583  0.65771675  1
  F  F53  1  0.85861283  0.57118417  0.15771675  1
  F  F54  1  0.14138717  0.07118417  0.34228325  1
  F  F55  1  0.35861283  0.92881583  0.84228325  1
