# generated using pymatgen
data_Te4MoW3S4
_symmetry_space_group_name_H-M   'P 1'
_cell_length_a   3.36083735
_cell_length_b   3.36098240
_cell_length_c   38.34242869
_cell_angle_alpha   89.99987484
_cell_angle_beta   90.00000000
_cell_angle_gamma   119.99857247
_symmetry_Int_Tables_number   1
_chemical_formula_structural   Te4MoW3S4
_chemical_formula_sum   'Te4 Mo1 W3 S4'
_cell_volume   375.08546125
_cell_formula_units_Z   1
loop_
 _symmetry_equiv_pos_site_id
 _symmetry_equiv_pos_as_xyz
  1  'x, y, z'
loop_
 _atom_site_type_symbol
 _atom_site_label
 _atom_site_symmetry_multiplicity
 _atom_site_fract_x
 _atom_site_fract_y
 _atom_site_fract_z
 _atom_site_occupancy
  Te  Te0  1  0.33335496  0.66671093  0.70712378  1
  Te  Te1  1  0.66663531  0.33326963  0.04436746  1
  Te  Te2  1  0.66664624  0.33329149  0.14350113  1
  Te  Te3  1  0.33335570  0.66671241  0.60797179  1
  Mo  Mo4  1  0.66670710  0.33341420  0.28179131  1
  W  W5  1  0.33331138  0.66662275  0.09390758  1
  W  W6  1  0.33331434  0.66662868  0.46964420  1
  W  W7  1  0.66668901  0.33337803  0.65757173  1
  S  S8  1  0.33334335  0.66668771  0.32123216  1
  S  S9  1  0.66665058  0.33330016  0.43005851  1
  S  S10  1  0.66664704  0.33329308  0.50922650  1
  S  S11  1  0.33334497  0.66669093  0.24235184  1
