# generated using pymatgen
data_AlAu3
_symmetry_space_group_name_H-M   'P 1'
_cell_length_a   5.82264147
_cell_length_b   5.82264180
_cell_length_c   4.75399508
_cell_angle_alpha   90.00000000
_cell_angle_beta   90.00000000
_cell_angle_gamma   120.00000441
_symmetry_Int_Tables_number   1
_chemical_formula_structural   AlAu3
_chemical_formula_sum   'Al2 Au6'
_cell_volume   139.58201489
_cell_formula_units_Z   2
loop_
 _symmetry_equiv_pos_site_id
 _symmetry_equiv_pos_as_xyz
  1  'x, y, z'
loop_
 _atom_site_type_symbol
 _atom_site_label
 _atom_site_symmetry_multiplicity
 _atom_site_fract_x
 _atom_site_fract_y
 _atom_site_fract_z
 _atom_site_occupancy
  Al  Al0  1  0.33333400  0.66666700  0.74999900  1
  Al  Al1  1  0.66666700  0.33333400  0.25000000  1
  Au  Au2  1  0.17046567  0.34093135  0.25000000  1
  Au  Au3  1  0.65906865  0.82953333  0.25000000  1
  Au  Au4  1  0.17046567  0.82953333  0.25000000  1
  Au  Au5  1  0.82953433  0.65906865  0.74999900  1
  Au  Au6  1  0.34093135  0.17046567  0.74999900  1
  Au  Au7  1  0.82953433  0.17046567  0.74999900  1
