# generated using pymatgen
data_Ag4Te(PO7)2
_symmetry_space_group_name_H-M   'P 1'
_cell_length_a   5.85329936
_cell_length_b   18.79397753
_cell_length_c   5.59647805
_cell_angle_alpha   90.00000000
_cell_angle_beta   108.46917259
_cell_angle_gamma   90.00000000
_symmetry_Int_Tables_number   1
_chemical_formula_structural   Ag4Te(PO7)2
_chemical_formula_sum   'Ag8 Te2 P4 O28'
_cell_volume   583.94096364
_cell_formula_units_Z   2
loop_
 _symmetry_equiv_pos_site_id
 _symmetry_equiv_pos_as_xyz
  1  'x, y, z'
loop_
 _atom_site_type_symbol
 _atom_site_label
 _atom_site_symmetry_multiplicity
 _atom_site_fract_x
 _atom_site_fract_y
 _atom_site_fract_z
 _atom_site_occupancy
  Ag  Ag0  1  0.57439824  0.67854411  0.61955502  1
  Ag  Ag1  1  0.07439824  0.82145589  0.11955502  1
  Ag  Ag2  1  0.42560176  0.32145589  0.38044498  1
  Ag  Ag3  1  0.92560176  0.17854411  0.88044498  1
  Ag  Ag4  1  0.38589836  0.93518568  0.62061810  1
  Ag  Ag5  1  0.88589836  0.56481432  0.12061810  1
  Ag  Ag6  1  0.61410164  0.06481432  0.37938190  1
  Ag  Ag7  1  0.11410164  0.43518568  0.87938190  1
  Te  Te8  1  0.50000000  0.50000000  0.50000000  1
  Te  Te9  1  -0.00000000  0.00000000  -0.00000000  1
  P  P10  1  0.59348244  0.83151866  0.31788202  1
  P  P11  1  0.09348244  0.66848134  0.81788202  1
  P  P12  1  0.40651756  0.16848134  0.68211798  1
  P  P13  1  0.90651756  0.33151866  0.18211798  1
  O  O14  1  0.19327199  0.55093962  0.42935463  1
  O  O15  1  0.69327199  0.94906038  0.92935463  1
  O  O16  1  0.80672801  0.44906038  0.57064537  1
  O  O17  1  0.30672801  0.05093962  0.07064537  1
  O  O18  1  0.38947820  0.42257258  0.23100380  1
  O  O19  1  0.88947820  0.07742742  0.73100380  1
  O  O20  1  0.61052180  0.57742742  0.76899620  1
  O  O21  1  0.11052180  0.92257258  0.26899620  1
  O  O22  1  0.59485420  0.55742581  0.26099766  1
  O  O23  1  0.09485420  0.94257419  0.76099766  1
  O  O24  1  0.40514580  0.44257419  0.73900234  1
  O  O25  1  0.90514580  0.05742581  0.23900234  1
  O  O26  1  0.02790752  0.71457591  0.01843286  1
  O  O27  1  0.52790752  0.78542409  0.51843286  1
  O  O28  1  0.97209248  0.28542409  0.98156714  1
  O  O29  1  0.47209248  0.21457591  0.48156714  1
  O  O30  1  0.82235848  0.80145528  0.28370662  1
  O  O31  1  0.32235848  0.69854472  0.78370662  1
  O  O32  1  0.17764152  0.19854472  0.71629338  1
  O  O33  1  0.67764152  0.30145528  0.21629338  1
  O  O34  1  0.39329595  0.82739411  0.05356486  1
  O  O35  1  0.89329595  0.67260589  0.55356486  1
  O  O36  1  0.60670405  0.17260589  0.94643514  1
  O  O37  1  0.10670405  0.32739411  0.44643514  1
  O  O38  1  0.62318324  0.90882534  0.42709156  1
  O  O39  1  0.12318324  0.59117466  0.92709156  1
  O  O40  1  0.37681676  0.09117466  0.57290844  1
  O  O41  1  0.87681676  0.40882534  0.07290844  1
