# generated using pymatgen
data_EuAg3
_symmetry_space_group_name_H-M   'P 1'
_cell_length_a   6.75436600
_cell_length_b   6.75436566
_cell_length_c   4.82799171
_cell_angle_alpha   90.00000000
_cell_angle_beta   90.00000000
_cell_angle_gamma   120.00000166
_symmetry_Int_Tables_number   1
_chemical_formula_structural   EuAg3
_chemical_formula_sum   'Eu2 Ag6'
_cell_volume   190.75076947
_cell_formula_units_Z   2
loop_
 _symmetry_equiv_pos_site_id
 _symmetry_equiv_pos_as_xyz
  1  'x, y, z'
loop_
 _atom_site_type_symbol
 _atom_site_label
 _atom_site_symmetry_multiplicity
 _atom_site_fract_x
 _atom_site_fract_y
 _atom_site_fract_z
 _atom_site_occupancy
  Eu  Eu0  1  0.33333300  0.66666600  0.75000000  1
  Eu  Eu1  1  0.66666600  0.33333300  0.25000000  1
  Ag  Ag2  1  0.14391828  0.28783656  0.25000000  1
  Ag  Ag3  1  0.71216444  0.85608272  0.25000000  1
  Ag  Ag4  1  0.14391828  0.85608272  0.25000000  1
  Ag  Ag5  1  0.85607972  0.71216344  0.75000000  1
  Ag  Ag6  1  0.28783756  0.14391728  0.75000000  1
  Ag  Ag7  1  0.85608172  0.14391728  0.75000000  1
