# generated using pymatgen
data_K2Bi2O5
_symmetry_space_group_name_H-M   'P 1'
_cell_length_a   8.68905750
_cell_length_b   4.35497586
_cell_length_c   4.35497586
_cell_angle_alpha   90.00000000
_cell_angle_beta   90.00000000
_cell_angle_gamma   90.00000000
_symmetry_Int_Tables_number   1
_chemical_formula_structural   K2Bi2O5
_chemical_formula_sum   'K2 Bi2 O5'
_cell_volume   164.79505482
_cell_formula_units_Z   1
loop_
 _symmetry_equiv_pos_site_id
 _symmetry_equiv_pos_as_xyz
  1  'x, y, z'
loop_
 _atom_site_type_symbol
 _atom_site_label
 _atom_site_symmetry_multiplicity
 _atom_site_fract_x
 _atom_site_fract_y
 _atom_site_fract_z
 _atom_site_occupancy
  K  K0  1  -0.00000000  0.00000000  0.00000000  1
  K  K1  1  0.50000100  0.00000000  0.00000000  1
  Bi  Bi2  1  0.25663230  0.50000200  0.50000200  1
  Bi  Bi3  1  0.74336770  0.50000200  0.50000200  1
  O  O4  1  0.22090024  0.50000200  0.00000000  1
  O  O5  1  0.77910076  0.50000200  -0.00000000  1
  O  O6  1  0.50000100  0.50000200  0.50000200  1
  O  O7  1  0.22090024  0.00000000  0.50000200  1
  O  O8  1  0.77910076  0.00000000  0.50000200  1
