# generated using pymatgen
data_GaPb3
_symmetry_space_group_name_H-M   'P 1'
_cell_length_a   6.81650417
_cell_length_b   6.81650389
_cell_length_c   5.81641981
_cell_angle_alpha   90.00000000
_cell_angle_beta   90.00000000
_cell_angle_gamma   120.00000129
_symmetry_Int_Tables_number   1
_chemical_formula_structural   GaPb3
_chemical_formula_sum   'Ga2 Pb6'
_cell_volume   234.05060216
_cell_formula_units_Z   2
loop_
 _symmetry_equiv_pos_site_id
 _symmetry_equiv_pos_as_xyz
  1  'x, y, z'
loop_
 _atom_site_type_symbol
 _atom_site_label
 _atom_site_symmetry_multiplicity
 _atom_site_fract_x
 _atom_site_fract_y
 _atom_site_fract_z
 _atom_site_occupancy
  Ga  Ga0  1  0.33333400  0.66666800  0.75000000  1
  Ga  Ga1  1  0.66666700  0.33333200  0.24999900  1
  Pb  Pb2  1  0.16993626  0.33987252  0.24999900  1
  Pb  Pb3  1  0.66012648  0.83006374  0.24999900  1
  Pb  Pb4  1  0.16993726  0.83006374  0.24999900  1
  Pb  Pb5  1  0.83006374  0.66012848  0.75000000  1
  Pb  Pb6  1  0.33987252  0.16993526  0.75000000  1
  Pb  Pb7  1  0.83006474  0.16993526  0.75000000  1
