# generated using pymatgen
data_Te4MoW3S4
_symmetry_space_group_name_H-M   'P 1'
_cell_length_a   3.36175718
_cell_length_b   3.36174784
_cell_length_c   38.32632629
_cell_angle_alpha   89.99997156
_cell_angle_beta   90.00000000
_cell_angle_gamma   120.00009186
_symmetry_Int_Tables_number   1
_chemical_formula_structural   Te4MoW3S4
_chemical_formula_sum   'Te4 Mo1 W3 S4'
_cell_volume   375.11022154
_cell_formula_units_Z   1
loop_
 _symmetry_equiv_pos_site_id
 _symmetry_equiv_pos_as_xyz
  1  'x, y, z'
loop_
 _atom_site_type_symbol
 _atom_site_label
 _atom_site_symmetry_multiplicity
 _atom_site_fract_x
 _atom_site_fract_y
 _atom_site_fract_z
 _atom_site_occupancy
  Te  Te0  1  0.33335700  0.66671499  0.33142964  1
  Te  Te1  1  0.33335143  0.66670385  0.70717972  1
  Te  Te2  1  0.33335457  0.66671014  0.23218460  1
  Te  Te3  1  0.33335074  0.66670248  0.60788523  1
  Mo  Mo4  1  0.33331524  0.66663049  0.46967383  1
  W  W5  1  0.33330935  0.66661871  0.09389103  1
  W  W6  1  0.66668828  0.33337655  0.28179281  1
  W  W7  1  0.66668963  0.33337926  0.65755618  1
  S  S8  1  0.66664389  0.33328677  0.05430072  1
  S  S9  1  0.66664606  0.33329112  0.43034146  1
  S  S10  1  0.66664733  0.33329366  0.13350287  1
  S  S11  1  0.66664649  0.33329198  0.50900992  1
