# generated using pymatgen
data_MgS3
_symmetry_space_group_name_H-M   'P 1'
_cell_length_a   4.11664299
_cell_length_b   3.65494573
_cell_length_c   5.04081662
_cell_angle_alpha   90.00000000
_cell_angle_beta   90.00000000
_cell_angle_gamma   90.00000000
_symmetry_Int_Tables_number   1
_chemical_formula_structural   MgS3
_chemical_formula_sum   'Mg1 S3'
_cell_volume   75.84466481
_cell_formula_units_Z   1
loop_
 _symmetry_equiv_pos_site_id
 _symmetry_equiv_pos_as_xyz
  1  'x, y, z'
loop_
 _atom_site_type_symbol
 _atom_site_label
 _atom_site_symmetry_multiplicity
 _atom_site_fract_x
 _atom_site_fract_y
 _atom_site_fract_z
 _atom_site_occupancy
  Mg  Mg0  1  0.00000000  0.86705968  0.50000000  1
  S  S1  1  0.49999900  0.43069737  -0.00000000  1
  S  S2  1  0.00000000  0.67121248  0.00000000  1
  S  S3  1  0.49999900  0.36436147  0.50000000  1
