# generated using pymatgen
data_NaYb3
_symmetry_space_group_name_H-M   'P 1'
_cell_length_a   7.69198465
_cell_length_b   7.69198491
_cell_length_c   6.30199213
_cell_angle_alpha   90.00000000
_cell_angle_beta   90.00000000
_cell_angle_gamma   119.99999886
_symmetry_Int_Tables_number   1
_chemical_formula_structural   NaYb3
_chemical_formula_sum   'Na2 Yb6'
_cell_volume   322.91284828
_cell_formula_units_Z   2
loop_
 _symmetry_equiv_pos_site_id
 _symmetry_equiv_pos_as_xyz
  1  'x, y, z'
loop_
 _atom_site_type_symbol
 _atom_site_label
 _atom_site_symmetry_multiplicity
 _atom_site_fract_x
 _atom_site_fract_y
 _atom_site_fract_z
 _atom_site_occupancy
  Na  Na0  1  0.33333400  0.66666700  0.75000100  1
  Na  Na1  1  0.66666800  0.33333400  0.25000000  1
  Yb  Yb2  1  0.66915360  0.83457780  0.25000000  1
  Yb  Yb3  1  0.16542320  0.83457780  0.25000000  1
  Yb  Yb4  1  0.83457680  0.66915360  0.75000100  1
  Yb  Yb5  1  0.33084640  0.16542420  0.75000100  1
  Yb  Yb6  1  0.83457880  0.16542420  0.75000100  1
  Yb  Yb7  1  0.16542220  0.33084540  0.25000000  1
