# generated using pymatgen
data_LiYb3
_symmetry_space_group_name_H-M   'P 1'
_cell_length_a   7.44592773
_cell_length_b   7.44592670
_cell_length_c   6.07788337
_cell_angle_alpha   90.00000000
_cell_angle_beta   90.00000000
_cell_angle_gamma   119.99999293
_symmetry_Int_Tables_number   1
_chemical_formula_structural   LiYb3
_chemical_formula_sum   'Li2 Yb6'
_cell_volume   291.82372595
_cell_formula_units_Z   2
loop_
 _symmetry_equiv_pos_site_id
 _symmetry_equiv_pos_as_xyz
  1  'x, y, z'
loop_
 _atom_site_type_symbol
 _atom_site_label
 _atom_site_symmetry_multiplicity
 _atom_site_fract_x
 _atom_site_fract_y
 _atom_site_fract_z
 _atom_site_occupancy
  Li  Li0  1  0.33333300  0.66666600  0.75000100  1
  Li  Li1  1  0.66666800  0.33333300  0.25000100  1
  Yb  Yb2  1  0.83134533  0.16865267  0.75000100  1
  Yb  Yb3  1  0.33730934  0.16865267  0.75000100  1
  Yb  Yb4  1  0.83134533  0.66269166  0.75000100  1
  Yb  Yb5  1  0.16865467  0.83134633  0.25000100  1
  Yb  Yb6  1  0.66269166  0.83134633  0.25000100  1
  Yb  Yb7  1  0.16865467  0.33730934  0.25000100  1
