# generated using pymatgen
data_Mg16Al12Pd
_symmetry_space_group_name_H-M   'P 1'
_cell_length_a   9.21373038
_cell_length_b   9.02118140
_cell_length_c   9.02118064
_cell_angle_alpha   109.03481227
_cell_angle_beta   109.90418320
_cell_angle_gamma   109.90417508
_symmetry_Int_Tables_number   1
_chemical_formula_structural   Mg16Al12Pd
_chemical_formula_sum   'Mg16 Al12 Pd1'
_cell_volume   574.10575579
_cell_formula_units_Z   1
loop_
 _symmetry_equiv_pos_site_id
 _symmetry_equiv_pos_as_xyz
  1  'x, y, z'
loop_
 _atom_site_type_symbol
 _atom_site_label
 _atom_site_symmetry_multiplicity
 _atom_site_fract_x
 _atom_site_fract_y
 _atom_site_fract_z
 _atom_site_occupancy
  Mg  Mg0  1  0.99155246  0.99999900  1.00000000  1
  Mg  Mg1  1  0.31796795  0.59579224  0.99999900  1
  Mg  Mg2  1  0.00214093  0.35021023  0.99999900  1
  Mg  Mg3  1  0.57992880  0.27671865  0.00000100  1
  Mg  Mg4  1  0.68260259  0.67734776  0.27740010  1
  Mg  Mg5  1  0.57992880  1.00000000  0.27671865  1
  Mg  Mg6  1  0.00525483  0.60005334  0.32265224  1
  Mg  Mg7  1  0.00214193  0.00000000  0.35021023  1
  Mg  Mg8  1  0.40520249  0.72259990  0.39994766  1
  Mg  Mg9  1  0.72217771  0.40420876  0.40420776  1
  Mg  Mg10  1  0.31796895  0.99999900  0.59579124  1
  Mg  Mg11  1  0.00525483  0.32265124  0.60005234  1
  Mg  Mg12  1  0.65193070  0.64978677  0.64978777  1
  Mg  Mg13  1  0.68260259  0.27740010  0.67734776  1
  Mg  Mg14  1  0.30321015  0.72328235  0.72328235  1
  Mg  Mg15  1  0.40520249  0.39994766  0.72259990  1
  Al  Al16  1  0.81369365  0.61725538  0.99999900  1
  Al  Al17  1  0.64797350  0.81138206  1.00000000  1
  Al  Al18  1  0.36725579  0.36342799  0.18267893  1
  Al  Al19  1  0.18457486  0.81732007  0.18074806  1
  Al  Al20  1  0.83659044  0.18861994  0.18861894  1
  Al  Al21  1  0.36725579  0.18267893  0.36342799  1
  Al  Al22  1  0.19643927  0.38274562  0.38274562  1
  Al  Al23  1  0.81369465  1.00000000  0.61725538  1
  Al  Al24  1  0.00382680  0.81925094  0.63657301  1
  Al  Al25  1  0.64797350  1.00000000  0.81138106  1
  Al  Al26  1  0.00382680  0.63657201  0.81925194  1
  Al  Al27  1  0.18457486  0.18074806  0.81732007  1
  Pd  Pd28  1  0.27724991  0.00000000  0.99999900  1
