# generated using pymatgen
data_Te4MoW3S4
_symmetry_space_group_name_H-M   'P 1'
_cell_length_a   3.36135707
_cell_length_b   3.36146111
_cell_length_c   39.77552800
_cell_angle_alpha   90.00335678
_cell_angle_beta   90.00000000
_cell_angle_gamma   119.99897606
_symmetry_Int_Tables_number   1
_chemical_formula_structural   Te4MoW3S4
_chemical_formula_sum   'Te4 Mo1 W3 S4'
_cell_volume   389.21879642
_cell_formula_units_Z   1
loop_
 _symmetry_equiv_pos_site_id
 _symmetry_equiv_pos_as_xyz
  1  'x, y, z'
loop_
 _atom_site_type_symbol
 _atom_site_label
 _atom_site_symmetry_multiplicity
 _atom_site_fract_x
 _atom_site_fract_y
 _atom_site_fract_z
 _atom_site_occupancy
  Te  Te0  1  0.33336545  0.66673190  0.70686635  1
  Te  Te1  1  0.66665440  0.33330779  0.42040242  1
  Te  Te2  1  0.66668817  0.33337534  0.51606718  1
  Te  Te3  1  0.33331651  0.66663402  0.61124794  1
  Mo  Mo4  1  0.66668892  0.33337784  0.28171629  1
  W  W5  1  0.33331631  0.66663261  0.09390324  1
  W  W6  1  0.33333078  0.66666155  0.46822068  1
  W  W7  1  0.66668113  0.33336225  0.65907176  1
  S  S8  1  0.33334663  0.66669427  0.31971027  1
  S  S9  1  0.66663101  0.33326101  0.05574825  1
  S  S10  1  0.66666957  0.33333814  0.13206397  1
  S  S11  1  0.33331113  0.66662327  0.24372966  1
