# generated using pymatgen
data_SbPd3
_symmetry_space_group_name_H-M   'P 1'
_cell_length_a   5.75272700
_cell_length_b   5.75272725
_cell_length_c   4.65949212
_cell_angle_alpha   90.00000000
_cell_angle_beta   90.00000000
_cell_angle_gamma   119.99999193
_symmetry_Int_Tables_number   1
_chemical_formula_structural   SbPd3
_chemical_formula_sum   'Sb2 Pd6'
_cell_volume   133.54166816
_cell_formula_units_Z   2
loop_
 _symmetry_equiv_pos_site_id
 _symmetry_equiv_pos_as_xyz
  1  'x, y, z'
loop_
 _atom_site_type_symbol
 _atom_site_label
 _atom_site_symmetry_multiplicity
 _atom_site_fract_x
 _atom_site_fract_y
 _atom_site_fract_z
 _atom_site_occupancy
  Sb  Sb0  1  0.33333300  0.66666600  0.75000100  1
  Sb  Sb1  1  0.66666600  0.33333200  0.25000200  1
  Pd  Pd2  1  0.16707858  0.33415717  0.25000200  1
  Pd  Pd3  1  0.66584283  0.83292042  0.25000200  1
  Pd  Pd4  1  0.16707758  0.83292042  0.25000200  1
  Pd  Pd5  1  0.83292042  0.66584083  0.75000100  1
  Pd  Pd6  1  0.33415717  0.16707958  0.75000100  1
  Pd  Pd7  1  0.83292042  0.16707958  0.75000100  1
