# generated using pymatgen
data_Mg16Al12Sb
_symmetry_space_group_name_H-M   'P 1'
_cell_length_a   9.26360408
_cell_length_b   9.11248345
_cell_length_c   9.11248362
_cell_angle_alpha   109.13285281
_cell_angle_beta   109.80751108
_cell_angle_gamma   109.80752016
_symmetry_Int_Tables_number   1
_chemical_formula_structural   Mg16Al12Sb
_chemical_formula_sum   'Mg16 Al12 Sb1'
_cell_volume   589.67433966
_cell_formula_units_Z   1
loop_
 _symmetry_equiv_pos_site_id
 _symmetry_equiv_pos_as_xyz
  1  'x, y, z'
loop_
 _atom_site_type_symbol
 _atom_site_label
 _atom_site_symmetry_multiplicity
 _atom_site_fract_x
 _atom_site_fract_y
 _atom_site_fract_z
 _atom_site_occupancy
  Mg  Mg0  1  0.99840060  -0.00000000  0.99999900  1
  Mg  Mg1  1  0.00167548  0.34749264  1.00000000  1
  Mg  Mg2  1  0.60033669  0.30934098  0.00000000  1
  Mg  Mg3  1  0.31630121  0.60273886  0.00000100  1
  Mg  Mg4  1  0.68145997  0.68279622  0.27900917  1
  Mg  Mg5  1  0.60033669  0.00000100  0.30934098  1
  Mg  Mg6  1  0.99866275  0.59621196  0.31720278  1
  Mg  Mg7  1  0.00167548  0.00000100  0.34749164  1
  Mg  Mg8  1  0.71356235  0.39726214  0.39726214  1
  Mg  Mg9  1  0.40245080  0.72099183  0.40378804  1
  Mg  Mg10  1  0.99866275  0.31720278  0.59621196  1
  Mg  Mg11  1  0.31630121  0.00000100  0.60273886  1
  Mg  Mg12  1  0.65418284  0.65250736  0.65250736  1
  Mg  Mg13  1  0.68145997  0.27900917  0.68279622  1
  Mg  Mg14  1  0.29099671  0.69065902  0.69066002  1
  Mg  Mg15  1  0.40245080  0.40378804  0.72099183  1
  Al  Al16  1  0.63897753  0.81242112  -0.00000000  1
  Al  Al17  1  0.81669570  0.63094597  0.00000000  1
  Al  Al18  1  0.36806160  0.37519462  0.18616140  1
  Al  Al19  1  0.82655441  0.18757888  0.18757788  1
  Al  Al20  1  0.18189919  0.81383760  0.18903221  1
  Al  Al21  1  0.18575073  0.36905603  0.36905503  1
  Al  Al22  1  0.36806260  0.18616140  0.37519462  1
  Al  Al23  1  0.99286698  0.81096779  0.62480538  1
  Al  Al24  1  0.81669570  0.00000100  0.63094497  1
  Al  Al25  1  0.99286698  0.62480538  0.81096679  1
  Al  Al26  1  0.63897653  0.00000000  0.81242112  1
  Al  Al27  1  0.18189919  0.18903221  0.81383760  1
  Sb  Sb28  1  0.33178457  0.00000000  0.99999900  1
