# generated using pymatgen
data_Li3Yb
_symmetry_space_group_name_H-M   'P 1'
_cell_length_a   6.82893779
_cell_length_b   6.82893860
_cell_length_c   5.25038300
_cell_angle_alpha   90.00000000
_cell_angle_beta   90.00000000
_cell_angle_gamma   120.00000804
_symmetry_Int_Tables_number   1
_chemical_formula_structural   Li3Yb
_chemical_formula_sum   'Li6 Yb2'
_cell_volume   212.04495572
_cell_formula_units_Z   2
loop_
 _symmetry_equiv_pos_site_id
 _symmetry_equiv_pos_as_xyz
  1  'x, y, z'
loop_
 _atom_site_type_symbol
 _atom_site_label
 _atom_site_symmetry_multiplicity
 _atom_site_fract_x
 _atom_site_fract_y
 _atom_site_fract_z
 _atom_site_occupancy
  Li  Li0  1  0.14748652  0.29497305  0.25000000  1
  Li  Li1  1  0.70502595  0.85251248  0.25000000  1
  Li  Li2  1  0.14748752  0.85251248  0.25000000  1
  Li  Li3  1  0.85251448  0.70502495  0.75000000  1
  Li  Li4  1  0.29497405  0.14748752  0.75000000  1
  Li  Li5  1  0.85251448  0.14748752  0.75000000  1
  Yb  Yb6  1  0.33333400  0.66666800  0.75000000  1
  Yb  Yb7  1  0.66666700  0.33333200  0.25000000  1
