# generated using pymatgen
data_Dy3GaCoSe7
_symmetry_space_group_name_H-M   'P 1'
_cell_length_a   6.44915657
_cell_length_b   9.98170566
_cell_length_c   9.98125432
_cell_angle_alpha   119.99931648
_cell_angle_beta   90.00000000
_cell_angle_gamma   90.00000000
_symmetry_Int_Tables_number   1
_chemical_formula_structural   Dy3GaCoSe7
_chemical_formula_sum   'Dy6 Ga2 Co2 Se14'
_cell_volume   556.45035598
_cell_formula_units_Z   2
loop_
 _symmetry_equiv_pos_site_id
 _symmetry_equiv_pos_as_xyz
  1  'x, y, z'
loop_
 _atom_site_type_symbol
 _atom_site_label
 _atom_site_symmetry_multiplicity
 _atom_site_fract_x
 _atom_site_fract_y
 _atom_site_fract_z
 _atom_site_occupancy
  Dy  Dy0  1  0.82263508  0.15822493  0.78546795  1
  Dy  Dy1  1  0.82256346  0.21448419  0.37276979  1
  Dy  Dy2  1  0.82256187  0.62724613  0.84173018  1
  Dy  Dy3  1  0.32263508  0.84177507  0.21453205  1
  Dy  Dy4  1  0.32256346  0.78551581  0.62723021  1
  Dy  Dy5  1  0.32256187  0.37275387  0.15826982  1
  Ga  Ga6  1  0.89829364  0.66664392  0.33336087  1
  Ga  Ga7  1  0.39829364  0.33335608  0.66663913  1
  Co  Co8  1  0.49122245  0.00000505  0.99999552  1
  Co  Co9  1  0.99122245  0.99999495  0.00000448  1
  Se  Se10  1  0.55466463  0.43775820  0.91871822  1
  Se  Se11  1  0.55457313  0.08122240  0.51904825  1
  Se  Se12  1  0.55464446  0.48093486  0.56212501  1
  Se  Se13  1  0.05466463  0.56224180  0.08128178  1
  Se  Se14  1  0.05457313  0.91877760  0.48095175  1
  Se  Se15  1  0.05464446  0.51906514  0.43787499  1
  Se  Se16  1  0.52646812  0.66663057  0.33329008  1
  Se  Se17  1  0.02646812  0.33336943  0.66670992  1
  Se  Se18  1  0.73509376  0.87128360  0.77169638  1
  Se  Se19  1  0.73513085  0.22821605  0.09952575  1
  Se  Se20  1  0.73514857  0.90046808  0.12868988  1
  Se  Se21  1  0.23509376  0.12871640  0.22830362  1
  Se  Se22  1  0.23513085  0.77178395  0.90047425  1
  Se  Se23  1  0.23514857  0.09953192  0.87131012  1
