# generated using pymatgen
data_KNaW(OF2)2
_symmetry_space_group_name_H-M   'P 1'
_cell_length_a   6.16968910
_cell_length_b   6.16968910
_cell_length_c   8.39346208
_cell_angle_alpha   90.00000000
_cell_angle_beta   90.00000000
_cell_angle_gamma   90.00000000
_symmetry_Int_Tables_number   1
_chemical_formula_structural   KNaW(OF2)2
_chemical_formula_sum   'K2 Na2 W2 O4 F8'
_cell_volume   319.49766782
_cell_formula_units_Z   2
loop_
 _symmetry_equiv_pos_site_id
 _symmetry_equiv_pos_as_xyz
  1  'x, y, z'
loop_
 _atom_site_type_symbol
 _atom_site_label
 _atom_site_symmetry_multiplicity
 _atom_site_fract_x
 _atom_site_fract_y
 _atom_site_fract_z
 _atom_site_occupancy
  K  K0  1  0.25000000  0.75000000  0.00000000  1
  K  K1  1  0.75000000  0.25000000  0.00000000  1
  Na  Na2  1  0.75000000  0.75000000  0.72628321  1
  Na  Na3  1  0.25000000  0.25000000  0.27371679  1
  W  W4  1  0.75000000  0.75000000  0.24113137  1
  W  W5  1  0.25000000  0.25000000  0.75886863  1
  O  O6  1  0.75000000  0.75000000  0.45572309  1
  O  O7  1  0.25000000  0.25000000  0.54427691  1
  O  O8  1  0.75000000  0.75000000  0.01832835  1
  O  O9  1  0.25000000  0.25000000  0.98167165  1
  F  F10  1  0.97616757  0.52383243  0.23232148  1
  F  F11  1  0.52383243  0.52383243  0.23232148  1
  F  F12  1  0.97616757  0.97616757  0.23232148  1
  F  F13  1  0.52383243  0.97616757  0.23232148  1
  F  F14  1  0.02383243  0.47616757  0.76767852  1
  F  F15  1  0.47616757  0.47616757  0.76767852  1
  F  F16  1  0.02383243  0.02383243  0.76767852  1
  F  F17  1  0.47616757  0.02383243  0.76767852  1
