# generated using pymatgen
data_Mn2ClO3
_symmetry_space_group_name_H-M   'P 1'
_cell_length_a   5.93587969
_cell_length_b   6.68543347
_cell_length_c   8.50239297
_cell_angle_alpha   90.00000000
_cell_angle_beta   90.00000000
_cell_angle_gamma   90.00000000
_symmetry_Int_Tables_number   1
_chemical_formula_structural   Mn2ClO3
_chemical_formula_sum   'Mn8 Cl4 O12'
_cell_volume   337.40835686
_cell_formula_units_Z   4
loop_
 _symmetry_equiv_pos_site_id
 _symmetry_equiv_pos_as_xyz
  1  'x, y, z'
loop_
 _atom_site_type_symbol
 _atom_site_label
 _atom_site_symmetry_multiplicity
 _atom_site_fract_x
 _atom_site_fract_y
 _atom_site_fract_z
 _atom_site_occupancy
  Mn  Mn0  1  0.50000000  0.00000000  0.50000000  1
  Mn  Mn1  1  -0.00000000  0.50000000  -0.00000000  1
  Mn  Mn2  1  0.50000000  0.50000000  0.50000000  1
  Mn  Mn3  1  -0.00000000  0.00000000  -0.00000000  1
  Mn  Mn4  1  0.69441011  0.25000000  0.24886668  1
  Mn  Mn5  1  0.19441011  0.25000000  0.25113332  1
  Mn  Mn6  1  0.30558989  0.75000000  0.75113332  1
  Mn  Mn7  1  0.80558989  0.75000000  0.74886668  1
  Cl  Cl8  1  0.83586042  0.75000000  0.47130787  1
  Cl  Cl9  1  0.33586042  0.75000000  0.02869213  1
  Cl  Cl10  1  0.16413958  0.25000000  0.52869213  1
  Cl  Cl11  1  0.66413958  0.25000000  0.97130787  1
  O  O12  1  0.68038466  0.25000000  0.47694917  1
  O  O13  1  0.18038466  0.25000000  0.02305083  1
  O  O14  1  0.31961534  0.75000000  0.52305083  1
  O  O15  1  0.81961534  0.75000000  0.97694917  1
  O  O16  1  0.94823404  0.05990712  0.22567369  1
  O  O17  1  0.44823404  0.44009288  0.27432631  1
  O  O18  1  0.05176596  0.55990712  0.77432631  1
  O  O19  1  0.55176596  0.94009288  0.72567369  1
  O  O20  1  0.05176596  0.94009288  0.77432631  1
  O  O21  1  0.55176596  0.55990712  0.72567369  1
  O  O22  1  0.94823404  0.44009288  0.22567369  1
  O  O23  1  0.44823404  0.05990712  0.27432631  1
