# generated using pymatgen
data_Zr3Bi
_symmetry_space_group_name_H-M   'P 1'
_cell_length_a   6.36509193
_cell_length_b   6.36509336
_cell_length_c   5.31316494
_cell_angle_alpha   90.00000000
_cell_angle_beta   90.00000000
_cell_angle_gamma   119.99999253
_symmetry_Int_Tables_number   1
_chemical_formula_structural   Zr3Bi
_chemical_formula_sum   'Zr6 Bi2'
_cell_volume   186.42039375
_cell_formula_units_Z   2
loop_
 _symmetry_equiv_pos_site_id
 _symmetry_equiv_pos_as_xyz
  1  'x, y, z'
loop_
 _atom_site_type_symbol
 _atom_site_label
 _atom_site_symmetry_multiplicity
 _atom_site_fract_x
 _atom_site_fract_y
 _atom_site_fract_z
 _atom_site_occupancy
  Zr  Zr0  1  0.16306086  0.32612172  0.25000000  1
  Zr  Zr1  1  0.67387828  0.83694014  0.25000000  1
  Zr  Zr2  1  0.16306086  0.83694014  0.25000000  1
  Zr  Zr3  1  0.83693914  0.67387728  0.75000100  1
  Zr  Zr4  1  0.32612172  0.16306086  0.75000100  1
  Zr  Zr5  1  0.83693914  0.16306086  0.75000100  1
  Bi  Bi6  1  0.33333300  0.66666600  0.75000100  1
  Bi  Bi7  1  0.66666800  0.33333300  0.25000000  1
