# generated using pymatgen
data_Yb(SbS2)2
_symmetry_space_group_name_H-M   'P 1'
_cell_length_a   3.95464605
_cell_length_b   11.54331344
_cell_length_c   14.24556959
_cell_angle_alpha   90.00000000
_cell_angle_beta   90.00000000
_cell_angle_gamma   90.00000000
_symmetry_Int_Tables_number   1
_chemical_formula_structural   Yb(SbS2)2
_chemical_formula_sum   'Yb4 Sb8 S16'
_cell_volume   650.30624735
_cell_formula_units_Z   4
loop_
 _symmetry_equiv_pos_site_id
 _symmetry_equiv_pos_as_xyz
  1  'x, y, z'
loop_
 _atom_site_type_symbol
 _atom_site_label
 _atom_site_symmetry_multiplicity
 _atom_site_fract_x
 _atom_site_fract_y
 _atom_site_fract_z
 _atom_site_occupancy
  Yb  Yb0  1  0.75000000  0.23486003  0.15096798  1
  Yb  Yb1  1  0.75000000  0.73486003  0.34903202  1
  Yb  Yb2  1  0.25000000  0.76513997  0.84903202  1
  Yb  Yb3  1  0.25000000  0.26513997  0.65096798  1
  Sb  Sb4  1  0.75000000  0.43231054  0.89034700  1
  Sb  Sb5  1  0.75000000  0.93231054  0.60965300  1
  Sb  Sb6  1  0.25000000  0.56768946  0.10965300  1
  Sb  Sb7  1  0.25000000  0.06768946  0.39034700  1
  Sb  Sb8  1  0.75000000  0.38550725  0.41104212  1
  Sb  Sb9  1  0.75000000  0.88550725  0.08895788  1
  Sb  Sb10  1  0.25000000  0.61449275  0.58895788  1
  Sb  Sb11  1  0.25000000  0.11449275  0.91104212  1
  S  S12  1  0.75000000  0.18750845  0.51318415  1
  S  S13  1  0.75000000  0.68750845  0.98681585  1
  S  S14  1  0.25000000  0.81249155  0.48681585  1
  S  S15  1  0.25000000  0.31249155  0.01318415  1
  S  S16  1  0.75000000  0.24612893  0.79827270  1
  S  S17  1  0.75000000  0.74612893  0.70172730  1
  S  S18  1  0.25000000  0.75387107  0.20172730  1
  S  S19  1  0.25000000  0.25387107  0.29827270  1
  S  S20  1  0.75000000  0.44428683  0.59007980  1
  S  S21  1  0.75000000  0.94428683  0.90992020  1
  S  S22  1  0.25000000  0.55571317  0.40992020  1
  S  S23  1  0.25000000  0.05571317  0.09007980  1
  S  S24  1  0.75000000  0.48211241  0.20865696  1
  S  S25  1  0.75000000  0.98211241  0.29134304  1
  S  S26  1  0.25000000  0.51788759  0.79134304  1
  S  S27  1  0.25000000  0.01788759  0.70865696  1
