# generated using pymatgen
data_Li2Sc(PO4)2
_symmetry_space_group_name_H-M   'P 1'
_cell_length_a   4.98469556
_cell_length_b   7.65963855
_cell_length_c   8.38369879
_cell_angle_alpha   90.00000000
_cell_angle_beta   90.00000000
_cell_angle_gamma   100.40859302
_symmetry_Int_Tables_number   1
_chemical_formula_structural   Li2Sc(PO4)2
_chemical_formula_sum   'Li4 Sc2 P4 O16'
_cell_volume   314.83031577
_cell_formula_units_Z   2
loop_
 _symmetry_equiv_pos_site_id
 _symmetry_equiv_pos_as_xyz
  1  'x, y, z'
loop_
 _atom_site_type_symbol
 _atom_site_label
 _atom_site_symmetry_multiplicity
 _atom_site_fract_x
 _atom_site_fract_y
 _atom_site_fract_z
 _atom_site_occupancy
  Li  Li0  1  0.39175937  0.83383626  0.12961158  1
  Li  Li1  1  0.89175937  0.33383626  0.37038842  1
  Li  Li2  1  0.60824063  0.16616374  0.87038842  1
  Li  Li3  1  0.10824063  0.66616374  0.62961158  1
  Sc  Sc4  1  0.50000000  0.00000000  0.50000000  1
  Sc  Sc5  1  0.00000000  0.50000000  -0.00000000  1
  P  P6  1  0.89276491  0.73397120  0.34433648  1
  P  P7  1  0.39276491  0.23397120  0.15566352  1
  P  P8  1  0.10723509  0.26602880  0.65566352  1
  P  P9  1  0.60723509  0.76602880  0.84433648  1
  O  O10  1  0.64485454  0.82824294  0.32544775  1
  O  O11  1  0.14485454  0.32824294  0.17455225  1
  O  O12  1  0.35514546  0.17175706  0.67455225  1
  O  O13  1  0.85514546  0.67175706  0.82544775  1
  O  O14  1  0.00545506  0.68985172  0.18034678  1
  O  O15  1  0.50545506  0.18985172  0.31965322  1
  O  O16  1  0.99454494  0.31014828  0.81965322  1
  O  O17  1  0.49454494  0.81014828  0.68034678  1
  O  O18  1  0.11929112  0.85186021  0.44220974  1
  O  O19  1  0.61929112  0.35186021  0.05779026  1
  O  O20  1  0.88070888  0.14813979  0.55779026  1
  O  O21  1  0.38070888  0.64813979  0.94220974  1
  O  O22  1  0.80107494  0.56161767  0.44342848  1
  O  O23  1  0.30107494  0.06161767  0.05657152  1
  O  O24  1  0.19892506  0.43838233  0.55657152  1
  O  O25  1  0.69892506  0.93838233  0.94342848  1
