# generated using pymatgen
data_Er3BeCrS7
_symmetry_space_group_name_H-M   'P 1'
_cell_length_a   5.95043199
_cell_length_b   9.55183709
_cell_length_c   9.55190116
_cell_angle_alpha   120.00010953
_cell_angle_beta   90.00000000
_cell_angle_gamma   90.00000000
_symmetry_Int_Tables_number   1
_chemical_formula_structural   Er3BeCrS7
_chemical_formula_sum   'Er6 Be2 Cr2 S14'
_cell_volume   470.17049797
_cell_formula_units_Z   2
loop_
 _symmetry_equiv_pos_site_id
 _symmetry_equiv_pos_as_xyz
  1  'x, y, z'
loop_
 _atom_site_type_symbol
 _atom_site_label
 _atom_site_symmetry_multiplicity
 _atom_site_fract_x
 _atom_site_fract_y
 _atom_site_fract_z
 _atom_site_occupancy
  Er  Er0  1  0.25593465  0.25041737  0.39137494  1
  Er  Er1  1  0.25593969  0.60864236  0.85904898  1
  Er  Er2  1  0.25593568  0.14096397  0.74958642  1
  Er  Er3  1  0.75593465  0.74958263  0.60862506  1
  Er  Er4  1  0.75593969  0.39135764  0.14095102  1
  Er  Er5  1  0.75593568  0.85903603  0.25041358  1
  Be  Be6  1  0.83747076  0.33334237  0.66667340  1
  Be  Be7  1  0.33747076  0.66665763  0.33332660  1
  Cr  Cr8  1  0.47742786  -0.00000191  0.00000234  1
  Cr  Cr9  1  0.97742786  0.00000191  -0.00000234  1
  S  S10  1  0.72046196  0.14560928  0.22862274  1
  S  S11  1  0.72045219  0.77137063  0.91698731  1
  S  S12  1  0.72044297  0.08301008  0.85438248  1
  S  S13  1  0.22046196  0.85439072  0.77137726  1
  S  S14  1  0.22045219  0.22862937  0.08301269  1
  S  S15  1  0.22044297  0.91698992  0.14561752  1
  S  S16  1  0.97946180  0.10324934  0.51721942  1
  S  S17  1  0.97949685  0.48279225  0.58603621  1
  S  S18  1  0.97945960  0.41398595  0.89676731  1
  S  S19  1  0.47946180  0.89675066  0.48278058  1
  S  S20  1  0.47949685  0.51720775  0.41396379  1
  S  S21  1  0.47945960  0.58601405  0.10323269  1
  S  S22  1  0.48551599  0.33334396  0.66666591  1
  S  S23  1  0.98551599  0.66665604  0.33333409  1
