# generated using pymatgen
data_Ce3AlCdS7
_symmetry_space_group_name_H-M   'P 1'
_cell_length_a   6.07253519
_cell_length_b   10.22492003
_cell_length_c   10.23278667
_cell_angle_alpha   119.99442749
_cell_angle_beta   90.00000000
_cell_angle_gamma   90.00000000
_symmetry_Int_Tables_number   1
_chemical_formula_structural   Ce3AlCdS7
_chemical_formula_sum   'Ce6 Al2 Cd2 S14'
_cell_volume   550.27387722
_cell_formula_units_Z   2
loop_
 _symmetry_equiv_pos_site_id
 _symmetry_equiv_pos_as_xyz
  1  'x, y, z'
loop_
 _atom_site_type_symbol
 _atom_site_label
 _atom_site_symmetry_multiplicity
 _atom_site_fract_x
 _atom_site_fract_y
 _atom_site_fract_z
 _atom_site_occupancy
  Ce  Ce0  1  0.26273584  0.24224407  0.37436272  1
  Ce  Ce1  1  0.26221914  0.62535305  0.86734764  1
  Ce  Ce2  1  0.26206325  0.13213058  0.75742715  1
  Ce  Ce3  1  0.76273584  0.75775593  0.62563728  1
  Ce  Ce4  1  0.76221914  0.37464695  0.13265236  1
  Ce  Ce5  1  0.76206325  0.86786942  0.24257285  1
  Al  Al6  1  0.84244491  0.33315916  0.66663323  1
  Al  Al7  1  0.34244491  0.66684084  0.33336677  1
  Cd  Cd8  1  0.50233934  0.99997053  0.99985280  1
  Cd  Cd9  1  0.00233934  0.00002947  0.00014720  1
  S  S10  1  0.74194626  0.16340511  0.25281553  1
  S  S11  1  0.74197693  0.74687058  0.91037745  1
  S  S12  1  0.74197131  0.08969814  0.83685150  1
  S  S13  1  0.24194626  0.83659489  0.74718447  1
  S  S14  1  0.24197693  0.25312942  0.08962255  1
  S  S15  1  0.24197131  0.91030186  0.16314850  1
  S  S16  1  0.99601056  0.10308049  0.51644353  1
  S  S17  1  0.99581594  0.48359807  0.58678098  1
  S  S18  1  0.99545509  0.41329039  0.89679100  1
  S  S19  1  0.49601056  0.89691951  0.48355647  1
  S  S20  1  0.49581594  0.51640193  0.41321902  1
  S  S21  1  0.49545509  0.58670961  0.10320900  1
  S  S22  1  0.47302144  0.33329086  0.66652072  1
  S  S23  1  0.97302144  0.66670914  0.33347928  1
