# generated using pymatgen
data_MgO
_symmetry_space_group_name_H-M   'P 1'
_cell_length_a   4.22083513
_cell_length_b   6.14065235
_cell_length_c   11.42197893
_cell_angle_alpha   105.59338399
_cell_angle_beta   100.64761069
_cell_angle_gamma   90.00000000
_symmetry_Int_Tables_number   1
_chemical_formula_structural   MgO
_chemical_formula_sum   'Mg12 O12'
_cell_volume   279.85075891
_cell_formula_units_Z   12
loop_
 _symmetry_equiv_pos_site_id
 _symmetry_equiv_pos_as_xyz
  1  'x, y, z'
loop_
 _atom_site_type_symbol
 _atom_site_label
 _atom_site_symmetry_multiplicity
 _atom_site_fract_x
 _atom_site_fract_y
 _atom_site_fract_z
 _atom_site_occupancy
  Mg  Mg0  1  0.54761056  0.87992841  0.09522112  1
  Mg  Mg1  1  0.45238944  0.12007159  0.90477888  1
  Mg  Mg2  1  0.95238944  0.78470730  0.90477888  1
  Mg  Mg3  1  0.04761056  0.21529270  0.09522112  1
  Mg  Mg4  1  0.70938063  0.04371731  0.41876126  1
  Mg  Mg5  1  0.29061937  0.95628269  0.58123874  1
  Mg  Mg6  1  0.79061937  0.62495605  0.58123874  1
  Mg  Mg7  1  0.20938063  0.37504395  0.41876126  1
  Mg  Mg8  1  0.12821910  0.79292307  0.25643821  1
  Mg  Mg9  1  0.87178090  0.20707693  0.74356179  1
  Mg  Mg10  1  0.37178090  0.53648486  0.74356179  1
  Mg  Mg11  1  0.62821910  0.46351514  0.25643821  1
  O  O12  1  0.62833246  0.79356698  0.25666492  1
  O  O13  1  0.37166754  0.20643302  0.74333508  1
  O  O14  1  0.87166754  0.53690206  0.74333508  1
  O  O15  1  0.12833246  0.46309794  0.25666492  1
  O  O16  1  0.04756848  0.87531362  0.09513695  1
  O  O17  1  0.95243152  0.12468638  0.90486305  1
  O  O18  1  0.45243152  0.78017667  0.90486305  1
  O  O19  1  0.54756848  0.21982333  0.09513695  1
  O  O20  1  0.20938939  0.04376775  0.41877878  1
  O  O21  1  0.79061061  0.95623225  0.58122122  1
  O  O22  1  0.29061061  0.62498896  0.58122122  1
  O  O23  1  0.70938939  0.37501104  0.41877878  1
