# generated using pymatgen
data_OsW2
_symmetry_space_group_name_H-M   'P 1'
_cell_length_a   5.00467703
_cell_length_b   9.71250498
_cell_length_c   9.71250498
_cell_angle_alpha   90.00000000
_cell_angle_beta   90.00000000
_cell_angle_gamma   90.00000000
_symmetry_Int_Tables_number   1
_chemical_formula_structural   OsW2
_chemical_formula_sum   'Os10 W20'
_cell_volume   472.10496205
_cell_formula_units_Z   10
loop_
 _symmetry_equiv_pos_site_id
 _symmetry_equiv_pos_as_xyz
  1  'x, y, z'
loop_
 _atom_site_type_symbol
 _atom_site_label
 _atom_site_symmetry_multiplicity
 _atom_site_fract_x
 _atom_site_fract_y
 _atom_site_fract_z
 _atom_site_occupancy
  Os  Os0  1  0.50000000  0.50000000  0.50000000  1
  Os  Os1  1  0.00000000  -0.00000000  -0.00000000  1
  Os  Os2  1  0.50000000  0.43138621  0.23608909  1
  Os  Os3  1  0.50000000  0.56861379  0.76391091  1
  Os  Os4  1  0.00000000  0.06861379  0.73608909  1
  Os  Os5  1  0.00000000  0.93138621  0.26391091  1
  Os  Os6  1  0.50000000  0.23608909  0.43138621  1
  Os  Os7  1  0.50000000  0.76391091  0.56861379  1
  Os  Os8  1  0.00000000  0.73608909  0.06861379  1
  Os  Os9  1  0.00000000  0.26391091  0.93138621  1
  W  W10  1  0.50000000  0.10362566  0.89637434  1
  W  W11  1  0.50000000  0.89637434  0.10362566  1
  W  W12  1  0.00000000  0.39637434  0.39637434  1
  W  W13  1  0.00000000  0.60362566  0.60362566  1
  W  W14  1  0.50000000  0.36901811  0.96268762  1
  W  W15  1  0.50000000  0.63098189  0.03731238  1
  W  W16  1  0.00000000  0.13098189  0.46268762  1
  W  W17  1  0.00000000  0.86901811  0.53731238  1
  W  W18  1  0.50000000  0.96268762  0.36901811  1
  W  W19  1  0.50000000  0.03731238  0.63098189  1
  W  W20  1  0.00000000  0.46268762  0.13098189  1
  W  W21  1  0.00000000  0.53731238  0.86901811  1
  W  W22  1  0.24980135  0.31934909  0.68065091  1
  W  W23  1  0.24980135  0.68065091  0.31934909  1
  W  W24  1  0.74980135  0.18065091  0.18065091  1
  W  W25  1  0.74980135  0.81934909  0.81934909  1
  W  W26  1  0.75019865  0.68065091  0.31934909  1
  W  W27  1  0.75019865  0.31934909  0.68065091  1
  W  W28  1  0.25019865  0.81934909  0.81934909  1
  W  W29  1  0.25019865  0.18065091  0.18065091  1
