# generated using pymatgen
data_MgSi(HO)6
_symmetry_space_group_name_H-M   'P 1'
_cell_length_a   5.16174962
_cell_length_b   5.20257016
_cell_length_c   7.36403947
_cell_angle_alpha   90.00000000
_cell_angle_beta   89.91728691
_cell_angle_gamma   90.00000000
_symmetry_Int_Tables_number   1
_chemical_formula_structural   MgSi(HO)6
_chemical_formula_sum   'Mg2 Si2 H12 O12'
_cell_volume   197.75639437
_cell_formula_units_Z   2
loop_
 _symmetry_equiv_pos_site_id
 _symmetry_equiv_pos_as_xyz
  1  'x, y, z'
loop_
 _atom_site_type_symbol
 _atom_site_label
 _atom_site_symmetry_multiplicity
 _atom_site_fract_x
 _atom_site_fract_y
 _atom_site_fract_z
 _atom_site_occupancy
  Mg  Mg0  1  0.24720583  0.00814897  0.74878177  1
  Mg  Mg1  1  0.75279417  0.50814897  0.25121823  1
  Si  Si2  1  0.74795738  0.50783396  0.75079121  1
  Si  Si3  1  0.25204262  0.00783396  0.24920879  1
  H  H4  1  0.54151649  0.30104412  0.51038682  1
  H  H5  1  0.45848351  0.80104412  0.48961318  1
  H  H6  1  0.03539091  0.20122431  0.01442274  1
  H  H7  1  0.96460909  0.70122431  0.98557726  1
  H  H8  1  0.69641944  0.04469107  0.22622115  1
  H  H9  1  0.30358056  0.54469107  0.77377885  1
  H  H10  1  0.22626678  0.45395049  0.26871386  1
  H  H11  1  0.77373322  0.95395049  0.73128614  1
  H  H12  1  0.06583712  0.35189233  0.55282523  1
  H  H13  1  0.93416288  0.85189233  0.44717477  1
  H  H14  1  0.58774245  0.19190654  0.94893615  1
  H  H15  1  0.41225755  0.69190654  0.05106385  1
  O  O16  1  0.63278163  0.46723394  0.52067519  1
  O  O17  1  0.36721837  0.96723394  0.47932481  1
  O  O18  1  0.13308777  0.03828625  0.01991675  1
  O  O19  1  0.86691223  0.53828625  0.98008325  1
  O  O20  1  0.10923590  0.31085947  0.30918648  1
  O  O21  1  0.89076410  0.81085947  0.69081352  1
  O  O22  1  0.55820721  0.16857689  0.18840488  1
  O  O23  1  0.44179279  0.66857689  0.81159512  1
  O  O24  1  0.05104188  0.34940582  0.68795118  1
  O  O25  1  0.94895812  0.84940582  0.31204882  1
  O  O26  1  0.59782839  0.20594583  0.81314505  1
  O  O27  1  0.40217161  0.70594583  0.18685495  1
