# generated using pymatgen
data_H3CO3
_symmetry_space_group_name_H-M   'P 1'
_cell_length_a   3.91712258
_cell_length_b   6.10997717
_cell_length_c   11.88738763
_cell_angle_alpha   102.46038308
_cell_angle_beta   90.00000000
_cell_angle_gamma   90.00000000
_symmetry_Int_Tables_number   1
_chemical_formula_structural   H3CO3
_chemical_formula_sum   'H12 C4 O12'
_cell_volume   277.80569949
_cell_formula_units_Z   4
loop_
 _symmetry_equiv_pos_site_id
 _symmetry_equiv_pos_as_xyz
  1  'x, y, z'
loop_
 _atom_site_type_symbol
 _atom_site_label
 _atom_site_symmetry_multiplicity
 _atom_site_fract_x
 _atom_site_fract_y
 _atom_site_fract_z
 _atom_site_occupancy
  H  H0  1  0.01261906  0.80393220  0.77965052  1
  H  H1  1  0.48738094  0.80393220  0.27965052  1
  H  H2  1  0.98738094  0.19606780  0.22034948  1
  H  H3  1  0.51261906  0.19606780  0.72034948  1
  H  H4  1  0.67578323  0.30335830  0.88595518  1
  H  H5  1  0.82421677  0.30335830  0.38595518  1
  H  H6  1  0.32421677  0.69664170  0.11404482  1
  H  H7  1  0.17578323  0.69664170  0.61404482  1
  H  H8  1  0.93607597  0.51917825  0.65314656  1
  H  H9  1  0.56392403  0.51917825  0.15314656  1
  H  H10  1  0.06392403  0.48082175  0.34685344  1
  H  H11  1  0.43607597  0.48082175  0.84685344  1
  C  C12  1  0.55386657  0.09604076  0.55060349  1
  C  C13  1  0.94613343  0.09604076  0.05060349  1
  C  C14  1  0.44613343  0.90395924  0.44939651  1
  C  C15  1  0.05386657  0.90395924  0.94939651  1
  O  O16  1  0.44363248  0.06404050  0.64929971  1
  O  O17  1  0.05636752  0.06404050  0.14929971  1
  O  O18  1  0.55636752  0.93595950  0.35070029  1
  O  O19  1  0.94363248  0.93595950  0.85070029  1
  O  O20  1  0.72608643  0.25578712  0.53347414  1
  O  O21  1  0.77391357  0.25578712  0.03347414  1
  O  O22  1  0.27391357  0.74421288  0.46652586  1
  O  O23  1  0.22608643  0.74421288  0.96652586  1
  O  O24  1  0.10486971  0.63680278  0.68129979  1
  O  O25  1  0.39513029  0.63680278  0.18129979  1
  O  O26  1  0.89513029  0.36319722  0.31870021  1
  O  O27  1  0.60486971  0.36319722  0.81870021  1
