# generated using pymatgen
data_Ti9(AlPt2)2
_symmetry_space_group_name_H-M   'P 1'
_cell_length_a   4.85694843
_cell_length_b   9.97460736
_cell_length_c   9.97460736
_cell_angle_alpha   90.00000000
_cell_angle_beta   90.00000000
_cell_angle_gamma   90.00000000
_symmetry_Int_Tables_number   1
_chemical_formula_structural   Ti9(AlPt2)2
_chemical_formula_sum   'Ti18 Al4 Pt8'
_cell_volume   483.23135983
_cell_formula_units_Z   2
loop_
 _symmetry_equiv_pos_site_id
 _symmetry_equiv_pos_as_xyz
  1  'x, y, z'
loop_
 _atom_site_type_symbol
 _atom_site_label
 _atom_site_symmetry_multiplicity
 _atom_site_fract_x
 _atom_site_fract_y
 _atom_site_fract_z
 _atom_site_occupancy
  Ti  Ti0  1  0.50000000  0.50000000  0.50000000  1
  Ti  Ti1  1  0.00000000  -0.00000000  0.00000000  1
  Ti  Ti2  1  0.50000000  0.37285361  0.96126695  1
  Ti  Ti3  1  0.50000000  0.62714639  0.03873305  1
  Ti  Ti4  1  0.00000000  0.12714639  0.46126695  1
  Ti  Ti5  1  0.00000000  0.87285361  0.53873305  1
  Ti  Ti6  1  0.50000000  0.96126695  0.37285361  1
  Ti  Ti7  1  0.50000000  0.03873305  0.62714639  1
  Ti  Ti8  1  0.00000000  0.46126695  0.12714639  1
  Ti  Ti9  1  0.00000000  0.53873305  0.87285361  1
  Ti  Ti10  1  0.74539554  0.18748686  0.18748686  1
  Ti  Ti11  1  0.74539554  0.81251314  0.81251314  1
  Ti  Ti12  1  0.24539554  0.31251314  0.68748686  1
  Ti  Ti13  1  0.24539554  0.68748686  0.31251314  1
  Ti  Ti14  1  0.25460446  0.81251314  0.81251314  1
  Ti  Ti15  1  0.25460446  0.18748686  0.18748686  1
  Ti  Ti16  1  0.75460446  0.68748686  0.31251314  1
  Ti  Ti17  1  0.75460446  0.31251314  0.68748686  1
  Al  Al18  1  0.00000000  0.39684696  0.39684696  1
  Al  Al19  1  0.00000000  0.60315304  0.60315304  1
  Al  Al20  1  0.50000000  0.10315304  0.89684696  1
  Al  Al21  1  0.50000000  0.89684696  0.10315304  1
  Pt  Pt22  1  0.50000000  0.43756404  0.23963073  1
  Pt  Pt23  1  0.50000000  0.56243596  0.76036927  1
  Pt  Pt24  1  0.00000000  0.06243596  0.73963073  1
  Pt  Pt25  1  0.00000000  0.93756404  0.26036927  1
  Pt  Pt26  1  0.50000000  0.23963073  0.43756404  1
  Pt  Pt27  1  0.50000000  0.76036927  0.56243596  1
  Pt  Pt28  1  0.00000000  0.73963073  0.06243596  1
  Pt  Pt29  1  0.00000000  0.26036927  0.93756404  1
