# generated using pymatgen
data_Si6Sb2H36(C4O)3
_symmetry_space_group_name_H-M   'P 1'
_cell_length_a   10.31888807
_cell_length_b   10.32498353
_cell_length_c   17.39542667
_cell_angle_alpha   92.55085459
_cell_angle_beta   90.24358381
_cell_angle_gamma   119.23476137
_symmetry_Int_Tables_number   1
_chemical_formula_structural   Si6Sb2H36(C4O)3
_chemical_formula_sum   'Si12 Sb4 H72 C24 O6'
_cell_volume   1614.96034274
_cell_formula_units_Z   2
loop_
 _symmetry_equiv_pos_site_id
 _symmetry_equiv_pos_as_xyz
  1  'x, y, z'
loop_
 _atom_site_type_symbol
 _atom_site_label
 _atom_site_symmetry_multiplicity
 _atom_site_fract_x
 _atom_site_fract_y
 _atom_site_fract_z
 _atom_site_occupancy
  Si  Si0  1  0.56640548  0.26070252  0.85657905  1
  Si  Si1  1  0.43359452  0.73929748  0.14342095  1
  Si  Si2  1  0.12529954  0.97384388  0.83471613  1
  Si  Si3  1  0.87470046  0.02615612  0.16528387  1
  Si  Si4  1  0.27889747  0.41298889  0.82220159  1
  Si  Si5  1  0.72110253  0.58701111  0.17779841  1
  Si  Si6  1  0.56704693  0.17080701  0.67531480  1
  Si  Si7  1  0.43295307  0.82919299  0.32468520  1
  Si  Si8  1  0.13043615  0.98019736  0.64903391  1
  Si  Si9  1  0.86956385  0.01980264  0.35096609  1
  Si  Si10  1  0.37914166  0.41746702  0.64597733  1
  Si  Si11  1  0.62085834  0.58253298  0.35402267  1
  Sb  Sb12  1  0.31160238  0.22625391  0.90673422  1
  Sb  Sb13  1  0.68839762  0.77374609  0.09326578  1
  Sb  Sb14  1  0.36947257  0.17737979  0.58401605  1
  Sb  Sb15  1  0.63052743  0.82262021  0.41598395  1
  H  H16  1  0.79929587  0.44498709  0.92871115  1
  H  H17  1  0.20070413  0.55501291  0.07128885  1
  H  H18  1  0.77603500  0.51603709  0.84166969  1
  H  H19  1  0.22396500  0.48396291  0.15833031  1
  H  H20  1  0.67376029  0.51540762  0.92412688  1
  H  H21  1  0.32623971  0.48459238  0.07587312  1
  H  H22  1  0.52758399  0.00538614  0.87352399  1
  H  H23  1  0.47241601  0.99461386  0.12647601  1
  H  H24  1  0.71882550  0.14100920  0.88057703  1
  H  H25  1  0.28117450  0.85899080  0.11942297  1
  H  H26  1  0.60325513  0.11876274  0.96016587  1
  H  H27  1  0.39674487  0.88123726  0.03983413  1
  H  H28  1  0.08962486  0.71878624  0.84266275  1
  H  H29  1  0.91037514  0.28121376  0.15733725  1
  H  H30  1  0.26005763  0.84969109  0.89043146  1
  H  H31  1  0.73994237  0.15030891  0.10956854  1
  H  H32  1  0.08851323  0.79736831  0.93568620  1
  H  H33  1  0.91148677  0.20263169  0.06431380  1
  H  H34  1  0.91401705  0.02903263  0.83464835  1
  H  H35  1  0.08598295  0.97096737  0.16535165  1
  H  H36  1  0.85630773  0.84176310  0.80374889  1
  H  H37  1  0.14369227  0.15823690  0.19625111  1
  H  H38  1  0.88849590  0.89663650  0.90372824  1
  H  H39  1  0.11150410  0.10336350  0.09627176  1
  H  H40  1  0.38771853  0.64924986  0.90448195  1
  H  H41  1  0.61228147  0.35075014  0.09551805  1
  H  H42  1  0.53053028  0.61982425  0.86544170  1
  H  H43  1  0.46946972  0.38017575  0.13455830  1
  H  H44  1  0.43379234  0.68218085  0.80582337  1
  H  H45  1  0.56620766  0.31781915  0.19417663  1
  H  H46  1  0.07920623  0.43417264  0.89283544  1
  H  H47  1  0.92079377  0.56582736  0.10716456  1
  H  H48  1  0.06796750  0.45676689  0.79259755  1
  H  H49  1  0.93203250  0.54323311  0.20740245  1
  H  H50  1  0.99933431  0.27598329  0.82710128  1
  H  H51  1  0.00066569  0.72401671  0.17289872  1
  H  H52  1  0.77855633  0.39327143  0.61991716  1
  H  H53  1  0.22144367  0.60672857  0.38008284  1
  H  H54  1  0.84151155  0.29344079  0.67597698  1
  H  H55  1  0.15848845  0.70655921  0.32402302  1
  H  H56  1  0.76634210  0.22520801  0.58097171  1
  H  H57  1  0.23365790  0.77479199  0.41902829  1
  H  H58  1  0.51367795  0.92041174  0.62425482  1
  H  H59  1  0.48632205  0.07958826  0.37574518  1
  H  H60  1  0.61731077  0.97022600  0.71318116  1
  H  H61  1  0.38268923  0.02977400  0.28681884  1
  H  H62  1  0.42270774  0.90910733  0.71314868  1
  H  H63  1  0.57729226  0.09089267  0.28685132  1
  H  H64  1  0.16253012  0.76504014  0.60070188  1
  H  H65  1  0.83746988  0.23495986  0.39929812  1
  H  H66  1  0.98017467  0.70572423  0.63414645  1
  H  H67  1  0.01982533  0.29427577  0.36585355  1
  H  H68  1  0.03068961  0.78213527  0.54220033  1
  H  H69  1  0.96931039  0.21786473  0.45779967  1
  H  H70  1  0.96390886  0.04148088  0.57332977  1
  H  H71  1  0.03609114  0.95851912  0.42667023  1
  H  H72  1  0.87315141  0.94149161  0.65503362  1
  H  H73  1  0.12684859  0.05850839  0.34496638  1
  H  H74  1  0.00799785  0.13426599  0.66665542  1
  H  H75  1  0.99200215  0.86573401  0.33334458  1
  H  H76  1  0.16714321  0.39011983  0.56211766  1
  H  H77  1  0.83285679  0.60988017  0.43788234  1
  H  H78  1  0.25853918  0.56502848  0.61465904  1
  H  H79  1  0.74146082  0.43497152  0.38534096  1
  H  H80  1  0.34068203  0.53387552  0.53125609  1
  H  H81  1  0.65931797  0.46612448  0.46874391  1
  H  H82  1  0.64141835  0.57212670  0.60734397  1
  H  H83  1  0.35858165  0.42787330  0.39265603  1
  H  H84  1  0.58327922  0.67866128  0.66585076  1
  H  H85  1  0.41672078  0.32133872  0.33414924  1
  H  H86  1  0.63043871  0.55254184  0.70908381  1
  H  H87  1  0.36956129  0.44745816  0.29091619  1
  C  C88  1  0.71718689  0.45229993  0.89121387  1
  C  C89  1  0.28281311  0.54770007  0.10878613  1
  C  C90  1  0.60675217  0.11769402  0.89707934  1
  C  C91  1  0.39324783  0.88230598  0.10292066  1
  C  C92  1  0.14373731  0.82121467  0.88018024  1
  C  C93  1  0.85626269  0.17878533  0.11981976  1
  C  C94  1  0.92773444  0.93244808  0.84586977  1
  C  C95  1  0.07226556  0.06755192  0.15413023  1
  C  C96  1  0.42133651  0.60931030  0.85288258  1
  C  C97  1  0.57866349  0.39068970  0.14711742  1
  C  C98  1  0.08832119  0.39218707  0.83509930  1
  C  C99  1  0.91167881  0.60781293  0.16490070  1
  C  C100  1  0.75579615  0.28145973  0.63373713  1
  C  C101  1  0.24420385  0.71854027  0.36626287  1
  C  C102  1  0.52562237  0.97328447  0.68215483  1
  C  C103  1  0.47437763  0.02671553  0.31784517  1
  C  C104  1  0.07127232  0.79106799  0.60181249  1
  C  C105  1  0.92872768  0.20893201  0.39818751  1
  C  C106  1  0.97951953  0.02921496  0.63457248  1
  C  C107  1  0.02048047  0.97078504  0.36542752  1
  C  C108  1  0.27645243  0.48143184  0.58191465  1
  C  C109  1  0.72354757  0.51856816  0.41808535  1
  C  C110  1  0.57785381  0.56970154  0.65827183  1
  C  C111  1  0.42214619  0.43029846  0.34172817  1
  O  O112  1  0.57333223  0.24704179  0.76200834  1
  O  O113  1  0.42666777  0.75295821  0.23799166  1
  O  O114  1  0.15756707  0.96946767  0.74178909  1
  O  O115  1  0.84243293  0.03053233  0.25821091  1
  O  O116  1  0.29644357  0.38487288  0.72964397  1
  O  O117  1  0.70355643  0.61512712  0.27035603  1
