# generated using pymatgen
data_PH10C2NO4
_symmetry_space_group_name_H-M   'P 1'
_cell_length_a   6.92061633
_cell_length_b   9.78598022
_cell_length_c   9.78802716
_cell_angle_alpha   90.00000000
_cell_angle_beta   90.00000000
_cell_angle_gamma   90.03150420
_symmetry_Int_Tables_number   1
_chemical_formula_structural   PH10C2NO4
_chemical_formula_sum   'P4 H40 C8 N4 O16'
_cell_volume   662.89418113
_cell_formula_units_Z   4
loop_
 _symmetry_equiv_pos_site_id
 _symmetry_equiv_pos_as_xyz
  1  'x, y, z'
loop_
 _atom_site_type_symbol
 _atom_site_label
 _atom_site_symmetry_multiplicity
 _atom_site_fract_x
 _atom_site_fract_y
 _atom_site_fract_z
 _atom_site_occupancy
  P  P0  1  0.24575917  0.83409758  0.27293294  1
  P  P1  1  0.74575917  0.33409758  0.72706706  1
  P  P2  1  0.75154007  0.16732977  0.22205265  1
  P  P3  1  0.25154007  0.66732977  0.77794735  1
  H  H4  1  0.51554813  0.00736997  0.25543828  1
  H  H5  1  0.01554813  0.50736997  0.74456172  1
  H  H6  1  0.99944292  0.98110096  0.25991888  1
  H  H7  1  0.49944292  0.48110096  0.74008112  1
  H  H8  1  0.21022781  0.71233360  0.07745829  1
  H  H9  1  0.71022781  0.21233360  0.92254171  1
  H  H10  1  0.76443074  0.28650889  0.41714623  1
  H  H11  1  0.26443074  0.78650889  0.58285377  1
  H  H12  1  0.80591905  0.84189138  0.40121697  1
  H  H13  1  0.30591905  0.34189138  0.59878303  1
  H  H14  1  0.56880178  0.80612432  0.43716853  1
  H  H15  1  0.06880178  0.30612432  0.56283147  1
  H  H16  1  0.16103514  0.16686379  0.10996704  1
  H  H17  1  0.66103514  0.66686379  0.89003296  1
  H  H18  1  0.40349603  0.18581735  0.07021532  1
  H  H19  1  0.90349603  0.68581735  0.92978468  1
  H  H20  1  0.62448650  0.84675547  0.67469431  1
  H  H21  1  0.12448650  0.34675547  0.32530569  1
  H  H22  1  0.87863931  0.87190832  0.64021904  1
  H  H23  1  0.37863931  0.37190832  0.35978096  1
  H  H24  1  0.70263642  0.99121740  0.57665328  1
  H  H25  1  0.20263642  0.49121740  0.42334672  1
  H  H26  1  0.67292469  0.61763386  0.58104178  1
  H  H27  1  0.17292469  0.11763386  0.41895822  1
  H  H28  1  0.91559178  0.64549291  0.52358404  1
  H  H29  1  0.41559178  0.14549291  0.47641596  1
  H  H30  1  0.73059147  0.59477457  0.40508013  1
  H  H31  1  0.23059147  0.09477457  0.59491987  1
  H  H32  1  0.33861025  0.14399621  0.83524320  1
  H  H33  1  0.83861025  0.64399621  0.16475680  1
  H  H34  1  0.08435177  0.13062825  0.87353281  1
  H  H35  1  0.58435177  0.63062825  0.12646719  1
  H  H36  1  0.25114768  0.00597521  0.93851860  1
  H  H37  1  0.75114768  0.50597521  0.06148140  1
  H  H38  1  0.33678156  0.37879402  0.93016686  1
  H  H39  1  0.83678156  0.87879402  0.06983314  1
  H  H40  1  0.08499827  0.36467671  0.97222344  1
  H  H41  1  0.58499827  0.86467671  0.02777656  1
  H  H42  1  0.25912147  0.40566650  0.10159761  1
  H  H43  1  0.75912147  0.90566650  0.89840239  1
  C  C44  1  0.73111496  0.88388074  0.60079275  1
  C  C45  1  0.23111496  0.38388074  0.39920725  1
  C  C46  1  0.76244932  0.65475934  0.49685980  1
  C  C47  1  0.26244932  0.15475934  0.50314020  1
  C  C48  1  0.23138488  0.11362587  0.91167434  1
  C  C49  1  0.73138488  0.61362587  0.08832566  1
  C  C50  1  0.23283816  0.34710606  0.00820928  1
  C  C51  1  0.73283816  0.84710606  0.99179072  1
  N  N52  1  0.71333892  0.80091928  0.47388440  1
  N  N53  1  0.21333892  0.30091928  0.52611560  1
  N  N54  1  0.26069072  0.19909289  0.03550718  1
  N  N55  1  0.76069072  0.69909289  0.96449282  1
  O  O56  1  0.35227132  0.94823737  0.19797771  1
  O  O57  1  0.85227132  0.44823737  0.80202229  1
  O  O58  1  0.02688029  0.88251103  0.29695364  1
  O  O59  1  0.52688029  0.38251103  0.70304636  1
  O  O60  1  0.33156033  0.78879591  0.40821994  1
  O  O61  1  0.83156033  0.28879591  0.59178006  1
  O  O62  1  0.23361005  0.70093626  0.17861699  1
  O  O63  1  0.73361005  0.20093626  0.82138301  1
  O  O64  1  0.64335550  0.04952196  0.30108266  1
  O  O65  1  0.14335550  0.54952196  0.69891734  1
  O  O66  1  0.96349573  0.12287063  0.20922887  1
  O  O67  1  0.46349573  0.62287063  0.79077113  1
  O  O68  1  0.65228542  0.20527353  0.08846919  1
  O  O69  1  0.15228542  0.70527353  0.91153081  1
  O  O70  1  0.73664239  0.30031209  0.31762044  1
  O  O71  1  0.23664239  0.80031209  0.68237956  1
