# generated using pymatgen
data_Na2NdGeO5
_symmetry_space_group_name_H-M   'P 1'
_cell_length_a   6.83990128
_cell_length_b   7.60468659
_cell_length_c   9.57512018
_cell_angle_alpha   90.00000000
_cell_angle_beta   90.00000000
_cell_angle_gamma   90.00000000
_symmetry_Int_Tables_number   1
_chemical_formula_structural   Na2NdGeO5
_chemical_formula_sum   'Na8 Nd4 Ge4 O20'
_cell_volume   498.05280175
_cell_formula_units_Z   4
loop_
 _symmetry_equiv_pos_site_id
 _symmetry_equiv_pos_as_xyz
  1  'x, y, z'
loop_
 _atom_site_type_symbol
 _atom_site_label
 _atom_site_symmetry_multiplicity
 _atom_site_fract_x
 _atom_site_fract_y
 _atom_site_fract_z
 _atom_site_occupancy
  Na  Na0  1  0.13219917  0.46636037  0.32531415  1
  Na  Na1  1  0.36780083  0.03363963  0.82531415  1
  Na  Na2  1  0.86780083  0.96636037  0.67468585  1
  Na  Na3  1  0.63219917  0.53363963  0.17468585  1
  Na  Na4  1  0.86780083  0.53363963  0.67468585  1
  Na  Na5  1  0.63219917  0.96636037  0.17468585  1
  Na  Na6  1  0.13219917  0.03363963  0.32531415  1
  Na  Na7  1  0.36780083  0.46636037  0.82531415  1
  Nd  Nd8  1  0.62151121  0.25000000  0.45797020  1
  Nd  Nd9  1  0.87848879  0.25000000  0.95797020  1
  Nd  Nd10  1  0.37848879  0.75000000  0.54202980  1
  Nd  Nd11  1  0.12151121  0.75000000  0.04202980  1
  Ge  Ge12  1  0.17816102  0.25000000  0.59377899  1
  Ge  Ge13  1  0.32183898  0.25000000  0.09377899  1
  Ge  Ge14  1  0.82183898  0.75000000  0.40622101  1
  Ge  Ge15  1  0.67816102  0.75000000  0.90622101  1
  O  O16  1  0.33377764  0.43338860  0.56096484  1
  O  O17  1  0.16622236  0.06661140  0.06096484  1
  O  O18  1  0.66622236  0.93338860  0.43903516  1
  O  O19  1  0.83377764  0.56661140  0.93903516  1
  O  O20  1  0.66622236  0.56661140  0.43903516  1
  O  O21  1  0.83377764  0.93338860  0.93903516  1
  O  O22  1  0.33377764  0.06661140  0.56096484  1
  O  O23  1  0.16622236  0.43338860  0.06096484  1
  O  O24  1  0.97429639  0.25000000  0.48067343  1
  O  O25  1  0.52570361  0.25000000  0.98067343  1
  O  O26  1  0.02570361  0.75000000  0.51932657  1
  O  O27  1  0.47429639  0.75000000  0.01932657  1
  O  O28  1  0.11135775  0.25000000  0.77121594  1
  O  O29  1  0.38864225  0.25000000  0.27121594  1
  O  O30  1  0.88864225  0.75000000  0.22878406  1
  O  O31  1  0.61135775  0.75000000  0.72878406  1
  O  O32  1  0.71939725  0.25000000  0.71303487  1
  O  O33  1  0.78060275  0.25000000  0.21303487  1
  O  O34  1  0.28060275  0.75000000  0.28696513  1
  O  O35  1  0.21939725  0.75000000  0.78696513  1
