# generated using pymatgen
data_Si3BiH27(C5Cl)2
_symmetry_space_group_name_H-M   'P 1'
_cell_length_a   9.27558138
_cell_length_b   16.19783495
_cell_length_c   17.03690845
_cell_angle_alpha   117.18036110
_cell_angle_beta   101.61335242
_cell_angle_gamma   91.21392861
_symmetry_Int_Tables_number   1
_chemical_formula_structural   Si3BiH27(C5Cl)2
_chemical_formula_sum   'Si12 Bi4 H108 C40 Cl8'
_cell_volume   2211.54272269
_cell_formula_units_Z   4
loop_
 _symmetry_equiv_pos_site_id
 _symmetry_equiv_pos_as_xyz
  1  'x, y, z'
loop_
 _atom_site_type_symbol
 _atom_site_label
 _atom_site_symmetry_multiplicity
 _atom_site_fract_x
 _atom_site_fract_y
 _atom_site_fract_z
 _atom_site_occupancy
  Si  Si0  1  0.05422366  0.27223150  0.21289049  1
  Si  Si1  1  0.94577634  0.72776850  0.78710951  1
  Si  Si2  1  0.80023560  0.10840145  0.16970127  1
  Si  Si3  1  0.19976440  0.89159855  0.83029873  1
  Si  Si4  1  0.76638335  0.32578050  0.29471025  1
  Si  Si5  1  0.23361665  0.67421950  0.70528975  1
  Si  Si6  1  0.37452662  0.26415141  0.74059417  1
  Si  Si7  1  0.62547338  0.73584859  0.25940583  1
  Si  Si8  1  0.70674150  0.36506172  0.84791979  1
  Si  Si9  1  0.29325850  0.63493828  0.15208021  1
  Si  Si10  1  0.64561227  0.14128248  0.71695313  1
  Si  Si11  1  0.35438773  0.85871752  0.28304687  1
  Bi  Bi12  1  0.02005969  0.24675159  0.39546369  1
  Bi  Bi13  1  0.97994031  0.75324841  0.60453631  1
  Bi  Bi14  1  0.59846623  0.25999673  0.60440729  1
  Bi  Bi15  1  0.40153377  0.74000327  0.39559271  1
  H  H16  1  0.16167822  0.42749561  0.35358335  1
  H  H17  1  0.83832178  0.57250439  0.64641665  1
  H  H18  1  0.26492716  0.33558361  0.35402971  1
  H  H19  1  0.73507284  0.66441639  0.64597029  1
  H  H20  1  0.28478029  0.38294361  0.28180270  1
  H  H21  1  0.71521971  0.61705639  0.71819730  1
  H  H22  1  0.21650255  0.14437949  0.18548616  1
  H  H23  1  0.78349745  0.85562051  0.81451384  1
  H  H24  1  0.08429416  0.12024862  0.08301211  1
  H  H25  1  0.91570584  0.87975138  0.91698789  1
  H  H26  1  0.23957687  0.20684055  0.12474176  1
  H  H27  1  0.76042313  0.79315945  0.87525824  1
  H  H28  1  0.89816824  0.27046682  0.07417504  1
  H  H29  1  0.10183176  0.72953318  0.92582496  1
  H  H30  1  0.92229529  0.38492672  0.16795094  1
  H  H31  1  0.07770471  0.61507328  0.83204906  1
  H  H32  1  0.06972860  0.34387237  0.11377791  1
  H  H33  1  0.93027140  0.65612763  0.88622209  1
  H  H34  1  0.67044668  0.33152107  0.14918169  1
  H  H35  1  0.32955332  0.66847893  0.85081831  1
  H  H36  1  0.55016623  0.25178224  0.15952914  1
  H  H37  1  0.44983377  0.74821776  0.84047086  1
  H  H38  1  0.54926562  0.37447077  0.22384008  1
  H  H39  1  0.45073438  0.62552923  0.77615992  1
  H  H40  1  0.94694548  0.46166438  0.42193759  1
  H  H41  1  0.05305452  0.53833562  0.57806241  1
  H  H42  1  0.92666380  0.46784059  0.31871379  1
  H  H43  1  0.07333620  0.53215941  0.68128621  1
  H  H44  1  0.78428353  0.49773483  0.37885529  1
  H  H45  1  0.21571647  0.50226517  0.62114471  1
  H  H46  1  0.59941152  0.24895411  0.35064564  1
  H  H47  1  0.40058848  0.75104589  0.64935436  1
  H  H48  1  0.74323818  0.32924099  0.44320841  1
  H  H49  1  0.25676182  0.67075901  0.55679159  1
  H  H50  1  0.59528177  0.37157636  0.39704925  1
  H  H51  1  0.40471823  0.62842364  0.60295075  1
  H  H52  1  0.63910483  0.08358606  0.26158585  1
  H  H53  1  0.36089517  0.91641394  0.73841415  1
  H  H54  1  0.54064064  0.12859716  0.19114579  1
  H  H55  1  0.45935936  0.87140284  0.80885421  1
  H  H56  1  0.57223127  0.00993584  0.14270261  1
  H  H57  1  0.42776873  0.99006416  0.85729739  1
  H  H58  1  0.01710530  0.01646115  0.14306987  1
  H  H59  1  0.98289470  0.98353885  0.85693013  1
  H  H60  1  0.94424199  0.01143620  0.23014627  1
  H  H61  1  0.05575801  0.98856380  0.76985373  1
  H  H62  1  0.84732143  0.94490915  0.11477889  1
  H  H63  1  0.15267857  0.05509085  0.88522111  1
  H  H64  1  0.68771412  0.02457773  0.00371594  1
  H  H65  1  0.31228588  0.97542227  0.99628406  1
  H  H66  1  0.67092727  0.14585526  0.04830005  1
  H  H67  1  0.32907273  0.85414474  0.95169995  1
  H  H68  1  0.84214309  0.10503015  0.02623853  1
  H  H69  1  0.15785691  0.89496985  0.97376147  1
  H  H70  1  0.78484094  0.11453916  0.59392664  1
  H  H71  1  0.21515906  0.88546084  0.40607336  1
  H  H72  1  0.90685400  0.17037101  0.70369749  1
  H  H73  1  0.09314600  0.82962899  0.29630251  1
  H  H74  1  0.83905867  0.04918883  0.65083642  1
  H  H75  1  0.16094133  0.95081117  0.34916358  1
  H  H76  1  0.39390033  0.04387904  0.65620150  1
  H  H77  1  0.60609967  0.95612096  0.34379850  1
  H  H78  1  0.46668339  0.03989931  0.56598954  1
  H  H79  1  0.53331661  0.96010069  0.43401046  1
  H  H80  1  0.53834340  0.97551099  0.62264800  1
  H  H81  1  0.46165660  0.02448901  0.37735200  1
  H  H82  1  0.79061141  0.17875112  0.87341872  1
  H  H83  1  0.20938859  0.82124888  0.12658128  1
  H  H84  1  0.60351075  0.13246068  0.85363889  1
  H  H85  1  0.39648925  0.86753932  0.14636111  1
  H  H86  1  0.73223950  0.05705818  0.80363501  1
  H  H87  1  0.26776050  0.94294182  0.19636499  1
  H  H88  1  0.93088390  0.28829443  0.87580665  1
  H  H89  1  0.06911610  0.71170557  0.12419335  1
  H  H90  1  0.95662251  0.34555108  0.81038719  1
  H  H91  1  0.04337749  0.65444892  0.18961281  1
  H  H92  1  0.96970315  0.41172273  0.92907820  1
  H  H93  1  0.03029685  0.58827727  0.07092180  1
  H  H94  1  0.53728083  0.39202378  0.95342291  1
  H  H95  1  0.46271917  0.60797622  0.04657709  1
  H  H96  1  0.66455595  0.31359134  0.96058938  1
  H  H97  1  0.33544405  0.68640866  0.03941062  1
  H  H98  1  0.72519801  0.43551601  0.01384680  1
  H  H99  1  0.27480199  0.56448399  0.98615320  1
  H  H100  1  0.73274539  0.48238046  0.79159660  1
  H  H101  1  0.26725461  0.51761954  0.20840340  1
  H  H102  1  0.58323056  0.50121725  0.84645152  1
  H  H103  1  0.41676944  0.49878275  0.15354848  1
  H  H104  1  0.76955780  0.53485734  0.91210155  1
  H  H105  1  0.23044220  0.46514266  0.08789845  1
  H  H106  1  0.33833481  0.13478181  0.78011092  1
  H  H107  1  0.66166519  0.86521819  0.21988908  1
  H  H108  1  0.38499086  0.24509182  0.87994343  1
  H  H109  1  0.61500914  0.75490818  0.12005657  1
  H  H110  1  0.20318175  0.21243014  0.80786489  1
  H  H111  1  0.79681825  0.78756986  0.19213511  1
  H  H112  1  0.37898623  0.43060481  0.85937018  1
  H  H113  1  0.62101377  0.56939519  0.14062982  1
  H  H114  1  0.33563633  0.41911219  0.74751200  1
  H  H115  1  0.66436367  0.58088781  0.25248800  1
  H  H116  1  0.19982750  0.37917738  0.78698242  1
  H  H117  1  0.80017250  0.62082262  0.21301758  1
  H  H118  1  0.25949095  0.22780446  0.57729376  1
  H  H119  1  0.74050905  0.77219554  0.42270624  1
  H  H120  1  0.25609642  0.12348300  0.58820985  1
  H  H121  1  0.74390358  0.87651700  0.41179015  1
  H  H122  1  0.13228854  0.20512707  0.63083262  1
  H  H123  1  0.86771146  0.79487293  0.36916738  1
  C  C124  1  0.90016952  0.23247416  0.25456490  1
  C  C125  1  0.09983048  0.76752584  0.74543510  1
  C  C126  1  0.20281369  0.36283665  0.31080187  1
  C  C127  1  0.79718631  0.63716335  0.68919813  1
  C  C128  1  0.15712311  0.17545544  0.14522170  1
  C  C129  1  0.84287689  0.82454456  0.85477830  1
  C  C130  1  0.97709603  0.32279179  0.13529876  1
  C  C131  1  0.02290397  0.67720821  0.86470124  1
  C  C132  1  0.62067721  0.31943102  0.19687139  1
  C  C133  1  0.37932279  0.68056898  0.80312861  1
  C  C134  1  0.86735495  0.44915959  0.35920672  1
  C  C135  1  0.13264505  0.55084041  0.64079328  1
  C  C136  1  0.66862257  0.31641515  0.37856877  1
  C  C137  1  0.33137743  0.68358485  0.62143123  1
  C  C138  1  0.62145517  0.08141653  0.19492413  1
  C  C139  1  0.37854483  0.91858347  0.80507587  1
  C  C140  1  0.91493778  0.01221540  0.16482789  1
  C  C141  1  0.08506222  0.98778460  0.83517211  1
  C  C142  1  0.74606164  0.09543447  0.05118421  1
  C  C143  1  0.25393836  0.90456553  0.94881579  1
  C  C144  1  0.58304068  0.26229673  0.74086797  1
  C  C145  1  0.41695932  0.73770327  0.25913203  1
  C  C146  1  0.80887440  0.11840571  0.66170258  1
  C  C147  1  0.19112560  0.88159429  0.33829742  1
  C  C148  1  0.49609328  0.04174287  0.63258155  1
  C  C149  1  0.50390672  0.95825713  0.36741845  1
  C  C150  1  0.69787498  0.12707616  0.82242466  1
  C  C151  1  0.30212502  0.87292384  0.17757534  1
  C  C152  1  0.90995487  0.34976715  0.86625410  1
  C  C153  1  0.09004513  0.65023285  0.13374590  1
  C  C154  1  0.65212733  0.37715644  0.95342985  1
  C  C155  1  0.34787267  0.62284356  0.04657015  1
  C  C156  1  0.69543256  0.48134007  0.84837582  1
  C  C157  1  0.30456744  0.51865993  0.15162418  1
  C  C158  1  0.32204573  0.20876437  0.80888513  1
  C  C159  1  0.67795427  0.79123563  0.19111487  1
  C  C160  1  0.31907000  0.38549080  0.78870535  1
  C  C161  1  0.68093000  0.61450920  0.21129465  1
  C  C162  1  0.24726457  0.19856047  0.62284943  1
  C  C163  1  0.75273543  0.80143953  0.37715057  1
  Cl  Cl164  1  0.23840360  0.15757475  0.36118814  1
  Cl  Cl165  1  0.76159640  0.84242525  0.63881186  1
  Cl  Cl166  1  0.88061721  0.11981084  0.40688142  1
  Cl  Cl167  1  0.11938279  0.88018916  0.59311858  1
  Cl  Cl168  1  0.47122235  0.39567284  0.60512048  1
  Cl  Cl169  1  0.52877765  0.60432716  0.39487952  1
  Cl  Cl170  1  0.85218890  0.34617836  0.64189519  1
  Cl  Cl171  1  0.14781110  0.65382164  0.35810481  1
