# generated using pymatgen
data_H26OsC6S6Br3N12O
_symmetry_space_group_name_H-M   'P 1'
_cell_length_a   11.67358296
_cell_length_b   12.30920857
_cell_length_c   20.74023658
_cell_angle_alpha   90.00000000
_cell_angle_beta   90.00000000
_cell_angle_gamma   90.00000000
_symmetry_Int_Tables_number   1
_chemical_formula_structural   H26OsC6S6Br3N12O
_chemical_formula_sum   'H104 Os4 C24 S24 Br12 N48 O4'
_cell_volume   2980.21784295
_cell_formula_units_Z   4
loop_
 _symmetry_equiv_pos_site_id
 _symmetry_equiv_pos_as_xyz
  1  'x, y, z'
loop_
 _atom_site_type_symbol
 _atom_site_label
 _atom_site_symmetry_multiplicity
 _atom_site_fract_x
 _atom_site_fract_y
 _atom_site_fract_z
 _atom_site_occupancy
  H  H0  1  0.71940313  0.20090543  0.28234294  1
  H  H1  1  0.78059687  0.20090543  0.21765706  1
  H  H2  1  0.28059687  0.29909457  0.78234294  1
  H  H3  1  0.21940313  0.29909457  0.71765706  1
  H  H4  1  0.28059687  0.79909457  0.71765706  1
  H  H5  1  0.21940313  0.79909457  0.78234294  1
  H  H6  1  0.71940313  0.70090543  0.21765706  1
  H  H7  1  0.78059687  0.70090543  0.28234294  1
  H  H8  1  0.45468040  0.61392053  0.13175843  1
  H  H9  1  0.04531960  0.61392053  0.36824157  1
  H  H10  1  0.54531960  0.88607947  0.63175843  1
  H  H11  1  0.95468040  0.88607947  0.86824157  1
  H  H12  1  0.54531960  0.38607947  0.86824157  1
  H  H13  1  0.95468040  0.38607947  0.63175843  1
  H  H14  1  0.45468040  0.11392053  0.36824157  1
  H  H15  1  0.04531960  0.11392053  0.13175843  1
  H  H16  1  0.45696974  0.60131068  0.21607939  1
  H  H17  1  0.04303026  0.60131068  0.28392061  1
  H  H18  1  0.54303026  0.89868932  0.71607939  1
  H  H19  1  0.95696974  0.89868932  0.78392061  1
  H  H20  1  0.54303026  0.39868932  0.78392061  1
  H  H21  1  0.95696974  0.39868932  0.71607939  1
  H  H22  1  0.45696974  0.10131068  0.28392061  1
  H  H23  1  0.04303026  0.10131068  0.21607939  1
  H  H24  1  0.64679265  0.37594598  0.21640767  1
  H  H25  1  0.85320735  0.37594598  0.28359233  1
  H  H26  1  0.35320735  0.12405402  0.71640767  1
  H  H27  1  0.14679265  0.12405402  0.78359233  1
  H  H28  1  0.35320735  0.62405402  0.78359233  1
  H  H29  1  0.14679265  0.62405402  0.71640767  1
  H  H30  1  0.64679265  0.87594598  0.28359233  1
  H  H31  1  0.85320735  0.87594598  0.21640767  1
  H  H32  1  0.58282337  0.47867128  0.26462608  1
  H  H33  1  0.91717663  0.47867128  0.23537392  1
  H  H34  1  0.41717663  0.02132872  0.76462608  1
  H  H35  1  0.08282337  0.02132872  0.73537392  1
  H  H36  1  0.41717663  0.52132872  0.73537392  1
  H  H37  1  0.08282337  0.52132872  0.76462608  1
  H  H38  1  0.58282337  0.97867128  0.23537392  1
  H  H39  1  0.91717663  0.97867128  0.26462608  1
  H  H40  1  0.85279183  0.51764660  0.85866490  1
  H  H41  1  0.64720817  0.51764660  0.64133510  1
  H  H42  1  0.14720817  0.98235340  0.35866490  1
  H  H43  1  0.35279183  0.98235340  0.14133510  1
  H  H44  1  0.14720817  0.48235340  0.14133510  1
  H  H45  1  0.35279183  0.48235340  0.35866490  1
  H  H46  1  0.85279183  0.01764660  0.64133510  1
  H  H47  1  0.64720817  0.01764660  0.85866490  1
  H  H48  1  0.81941689  0.64257574  0.82136017  1
  H  H49  1  0.68058311  0.64257574  0.67863983  1
  H  H50  1  0.18058311  0.85742426  0.32136017  1
  H  H51  1  0.31941689  0.85742426  0.17863983  1
  H  H52  1  0.18058311  0.35742426  0.17863983  1
  H  H53  1  0.31941689  0.35742426  0.32136017  1
  H  H54  1  0.81941689  0.14257574  0.67863983  1
  H  H55  1  0.68058311  0.14257574  0.82136017  1
  H  H56  1  0.57871106  0.70160395  0.91620199  1
  H  H57  1  0.92128894  0.70160395  0.58379801  1
  H  H58  1  0.42128894  0.79839605  0.41620199  1
  H  H59  1  0.07871106  0.79839605  0.08379801  1
  H  H60  1  0.42128894  0.29839605  0.08379801  1
  H  H61  1  0.07871106  0.29839605  0.41620199  1
  H  H62  1  0.57871106  0.20160395  0.58379801  1
  H  H63  1  0.92128894  0.20160395  0.91620199  1
  H  H64  1  0.66559973  0.74118976  0.85078978  1
  H  H65  1  0.83440027  0.74118976  0.64921022  1
  H  H66  1  0.33440027  0.75881024  0.35078978  1
  H  H67  1  0.16559973  0.75881024  0.14921022  1
  H  H68  1  0.33440027  0.25881024  0.14921022  1
  H  H69  1  0.16559973  0.25881024  0.35078978  1
  H  H70  1  0.66559973  0.24118976  0.64921022  1
  H  H71  1  0.83440027  0.24118976  0.85078978  1
  H  H72  1  0.27850769  0.37488047  0.95334310  1
  H  H73  1  0.22149231  0.37488047  0.54665690  1
  H  H74  1  0.72149231  0.12511953  0.45334310  1
  H  H75  1  0.77850769  0.12511953  0.04665690  1
  H  H76  1  0.72149231  0.62511953  0.04665690  1
  H  H77  1  0.77850769  0.62511953  0.45334310  1
  H  H78  1  0.27850769  0.87488047  0.54665690  1
  H  H79  1  0.22149231  0.87488047  0.95334310  1
  H  H80  1  0.21995231  0.25913878  0.91841942  1
  H  H81  1  0.28004769  0.25913878  0.58158058  1
  H  H82  1  0.78004769  0.24086122  0.41841942  1
  H  H83  1  0.71995231  0.24086122  0.08158058  1
  H  H84  1  0.78004769  0.74086122  0.08158058  1
  H  H85  1  0.71995231  0.74086122  0.41841942  1
  H  H86  1  0.21995231  0.75913878  0.58158058  1
  H  H87  1  0.28004769  0.75913878  0.91841942  1
  H  H88  1  0.47846938  0.10669762  0.92473769  1
  H  H89  1  0.02153062  0.10669762  0.57526231  1
  H  H90  1  0.52153062  0.39330238  0.42473769  1
  H  H91  1  0.97846938  0.39330238  0.07526231  1
  H  H92  1  0.52153062  0.89330238  0.07526231  1
  H  H93  1  0.97846938  0.89330238  0.42473769  1
  H  H94  1  0.47846938  0.60669762  0.57526231  1
  H  H95  1  0.02153062  0.60669762  0.92473769  1
  H  H96  1  0.33511585  0.09994146  0.90590617  1
  H  H97  1  0.16488415  0.09994146  0.59409383  1
  H  H98  1  0.66488415  0.40005854  0.40590617  1
  H  H99  1  0.83511585  0.40005854  0.09409383  1
  H  H100  1  0.66488415  0.90005854  0.09409383  1
  H  H101  1  0.83511585  0.90005854  0.40590617  1
  H  H102  1  0.33511585  0.59994146  0.59409383  1
  H  H103  1  0.16488415  0.59994146  0.90590617  1
  Os  Os104  1  0.50000000  0.50000000  0.00000000  1
  Os  Os105  1  0.00000000  0.50000000  0.50000000  1
  Os  Os106  1  0.50000000  -0.00000000  0.50000000  1
  Os  Os107  1  0.00000000  -0.00000000  0.00000000  1
  C  C108  1  0.55804088  0.49324071  0.16674643  1
  C  C109  1  0.94195912  0.49324071  0.33325357  1
  C  C110  1  0.44195912  0.00675929  0.66674643  1
  C  C111  1  0.05804088  0.00675929  0.83325357  1
  C  C112  1  0.44195912  0.50675929  0.83325357  1
  C  C113  1  0.05804088  0.50675929  0.66674643  1
  C  C114  1  0.55804088  0.99324071  0.33325357  1
  C  C115  1  0.94195912  0.99324071  0.16674643  1
  C  C116  1  0.71368050  0.60083357  0.89551405  1
  C  C117  1  0.78631950  0.60083357  0.60448595  1
  C  C118  1  0.28631950  0.89916643  0.39551405  1
  C  C119  1  0.21368050  0.89916643  0.10448595  1
  C  C120  1  0.28631950  0.39916643  0.10448595  1
  C  C121  1  0.21368050  0.39916643  0.39551405  1
  C  C122  1  0.71368050  0.10083357  0.60448595  1
  C  C123  1  0.78631950  0.10083357  0.89551405  1
  C  C124  1  0.39057463  0.24800456  0.94263708  1
  C  C125  1  0.10942537  0.24800456  0.55736292  1
  C  C126  1  0.60942537  0.25199544  0.44263708  1
  C  C127  1  0.89057463  0.25199544  0.05736292  1
  C  C128  1  0.60942537  0.75199544  0.05736292  1
  C  C129  1  0.89057463  0.75199544  0.44263708  1
  C  C130  1  0.39057463  0.74800456  0.55736292  1
  C  C131  1  0.10942537  0.74800456  0.94263708  1
  S  S132  1  0.60317277  0.44220513  0.09276123  1
  S  S133  1  0.89682723  0.44220513  0.40723877  1
  S  S134  1  0.39682723  0.05779487  0.59276123  1
  S  S135  1  0.10317277  0.05779487  0.90723877  1
  S  S136  1  0.39682723  0.55779487  0.90723877  1
  S  S137  1  0.10317277  0.55779487  0.59276123  1
  S  S138  1  0.60317277  0.94220513  0.40723877  1
  S  S139  1  0.89682723  0.94220513  0.09276123  1
  S  S140  1  0.68615144  0.49864188  0.95149902  1
  S  S141  1  0.81384856  0.49864188  0.54850098  1
  S  S142  1  0.31384856  0.00135812  0.45149902  1
  S  S143  1  0.18615144  0.00135812  0.04850098  1
  S  S144  1  0.31384856  0.50135812  0.04850098  1
  S  S145  1  0.18615144  0.50135812  0.45149902  1
  S  S146  1  0.68615144  0.99864188  0.54850098  1
  S  S147  1  0.81384856  0.99864188  0.95149902  1
  S  S148  1  0.51226567  0.30785025  0.97399334  1
  S  S149  1  0.98773433  0.30785025  0.52600666  1
  S  S150  1  0.48773433  0.19214975  0.47399334  1
  S  S151  1  0.01226567  0.19214975  0.02600666  1
  S  S152  1  0.48773433  0.69214975  0.02600666  1
  S  S153  1  0.01226567  0.69214975  0.47399334  1
  S  S154  1  0.51226567  0.80785025  0.52600666  1
  S  S155  1  0.98773433  0.80785025  0.97399334  1
  Br  Br156  1  0.25000000  0.70277941  0.25000000  1
  Br  Br157  1  0.75000000  0.79722059  0.75000000  1
  Br  Br158  1  0.75000000  0.29722059  0.75000000  1
  Br  Br159  1  0.25000000  0.20277941  0.25000000  1
  Br  Br160  1  0.54788020  0.59189300  0.34959880  1
  Br  Br161  1  0.95211980  0.59189300  0.15040120  1
  Br  Br162  1  0.45211980  0.90810700  0.84959880  1
  Br  Br163  1  0.04788020  0.90810700  0.65040120  1
  Br  Br164  1  0.45211980  0.40810700  0.65040120  1
  Br  Br165  1  0.04788020  0.40810700  0.84959880  1
  Br  Br166  1  0.54788020  0.09189300  0.15040120  1
  Br  Br167  1  0.95211980  0.09189300  0.34959880  1
  N  N168  1  0.48797605  0.57791566  0.17197571  1
  N  N169  1  0.01202395  0.57791566  0.32802429  1
  N  N170  1  0.51202395  0.92208434  0.67197571  1
  N  N171  1  0.98797605  0.92208434  0.82802429  1
  N  N172  1  0.51202395  0.42208434  0.82802429  1
  N  N173  1  0.98797605  0.42208434  0.67197571  1
  N  N174  1  0.48797605  0.07791566  0.32802429  1
  N  N175  1  0.01202395  0.07791566  0.17197571  1
  N  N176  1  0.59818383  0.44461283  0.21954903  1
  N  N177  1  0.90181617  0.44461283  0.28045097  1
  N  N178  1  0.40181617  0.05538717  0.71954903  1
  N  N179  1  0.09818383  0.05538717  0.78045097  1
  N  N180  1  0.40181617  0.55538717  0.78045097  1
  N  N181  1  0.09818383  0.55538717  0.71954903  1
  N  N182  1  0.59818383  0.94461283  0.28045097  1
  N  N183  1  0.90181617  0.94461283  0.21954903  1
  N  N184  1  0.80690675  0.58848852  0.85843143  1
  N  N185  1  0.69309325  0.58848852  0.64156857  1
  N  N186  1  0.19309325  0.91151148  0.35843143  1
  N  N187  1  0.30690675  0.91151148  0.14156857  1
  N  N188  1  0.19309325  0.41151148  0.14156857  1
  N  N189  1  0.30690675  0.41151148  0.35843143  1
  N  N190  1  0.80690675  0.08848852  0.64156857  1
  N  N191  1  0.69309325  0.08848852  0.85843143  1
  N  N192  1  0.64903690  0.68827737  0.88810678  1
  N  N193  1  0.85096310  0.68827737  0.61189322  1
  N  N194  1  0.35096310  0.81172263  0.38810678  1
  N  N195  1  0.14903690  0.81172263  0.11189322  1
  N  N196  1  0.35096310  0.31172263  0.11189322  1
  N  N197  1  0.14903690  0.31172263  0.38810678  1
  N  N198  1  0.64903690  0.18827737  0.61189322  1
  N  N199  1  0.85096310  0.18827737  0.88810678  1
  N  N200  1  0.28971638  0.29739328  0.93726621  1
  N  N201  1  0.21028362  0.29739328  0.56273379  1
  N  N202  1  0.71028362  0.20260672  0.43726621  1
  N  N203  1  0.78971638  0.20260672  0.06273379  1
  N  N204  1  0.71028362  0.70260672  0.06273379  1
  N  N205  1  0.78971638  0.70260672  0.43726621  1
  N  N206  1  0.28971638  0.79739328  0.56273379  1
  N  N207  1  0.21028362  0.79739328  0.93726621  1
  N  N208  1  0.40195826  0.14546920  0.92203818  1
  N  N209  1  0.09804174  0.14546920  0.57796182  1
  N  N210  1  0.59804174  0.35453080  0.42203818  1
  N  N211  1  0.90195826  0.35453080  0.07796182  1
  N  N212  1  0.59804174  0.85453080  0.07796182  1
  N  N213  1  0.90195826  0.85453080  0.42203818  1
  N  N214  1  0.40195826  0.64546920  0.57796182  1
  N  N215  1  0.09804174  0.64546920  0.92203818  1
  O  O216  1  0.75000000  0.25059734  0.25000000  1
  O  O217  1  0.25000000  0.24940266  0.75000000  1
  O  O218  1  0.25000000  0.74940266  0.75000000  1
  O  O219  1  0.75000000  0.75059734  0.25000000  1
