# generated using pymatgen
data_Y3Ge13Pt4
_symmetry_space_group_name_H-M   'P 1'
_cell_length_a   9.13690035
_cell_length_b   9.13690072
_cell_length_c   9.13690035
_cell_angle_alpha   89.71959484
_cell_angle_beta   90.28040205
_cell_angle_gamma   90.28040516
_symmetry_Int_Tables_number   1
_chemical_formula_structural   Y3Ge13Pt4
_chemical_formula_sum   'Y6 Ge26 Pt8'
_cell_volume   762.74809394
_cell_formula_units_Z   2
loop_
 _symmetry_equiv_pos_site_id
 _symmetry_equiv_pos_as_xyz
  1  'x, y, z'
loop_
 _atom_site_type_symbol
 _atom_site_label
 _atom_site_symmetry_multiplicity
 _atom_site_fract_x
 _atom_site_fract_y
 _atom_site_fract_z
 _atom_site_occupancy
  Y  Y0  1  0.25077439  0.24847571  0.50159256  1
  Y  Y1  1  0.49840744  0.74922561  0.24847571  1
  Y  Y2  1  0.75152429  0.50159256  0.74922561  1
  Y  Y3  1  0.75077439  0.00159256  0.74847571  1
  Y  Y4  1  0.25152429  0.24922561  0.00159256  1
  Y  Y5  1  0.99840744  0.74847571  0.24922561  1
  Ge  Ge6  1  0.25214554  0.74785446  0.74785446  1
  Ge  Ge7  1  0.75214554  0.24785446  0.24785446  1
  Ge  Ge8  1  0.25133146  0.91591363  0.09504758  1
  Ge  Ge9  1  0.90495242  0.74866854  0.91591363  1
  Ge  Ge10  1  0.08408637  0.09504758  0.74866854  1
  Ge  Ge11  1  0.75133146  0.59504758  0.41591363  1
  Ge  Ge12  1  0.58408637  0.24866854  0.59504758  1
  Ge  Ge13  1  0.40495242  0.41591363  0.24866854  1
  Ge  Ge14  1  0.37414549  0.46156654  0.74935678  1
  Ge  Ge15  1  0.25064322  0.62585451  0.46156654  1
  Ge  Ge16  1  0.53843346  0.74935678  0.62585451  1
  Ge  Ge17  1  0.87414549  0.24935678  0.96156654  1
  Ge  Ge18  1  0.03843346  0.12585451  0.24935678  1
  Ge  Ge19  1  0.75064322  0.96156654  0.12585451  1
  Ge  Ge20  1  0.07905415  0.39818138  0.75227642  1
  Ge  Ge21  1  0.24772358  0.92094585  0.39818138  1
  Ge  Ge22  1  0.60181862  0.75227642  0.92094585  1
  Ge  Ge23  1  0.57905415  0.25227642  0.89818138  1
  Ge  Ge24  1  0.10181862  0.42094585  0.25227642  1
  Ge  Ge25  1  0.74772358  0.89818138  0.42094585  1
  Ge  Ge26  1  0.24997448  0.63629885  0.00789561  1
  Ge  Ge27  1  0.99210439  0.75002552  0.63629885  1
  Ge  Ge28  1  0.36370115  0.00789561  0.75002552  1
  Ge  Ge29  1  0.74997448  0.50789561  0.13629885  1
  Ge  Ge30  1  0.86370115  0.25002552  0.50789561  1
  Ge  Ge31  1  0.49210439  0.13629885  0.25002552  1
  Pt  Pt32  1  0.50041921  0.49958079  0.49958079  1
  Pt  Pt33  1  0.00041921  -0.00041921  -0.00041921  1
  Pt  Pt34  1  0.50265749  0.50379828  0.99969887  1
  Pt  Pt35  1  0.00030113  0.49734251  0.50379828  1
  Pt  Pt36  1  0.49620172  0.99969887  0.49734251  1
  Pt  Pt37  1  0.00265749  0.49969887  0.00379828  1
  Pt  Pt38  1  0.99620172  0.99734251  0.49969887  1
  Pt  Pt39  1  0.50030113  0.00379828  0.99734251  1
