# generated using pymatgen
data_RbB2Se3O10
_symmetry_space_group_name_H-M   'P 1'
_cell_length_a   4.73891313
_cell_length_b   12.18255466
_cell_length_c   16.64371162
_cell_angle_alpha   90.00000000
_cell_angle_beta   90.00000000
_cell_angle_gamma   90.00000000
_symmetry_Int_Tables_number   1
_chemical_formula_structural   RbB2Se3O10
_chemical_formula_sum   'Rb4 B8 Se12 O40'
_cell_volume   960.87589493
_cell_formula_units_Z   4
loop_
 _symmetry_equiv_pos_site_id
 _symmetry_equiv_pos_as_xyz
  1  'x, y, z'
loop_
 _atom_site_type_symbol
 _atom_site_label
 _atom_site_symmetry_multiplicity
 _atom_site_fract_x
 _atom_site_fract_y
 _atom_site_fract_z
 _atom_site_occupancy
  Rb  Rb0  1  0.99639992  0.28357906  0.85567737  1
  Rb  Rb1  1  0.50360008  0.71642094  0.35567737  1
  Rb  Rb2  1  0.49639992  0.21642094  0.14432263  1
  Rb  Rb3  1  0.00360008  0.78357906  0.64432263  1
  B  B4  1  0.45464683  0.84340790  0.84356346  1
  B  B5  1  0.04535317  0.15659210  0.34356346  1
  B  B6  1  0.95464683  0.65659210  0.15643654  1
  B  B7  1  0.54535317  0.34340790  0.65643654  1
  B  B8  1  0.45527852  0.03218831  0.91301147  1
  B  B9  1  0.04472148  0.96781169  0.41301147  1
  B  B10  1  0.95527852  0.46781169  0.08698853  1
  B  B11  1  0.54472148  0.53218831  0.58698853  1
  Se  Se12  1  0.95030291  0.01401806  0.00758242  1
  Se  Se13  1  0.54969709  0.98598194  0.50758242  1
  Se  Se14  1  0.45030291  0.48598194  0.99241758  1
  Se  Se15  1  0.04969709  0.51401806  0.49241758  1
  Se  Se16  1  0.47840670  0.02759060  0.73882089  1
  Se  Se17  1  0.02159330  0.97240940  0.23882089  1
  Se  Se18  1  0.97840670  0.47240940  0.26117911  1
  Se  Se19  1  0.52159330  0.52759060  0.76117911  1
  Se  Se20  1  0.95329198  0.74122639  0.90408330  1
  Se  Se21  1  0.54670802  0.25877361  0.40408330  1
  Se  Se22  1  0.45329198  0.75877361  0.09591670  1
  Se  Se23  1  0.04670802  0.24122639  0.59591670  1
  O  O24  1  0.16614946  0.07332230  0.93038801  1
  O  O25  1  0.33385054  0.92667770  0.43038801  1
  O  O26  1  0.66614946  0.42667770  0.06961199  1
  O  O27  1  0.83385054  0.57332230  0.56961199  1
  O  O28  1  0.62307925  0.73956874  0.85552521  1
  O  O29  1  0.87692075  0.26043126  0.35552521  1
  O  O30  1  0.12307925  0.76043126  0.14447479  1
  O  O31  1  0.37692075  0.23956874  0.64447479  1
  O  O32  1  0.48142357  0.91429448  0.91084906  1
  O  O33  1  0.01857643  0.08570552  0.41084906  1
  O  O34  1  0.98142357  0.58570552  0.08915094  1
  O  O35  1  0.51857643  0.41429448  0.58915094  1
  O  O36  1  0.15636635  0.80058629  0.82639244  1
  O  O37  1  0.34363365  0.19941371  0.32639244  1
  O  O38  1  0.65636635  0.69941371  0.17360756  1
  O  O39  1  0.84363365  0.30058629  0.67360756  1
  O  O40  1  0.64149385  0.08314781  0.97468274  1
  O  O41  1  0.85850615  0.91685219  0.47468274  1
  O  O42  1  0.14149385  0.41685219  0.02531726  1
  O  O43  1  0.35850615  0.58314781  0.52531726  1
  O  O44  1  0.53787868  0.08817881  0.83437036  1
  O  O45  1  0.96212132  0.91182119  0.33437036  1
  O  O46  1  0.03787868  0.41182119  0.16562964  1
  O  O47  1  0.46212132  0.58817881  0.66562964  1
  O  O48  1  0.11691903  0.03105993  0.73089175  1
  O  O49  1  0.38308097  0.96894007  0.23089175  1
  O  O50  1  0.61691903  0.46894007  0.26910825  1
  O  O51  1  0.88308097  0.53105993  0.76910825  1
  O  O52  1  0.54552084  0.88835179  0.76472994  1
  O  O53  1  0.95447916  0.11164821  0.26472994  1
  O  O54  1  0.04552084  0.61164821  0.23527006  1
  O  O55  1  0.45447916  0.38835179  0.73527006  1
  O  O56  1  0.01463941  0.60512394  0.90069371  1
  O  O57  1  0.48536059  0.39487606  0.40069371  1
  O  O58  1  0.51463941  0.89487606  0.09930629  1
  O  O59  1  0.98536059  0.10512394  0.59930629  1
  O  O60  1  0.01329225  0.08877826  0.08933078  1
  O  O61  1  0.48670775  0.91122174  0.58933078  1
  O  O62  1  0.51329225  0.41122174  0.91066922  1
  O  O63  1  0.98670775  0.58877826  0.41066922  1
