# generated using pymatgen
data_Sm3Ge13Pt4
_symmetry_space_group_name_H-M   'P 1'
_cell_length_a   9.15346021
_cell_length_b   9.15346021
_cell_length_c   9.21294223
_cell_angle_alpha   90.39437381
_cell_angle_beta   90.39437381
_cell_angle_gamma   89.91784711
_symmetry_Int_Tables_number   1
_chemical_formula_structural   Sm3Ge13Pt4
_chemical_formula_sum   'Sm6 Ge26 Pt8'
_cell_volume   771.87673384
_cell_formula_units_Z   2
loop_
 _symmetry_equiv_pos_site_id
 _symmetry_equiv_pos_as_xyz
  1  'x, y, z'
loop_
 _atom_site_type_symbol
 _atom_site_label
 _atom_site_symmetry_multiplicity
 _atom_site_fract_x
 _atom_site_fract_y
 _atom_site_fract_z
 _atom_site_occupancy
  Sm  Sm0  1  0.00015941  0.00066079  0.50504369  1
  Sm  Sm1  1  0.00066079  0.00015941  0.00504369  1
  Sm  Sm2  1  0.50056997  0.25330519  0.24989286  1
  Sm  Sm3  1  0.25330519  0.50056997  0.74989286  1
  Sm  Sm4  1  0.74359119  0.50002177  0.75402309  1
  Sm  Sm5  1  0.50002177  0.74359119  0.25402309  1
  Ge  Ge6  1  0.50383798  0.99496871  0.75202394  1
  Ge  Ge7  1  0.99496871  0.50383798  0.25202394  1
  Ge  Ge8  1  0.82920977  0.85130912  0.25769965  1
  Ge  Ge9  1  0.85130912  0.82920977  0.75769965  1
  Ge  Ge10  1  0.15625051  0.83365238  0.75389007  1
  Ge  Ge11  1  0.83365238  0.15625051  0.25389007  1
  Ge  Ge12  1  0.49740132  0.32621907  0.60606407  1
  Ge  Ge13  1  0.32621907  0.49740132  0.10606407  1
  Ge  Ge14  1  0.99615030  0.61487581  0.51145977  1
  Ge  Ge15  1  0.61487581  0.99615030  0.01145977  1
  Ge  Ge16  1  0.33326030  0.99990258  0.10063408  1
  Ge  Ge17  1  0.99990258  0.33326030  0.60063408  1
  Ge  Ge18  1  0.73728293  0.49683025  0.14099940  1
  Ge  Ge19  1  0.49683025  0.73728293  0.64099940  1
  Ge  Ge20  1  0.32973477  0.99948600  0.40054757  1
  Ge  Ge21  1  0.99948600  0.32973477  0.90054757  1
  Ge  Ge22  1  0.12356547  0.77880538  0.25221729  1
  Ge  Ge23  1  0.77880538  0.12356547  0.75221729  1
  Ge  Ge24  1  0.00489886  0.61553051  0.98635634  1
  Ge  Ge25  1  0.61553051  0.00489886  0.48635634  1
  Ge  Ge26  1  0.49921929  0.33140466  0.90982608  1
  Ge  Ge27  1  0.33140466  0.49921929  0.40982608  1
  Ge  Ge28  1  0.25124920  0.11316262  0.75065485  1
  Ge  Ge29  1  0.11316262  0.25124920  0.25065485  1
  Ge  Ge30  1  0.65391280  0.50505088  0.41967217  1
  Ge  Ge31  1  0.50505088  0.65391280  0.91967217  1
  Pt  Pt32  1  0.74936380  0.25192309  0.50375888  1
  Pt  Pt33  1  0.25192309  0.74936380  0.00375888  1
  Pt  Pt34  1  0.25037605  0.74868200  0.50309575  1
  Pt  Pt35  1  0.74868200  0.25037605  0.00309575  1
  Pt  Pt36  1  0.24679837  0.24543893  0.50022345  1
  Pt  Pt37  1  0.24543893  0.24679837  0.00022345  1
  Pt  Pt38  1  0.75434984  0.74958817  0.00891698  1
  Pt  Pt39  1  0.74958817  0.75434984  0.50891698  1
