# generated using pymatgen
data_YbH12(CN3)3
_symmetry_space_group_name_H-M   'P 1'
_cell_length_a   13.98267169
_cell_length_b   13.98267169
_cell_length_c   13.98267169
_cell_angle_alpha   90.00000000
_cell_angle_beta   90.00000000
_cell_angle_gamma   90.00000000
_symmetry_Int_Tables_number   1
_chemical_formula_structural   YbH12(CN3)3
_chemical_formula_sum   'Yb8 H96 C24 N72'
_cell_volume   2733.82355987
_cell_formula_units_Z   8
loop_
 _symmetry_equiv_pos_site_id
 _symmetry_equiv_pos_as_xyz
  1  'x, y, z'
loop_
 _atom_site_type_symbol
 _atom_site_label
 _atom_site_symmetry_multiplicity
 _atom_site_fract_x
 _atom_site_fract_y
 _atom_site_fract_z
 _atom_site_occupancy
  Yb  Yb0  1  0.00000000  0.50000000  0.50000000  1
  Yb  Yb1  1  0.50000000  0.50000000  0.00000000  1
  Yb  Yb2  1  0.50000000  -0.00000000  0.50000000  1
  Yb  Yb3  1  0.00000000  -0.00000000  0.00000000  1
  Yb  Yb4  1  0.50000000  -0.00000000  0.00000000  1
  Yb  Yb5  1  0.00000000  -0.00000000  0.50000000  1
  Yb  Yb6  1  0.00000000  0.50000000  0.00000000  1
  Yb  Yb7  1  0.50000000  0.50000000  0.50000000  1
  H  H8  1  0.82619996  0.04460586  0.87815980  1
  H  H9  1  0.67380004  0.04460586  0.62184020  1
  H  H10  1  0.67380004  0.45539414  0.87815980  1
  H  H11  1  0.82619996  0.45539414  0.62184020  1
  H  H12  1  0.87815980  0.82619996  0.04460586  1
  H  H13  1  0.62184020  0.67380004  0.04460586  1
  H  H14  1  0.87815980  0.67380004  0.45539414  1
  H  H15  1  0.62184020  0.82619996  0.45539414  1
  H  H16  1  0.04460586  0.87815980  0.82619996  1
  H  H17  1  0.04460586  0.62184020  0.67380004  1
  H  H18  1  0.45539414  0.87815980  0.67380004  1
  H  H19  1  0.45539414  0.62184020  0.82619996  1
  H  H20  1  0.17380004  0.95539414  0.12184020  1
  H  H21  1  0.32619996  0.95539414  0.37815980  1
  H  H22  1  0.32619996  0.54460586  0.12184020  1
  H  H23  1  0.17380004  0.54460586  0.37815980  1
  H  H24  1  0.12184020  0.17380004  0.95539414  1
  H  H25  1  0.37815980  0.32619996  0.95539414  1
  H  H26  1  0.12184020  0.32619996  0.54460586  1
  H  H27  1  0.37815980  0.17380004  0.54460586  1
  H  H28  1  0.95539414  0.12184020  0.17380004  1
  H  H29  1  0.95539414  0.37815980  0.32619996  1
  H  H30  1  0.54460586  0.12184020  0.32619996  1
  H  H31  1  0.54460586  0.37815980  0.17380004  1
  H  H32  1  0.67278293  0.04991381  0.88066026  1
  H  H33  1  0.82721707  0.04991381  0.61933974  1
  H  H34  1  0.82721707  0.45008619  0.88066026  1
  H  H35  1  0.67278293  0.45008619  0.61933974  1
  H  H36  1  0.88066026  0.67278293  0.04991381  1
  H  H37  1  0.61933974  0.82721707  0.04991381  1
  H  H38  1  0.88066026  0.82721707  0.45008619  1
  H  H39  1  0.61933974  0.67278293  0.45008619  1
  H  H40  1  0.04991381  0.88066026  0.67278293  1
  H  H41  1  0.04991381  0.61933974  0.82721707  1
  H  H42  1  0.45008619  0.88066026  0.82721707  1
  H  H43  1  0.45008619  0.61933974  0.67278293  1
  H  H44  1  0.32721707  0.95008619  0.11933974  1
  H  H45  1  0.17278293  0.95008619  0.38066026  1
  H  H46  1  0.17278293  0.54991381  0.11933974  1
  H  H47  1  0.32721707  0.54991381  0.38066026  1
  H  H48  1  0.11933974  0.32721707  0.95008619  1
  H  H49  1  0.38066026  0.17278293  0.95008619  1
  H  H50  1  0.11933974  0.17278293  0.54991381  1
  H  H51  1  0.38066026  0.32721707  0.54991381  1
  H  H52  1  0.95008619  0.11933974  0.32721707  1
  H  H53  1  0.95008619  0.38066026  0.17278293  1
  H  H54  1  0.54991381  0.11933974  0.17278293  1
  H  H55  1  0.54991381  0.38066026  0.32721707  1
  H  H56  1  0.81254797  0.01578544  0.12494020  1
  H  H57  1  0.68745203  0.01578544  0.37505980  1
  H  H58  1  0.68745203  0.48421456  0.12494020  1
  H  H59  1  0.81254797  0.48421456  0.37505980  1
  H  H60  1  0.12494020  0.81254797  0.01578544  1
  H  H61  1  0.37505980  0.68745203  0.01578544  1
  H  H62  1  0.12494020  0.68745203  0.48421456  1
  H  H63  1  0.37505980  0.81254797  0.48421456  1
  H  H64  1  0.01578544  0.12494020  0.81254797  1
  H  H65  1  0.01578544  0.37505980  0.68745203  1
  H  H66  1  0.48421456  0.12494020  0.68745203  1
  H  H67  1  0.48421456  0.37505980  0.81254797  1
  H  H68  1  0.18745203  0.98421456  0.87505980  1
  H  H69  1  0.31254797  0.98421456  0.62494020  1
  H  H70  1  0.31254797  0.51578544  0.87505980  1
  H  H71  1  0.18745203  0.51578544  0.62494020  1
  H  H72  1  0.87505980  0.18745203  0.98421456  1
  H  H73  1  0.62494020  0.31254797  0.98421456  1
  H  H74  1  0.87505980  0.31254797  0.51578544  1
  H  H75  1  0.62494020  0.18745203  0.51578544  1
  H  H76  1  0.98421456  0.87505980  0.18745203  1
  H  H77  1  0.98421456  0.62494020  0.31254797  1
  H  H78  1  0.51578544  0.87505980  0.31254797  1
  H  H79  1  0.51578544  0.62494020  0.18745203  1
  H  H80  1  0.68734675  0.01153471  0.12394052  1
  H  H81  1  0.81265325  0.01153471  0.37605948  1
  H  H82  1  0.81265325  0.48846529  0.12394052  1
  H  H83  1  0.68734675  0.48846529  0.37605948  1
  H  H84  1  0.12394052  0.68734675  0.01153471  1
  H  H85  1  0.37605948  0.81265325  0.01153471  1
  H  H86  1  0.12394052  0.81265325  0.48846529  1
  H  H87  1  0.37605948  0.68734675  0.48846529  1
  H  H88  1  0.01153471  0.12394052  0.68734675  1
  H  H89  1  0.01153471  0.37605948  0.81265325  1
  H  H90  1  0.48846529  0.12394052  0.81265325  1
  H  H91  1  0.48846529  0.37605948  0.68734675  1
  H  H92  1  0.31265325  0.98846529  0.87605948  1
  H  H93  1  0.18734675  0.98846529  0.62394052  1
  H  H94  1  0.18734675  0.51153471  0.87605948  1
  H  H95  1  0.31265325  0.51153471  0.62394052  1
  H  H96  1  0.87605948  0.31265325  0.98846529  1
  H  H97  1  0.62394052  0.18734675  0.98846529  1
  H  H98  1  0.87605948  0.18734675  0.51153471  1
  H  H99  1  0.62394052  0.31265325  0.51153471  1
  H  H100  1  0.98846529  0.87605948  0.31265325  1
  H  H101  1  0.98846529  0.62394052  0.18734675  1
  H  H102  1  0.51153471  0.87605948  0.18734675  1
  H  H103  1  0.51153471  0.62394052  0.31265325  1
  C  C104  1  0.75019597  0.02691741  0.99331291  1
  C  C105  1  0.74980403  0.02691741  0.50668709  1
  C  C106  1  0.74980403  0.47308259  0.99331291  1
  C  C107  1  0.75019597  0.47308259  0.50668709  1
  C  C108  1  0.99331291  0.75019597  0.02691741  1
  C  C109  1  0.50668709  0.74980403  0.02691741  1
  C  C110  1  0.99331291  0.74980403  0.47308259  1
  C  C111  1  0.50668709  0.75019597  0.47308259  1
  C  C112  1  0.02691741  0.99331291  0.75019597  1
  C  C113  1  0.02691741  0.50668709  0.74980403  1
  C  C114  1  0.47308259  0.99331291  0.74980403  1
  C  C115  1  0.47308259  0.50668709  0.75019597  1
  C  C116  1  0.24980403  0.97308259  0.00668709  1
  C  C117  1  0.25019597  0.97308259  0.49331291  1
  C  C118  1  0.25019597  0.52691741  0.00668709  1
  C  C119  1  0.24980403  0.52691741  0.49331291  1
  C  C120  1  0.00668709  0.24980403  0.97308259  1
  C  C121  1  0.49331291  0.25019597  0.97308259  1
  C  C122  1  0.00668709  0.25019597  0.52691741  1
  C  C123  1  0.49331291  0.24980403  0.52691741  1
  C  C124  1  0.97308259  0.00668709  0.24980403  1
  C  C125  1  0.97308259  0.49331291  0.25019597  1
  C  C126  1  0.52691741  0.00668709  0.25019597  1
  C  C127  1  0.52691741  0.49331291  0.24980403  1
  N  N128  1  0.83575943  0.03722017  0.95060296  1
  N  N129  1  0.66424057  0.03722017  0.54939704  1
  N  N130  1  0.66424057  0.46277983  0.95060296  1
  N  N131  1  0.83575943  0.46277983  0.54939704  1
  N  N132  1  0.95060296  0.83575943  0.03722017  1
  N  N133  1  0.54939704  0.66424057  0.03722017  1
  N  N134  1  0.95060296  0.66424057  0.46277983  1
  N  N135  1  0.54939704  0.83575943  0.46277983  1
  N  N136  1  0.03722017  0.95060296  0.83575943  1
  N  N137  1  0.03722017  0.54939704  0.66424057  1
  N  N138  1  0.46277983  0.95060296  0.66424057  1
  N  N139  1  0.46277983  0.54939704  0.83575943  1
  N  N140  1  0.16424057  0.96277983  0.04939704  1
  N  N141  1  0.33575943  0.96277983  0.45060296  1
  N  N142  1  0.33575943  0.53722017  0.04939704  1
  N  N143  1  0.16424057  0.53722017  0.45060296  1
  N  N144  1  0.04939704  0.16424057  0.96277983  1
  N  N145  1  0.45060296  0.33575943  0.96277983  1
  N  N146  1  0.04939704  0.33575943  0.53722017  1
  N  N147  1  0.45060296  0.16424057  0.53722017  1
  N  N148  1  0.96277983  0.04939704  0.16424057  1
  N  N149  1  0.96277983  0.45060296  0.33575943  1
  N  N150  1  0.53722017  0.04939704  0.33575943  1
  N  N151  1  0.53722017  0.45060296  0.16424057  1
  N  N152  1  0.66398135  0.04054334  0.95267095  1
  N  N153  1  0.83601865  0.04054334  0.54732905  1
  N  N154  1  0.83601865  0.45945666  0.95267095  1
  N  N155  1  0.66398135  0.45945666  0.54732905  1
  N  N156  1  0.95267095  0.66398135  0.04054334  1
  N  N157  1  0.54732905  0.83601865  0.04054334  1
  N  N158  1  0.95267095  0.83601865  0.45945666  1
  N  N159  1  0.54732905  0.66398135  0.45945666  1
  N  N160  1  0.04054334  0.95267095  0.66398135  1
  N  N161  1  0.04054334  0.54732905  0.83601865  1
  N  N162  1  0.45945666  0.95267095  0.83601865  1
  N  N163  1  0.45945666  0.54732905  0.66398135  1
  N  N164  1  0.33601865  0.95945666  0.04732905  1
  N  N165  1  0.16398135  0.95945666  0.45267095  1
  N  N166  1  0.16398135  0.54054334  0.04732905  1
  N  N167  1  0.33601865  0.54054334  0.45267095  1
  N  N168  1  0.04732905  0.33601865  0.95945666  1
  N  N169  1  0.45267095  0.16398135  0.95945666  1
  N  N170  1  0.04732905  0.16398135  0.54054334  1
  N  N171  1  0.45267095  0.33601865  0.54054334  1
  N  N172  1  0.95945666  0.04732905  0.33601865  1
  N  N173  1  0.95945666  0.45267095  0.16398135  1
  N  N174  1  0.54054334  0.04732905  0.16398135  1
  N  N175  1  0.54054334  0.45267095  0.33601865  1
  N  N176  1  0.75070905  0.00141320  0.08857859  1
  N  N177  1  0.74929095  0.00141320  0.41142141  1
  N  N178  1  0.74929095  0.49858680  0.08857859  1
  N  N179  1  0.75070905  0.49858680  0.41142141  1
  N  N180  1  0.08857859  0.75070905  0.00141320  1
  N  N181  1  0.41142141  0.74929095  0.00141320  1
  N  N182  1  0.08857859  0.74929095  0.49858680  1
  N  N183  1  0.41142141  0.75070905  0.49858680  1
  N  N184  1  0.00141320  0.08857859  0.75070905  1
  N  N185  1  0.00141320  0.41142141  0.74929095  1
  N  N186  1  0.49858680  0.08857859  0.74929095  1
  N  N187  1  0.49858680  0.41142141  0.75070905  1
  N  N188  1  0.24929095  0.99858680  0.91142141  1
  N  N189  1  0.25070905  0.99858680  0.58857859  1
  N  N190  1  0.25070905  0.50141320  0.91142141  1
  N  N191  1  0.24929095  0.50141320  0.58857859  1
  N  N192  1  0.91142141  0.24929095  0.99858680  1
  N  N193  1  0.58857859  0.25070905  0.99858680  1
  N  N194  1  0.91142141  0.25070905  0.50141320  1
  N  N195  1  0.58857859  0.24929095  0.50141320  1
  N  N196  1  0.99858680  0.91142141  0.24929095  1
  N  N197  1  0.99858680  0.58857859  0.25070905  1
  N  N198  1  0.50141320  0.91142141  0.25070905  1
  N  N199  1  0.50141320  0.58857859  0.24929095  1
