# generated using pymatgen
data_NpH28C12(N2O3)6
_symmetry_space_group_name_H-M   'P 1'
_cell_length_a   11.81226022
_cell_length_b   11.81226022
_cell_length_c   13.20243863
_cell_angle_alpha   65.23241382
_cell_angle_beta   65.23241382
_cell_angle_gamma   61.55414770
_symmetry_Int_Tables_number   1
_chemical_formula_structural   NpH28C12(N2O3)6
_chemical_formula_sum   'Np2 H56 C24 N24 O36'
_cell_volume   1414.11837022
_cell_formula_units_Z   2
loop_
 _symmetry_equiv_pos_site_id
 _symmetry_equiv_pos_as_xyz
  1  'x, y, z'
loop_
 _atom_site_type_symbol
 _atom_site_label
 _atom_site_symmetry_multiplicity
 _atom_site_fract_x
 _atom_site_fract_y
 _atom_site_fract_z
 _atom_site_occupancy
  Np  Np0  1  0.54905727  0.45094273  0.75000000  1
  Np  Np1  1  0.45094273  0.54905727  0.25000000  1
  H  H2  1  0.22298423  0.45905581  0.76677118  1
  H  H3  1  0.54094419  0.77701577  0.73322882  1
  H  H4  1  0.77701577  0.54094419  0.23322882  1
  H  H5  1  0.45905581  0.22298423  0.26677118  1
  H  H6  1  0.12059703  0.43258365  0.74472705  1
  H  H7  1  0.56741635  0.87940297  0.75527295  1
  H  H8  1  0.87940297  0.56741635  0.25527295  1
  H  H9  1  0.43258365  0.12059703  0.24472705  1
  H  H10  1  0.64385588  0.03922068  0.04958085  1
  H  H11  1  0.96077932  0.35614412  0.45041915  1
  H  H12  1  0.35614412  0.96077932  0.95041915  1
  H  H13  1  0.03922068  0.64385588  0.54958085  1
  H  H14  1  0.71504657  0.16127917  0.95215041  1
  H  H15  1  0.83872083  0.28495343  0.54784959  1
  H  H16  1  0.28495343  0.83872083  0.04784959  1
  H  H17  1  0.16127917  0.71504657  0.45215041  1
  H  H18  1  0.94644599  0.08967278  0.85683691  1
  H  H19  1  0.91032722  0.05355401  0.64316309  1
  H  H20  1  0.05355401  0.91032722  0.14316309  1
  H  H21  1  0.08967278  0.94644599  0.35683691  1
  H  H22  1  0.03251002  0.91537198  0.86533596  1
  H  H23  1  0.08462802  0.96748998  0.63466404  1
  H  H24  1  0.96748998  0.08462802  0.13466404  1
  H  H25  1  0.91537198  0.03251002  0.36533596  1
  H  H26  1  0.76618585  0.81699963  0.06878679  1
  H  H27  1  0.18300037  0.23381415  0.43121321  1
  H  H28  1  0.23381415  0.18300037  0.93121321  1
  H  H29  1  0.81699963  0.76618585  0.56878679  1
  H  H30  1  0.93789904  0.76390479  0.99412816  1
  H  H31  1  0.23609521  0.06210096  0.50587184  1
  H  H32  1  0.06210096  0.23609521  0.00587184  1
  H  H33  1  0.76390479  0.93789904  0.49412816  1
  H  H34  1  0.21650645  0.46781682  0.99418928  1
  H  H35  1  0.53218318  0.78349355  0.50581072  1
  H  H36  1  0.78349355  0.53218318  0.00581072  1
  H  H37  1  0.46781682  0.21650645  0.49418928  1
  H  H38  1  0.05483455  0.49418094  0.09268818  1
  H  H39  1  0.50581906  0.94516545  0.40731182  1
  H  H40  1  0.94516545  0.50581906  0.90731182  1
  H  H41  1  0.49418094  0.05483455  0.59268818  1
  H  H42  1  0.38231434  0.24980514  0.03614850  1
  H  H43  1  0.75019486  0.61768566  0.46385150  1
  H  H44  1  0.61768566  0.75019486  0.96385150  1
  H  H45  1  0.24980514  0.38231434  0.53614850  1
  H  H46  1  0.33241101  0.11838050  0.14471517  1
  H  H47  1  0.88161950  0.66758899  0.35528483  1
  H  H48  1  0.66758899  0.88161950  0.85528483  1
  H  H49  1  0.11838050  0.33241101  0.64471517  1
  H  H50  1  0.99864349  0.33016453  0.24002194  1
  H  H51  1  0.66983547  0.00135651  0.25997806  1
  H  H52  1  0.00135651  0.66983547  0.75997806  1
  H  H53  1  0.33016453  0.99864349  0.74002194  1
  H  H54  1  0.12220502  0.16692234  0.27090607  1
  H  H55  1  0.83307766  0.87779498  0.22909393  1
  H  H56  1  0.87779498  0.83307766  0.72909393  1
  H  H57  1  0.16692234  0.12220502  0.77090607  1
  C  C58  1  0.65927654  0.14534413  0.72987048  1
  C  C59  1  0.85465587  0.34072346  0.77012952  1
  C  C60  1  0.34072346  0.85465587  0.27012952  1
  C  C61  1  0.14534413  0.65927654  0.22987048  1
  C  C62  1  0.51868540  0.16192048  0.81773628  1
  C  C63  1  0.83807952  0.48131460  0.68226372  1
  C  C64  1  0.48131460  0.83807952  0.18226372  1
  C  C65  1  0.16192048  0.51868540  0.31773628  1
  C  C66  1  0.24928904  0.67567239  0.80900726  1
  C  C67  1  0.32432761  0.75071096  0.69099274  1
  C  C68  1  0.75071096  0.32432761  0.19099274  1
  C  C69  1  0.67567239  0.24928904  0.30900726  1
  C  C70  1  0.43258350  0.49038418  0.53417221  1
  C  C71  1  0.50961582  0.56741650  0.96582779  1
  C  C72  1  0.56741650  0.50961582  0.46582779  1
  C  C73  1  0.49038418  0.43258350  0.03417221  1
  C  C74  1  0.84161644  0.96578949  0.96808190  1
  C  C75  1  0.03421051  0.15838356  0.53191810  1
  C  C76  1  0.15838356  0.03421051  0.03191810  1
  C  C77  1  0.96578949  0.84161644  0.46808190  1
  C  C78  1  0.18717246  0.30552663  0.13261270  1
  C  C79  1  0.69447337  0.81282754  0.36738730  1
  C  C80  1  0.81282754  0.69447337  0.86738730  1
  C  C81  1  0.30552663  0.18717246  0.63261270  1
  N  N82  1  0.72599772  0.06413678  0.99907771  1
  N  N83  1  0.93586322  0.27400228  0.50092229  1
  N  N84  1  0.27400228  0.93586322  0.00092229  1
  N  N85  1  0.06413678  0.72599772  0.49907771  1
  N  N86  1  0.94919879  0.99294372  0.89213462  1
  N  N87  1  0.00705628  0.05080121  0.60786538  1
  N  N88  1  0.05080121  0.00705628  0.10786538  1
  N  N89  1  0.99294372  0.94919879  0.39213462  1
  N  N90  1  0.84976781  0.83810666  0.01693109  1
  N  N91  1  0.16189334  0.15023219  0.48306891  1
  N  N92  1  0.15023219  0.16189334  0.98306891  1
  N  N93  1  0.83810666  0.84976781  0.51693109  1
  N  N94  1  0.15268163  0.43354006  0.06991451  1
  N  N95  1  0.56645994  0.84731837  0.43008549  1
  N  N96  1  0.84731837  0.56645994  0.93008549  1
  N  N97  1  0.43354006  0.15268163  0.56991451  1
  N  N98  1  0.31334663  0.21865990  0.10776688  1
  N  N99  1  0.78134010  0.68665337  0.39223312  1
  N  N100  1  0.68665337  0.78134010  0.89223312  1
  N  N101  1  0.21865990  0.31334663  0.60776688  1
  N  N102  1  0.09473159  0.26385882  0.22294310  1
  N  N103  1  0.73614118  0.90526841  0.27705690  1
  N  N104  1  0.90526841  0.73614118  0.77705690  1
  N  N105  1  0.26385882  0.09473159  0.72294310  1
  O  O106  1  0.68279672  0.25474240  0.67863756  1
  O  O107  1  0.74525760  0.31720328  0.82136244  1
  O  O108  1  0.31720328  0.74525760  0.32136244  1
  O  O109  1  0.25474240  0.68279672  0.17863756  1
  O  O110  1  0.73995846  0.03269146  0.71498440  1
  O  O111  1  0.96730854  0.26004154  0.78501560  1
  O  O112  1  0.26004154  0.96730854  0.28501560  1
  O  O113  1  0.03269146  0.73995846  0.21498440  1
  O  O114  1  0.47344459  0.07101652  0.85539279  1
  O  O115  1  0.92898348  0.52655541  0.64460721  1
  O  O116  1  0.52655541  0.92898348  0.14460721  1
  O  O117  1  0.07101652  0.47344459  0.35539279  1
  O  O118  1  0.46065635  0.27255830  0.84561849  1
  O  O119  1  0.72744170  0.53934365  0.65438151  1
  O  O120  1  0.53934365  0.72744170  0.15438151  1
  O  O121  1  0.27255830  0.46065635  0.34561849  1
  O  O122  1  0.31714389  0.55014978  0.84526240  1
  O  O123  1  0.44985022  0.68285611  0.65473760  1
  O  O124  1  0.68285611  0.44985022  0.15473760  1
  O  O125  1  0.55014978  0.31714389  0.34526240  1
  O  O126  1  0.13306309  0.73676352  0.86047954  1
  O  O127  1  0.26323648  0.86693691  0.63952046  1
  O  O128  1  0.86693691  0.26323648  0.13952046  1
  O  O129  1  0.73676352  0.13306309  0.36047954  1
  O  O130  1  0.40114744  0.46554820  0.64375951  1
  O  O131  1  0.53445180  0.59885256  0.85624049  1
  O  O132  1  0.59885256  0.53445180  0.35624049  1
  O  O133  1  0.46554820  0.40114744  0.14375951  1
  O  O134  1  0.36506093  0.50051875  0.47542286  1
  O  O135  1  0.49948125  0.63493907  0.02457714  1
  O  O136  1  0.63493907  0.49948125  0.52457714  1
  O  O137  1  0.50051875  0.36506093  0.97542286  1
  O  O138  1  0.12847670  0.46740433  0.79588652  1
  O  O139  1  0.53259567  0.87152330  0.70411348  1
  O  O140  1  0.87152330  0.53259567  0.20411348  1
  O  O141  1  0.46740433  0.12847670  0.29588652  1
