# generated using pymatgen
data_PrH16N7O19
_symmetry_space_group_name_H-M   'P 1'
_cell_length_a   7.08718410
_cell_length_b   7.08718410
_cell_length_c   18.42871266
_cell_angle_alpha   80.05669599
_cell_angle_beta   80.05669599
_cell_angle_gamma   77.92959848
_symmetry_Int_Tables_number   1
_chemical_formula_structural   PrH16N7O19
_chemical_formula_sum   'Pr2 H32 N14 O38'
_cell_volume   882.57260716
_cell_formula_units_Z   2
loop_
 _symmetry_equiv_pos_site_id
 _symmetry_equiv_pos_as_xyz
  1  'x, y, z'
loop_
 _atom_site_type_symbol
 _atom_site_label
 _atom_site_symmetry_multiplicity
 _atom_site_fract_x
 _atom_site_fract_y
 _atom_site_fract_z
 _atom_site_occupancy
  Pr  Pr0  1  0.01411609  0.13111909  0.57499433  1
  Pr  Pr1  1  0.13111909  0.01411609  0.07499433  1
  H  H2  1  0.64564744  0.92222497  0.60284829  1
  H  H3  1  0.92222497  0.64564744  0.10284829  1
  H  H4  1  0.81909274  0.74857240  0.61689351  1
  H  H5  1  0.74857240  0.81909274  0.11689351  1
  H  H6  1  0.23083086  0.49548321  0.54766914  1
  H  H7  1  0.49548321  0.23083086  0.04766914  1
  H  H8  1  0.39948214  0.31726261  0.53143504  1
  H  H9  1  0.31726261  0.39948214  0.03143504  1
  H  H10  1  0.17427104  0.62960881  0.73862578  1
  H  H11  1  0.62960881  0.17427104  0.23862578  1
  H  H12  1  0.16582624  0.40723982  0.73802778  1
  H  H13  1  0.40723982  0.16582624  0.23802778  1
  H  H14  1  0.52287174  0.84156056  0.78994265  1
  H  H15  1  0.84156056  0.52287174  0.28994265  1
  H  H16  1  0.69446297  0.92195380  0.73628015  1
  H  H17  1  0.92195380  0.69446297  0.23628015  1
  H  H18  1  0.11980654  0.51355833  0.33422947  1
  H  H19  1  0.51355833  0.11980654  0.83422947  1
  H  H20  1  0.35777855  0.40672814  0.31121615  1
  H  H21  1  0.40672814  0.35777855  0.81121615  1
  H  H22  1  0.29476367  0.59432996  0.36280930  1
  H  H23  1  0.59432996  0.29476367  0.86280930  1
  H  H24  1  0.24922472  0.37282064  0.40010033  1
  H  H25  1  0.37282064  0.24922472  0.90010033  1
  H  H26  1  0.56372746  0.97637234  0.35569747  1
  H  H27  1  0.97637234  0.56372746  0.85569747  1
  H  H28  1  0.76839478  0.95844858  0.39547612  1
  H  H29  1  0.95844858  0.76839478  0.89547612  1
  H  H30  1  0.75315786  0.78458198  0.34521200  1
  H  H31  1  0.78458198  0.75315786  0.84521200  1
  H  H32  1  0.61595402  0.80437485  0.42985730  1
  H  H33  1  0.80437485  0.61595402  0.92985730  1
  N  N34  1  0.25584041  0.47111525  0.35203185  1
  N  N35  1  0.47111525  0.25584041  0.85203185  1
  N  N36  1  0.67297523  0.88243626  0.38185470  1
  N  N37  1  0.88243626  0.67297523  0.88185470  1
  N  N38  1  0.75074058  0.41909240  0.67307630  1
  N  N39  1  0.41909240  0.75074058  0.17307630  1
  N  N40  1  0.73147545  0.36589690  0.46553926  1
  N  N41  1  0.36589690  0.73147545  0.96553926  1
  N  N42  1  0.15019259  0.96746570  0.42189642  1
  N  N43  1  0.96746570  0.15019259  0.92189642  1
  N  N44  1  0.37311834  0.78968633  0.56763870  1
  N  N45  1  0.78968633  0.37311834  0.06763870  1
  N  N46  1  0.15336014  0.02159658  0.73226509  1
  N  N47  1  0.02159658  0.15336014  0.23226509  1
  O  O48  1  0.77764816  0.89119541  0.61729633  1
  O  O49  1  0.89119541  0.77764816  0.11729633  1
  O  O50  1  0.25643364  0.36200510  0.53494963  1
  O  O51  1  0.36200510  0.25643364  0.03494963  1
  O  O52  1  0.74101159  0.23883688  0.67895154  1
  O  O53  1  0.23883688  0.74101159  0.17895154  1
  O  O54  1  0.87374959  0.48311694  0.61891344  1
  O  O55  1  0.48311694  0.87374959  0.11891344  1
  O  O56  1  0.64902790  0.52630480  0.71673588  1
  O  O57  1  0.52630480  0.64902790  0.21673588  1
  O  O58  1  0.66586318  0.25225634  0.52229855  1
  O  O59  1  0.25225634  0.66586318  0.02229855  1
  O  O60  1  0.90651359  0.38973923  0.46202588  1
  O  O61  1  0.38973923  0.90651359  0.96202588  1
  O  O62  1  0.62862471  0.44757248  0.41679391  1
  O  O63  1  0.44757248  0.62862471  0.91679391  1
  O  O64  1  0.97533367  0.96919307  0.45430963  1
  O  O65  1  0.96919307  0.97533367  0.95430963  1
  O  O66  1  0.25327749  0.06158690  0.44811370  1
  O  O67  1  0.06158690  0.25327749  0.94811370  1
  O  O68  1  0.21966553  0.87783457  0.36820222  1
  O  O69  1  0.87783457  0.21966553  0.86820222  1
  O  O70  1  0.20262362  0.75502432  0.56792738  1
  O  O71  1  0.75502432  0.20262362  0.06792738  1
  O  O72  1  0.38294138  0.95170454  0.58758714  1
  O  O73  1  0.95170454  0.38294138  0.08758714  1
  O  O74  1  0.52269731  0.67376555  0.54761528  1
  O  O75  1  0.67376555  0.52269731  0.04761528  1
  O  O76  1  0.08115544  0.89976203  0.70656691  1
  O  O77  1  0.89976203  0.08115544  0.20656691  1
  O  O78  1  0.14623095  0.19155575  0.69430158  1
  O  O79  1  0.19155575  0.14623095  0.19430158  1
  O  O80  1  0.22766054  0.97585690  0.79078318  1
  O  O81  1  0.97585690  0.22766054  0.29078318  1
  O  O82  1  0.18808789  0.49962210  0.76859447  1
  O  O83  1  0.49962210  0.18808789  0.26859447  1
  O  O84  1  0.63835287  0.89744690  0.78896623  1
  O  O85  1  0.89744690  0.63835287  0.28896623  1
