# generated using pymatgen
data_Ca2Al2FeSi4BO16
_symmetry_space_group_name_H-M   'P 1'
_cell_length_a   7.26528582
_cell_length_b   9.01882428
_cell_length_c   9.19262123
_cell_angle_alpha   88.26798034
_cell_angle_beta   77.56960674
_cell_angle_gamma   81.54565402
_symmetry_Int_Tables_number   1
_chemical_formula_structural   Ca2Al2FeSi4BO16
_chemical_formula_sum   'Ca4 Al4 Fe2 Si8 B2 O32'
_cell_volume   581.82784865
_cell_formula_units_Z   2
loop_
 _symmetry_equiv_pos_site_id
 _symmetry_equiv_pos_as_xyz
  1  'x, y, z'
loop_
 _atom_site_type_symbol
 _atom_site_label
 _atom_site_symmetry_multiplicity
 _atom_site_fract_x
 _atom_site_fract_y
 _atom_site_fract_z
 _atom_site_occupancy
  Ca  Ca0  1  0.24556441  0.39562122  0.66659626  1
  Ca  Ca1  1  0.75443559  0.60437878  0.33340374  1
  Ca  Ca2  1  0.82169510  0.09686004  0.90674520  1
  Ca  Ca3  1  0.17830490  0.90313996  0.09325480  1
  Al  Al4  1  0.94945621  0.25897287  0.18137718  1
  Al  Al5  1  0.05054379  0.74102713  0.81862282  1
  Al  Al6  1  0.65907350  0.41450912  0.05759993  1
  Al  Al7  1  0.34092650  0.58549088  0.94240007  1
  Fe  Fe8  1  0.23256729  0.12167145  0.39882587  1
  Fe  Fe9  1  0.76743271  0.87832855  0.60117413  1
  Si  Si10  1  0.78984587  0.23159861  0.54870070  1
  Si  Si11  1  0.21015413  0.76840139  0.45129930  1
  Si  Si12  1  0.78221286  0.52262981  0.72840322  1
  Si  Si13  1  0.21778714  0.47737019  0.27159678  1
  Si  Si14  1  0.30011891  0.01171092  0.73887105  1
  Si  Si15  1  0.69988109  0.98828908  0.26112895  1
  Si  Si16  1  0.35382617  0.23447511  0.98131980  1
  Si  Si17  1  0.64617383  0.76552489  0.01868020  1
  B  B18  1  0.53626232  0.28797216  0.36635176  1
  B  B19  1  0.46373768  0.71202784  0.63364824  1
  O  O20  1  0.95805996  0.18888880  0.39916621  1
  O  O21  1  0.04194004  0.81111120  0.60083379  1
  O  O22  1  0.76768129  0.08322602  0.65328183  1
  O  O23  1  0.23231871  0.91677398  0.34671817  1
  O  O24  1  0.57968460  0.30414584  0.51505707  1
  O  O25  1  0.42031540  0.69585416  0.48494293  1
  O  O26  1  0.85827499  0.36359694  0.63435714  1
  O  O27  1  0.14172501  0.63640306  0.36564286  1
  O  O28  1  0.98081455  0.56767413  0.74917034  1
  O  O29  1  0.01918545  0.43232587  0.25082966  1
  O  O30  1  0.67861846  0.64928933  0.61782840  1
  O  O31  1  0.32138154  0.35071067  0.38217160  1
  O  O32  1  0.61838141  0.49851389  0.87219333  1
  O  O33  1  0.38161859  0.50148611  0.12780667  1
  O  O34  1  0.47344659  0.87744253  0.65914180  1
  O  O35  1  0.52655341  0.12255747  0.34085820  1
  O  O36  1  0.12040595  0.93941627  0.83503208  1
  O  O37  1  0.87959405  0.06058373  0.16496792  1
  O  O38  1  0.23616992  0.12970180  0.61194660  1
  O  O39  1  0.76383008  0.87029820  0.38805340  1
  O  O40  1  0.38695399  0.09688442  0.85682935  1
  O  O41  1  0.61304601  0.90311558  0.14317065  1
  O  O42  1  0.55791699  0.23847810  0.02146132  1
  O  O43  1  0.44208301  0.76152190  0.97853868  1
  O  O44  1  0.28826042  0.38883083  0.89813285  1
  O  O45  1  0.71173958  0.61116917  0.10186715  1
  O  O46  1  0.20817828  0.17499196  0.13038167  1
  O  O47  1  0.79182172  0.82500804  0.86961833  1
  O  O48  1  0.66920648  0.35550425  0.25916165  1
  O  O49  1  0.33079352  0.64449575  0.74083835  1
  O  O50  1  0.89608800  0.30937807  0.00274171  1
  O  O51  1  0.10391200  0.69062193  0.99725829  1
