# generated using pymatgen
data_LiZnSi3(H11C4)3
_symmetry_space_group_name_H-M   'P 1'
_cell_length_a   6.97043900
_cell_length_b   17.24454152
_cell_length_c   20.87497987
_cell_angle_alpha   90.00000000
_cell_angle_beta   90.00000000
_cell_angle_gamma   98.23829498
_symmetry_Int_Tables_number   1
_chemical_formula_structural   LiZnSi3(H11C4)3
_chemical_formula_sum   'Li4 Zn4 Si12 H132 C48'
_cell_volume   2483.32145470
_cell_formula_units_Z   4
loop_
 _symmetry_equiv_pos_site_id
 _symmetry_equiv_pos_as_xyz
  1  'x, y, z'
loop_
 _atom_site_type_symbol
 _atom_site_label
 _atom_site_symmetry_multiplicity
 _atom_site_fract_x
 _atom_site_fract_y
 _atom_site_fract_z
 _atom_site_occupancy
  Li  Li0  1  0.23239804  0.56305575  0.30951723  1
  Li  Li1  1  0.73239804  0.06305575  0.19048277  1
  Li  Li2  1  0.76760196  0.43694425  0.69048277  1
  Li  Li3  1  0.26760196  0.93694425  0.80951723  1
  Zn  Zn4  1  0.60190479  0.58361949  0.30295070  1
  Zn  Zn5  1  0.10190479  0.08361949  0.19704930  1
  Zn  Zn6  1  0.39809521  0.41638051  0.69704930  1
  Zn  Zn7  1  0.89809521  0.91638051  0.80295070  1
  Si  Si8  1  0.61694087  0.73084590  0.40409662  1
  Si  Si9  1  0.11694087  0.23084590  0.09590338  1
  Si  Si10  1  0.38305913  0.26915410  0.59590338  1
  Si  Si11  1  0.88305913  0.76915410  0.90409662  1
  Si  Si12  1  0.56869894  0.57649187  0.14726053  1
  Si  Si13  1  0.06869894  0.07649187  0.35273947  1
  Si  Si14  1  0.43130106  0.42350813  0.85273947  1
  Si  Si15  1  0.93130106  0.92350813  0.64726053  1
  Si  Si16  1  0.86115619  0.45294015  0.35122810  1
  Si  Si17  1  0.36115619  0.95294015  0.14877190  1
  Si  Si18  1  0.13884381  0.54705985  0.64877190  1
  Si  Si19  1  0.63884381  0.04705985  0.85122810  1
  H  H20  1  0.36274088  0.81714572  0.42972496  1
  H  H21  1  0.86274088  0.31714572  0.07027504  1
  H  H22  1  0.63725912  0.18285428  0.57027504  1
  H  H23  1  0.13725912  0.68285428  0.92972496  1
  H  H24  1  0.58150716  0.84587905  0.47234999  1
  H  H25  1  0.08150716  0.34587905  0.02765001  1
  H  H26  1  0.41849284  0.15412095  0.52765001  1
  H  H27  1  0.91849284  0.65412095  0.97234999  1
  H  H28  1  0.41762004  0.76351072  0.49846724  1
  H  H29  1  0.91762004  0.26351072  0.00153276  1
  H  H30  1  0.58237996  0.23648928  0.50153276  1
  H  H31  1  0.08237996  0.73648928  0.99846724  1
  H  H32  1  0.82697400  0.76756596  0.30671403  1
  H  H33  1  0.32697400  0.26756596  0.19328597  1
  H  H34  1  0.17302600  0.23243404  0.69328597  1
  H  H35  1  0.67302600  0.73243404  0.80671403  1
  H  H36  1  0.81908670  0.84856363  0.35881614  1
  H  H37  1  0.31908670  0.34856363  0.14118386  1
  H  H38  1  0.18091330  0.15143637  0.64118386  1
  H  H39  1  0.68091330  0.65143637  0.85881614  1
  H  H40  1  0.62110434  0.81751592  0.30708206  1
  H  H41  1  0.12110434  0.31751592  0.19291794  1
  H  H42  1  0.37889566  0.18248408  0.69291794  1
  H  H43  1  0.87889566  0.68248408  0.80708206  1
  H  H44  1  0.75244575  0.66509067  0.49725753  1
  H  H45  1  0.25244575  0.16509067  0.00274247  1
  H  H46  1  0.24755425  0.33490933  0.50274247  1
  H  H47  1  0.74755425  0.83490933  0.99725753  1
  H  H48  1  0.89854487  0.75491167  0.47763088  1
  H  H49  1  0.39854487  0.25491167  0.02236912  1
  H  H50  1  0.10145513  0.24508833  0.52236912  1
  H  H51  1  0.60145513  0.74508833  0.97763088  1
  H  H52  1  0.91542742  0.66960324  0.43145235  1
  H  H53  1  0.41542742  0.16960324  0.06854765  1
  H  H54  1  0.08457258  0.33039676  0.56854765  1
  H  H55  1  0.58457258  0.83039676  0.93145235  1
  H  H56  1  0.63668133  0.72254599  0.16094711  1
  H  H57  1  0.13668133  0.22254599  0.33905289  1
  H  H58  1  0.36331867  0.27745401  0.83905289  1
  H  H59  1  0.86331867  0.77745401  0.66094711  1
  H  H60  1  0.79697601  0.68906212  0.10456538  1
  H  H61  1  0.29697601  0.18906212  0.39543462  1
  H  H62  1  0.20302399  0.31093788  0.89543462  1
  H  H63  1  0.70302399  0.81093788  0.60456538  1
  H  H64  1  0.83662388  0.67820023  0.18801286  1
  H  H65  1  0.33662388  0.17820023  0.31198714  1
  H  H66  1  0.16337612  0.32179977  0.81198714  1
  H  H67  1  0.66337612  0.82179977  0.68801286  1
  H  H68  1  0.83763910  0.49483439  0.16764402  1
  H  H69  1  0.33763910  0.99483439  0.33235598  1
  H  H70  1  0.16236090  0.50516561  0.83235598  1
  H  H71  1  0.66236090  0.00516561  0.66764402  1
  H  H72  1  0.80526618  0.51324022  0.08486028  1
  H  H73  1  0.30526618  0.01324022  0.41513972  1
  H  H74  1  0.19473382  0.48675978  0.91513972  1
  H  H75  1  0.69473382  0.98675978  0.58486028  1
  H  H76  1  0.64151199  0.44120331  0.12499761  1
  H  H77  1  0.14151199  0.94120331  0.37500239  1
  H  H78  1  0.35848801  0.55879669  0.87500239  1
  H  H79  1  0.85848801  0.05879669  0.62499761  1
  H  H80  1  0.31274336  0.52101063  0.06915068  1
  H  H81  1  0.81274336  0.02101063  0.43084932  1
  H  H82  1  0.68725664  0.47898937  0.93084932  1
  H  H83  1  0.18725664  0.97898937  0.56915068  1
  H  H84  1  0.49589828  0.58747651  0.03101139  1
  H  H85  1  0.99589828  0.08747651  0.46898861  1
  H  H86  1  0.50410172  0.41252349  0.96898861  1
  H  H87  1  0.00410172  0.91252349  0.53101139  1
  H  H88  1  0.31362851  0.62361409  0.07731215  1
  H  H89  1  0.81362851  0.12361409  0.42268785  1
  H  H90  1  0.68637149  0.37638591  0.92268785  1
  H  H91  1  0.18637149  0.87638591  0.57731215  1
  H  H92  1  0.57253736  0.38094580  0.29304038  1
  H  H93  1  0.07253736  0.88094580  0.20695962  1
  H  H94  1  0.42746264  0.61905420  0.70695962  1
  H  H95  1  0.92746264  0.11905420  0.79304038  1
  H  H96  1  0.72152481  0.31598066  0.32641626  1
  H  H97  1  0.22152481  0.81598066  0.17358374  1
  H  H98  1  0.27847519  0.68401934  0.67358374  1
  H  H99  1  0.77847519  0.18401934  0.82641626  1
  H  H100  1  0.79126632  0.36684714  0.25417188  1
  H  H101  1  0.29126632  0.86684714  0.24582812  1
  H  H102  1  0.20873368  0.63315286  0.74582812  1
  H  H103  1  0.70873368  0.13315286  0.75417188  1
  H  H104  1  0.18869283  0.41839406  0.31743329  1
  H  H105  1  0.68869283  0.91839406  0.18256671  1
  H  H106  1  0.81130717  0.58160594  0.68256671  1
  H  H107  1  0.31130717  0.08160594  0.81743329  1
  H  H108  1  0.09998717  0.36676219  0.38667018  1
  H  H109  1  0.59998717  0.86676219  0.11332982  1
  H  H110  1  0.90001283  0.63323781  0.61332982  1
  H  H111  1  0.40001283  0.13323781  0.88667018  1
  H  H112  1  0.20442942  0.46548265  0.39458617  1
  H  H113  1  0.70442942  0.96548265  0.10541383  1
  H  H114  1  0.79557058  0.53451735  0.60541383  1
  H  H115  1  0.29557058  0.03451735  0.89458617  1
  H  H116  1  0.82539749  0.49774897  0.46454330  1
  H  H117  1  0.32539749  0.99774897  0.03545670  1
  H  H118  1  0.17460251  0.50225103  0.53545670  1
  H  H119  1  0.67460251  0.00225103  0.96454330  1
  H  H120  1  0.75500248  0.39496660  0.45704964  1
  H  H121  1  0.25500248  0.89496660  0.04295036  1
  H  H122  1  0.24499752  0.60503340  0.54295036  1
  H  H123  1  0.74499752  0.10503340  0.95704964  1
  H  H124  1  0.59579369  0.46067738  0.43160638  1
  H  H125  1  0.09579369  0.96067738  0.06839362  1
  H  H126  1  0.40420631  0.53932262  0.56839362  1
  H  H127  1  0.90420631  0.03932262  0.93160638  1
  H  H128  1  0.32941372  0.66651990  0.35353606  1
  H  H129  1  0.82941372  0.16651990  0.14646394  1
  H  H130  1  0.67058628  0.33348010  0.64646394  1
  H  H131  1  0.17058628  0.83348010  0.85353606  1
  H  H132  1  0.41342462  0.60520740  0.41300638  1
  H  H133  1  0.91342462  0.10520740  0.08699362  1
  H  H134  1  0.58657538  0.39479260  0.58699362  1
  H  H135  1  0.08657538  0.89479260  0.91300638  1
  H  H136  1  0.36019667  0.49399148  0.22052523  1
  H  H137  1  0.86019667  0.99399148  0.27947477  1
  H  H138  1  0.63980333  0.50600852  0.77947477  1
  H  H139  1  0.13980333  0.00600852  0.72052523  1
  H  H140  1  0.30680619  0.59218106  0.21769723  1
  H  H141  1  0.80680619  0.09218106  0.28230277  1
  H  H142  1  0.69319381  0.40781894  0.78230277  1
  H  H143  1  0.19319381  0.90781894  0.71769723  1
  H  H144  1  0.92910885  0.55412931  0.26339552  1
  H  H145  1  0.42910885  0.05412931  0.23660448  1
  H  H146  1  0.07089115  0.44587069  0.73660448  1
  H  H147  1  0.57089115  0.94587069  0.76339552  1
  H  H148  1  0.95040045  0.59910063  0.34254871  1
  H  H149  1  0.45040045  0.09910063  0.15745129  1
  H  H150  1  0.04959955  0.40089937  0.65745129  1
  H  H151  1  0.54959955  0.90089937  0.84254871  1
  C  C152  1  0.45987568  0.64236368  0.37094592  1
  C  C153  1  0.95987568  0.14236368  0.12905408  1
  C  C154  1  0.54012432  0.35763632  0.62905408  1
  C  C155  1  0.04012432  0.85763632  0.87094592  1
  C  C156  1  0.48033856  0.79467533  0.45565472  1
  C  C157  1  0.98033856  0.29467533  0.04434528  1
  C  C158  1  0.51966144  0.20532467  0.54434528  1
  C  C159  1  0.01966144  0.70532467  0.95565472  1
  C  C160  1  0.73135729  0.79648315  0.33770013  1
  C  C161  1  0.23135729  0.29648315  0.16229987  1
  C  C162  1  0.26864271  0.20351685  0.66229987  1
  C  C163  1  0.76864271  0.70351685  0.83770013  1
  C  C164  1  0.81424985  0.70173183  0.45699801  1
  C  C165  1  0.31424985  0.20173183  0.04300199  1
  C  C166  1  0.18575015  0.29826817  0.54300199  1
  C  C167  1  0.68575015  0.79826817  0.95699801  1
  C  C168  1  0.42649869  0.55646349  0.22330945  1
  C  C169  1  0.92649869  0.05646349  0.27669055  1
  C  C170  1  0.57350131  0.44353651  0.77669055  1
  C  C171  1  0.07350131  0.94353651  0.72330945  1
  C  C172  1  0.72391891  0.67571641  0.15085024  1
  C  C173  1  0.22391891  0.17571641  0.34914976  1
  C  C174  1  0.27608109  0.32428359  0.84914976  1
  C  C175  1  0.77608109  0.82428359  0.65085024  1
  C  C176  1  0.72837214  0.49938237  0.13045184  1
  C  C177  1  0.22837214  0.99938237  0.36954816  1
  C  C178  1  0.27162786  0.50061763  0.86954816  1
  C  C179  1  0.77162786  0.00061763  0.63045184  1
  C  C180  1  0.40705132  0.57756064  0.07476006  1
  C  C181  1  0.90705132  0.07756064  0.42523994  1
  C  C182  1  0.59294868  0.42243936  0.92523994  1
  C  C183  1  0.09294868  0.92243936  0.57476006  1
  C  C184  1  0.87227465  0.55152538  0.31283530  1
  C  C185  1  0.37227465  0.05152538  0.18716470  1
  C  C186  1  0.12772535  0.44847462  0.68716470  1
  C  C187  1  0.62772535  0.94847462  0.81283530  1
  C  C188  1  0.72360427  0.37231737  0.30128286  1
  C  C189  1  0.22360427  0.87231737  0.19871714  1
  C  C190  1  0.27639573  0.62768263  0.69871714  1
  C  C191  1  0.77639573  0.12768263  0.80128286  1
  C  C192  1  0.11209101  0.42435902  0.36303075  1
  C  C193  1  0.61209101  0.92435902  0.13696925  1
  C  C194  1  0.88790899  0.57564098  0.63696925  1
  C  C195  1  0.38790899  0.07564098  0.86303075  1
  C  C196  1  0.74865104  0.45165476  0.43353800  1
  C  C197  1  0.24865104  0.95165476  0.06646200  1
  C  C198  1  0.25134896  0.54834524  0.56646200  1
  C  C199  1  0.75134896  0.04834524  0.93353800  1
