# generated using pymatgen
data_K2MnP2H2(O4F)2
_symmetry_space_group_name_H-M   'P 1'
_cell_length_a   4.66215688
_cell_length_b   8.26388493
_cell_length_c   12.54543841
_cell_angle_alpha   89.68585636
_cell_angle_beta   88.82444980
_cell_angle_gamma   89.38002634
_symmetry_Int_Tables_number   1
_chemical_formula_structural   K2MnP2H2(O4F)2
_chemical_formula_sum   'K4 Mn2 P4 H4 O16 F4'
_cell_volume   483.20801900
_cell_formula_units_Z   2
loop_
 _symmetry_equiv_pos_site_id
 _symmetry_equiv_pos_as_xyz
  1  'x, y, z'
loop_
 _atom_site_type_symbol
 _atom_site_label
 _atom_site_symmetry_multiplicity
 _atom_site_fract_x
 _atom_site_fract_y
 _atom_site_fract_z
 _atom_site_occupancy
  K  K0  1  0.50806844  0.60390471  0.69292551  1
  K  K1  1  0.49193156  0.39609529  0.30707449  1
  K  K2  1  0.48852452  0.10448701  0.80116189  1
  K  K3  1  0.51147548  0.89551299  0.19883811  1
  Mn  Mn4  1  0.50000000  -0.00000000  0.50000000  1
  Mn  Mn5  1  0.50000000  0.50000000  -0.00000000  1
  P  P6  1  -0.00012123  0.27708733  0.09428135  1
  P  P7  1  0.00012123  0.72291267  0.90571865  1
  P  P8  1  0.99660493  0.22500535  0.58819020  1
  P  P9  1  0.00339507  0.77499465  0.41180980  1
  H  H10  1  0.94249736  0.40928464  0.46550885  1
  H  H11  1  0.05750264  0.59071536  0.53449115  1
  H  H12  1  0.93997083  0.09790347  0.96997507  1
  H  H13  1  0.06002917  0.90209653  0.03002493  1
  O  O14  1  0.75467391  0.40492182  0.10483021  1
  O  O15  1  0.24532609  0.59507818  0.89516979  1
  O  O16  1  0.24095721  0.31722775  0.01089145  1
  O  O17  1  0.75904279  0.68277225  0.98910855  1
  O  O18  1  0.90258765  0.77323915  0.79681321  1
  O  O19  1  0.09741235  0.22676085  0.20318679  1
  O  O20  1  0.84848784  0.12083023  0.03934844  1
  O  O21  1  0.15151216  0.87916977  0.96065156  1
  O  O22  1  0.83659310  0.37995893  0.53090121  1
  O  O23  1  0.16340690  0.62004107  0.46909879  1
  O  O24  1  0.76019851  0.81493644  0.49471143  1
  O  O25  1  0.23980149  0.18506356  0.50528857  1
  O  O26  1  0.09442339  0.27612881  0.69634629  1
  O  O27  1  0.90557661  0.72387119  0.30365371  1
  O  O28  1  0.75726833  0.09732088  0.60093999  1
  O  O29  1  0.24273167  0.90267912  0.39906001  1
  F  F30  1  0.67589543  0.39632084  0.88542988  1
  F  F31  1  0.32410457  0.60367916  0.11457012  1
  F  F32  1  0.32128431  0.90522517  0.61635928  1
  F  F33  1  0.67871569  0.09477483  0.38364072  1
