# generated using pymatgen
data_RbV(PO4)2
_symmetry_space_group_name_H-M   'P 1'
_cell_length_a   7.49381627
_cell_length_b   8.77984926
_cell_length_c   9.42278919
_cell_angle_alpha   64.45902230
_cell_angle_beta   67.99739110
_cell_angle_gamma   67.32244420
_symmetry_Int_Tables_number   1
_chemical_formula_structural   RbV(PO4)2
_chemical_formula_sum   'Rb3 V3 P6 O24'
_cell_volume   499.70127452
_cell_formula_units_Z   3
loop_
 _symmetry_equiv_pos_site_id
 _symmetry_equiv_pos_as_xyz
  1  'x, y, z'
loop_
 _atom_site_type_symbol
 _atom_site_label
 _atom_site_symmetry_multiplicity
 _atom_site_fract_x
 _atom_site_fract_y
 _atom_site_fract_z
 _atom_site_occupancy
  Rb  Rb0  1  0.13930688  0.66151635  0.03005149  1
  Rb  Rb1  1  0.86069312  0.33848365  0.96994851  1
  Rb  Rb2  1  -0.00000000  0.50000000  0.50000000  1
  V  V3  1  0.70063481  0.21191790  0.43792807  1
  V  V4  1  0.29936519  0.78808210  0.56207193  1
  V  V5  1  0.50000000  -0.00000000  0.00000000  1
  P  P6  1  0.54833122  0.62190635  0.27062275  1
  P  P7  1  0.45166878  0.37809365  0.72937725  1
  P  P8  1  0.39807173  0.16715422  0.27608684  1
  P  P9  1  0.60192827  0.83284578  0.72391316  1
  P  P10  1  0.06012307  0.93468587  0.27980013  1
  P  P11  1  0.93987693  0.06531413  0.72019987  1
  O  O12  1  0.63739094  0.76454696  0.11660475  1
  O  O13  1  0.36260906  0.23545304  0.88339525  1
  O  O14  1  0.50983454  0.68276908  0.41807533  1
  O  O15  1  0.49016546  0.31723092  0.58192467  1
  O  O16  1  0.36927889  0.59722686  0.25775758  1
  O  O17  1  0.63072111  0.40277314  0.74224242  1
  O  O18  1  0.72514633  0.44748028  0.29511560  1
  O  O19  1  0.27485367  0.55251972  0.70488440  1
  O  O20  1  0.53965985  0.22552300  0.31966008  1
  O  O21  1  0.46034015  0.77447700  0.68033992  1
  O  O22  1  0.22296813  0.31625985  0.23282621  1
  O  O23  1  0.77703187  0.68374015  0.76717379  1
  O  O24  1  0.33558866  0.01074863  0.42798448  1
  O  O25  1  0.66441134  0.98925137  0.57201552  1
  O  O26  1  0.53666012  0.09247717  0.13512145  1
  O  O27  1  0.46333988  0.90752283  0.86487855  1
  O  O28  1  0.95178937  0.85109461  0.24211531  1
  O  O29  1  0.04821063  0.14890539  0.75788469  1
  O  O30  1  0.12317022  0.82053557  0.44326856  1
  O  O31  1  0.87682978  0.17946443  0.55673144  1
  O  O32  1  0.25404878  0.97357104  0.14117679  1
  O  O33  1  0.74595122  0.02642896  0.85882321  1
  O  O34  1  0.93105550  0.12013366  0.29211089  1
  O  O35  1  0.06894450  0.87986634  0.70788911  1
