# generated using pymatgen
data_K2Ca5S6O25
_symmetry_space_group_name_H-M   'P 1'
_cell_length_a   6.93128665
_cell_length_b   9.49671684
_cell_length_c   17.31528640
_cell_angle_alpha   80.79465030
_cell_angle_beta   78.45430871
_cell_angle_gamma   68.59668629
_symmetry_Int_Tables_number   1
_chemical_formula_structural   K2Ca5S6O25
_chemical_formula_sum   'K4 Ca10 S12 O50'
_cell_volume   1034.96060229
_cell_formula_units_Z   2
loop_
 _symmetry_equiv_pos_site_id
 _symmetry_equiv_pos_as_xyz
  1  'x, y, z'
loop_
 _atom_site_type_symbol
 _atom_site_label
 _atom_site_symmetry_multiplicity
 _atom_site_fract_x
 _atom_site_fract_y
 _atom_site_fract_z
 _atom_site_occupancy
  K  K0  1  0.95724980  0.45633840  0.41051254  1
  K  K1  1  0.82410074  0.04366160  0.08948746  1
  K  K2  1  0.04275020  0.54366160  0.58948746  1
  K  K3  1  0.17589926  0.95633840  0.91051254  1
  Ca  Ca4  1  0.72826246  0.68331295  0.01718829  1
  Ca  Ca5  1  0.42876370  0.81668705  0.48281171  1
  Ca  Ca6  1  0.27173754  0.31668705  0.98281171  1
  Ca  Ca7  1  0.57123630  0.18331295  0.51718829  1
  Ca  Ca8  1  0.90558725  0.14104776  0.29365224  1
  Ca  Ca9  1  0.34028725  0.35895224  0.20634776  1
  Ca  Ca10  1  0.09441275  0.85895224  0.70634776  1
  Ca  Ca11  1  0.65971275  0.64104776  0.79365224  1
  Ca  Ca12  1  0.39533969  0.75000000  0.25000000  1
  Ca  Ca13  1  0.60466031  0.25000000  0.75000000  1
  S  S14  1  0.95274502  0.85336052  0.41163371  1
  S  S15  1  0.21773924  0.64663948  0.08836629  1
  S  S16  1  0.04725498  0.14663948  0.58836629  1
  S  S17  1  0.78226076  0.35336052  0.91163371  1
  S  S18  1  0.32425523  0.03505073  0.11757153  1
  S  S19  1  0.47687749  0.46494927  0.38242847  1
  S  S20  1  0.67574477  0.96494927  0.88242847  1
  S  S21  1  0.52312251  0.53505073  0.61757153  1
  S  S22  1  0.82763351  0.41473946  0.15540647  1
  S  S23  1  0.39777944  0.08526054  0.34459353  1
  S  S24  1  0.17236649  0.58526054  0.84459353  1
  S  S25  1  0.60222056  0.91473946  0.65540647  1
  O  O26  1  0.99640363  0.72333103  0.07578063  1
  O  O27  1  0.79551529  0.77666897  0.42421937  1
  O  O28  1  0.00359637  0.27666897  0.92421937  1
  O  O29  1  0.20448471  0.22333103  0.57578063  1
  O  O30  1  0.66883817  0.57014557  0.16056692  1
  O  O31  1  0.39955066  0.92985443  0.33943308  1
  O  O32  1  0.33116183  0.42985443  0.83943308  1
  O  O33  1  0.60044934  0.07014557  0.66056692  1
  O  O34  1  0.05219917  0.85303060  0.32622239  1
  O  O35  1  0.23145216  0.64696940  0.17377761  1
  O  O36  1  0.94780083  0.14696940  0.67377761  1
  O  O37  1  0.76854784  0.35303060  0.82622239  1
  O  O38  1  0.11099476  0.77549802  0.46488356  1
  O  O39  1  0.35137635  0.72450198  0.03511644  1
  O  O40  1  0.88900524  0.22450198  0.53511644  1
  O  O41  1  0.64862365  0.27549802  0.96488356  1
  O  O42  1  0.85167087  0.01865213  0.42532915  1
  O  O43  1  0.29565216  0.48134787  0.07467085  1
  O  O44  1  0.14832913  0.98134787  0.57467085  1
  O  O45  1  0.70434784  0.51865213  0.92532915  1
  O  O46  1  0.97518705  0.38093648  0.21326941  1
  O  O47  1  0.56939293  0.11906352  0.28673059  1
  O  O48  1  0.02481295  0.61906352  0.78673059  1
  O  O49  1  0.43060707  0.88093648  0.71326941  1
  O  O50  1  0.93496540  0.40558982  0.07241175  1
  O  O51  1  0.41296697  0.09441018  0.42758825  1
  O  O52  1  0.06503460  0.59441018  0.92758825  1
  O  O53  1  0.58703303  0.90558982  0.57241175  1
  O  O54  1  0.16286062  0.01827632  0.18667274  1
  O  O55  1  0.36780968  0.48172368  0.31332726  1
  O  O56  1  0.83713938  0.98172368  0.81332726  1
  O  O57  1  0.63219032  0.51827632  0.68667274  1
  O  O58  1  0.67841842  0.33259685  0.37803518  1
  O  O59  1  0.38905044  0.16740315  0.12196482  1
  O  O60  1  0.32158158  0.66740315  0.62196482  1
  O  O61  1  0.61094956  0.83259685  0.87803518  1
  O  O62  1  0.19637804  0.20132613  0.32265835  1
  O  O63  1  0.72036253  0.29867387  0.17734165  1
  O  O64  1  0.80362196  0.79867387  0.67734165  1
  O  O65  1  0.27963747  0.70132613  0.82265835  1
  O  O66  1  0.23694529  0.06428073  0.04274164  1
  O  O67  1  0.34396766  0.43571927  0.45725836  1
  O  O68  1  0.76305471  0.93571927  0.95725836  1
  O  O69  1  0.65603234  0.56428073  0.54274164  1
  O  O70  1  0.52333104  0.60764244  0.37898441  1
  O  O71  1  0.50995789  0.89235756  0.12101559  1
  O  O72  1  0.47666896  0.39235756  0.62101559  1
  O  O73  1  0.49004211  0.10764244  0.87898441  1
  O  O74  1  0.75937873  0.75000000  0.25000000  1
  O  O75  1  0.24062127  0.25000000  0.75000000  1
