# generated using pymatgen
data_NaV5H18N2O19
_symmetry_space_group_name_H-M   'P 1'
_cell_length_a   8.61673674
_cell_length_b   10.57990653
_cell_length_c   11.56538680
_cell_angle_alpha   69.36898669
_cell_angle_beta   87.55596384
_cell_angle_gamma   65.47153751
_symmetry_Int_Tables_number   1
_chemical_formula_structural   NaV5H18N2O19
_chemical_formula_sum   'Na2 V10 H36 N4 O38'
_cell_volume   891.01130541
_cell_formula_units_Z   2
loop_
 _symmetry_equiv_pos_site_id
 _symmetry_equiv_pos_as_xyz
  1  'x, y, z'
loop_
 _atom_site_type_symbol
 _atom_site_label
 _atom_site_symmetry_multiplicity
 _atom_site_fract_x
 _atom_site_fract_y
 _atom_site_fract_z
 _atom_site_occupancy
  Na  Na0  1  0.42796393  0.16559433  0.87073917  1
  Na  Na1  1  0.57203607  0.83440567  0.12926083  1
  V  V2  1  0.96992830  0.71552957  0.76180966  1
  V  V3  1  0.03007170  0.28447043  0.23819034  1
  V  V4  1  0.81163675  0.00156230  0.51887588  1
  V  V5  1  0.18836325  0.99843770  0.48112412  1
  V  V6  1  0.02723566  0.00350565  0.73593190  1
  V  V7  1  0.97276434  0.99649435  0.26406810  1
  V  V8  1  0.87425251  0.28918846  0.49176610  1
  V  V9  1  0.12574749  0.71081154  0.50823390  1
  V  V10  1  0.66462288  0.28623096  0.27691295  1
  V  V11  1  0.33537712  0.71376904  0.72308705  1
  H  H12  1  0.09849932  0.43334330  0.70826019  1
  H  H13  1  0.90150068  0.56665670  0.29173981  1
  H  H14  1  0.07133922  0.28823789  0.73692382  1
  H  H15  1  0.92866078  0.71176211  0.26307618  1
  H  H16  1  0.65095056  0.56623027  0.08267083  1
  H  H17  1  0.34904944  0.43376973  0.91732917  1
  H  H18  1  0.15202248  0.75329159  0.11401869  1
  H  H19  1  0.84797752  0.24670841  0.88598131  1
  H  H20  1  0.58892421  0.68857776  0.94882233  1
  H  H21  1  0.41107579  0.31142224  0.05117767  1
  H  H22  1  0.57841461  0.95377700  0.72182986  1
  H  H23  1  0.42158539  0.04622300  0.27817014  1
  H  H24  1  0.63314754  0.27213661  0.66662790  1
  H  H25  1  0.36685246  0.72786339  0.33337210  1
  H  H26  1  0.40278538  0.95437663  0.76371199  1
  H  H27  1  0.59721462  0.04562337  0.23628801  1
  H  H28  1  0.74666135  0.76712706  0.44640715  1
  H  H29  1  0.25333865  0.23287294  0.55359285  1
  H  H30  1  0.47808671  0.42608854  0.65955256  1
  H  H31  1  0.52191329  0.57391146  0.34044744  1
  H  H32  1  0.34109708  0.68782152  0.05168451  1
  H  H33  1  0.65890292  0.31217848  0.94831549  1
  H  H34  1  0.58262954  0.76303610  0.53098414  1
  H  H35  1  0.41737046  0.23696390  0.46901586  1
  H  H36  1  0.78627735  0.93671987  0.92725065  1
  H  H37  1  0.21372265  0.06328013  0.07274935  1
  H  H38  1  0.24598644  0.57493294  0.11788606  1
  H  H39  1  0.75401356  0.42506706  0.88211394  1
  H  H40  1  0.74812950  0.59995505  0.53515059  1
  H  H41  1  0.25187050  0.40004495  0.46484941  1
  H  H42  1  0.60559212  0.71059516  0.40675134  1
  H  H43  1  0.39440788  0.28940484  0.59324866  1
  H  H44  1  0.79303087  0.97372745  0.04515683  1
  H  H45  1  0.20696913  0.02627255  0.95484317  1
  H  H46  1  0.15227373  0.71888551  0.98182554  1
  H  H47  1  0.84772627  0.28111449  0.01817446  1
  N  N48  1  0.67210155  0.71034220  0.48065351  1
  N  N49  1  0.32789845  0.28965780  0.51934649  1
  N  N50  1  0.22166866  0.68439612  0.06656344  1
  N  N51  1  0.77833134  0.31560388  0.93343656  1
  O  O52  1  0.76268796  0.87704176  0.64226329  1
  O  O53  1  0.23731204  0.12295824  0.35773671  1
  O  O54  1  0.06674017  0.88091223  0.60270933  1
  O  O55  1  0.93325983  0.11908777  0.39729067  1
  O  O56  1  0.94278141  0.87028236  0.82380896  1
  O  O57  1  0.05721859  0.12971764  0.17619104  1
  O  O58  1  0.01918579  0.63308136  0.63712575  1
  O  O59  1  0.98081421  0.36691864  0.36287425  1
  O  O60  1  0.88751833  0.61588092  0.86121291  1
  O  O61  1  0.11248167  0.38411908  0.13878709  1
  O  O62  1  0.79492385  0.37512085  0.17888091  1
  O  O63  1  0.20507615  0.62487915  0.82111909  1
  O  O64  1  0.62201510  0.13218376  0.42375292  1
  O  O65  1  0.37798490  0.86781624  0.57624708  1
  O  O66  1  0.89455783  0.87798876  0.42139428  1
  O  O67  1  0.10544217  0.12201124  0.57860572  1
  O  O68  1  0.81644495  0.12570975  0.61030896  1
  O  O69  1  0.18355505  0.87429025  0.38969104  1
  O  O70  1  0.99542808  0.11048228  0.81920037  1
  O  O71  1  0.00457192  0.88951772  0.18079963  1
  O  O72  1  0.74760283  0.13031809  0.21308661  1
  O  O73  1  0.25239717  0.86968191  0.78691339  1
  O  O74  1  0.84016147  0.39335930  0.57637051  1
  O  O75  1  0.15983853  0.60664070  0.42362949  1
  O  O76  1  0.66764063  0.37209899  0.39483185  1
  O  O77  1  0.33235937  0.62790101  0.60516815  1
  O  O78  1  0.46832311  0.38744438  0.20539043  1
  O  O79  1  0.53167689  0.61255562  0.79460957  1
  O  O80  1  0.71232941  0.97982455  0.98406195  1
  O  O81  1  0.28767059  0.02017545  0.01593805  1
  O  O82  1  0.48230464  0.99943107  0.76466905  1
  O  O83  1  0.51769536  0.00056893  0.23533095  1
  O  O84  1  0.52096375  0.31608288  0.69492631  1
  O  O85  1  0.47903625  0.68391712  0.30507369  1
  O  O86  1  0.15439885  0.32366167  0.75069804  1
  O  O87  1  0.84560115  0.67633833  0.24930196  1
  O  O88  1  0.56288060  0.66851099  0.03481446  1
  O  O89  1  0.43711940  0.33148901  0.96518554  1
