# generated using pymatgen
data_Ho2B3O8
_symmetry_space_group_name_H-M   'P 1'
_cell_length_a   4.36236075
_cell_length_b   8.89492827
_cell_length_c   12.89263202
_cell_angle_alpha   90.00000000
_cell_angle_beta   90.00000000
_cell_angle_gamma   90.00000000
_symmetry_Int_Tables_number   1
_chemical_formula_structural   Ho2B3O8
_chemical_formula_sum   'Ho8 B12 O32'
_cell_volume   500.27132998
_cell_formula_units_Z   4
loop_
 _symmetry_equiv_pos_site_id
 _symmetry_equiv_pos_as_xyz
  1  'x, y, z'
loop_
 _atom_site_type_symbol
 _atom_site_label
 _atom_site_symmetry_multiplicity
 _atom_site_fract_x
 _atom_site_fract_y
 _atom_site_fract_z
 _atom_site_occupancy
  Ho  Ho0  1  0.95036131  0.03788479  0.13897807  1
  Ho  Ho1  1  0.54963869  0.53788479  0.36102193  1
  Ho  Ho2  1  0.54963869  0.96211521  0.63897807  1
  Ho  Ho3  1  0.95036131  0.46211521  0.86102193  1
  Ho  Ho4  1  0.04963869  0.96211521  0.86102193  1
  Ho  Ho5  1  0.45036131  0.46211521  0.63897807  1
  Ho  Ho6  1  0.45036131  0.03788479  0.36102193  1
  Ho  Ho7  1  0.04963869  0.53788479  0.13897807  1
  B  B8  1  0.56257470  0.75000000  0.00000000  1
  B  B9  1  0.93742530  0.25000000  0.50000000  1
  B  B10  1  0.43742530  0.25000000  0.00000000  1
  B  B11  1  0.06257470  0.75000000  0.50000000  1
  B  B12  1  0.97865747  0.80333722  0.30681905  1
  B  B13  1  0.52134253  0.30333722  0.19318095  1
  B  B14  1  0.52134253  0.19666278  0.80681905  1
  B  B15  1  0.97865747  0.69666278  0.69318095  1
  B  B16  1  0.02134253  0.19666278  0.69318095  1
  B  B17  1  0.47865747  0.69666278  0.80681905  1
  B  B18  1  0.47865747  0.80333722  0.19318095  1
  B  B19  1  0.02134253  0.30333722  0.30681905  1
  O  O20  1  0.96299076  0.96504361  0.31126095  1
  O  O21  1  0.53700924  0.46504361  0.18873905  1
  O  O22  1  0.53700924  0.03495639  0.81126095  1
  O  O23  1  0.96299076  0.53495639  0.68873905  1
  O  O24  1  0.03700924  0.03495639  0.68873905  1
  O  O25  1  0.46299076  0.53495639  0.81126095  1
  O  O26  1  0.46299076  0.96504361  0.18873905  1
  O  O27  1  0.03700924  0.46504361  0.31126095  1
  O  O28  1  0.79573124  0.74681082  0.21565645  1
  O  O29  1  0.70426876  0.24681082  0.28434355  1
  O  O30  1  0.70426876  0.25318918  0.71565645  1
  O  O31  1  0.79573124  0.75318918  0.78434355  1
  O  O32  1  0.20426876  0.25318918  0.78434355  1
  O  O33  1  0.29573124  0.75318918  0.71565645  1
  O  O34  1  0.29573124  0.74681082  0.28434355  1
  O  O35  1  0.20426876  0.24681082  0.21565645  1
  O  O36  1  0.36328845  0.76001207  0.90602741  1
  O  O37  1  0.13671155  0.26001207  0.59397259  1
  O  O38  1  0.13671155  0.23998793  0.40602741  1
  O  O39  1  0.36328845  0.73998793  0.09397259  1
  O  O40  1  0.63671155  0.23998793  0.09397259  1
  O  O41  1  0.86328845  0.73998793  0.40602741  1
  O  O42  1  0.86328845  0.76001207  0.59397259  1
  O  O43  1  0.63671155  0.26001207  0.90602741  1
  O  O44  1  0.77766497  0.62211940  0.99563291  1
  O  O45  1  0.72233503  0.12211940  0.50436709  1
  O  O46  1  0.72233503  0.37788060  0.49563291  1
  O  O47  1  0.77766497  0.87788060  0.00436709  1
  O  O48  1  0.22233503  0.37788060  0.00436709  1
  O  O49  1  0.27766497  0.87788060  0.49563291  1
  O  O50  1  0.27766497  0.62211940  0.50436709  1
  O  O51  1  0.22233503  0.12211940  0.99563291  1
