# generated using pymatgen
data_La2I6O19
_symmetry_space_group_name_H-M   'P 1'
_cell_length_a   7.44448581
_cell_length_b   10.93304377
_cell_length_c   11.25766971
_cell_angle_alpha   90.00000000
_cell_angle_beta   90.00000000
_cell_angle_gamma   92.33546716
_symmetry_Int_Tables_number   1
_chemical_formula_structural   La2I6O19
_chemical_formula_sum   'La4 I12 O38'
_cell_volume   915.51065712
_cell_formula_units_Z   2
loop_
 _symmetry_equiv_pos_site_id
 _symmetry_equiv_pos_as_xyz
  1  'x, y, z'
loop_
 _atom_site_type_symbol
 _atom_site_label
 _atom_site_symmetry_multiplicity
 _atom_site_fract_x
 _atom_site_fract_y
 _atom_site_fract_z
 _atom_site_occupancy
  La  La0  1  0.82195351  0.92206190  0.49851590  1
  La  La1  1  0.32195351  0.42206190  0.50148410  1
  La  La2  1  0.82839666  0.32333432  0.97932135  1
  La  La3  1  0.32839666  0.82333432  0.02067865  1
  I  I4  1  0.82200984  0.92214622  0.14945020  1
  I  I5  1  0.32200984  0.42214622  0.85054980  1
  I  I6  1  0.90858010  0.24080669  0.33308095  1
  I  I7  1  0.40858010  0.74080669  0.66691905  1
  I  I8  1  0.65950953  0.21316439  0.67010723  1
  I  I9  1  0.15950953  0.71316439  0.32989277  1
  I  I10  1  0.80430754  0.55427182  0.53292744  1
  I  I11  1  0.30430754  0.05427182  0.46707256  1
  I  I12  1  0.91363039  0.67997672  0.85115191  1
  I  I13  1  0.41363039  0.17997672  0.14884809  1
  I  I14  1  0.52209930  0.55055198  0.18922567  1
  I  I15  1  0.02209930  0.05055198  0.81077433  1
  O  O16  1  0.74026101  0.85606164  0.28916912  1
  O  O17  1  0.24026101  0.35606164  0.71083088  1
  O  O18  1  0.01846530  0.82794748  0.12843763  1
  O  O19  1  0.51846530  0.32794748  0.87156237  1
  O  O20  1  0.66493849  0.83732453  0.05022081  1
  O  O21  1  0.16493849  0.33732453  0.94977919  1
  O  O22  1  0.91010482  0.07340596  0.33518676  1
  O  O23  1  0.41010482  0.57340596  0.66481324  1
  O  O24  1  0.95263818  0.25887281  0.17420058  1
  O  O25  1  0.45263818  0.75887281  0.82579942  1
  O  O26  1  0.14363348  0.26161639  0.38127384  1
  O  O27  1  0.64363348  0.76161639  0.61872616  1
  O  O28  1  0.78583862  0.15368981  0.54374438  1
  O  O29  1  0.28583862  0.65368981  0.45625562  1
  O  O30  1  0.85637028  0.25159452  0.76679214  1
  O  O31  1  0.35637028  0.75159452  0.23320786  1
  O  O32  1  0.62630360  0.36696540  0.61226707  1
  O  O33  1  0.12630360  0.86696540  0.38773293  1
  O  O34  1  0.88641843  0.69553813  0.45660889  1
  O  O35  1  0.38641843  0.19553813  0.54339111  1
  O  O36  1  0.98514925  0.45839610  0.48002476  1
  O  O37  1  0.48514925  0.95839610  0.51997524  1
  O  O38  1  0.62834494  0.51019918  0.42347337  1
  O  O39  1  0.12834494  0.01019918  0.57652663  1
  O  O40  1  0.11117433  0.65417992  0.94480590  1
  O  O41  1  0.61117433  0.15417992  0.05519410  1
  O  O42  1  0.02008802  0.66755577  0.70586596  1
  O  O43  1  0.52008802  0.16755577  0.29413404  1
  O  O44  1  0.80836098  0.52695065  0.86683406  1
  O  O45  1  0.30836098  0.02695065  0.13316594  1
  O  O46  1  0.42682148  0.59306431  0.04584689  1
  O  O47  1  0.92682148  0.09306431  0.95415311  1
  O  O48  1  0.32842140  0.47950190  0.26710266  1
  O  O49  1  0.82842140  0.97950190  0.73289734  1
  O  O50  1  0.61883700  0.40549171  0.13838908  1
  O  O51  1  0.11883700  0.90549171  0.86161092  1
  O  O52  1  0.97374351  0.50602975  0.10465137  1
  O  O53  1  0.47374351  0.00602975  0.89534863  1
