# generated using pymatgen
data_Rb7GdFe6(P4O17)2
_symmetry_space_group_name_H-M   'P 1'
_cell_length_a   9.39366864
_cell_length_b   10.01446997
_cell_length_c   10.07915236
_cell_angle_alpha   90.79137079
_cell_angle_beta   95.25030963
_cell_angle_gamma   116.25831687
_symmetry_Int_Tables_number   1
_chemical_formula_structural   Rb7GdFe6(P4O17)2
_chemical_formula_sum   'Rb7 Gd1 Fe6 P8 O34'
_cell_volume   845.19483388
_cell_formula_units_Z   1
loop_
 _symmetry_equiv_pos_site_id
 _symmetry_equiv_pos_as_xyz
  1  'x, y, z'
loop_
 _atom_site_type_symbol
 _atom_site_label
 _atom_site_symmetry_multiplicity
 _atom_site_fract_x
 _atom_site_fract_y
 _atom_site_fract_z
 _atom_site_occupancy
  Rb  Rb0  1  0.07160750  0.20695331  0.34138906  1
  Rb  Rb1  1  0.92839250  0.79304669  0.65861094  1
  Rb  Rb2  1  0.62562259  0.97434981  0.37448553  1
  Rb  Rb3  1  0.37437741  0.02565019  0.62551447  1
  Rb  Rb4  1  0.67815857  0.43958277  0.90636394  1
  Rb  Rb5  1  0.32184143  0.56041723  0.09363606  1
  Rb  Rb6  1  0.50000000  -0.00000000  0.00000000  1
  Gd  Gd7  1  0.50000000  0.50000000  0.50000000  1
  Fe  Fe8  1  0.15679994  0.10766689  0.96599774  1
  Fe  Fe9  1  0.84320006  0.89233311  0.03400226  1
  Fe  Fe10  1  0.83790813  0.09809241  0.75729917  1
  Fe  Fe11  1  0.16209187  0.90190759  0.24270083  1
  Fe  Fe12  1  0.84263926  0.42243310  0.27417187  1
  Fe  Fe13  1  0.15736074  0.57756690  0.72582813  1
  P  P14  1  0.78795969  0.33137959  0.57217113  1
  P  P15  1  0.21204031  0.66862041  0.42782887  1
  P  P16  1  0.19204263  0.26400544  0.69212530  1
  P  P17  1  0.80795737  0.73599456  0.30787470  1
  P  P18  1  0.91149125  0.23325727  0.03950042  1
  P  P19  1  0.08850875  0.76674273  0.96049958  1
  P  P20  1  0.56052157  0.75705336  0.78389081  1
  P  P21  1  0.43947843  0.24294664  0.21610919  1
  O  O22  1  0.37188443  0.21971343  0.06474649  1
  O  O23  1  0.62811557  0.78028657  0.93525351  1
  O  O24  1  0.83346505  0.30682030  0.43163131  1
  O  O25  1  0.16653495  0.69317970  0.56836869  1
  O  O26  1  0.01441866  0.15528422  0.64171505  1
  O  O27  1  0.98558134  0.84471578  0.35828495  1
  O  O28  1  0.17875094  0.91237810  0.88930617  1
  O  O29  1  0.82124906  0.08762190  0.11069383  1
  O  O30  1  0.25917455  0.19477446  0.80333550  1
  O  O31  1  0.74082545  0.80522554  0.19666450  1
  O  O32  1  0.93640512  0.00676980  0.87673706  1
  O  O33  1  0.06359488  0.99323020  0.12326294  1
  O  O34  1  0.20905142  0.41525056  0.74816485  1
  O  O35  1  0.79094858  0.58474944  0.25183515  1
  O  O36  1  0.08771829  0.26976416  0.02982438  1
  O  O37  1  0.91228171  0.73023584  0.97017562  1
  O  O38  1  0.61636389  0.27442127  0.21379059  1
  O  O39  1  0.38363611  0.72557873  0.78620941  1
  O  O40  1  0.29201211  0.28873349  0.57322745  1
  O  O41  1  0.70798789  0.71126651  0.42677255  1
  O  O42  1  0.71862239  0.17395444  0.63224565  1
  O  O43  1  0.28137761  0.82604556  0.36775435  1
  O  O44  1  0.65562705  0.38361961  0.55804609  1
  O  O45  1  0.34437295  0.61638039  0.44195391  1
  O  O46  1  0.81591340  0.21974709  0.89962672  1
  O  O47  1  0.18408660  0.78025291  0.10037328  1
  O  O48  1  0.91144265  0.36802760  0.11807431  1
  O  O49  1  0.08855735  0.63197240  0.88192569  1
  O  O50  1  0.57825540  0.62860936  0.71167570  1
  O  O51  1  0.42174460  0.37139064  0.28832430  1
  O  O52  1  0.64569859  0.90364257  0.71069833  1
  O  O53  1  0.35430141  0.09635743  0.28930167  1
  O  O54  1  0.93037158  0.44555761  0.66384601  1
  O  O55  1  0.06962842  0.55444239  0.33615399  1
