# generated using pymatgen
data_Nb4Ag2O11
_symmetry_space_group_name_H-M   'P 1'
_cell_length_a   6.23952177
_cell_length_b   6.33082179
_cell_length_c   13.07966789
_cell_angle_alpha   103.84114193
_cell_angle_beta   90.00000000
_cell_angle_gamma   119.52407591
_symmetry_Int_Tables_number   1
_chemical_formula_structural   Nb4Ag2O11
_chemical_formula_sum   'Nb8 Ag4 O22'
_cell_volume   432.24961284
_cell_formula_units_Z   2
loop_
 _symmetry_equiv_pos_site_id
 _symmetry_equiv_pos_as_xyz
  1  'x, y, z'
loop_
 _atom_site_type_symbol
 _atom_site_label
 _atom_site_symmetry_multiplicity
 _atom_site_fract_x
 _atom_site_fract_y
 _atom_site_fract_z
 _atom_site_occupancy
  Nb  Nb0  1  0.39208753  0.63845641  0.24934629  1
  Nb  Nb1  1  0.24636887  0.63845641  0.74934629  1
  Nb  Nb2  1  0.75527605  0.36166555  0.24947462  1
  Nb  Nb3  1  0.60638951  0.36166555  0.74947462  1
  Nb  Nb4  1  0.11783148  0.99207655  0.24217499  1
  Nb  Nb5  1  0.87424507  0.99207655  0.74217499  1
  Nb  Nb6  1  0.99973923  0.48384445  0.99299153  1
  Nb  Nb7  1  0.48410522  0.48384445  0.49299153  1
  Ag  Ag8  1  0.16491603  0.84222404  0.51106828  1
  Ag  Ag9  1  0.67730801  0.84222404  0.01106828  1
  Ag  Ag10  1  0.33577969  0.15779168  0.98619362  1
  Ag  Ag11  1  0.82201199  0.15779168  0.48619362  1
  O  O12  1  0.28051092  0.53744732  0.09604595  1
  O  O13  1  0.25693640  0.53744732  0.59604595  1
  O  O14  1  0.74555266  0.47156167  0.40856801  1
  O  O15  1  0.72600901  0.47156167  0.90856801  1
  O  O16  1  0.43011774  0.68017769  0.40931473  1
  O  O17  1  0.25005995  0.68017769  0.90931473  1
  O  O18  1  0.76103725  0.32539061  0.09576892  1
  O  O19  1  0.56435336  0.32539061  0.59576892  1
  O  O20  1  0.06180411  0.84059854  0.09293450  1
  O  O21  1  0.77879443  0.84059854  0.59293450  1
  O  O22  1  0.22218736  0.16328378  0.40891007  1
  O  O23  1  0.94109642  0.16328378  0.90891007  1
  O  O24  1  0.75180778  0.75868527  0.25366339  1
  O  O25  1  0.00687749  0.75868527  0.75366339  1
  O  O26  1  0.99648194  0.24360725  0.25007744  1
  O  O27  1  0.24712531  0.24360725  0.75007744  1
  O  O28  1  0.09493852  0.68823675  0.28122730  1
  O  O29  1  0.59329823  0.68823675  0.78122730  1
  O  O30  1  0.40946133  0.31509409  0.22011028  1
  O  O31  1  0.90563277  0.31509409  0.72011028  1
  O  O32  1  0.49609937  0.00241834  0.25188008  1
  O  O33  1  0.50631897  0.00241834  0.75188008  1
