# generated using pymatgen
data_K5Hf3OF17
_symmetry_space_group_name_H-M   'P 1'
_cell_length_a   8.52634598
_cell_length_b   13.42791028
_cell_length_c   15.40928887
_cell_angle_alpha   90.00000000
_cell_angle_beta   90.00000000
_cell_angle_gamma   90.00000000
_symmetry_Int_Tables_number   1
_chemical_formula_structural   K5Hf3OF17
_chemical_formula_sum   'K20 Hf12 O4 F68'
_cell_volume   1764.22502817
_cell_formula_units_Z   4
loop_
 _symmetry_equiv_pos_site_id
 _symmetry_equiv_pos_as_xyz
  1  'x, y, z'
loop_
 _atom_site_type_symbol
 _atom_site_label
 _atom_site_symmetry_multiplicity
 _atom_site_fract_x
 _atom_site_fract_y
 _atom_site_fract_z
 _atom_site_occupancy
  K  K0  1  0.83824576  0.26715521  0.12830057  1
  K  K1  1  0.33824576  0.23284479  0.37169943  1
  K  K2  1  0.16175424  0.73284479  0.62830057  1
  K  K3  1  0.66175424  0.76715521  0.87169943  1
  K  K4  1  0.16175424  0.73284479  0.87169943  1
  K  K5  1  0.66175424  0.76715521  0.62830057  1
  K  K6  1  0.83824576  0.26715521  0.37169943  1
  K  K7  1  0.33824576  0.23284479  0.12830057  1
  K  K8  1  0.59322437  0.09326568  0.56277059  1
  K  K9  1  0.09322437  0.40673432  0.93722941  1
  K  K10  1  0.40677563  0.90673432  0.06277059  1
  K  K11  1  0.90677563  0.59326568  0.43722941  1
  K  K12  1  0.40677563  0.90673432  0.43722941  1
  K  K13  1  0.90677563  0.59326568  0.06277059  1
  K  K14  1  0.59322437  0.09326568  0.93722941  1
  K  K15  1  0.09322437  0.40673432  0.56277059  1
  K  K16  1  0.63676243  0.74000498  0.25000000  1
  K  K17  1  0.13676243  0.75999502  0.25000000  1
  K  K18  1  0.36323757  0.25999502  0.75000000  1
  K  K19  1  0.86323757  0.24000498  0.75000000  1
  Hf  Hf20  1  0.91581370  0.89636709  0.06041691  1
  Hf  Hf21  1  0.41581370  0.60363291  0.43958309  1
  Hf  Hf22  1  0.08418630  0.10363291  0.56041691  1
  Hf  Hf23  1  0.58418630  0.39636709  0.93958309  1
  Hf  Hf24  1  0.08418630  0.10363291  0.93958309  1
  Hf  Hf25  1  0.58418630  0.39636709  0.56041691  1
  Hf  Hf26  1  0.91581370  0.89636709  0.43958309  1
  Hf  Hf27  1  0.41581370  0.60363291  0.06041691  1
  Hf  Hf28  1  0.64903142  0.04818568  0.25000000  1
  Hf  Hf29  1  0.14903142  0.45181432  0.25000000  1
  Hf  Hf30  1  0.35096858  0.95181432  0.75000000  1
  Hf  Hf31  1  0.85096858  0.54818568  0.75000000  1
  O  O32  1  0.82889351  0.92029982  0.75000000  1
  O  O33  1  0.32889351  0.57970018  0.75000000  1
  O  O34  1  0.17110649  0.07970018  0.25000000  1
  O  O35  1  0.67110649  0.42029982  0.25000000  1
  F  F36  1  0.92937498  0.05669699  0.04430127  1
  F  F37  1  0.42937498  0.44330301  0.45569873  1
  F  F38  1  0.07062502  0.94330301  0.54430127  1
  F  F39  1  0.57062502  0.55669699  0.95569873  1
  F  F40  1  0.07062502  0.94330301  0.95569873  1
  F  F41  1  0.57062502  0.55669699  0.54430127  1
  F  F42  1  0.92937498  0.05669699  0.45569873  1
  F  F43  1  0.42937498  0.44330301  0.04430127  1
  F  F44  1  0.93578740  0.77800087  0.97880748  1
  F  F45  1  0.43578740  0.72199913  0.52119252  1
  F  F46  1  0.06421260  0.22199913  0.47880748  1
  F  F47  1  0.56421260  0.27800087  0.02119252  1
  F  F48  1  0.06421260  0.22199913  0.02119252  1
  F  F49  1  0.56421260  0.27800087  0.47880748  1
  F  F50  1  0.93578740  0.77800087  0.52119252  1
  F  F51  1  0.43578740  0.72199913  0.97880748  1
  F  F52  1  0.87462978  0.77667583  0.13798788  1
  F  F53  1  0.37462978  0.72332417  0.36201212  1
  F  F54  1  0.12537022  0.22332417  0.63798788  1
  F  F55  1  0.62537022  0.27667583  0.86201212  1
  F  F56  1  0.12537022  0.22332417  0.86201212  1
  F  F57  1  0.62537022  0.27667583  0.63798788  1
  F  F58  1  0.87462978  0.77667583  0.36201212  1
  F  F59  1  0.37462978  0.72332417  0.13798788  1
  F  F60  1  0.79030010  0.95415464  0.16538297  1
  F  F61  1  0.29030010  0.54584536  0.33461703  1
  F  F62  1  0.20969990  0.04584536  0.66538297  1
  F  F63  1  0.70969990  0.45415464  0.83461703  1
  F  F64  1  0.20969990  0.04584536  0.83461703  1
  F  F65  1  0.70969990  0.45415464  0.66538297  1
  F  F66  1  0.79030010  0.95415464  0.33461703  1
  F  F67  1  0.29030010  0.54584536  0.16538297  1
  F  F68  1  0.70862740  0.91127998  0.99785025  1
  F  F69  1  0.20862740  0.58872002  0.50214975  1
  F  F70  1  0.29137260  0.08872002  0.49785025  1
  F  F71  1  0.79137260  0.41127998  0.00214975  1
  F  F72  1  0.29137260  0.08872002  0.00214975  1
  F  F73  1  0.79137260  0.41127998  0.49785025  1
  F  F74  1  0.70862740  0.91127998  0.50214975  1
  F  F75  1  0.20862740  0.58872002  0.99785025  1
  F  F76  1  0.11987414  0.90125678  0.12422534  1
  F  F77  1  0.61987414  0.59874322  0.37577466  1
  F  F78  1  0.88012586  0.09874322  0.62422534  1
  F  F79  1  0.38012586  0.40125678  0.87577466  1
  F  F80  1  0.88012586  0.09874322  0.87577466  1
  F  F81  1  0.38012586  0.40125678  0.62422534  1
  F  F82  1  0.11987414  0.90125678  0.37577466  1
  F  F83  1  0.61987414  0.59874322  0.12422534  1
  F  F84  1  0.85163937  0.12502489  0.25000000  1
  F  F85  1  0.35163937  0.37497511  0.25000000  1
  F  F86  1  0.14836063  0.87497511  0.75000000  1
  F  F87  1  0.64836063  0.62502489  0.75000000  1
  F  F88  1  0.55474033  0.06828706  0.36966507  1
  F  F89  1  0.05474033  0.43171294  0.13033493  1
  F  F90  1  0.44525967  0.93171294  0.86966507  1
  F  F91  1  0.94525967  0.56828706  0.63033493  1
  F  F92  1  0.44525967  0.93171294  0.63033493  1
  F  F93  1  0.94525967  0.56828706  0.86966507  1
  F  F94  1  0.55474033  0.06828706  0.13033493  1
  F  F95  1  0.05474033  0.43171294  0.36966507  1
  F  F96  1  0.50397640  0.92733741  0.25000000  1
  F  F97  1  0.00397640  0.57266259  0.25000000  1
  F  F98  1  0.49602360  0.07266259  0.75000000  1
  F  F99  1  0.99602360  0.42733741  0.75000000  1
  F  F100  1  0.56738485  0.19254871  0.25000000  1
  F  F101  1  0.06738485  0.30745129  0.25000000  1
  F  F102  1  0.43261515  0.80745129  0.75000000  1
  F  F103  1  0.93261515  0.69254871  0.75000000  1
