# generated using pymatgen
data_Cs2ZnAgC5(SN)5
_symmetry_space_group_name_H-M   'P 1'
_cell_length_a   5.95798387
_cell_length_b   11.19015136
_cell_length_c   13.81436137
_cell_angle_alpha   90.00000000
_cell_angle_beta   90.00000000
_cell_angle_gamma   90.00000000
_symmetry_Int_Tables_number   1
_chemical_formula_structural   Cs2ZnAgC5(SN)5
_chemical_formula_sum   'Cs4 Zn2 Ag2 C10 S10 N10'
_cell_volume   921.01371320
_cell_formula_units_Z   2
loop_
 _symmetry_equiv_pos_site_id
 _symmetry_equiv_pos_as_xyz
  1  'x, y, z'
loop_
 _atom_site_type_symbol
 _atom_site_label
 _atom_site_symmetry_multiplicity
 _atom_site_fract_x
 _atom_site_fract_y
 _atom_site_fract_z
 _atom_site_occupancy
  Cs  Cs0  1  0.00736748  0.26980393  0.74332724  1
  Cs  Cs1  1  0.00736748  0.73019607  0.74332724  1
  Cs  Cs2  1  0.99263252  0.23019607  0.24332724  1
  Cs  Cs3  1  0.99263252  0.76980393  0.24332724  1
  Zn  Zn4  1  0.98585864  0.50000000  0.48142232  1
  Zn  Zn5  1  0.01414136  0.00000000  0.98142232  1
  Ag  Ag6  1  0.47487177  0.50000000  0.06375611  1
  Ag  Ag7  1  0.52512823  0.00000000  0.56375611  1
  C  C8  1  0.01695522  0.50000000  0.96006370  1
  C  C9  1  0.98304478  0.00000000  0.46006370  1
  C  C10  1  0.34956207  0.50000000  0.31872229  1
  C  C11  1  0.65043793  0.00000000  0.81872229  1
  C  C12  1  0.36497955  0.20711151  0.98505049  1
  C  C13  1  0.36497955  0.79288849  0.98505049  1
  C  C14  1  0.63502045  0.29288849  0.48505049  1
  C  C15  1  0.63502045  0.70711151  0.48505049  1
  C  C16  1  0.34310909  0.50000000  0.64683623  1
  C  C17  1  0.65689091  0.00000000  0.14683623  1
  S  S18  1  0.04033388  0.50000000  0.07865432  1
  S  S19  1  0.95966612  0.00000000  0.57865432  1
  S  S20  1  0.57815493  0.50000000  0.25496416  1
  S  S21  1  0.42184507  0.00000000  0.75496416  1
  S  S22  1  0.58372593  0.29335275  0.98556636  1
  S  S23  1  0.58372593  0.70664725  0.98556636  1
  S  S24  1  0.41627407  0.20664725  0.48556636  1
  S  S25  1  0.41627407  0.79335275  0.48556636  1
  S  S26  1  0.54173000  0.50000000  0.72563923  1
  S  S27  1  0.45827000  -0.00000000  0.22563923  1
  N  N28  1  0.99818281  0.50000000  0.87469980  1
  N  N29  1  0.00181719  0.00000000  0.37469980  1
  N  N30  1  0.17971795  0.50000000  0.36372288  1
  N  N31  1  0.82028205  -0.00000000  0.86372288  1
  N  N32  1  0.20704549  0.14256683  0.98269327  1
  N  N33  1  0.20704549  0.85743317  0.98269327  1
  N  N34  1  0.79295451  0.35743317  0.48269327  1
  N  N35  1  0.79295451  0.64256683  0.48269327  1
  N  N36  1  0.18662304  0.50000000  0.59311425  1
  N  N37  1  0.81337696  -0.00000000  0.09311425  1
