# generated using pymatgen
data_B12Pb6O25
_symmetry_space_group_name_H-M   'P 1'
_cell_length_a   8.90187965
_cell_length_b   8.90187965
_cell_length_c   8.90188021
_cell_angle_alpha   81.52354481
_cell_angle_beta   81.52354481
_cell_angle_gamma   81.52354511
_symmetry_Int_Tables_number   1
_chemical_formula_structural   B12Pb6O25
_chemical_formula_sum   'B12 Pb6 O25'
_cell_volume   684.37059052
_cell_formula_units_Z   1
loop_
 _symmetry_equiv_pos_site_id
 _symmetry_equiv_pos_as_xyz
  1  'x, y, z'
loop_
 _atom_site_type_symbol
 _atom_site_label
 _atom_site_symmetry_multiplicity
 _atom_site_fract_x
 _atom_site_fract_y
 _atom_site_fract_z
 _atom_site_occupancy
  B  B0  1  0.73038363  0.50000000  0.26962037  1
  B  B1  1  0.50000000  0.26962037  0.73038363  1
  B  B2  1  0.26962037  0.73038363  0.50000000  1
  B  B3  1  0.73038363  0.26962037  0.50000000  1
  B  B4  1  0.26962037  0.50000000  0.73038363  1
  B  B5  1  0.50000000  0.73038363  0.26962037  1
  B  B6  1  0.39281739  0.39281739  0.96594339  1
  B  B7  1  0.39281739  0.96594339  0.39281739  1
  B  B8  1  0.96594339  0.39281739  0.39281739  1
  B  B9  1  0.60718261  0.60718261  0.03405661  1
  B  B10  1  0.60718261  0.03405661  0.60718261  1
  B  B11  1  0.03405661  0.60718261  0.60718261  1
  Pb  Pb12  1  0.20244842  0.58458267  0.20244842  1
  Pb  Pb13  1  0.58458267  0.20244842  0.20244842  1
  Pb  Pb14  1  0.20244842  0.20244842  0.58458267  1
  Pb  Pb15  1  0.79755158  0.41541733  0.79755158  1
  Pb  Pb16  1  0.41541733  0.79755158  0.79755158  1
  Pb  Pb17  1  0.79755158  0.79755158  0.41541733  1
  O  O18  1  0.49914401  0.28824001  0.89358105  1
  O  O19  1  0.28824001  0.89358105  0.49914401  1
  O  O20  1  0.89358105  0.49914401  0.28824001  1
  O  O21  1  0.49914401  0.89358105  0.28824001  1
  O  O22  1  0.89358105  0.28824001  0.49914401  1
  O  O23  1  0.28824001  0.49914401  0.89358105  1
  O  O24  1  0.50085599  0.71175999  0.10641895  1
  O  O25  1  0.71175999  0.10641895  0.50085599  1
  O  O26  1  0.10641895  0.50085599  0.71175999  1
  O  O27  1  0.50085599  0.10641895  0.71175999  1
  O  O28  1  0.10641895  0.71175999  0.50085599  1
  O  O29  1  0.71175999  0.50085599  0.10641895  1
  O  O30  1  0.64611001  0.31940399  0.64611001  1
  O  O31  1  0.31940399  0.64611001  0.64611001  1
  O  O32  1  0.64611001  0.64611001  0.31940399  1
  O  O33  1  0.35388999  0.68059601  0.35388999  1
  O  O34  1  0.68059601  0.35388999  0.35388999  1
  O  O35  1  0.35388999  0.35388999  0.68059601  1
  O  O36  1  0.39181624  0.39181624  0.12161815  1
  O  O37  1  0.39181624  0.12161815  0.39181624  1
  O  O38  1  0.12161815  0.39181624  0.39181624  1
  O  O39  1  0.60818376  0.60818376  0.87838185  1
  O  O40  1  0.60818376  0.87838185  0.60818376  1
  O  O41  1  0.87838185  0.60818376  0.60818376  1
  O  O42  1  0.50000000  0.50000000  0.50000000  1
