# generated using pymatgen
data_Y2VO5
_symmetry_space_group_name_H-M   'P 1'
_cell_length_a   6.88942099
_cell_length_b   8.43046304
_cell_length_c   9.76849467
_cell_angle_alpha   70.58223214
_cell_angle_beta   69.35145092
_cell_angle_gamma   65.88291097
_symmetry_Int_Tables_number   1
_chemical_formula_structural   Y2VO5
_chemical_formula_sum   'Y8 V4 O20'
_cell_volume   472.64250462
_cell_formula_units_Z   4
loop_
 _symmetry_equiv_pos_site_id
 _symmetry_equiv_pos_as_xyz
  1  'x, y, z'
loop_
 _atom_site_type_symbol
 _atom_site_label
 _atom_site_symmetry_multiplicity
 _atom_site_fract_x
 _atom_site_fract_y
 _atom_site_fract_z
 _atom_site_occupancy
  Y  Y0  1  0.76147164  0.06800101  0.66292863  1
  Y  Y1  1  0.49240128  0.43199899  0.83707137  1
  Y  Y2  1  0.23852836  0.93199899  0.33707137  1
  Y  Y3  1  0.50759872  0.56800101  0.16292863  1
  Y  Y4  1  0.77601131  0.89757358  0.03735576  1
  Y  Y5  1  0.71094064  0.60242642  0.46264424  1
  Y  Y6  1  0.22398869  0.10242642  0.96264424  1
  Y  Y7  1  0.28905936  0.39757358  0.53735576  1
  V  V8  1  0.90602315  0.56382014  0.81557151  1
  V  V9  1  0.28541480  0.93617986  0.68442849  1
  V  V10  1  0.09397685  0.43617986  0.18442849  1
  V  V11  1  0.71458520  0.06382014  0.31557151  1
  O  O12  1  0.83942921  0.79199968  0.82206257  1
  O  O13  1  0.45349146  0.70800032  0.67793743  1
  O  O14  1  0.16057079  0.20800032  0.17793743  1
  O  O15  1  0.54650854  0.29199968  0.32206257  1
  O  O16  1  0.87457834  0.95151157  0.45220979  1
  O  O17  1  0.27829970  0.54848843  0.04779021  1
  O  O18  1  0.12542166  0.04848843  0.54779021  1
  O  O19  1  0.72170030  0.45151157  0.95220979  1
  O  O20  1  0.41064026  0.09900484  0.67286738  1
  O  O21  1  0.18251248  0.40099516  0.82713262  1
  O  O22  1  0.58935974  0.90099516  0.32713262  1
  O  O23  1  0.81748752  0.59900484  0.17286738  1
  O  O24  1  0.09527285  0.95872879  0.86808846  1
  O  O25  1  0.92209009  0.54127121  0.63191154  1
  O  O26  1  0.90472715  0.04127121  0.13191154  1
  O  O27  1  0.07790991  0.45872879  0.36808846  1
  O  O28  1  0.58339035  0.13523909  0.89726693  1
  O  O29  1  0.61589637  0.36476091  0.60273307  1
  O  O30  1  0.41660965  0.86476091  0.10273307  1
  O  O31  1  0.38410363  0.63523909  0.39726693  1
