# generated using pymatgen
data_BH12N4F3
_symmetry_space_group_name_H-M   'P 1'
_cell_length_a   6.82707480
_cell_length_b   10.30486263
_cell_length_c   11.74157753
_cell_angle_alpha   90.00000000
_cell_angle_beta   90.00000000
_cell_angle_gamma   90.00000000
_symmetry_Int_Tables_number   1
_chemical_formula_structural   BH12N4F3
_chemical_formula_sum   'B4 H48 N16 F12'
_cell_volume   826.04426057
_cell_formula_units_Z   4
loop_
 _symmetry_equiv_pos_site_id
 _symmetry_equiv_pos_as_xyz
  1  'x, y, z'
loop_
 _atom_site_type_symbol
 _atom_site_label
 _atom_site_symmetry_multiplicity
 _atom_site_fract_x
 _atom_site_fract_y
 _atom_site_fract_z
 _atom_site_occupancy
  B  B0  1  0.58387283  0.45440901  0.72768972  1
  B  B1  1  0.08387283  0.54559099  0.27231028  1
  B  B2  1  0.08387283  0.95440901  0.77231028  1
  B  B3  1  0.58387283  0.04559099  0.22768972  1
  H  H4  1  0.72164196  0.29342413  0.81325879  1
  H  H5  1  0.22164196  0.70657587  0.18674121  1
  H  H6  1  0.22164196  0.79342413  0.68674121  1
  H  H7  1  0.72164196  0.20657587  0.31325879  1
  H  H8  1  0.85371698  0.34820605  0.69876784  1
  H  H9  1  0.35371698  0.65179395  0.30123216  1
  H  H10  1  0.35371698  0.84820605  0.80123216  1
  H  H11  1  0.85371698  0.15179395  0.19876784  1
  H  H12  1  0.85269753  0.43622962  0.82129240  1
  H  H13  1  0.35269753  0.56377038  0.17870760  1
  H  H14  1  0.35269753  0.93622962  0.67870760  1
  H  H15  1  0.85269753  0.06377038  0.32129240  1
  H  H16  1  0.49573230  0.14805829  0.62216502  1
  H  H17  1  0.99573230  0.85194171  0.37783498  1
  H  H18  1  0.99573230  0.64805829  0.87783498  1
  H  H19  1  0.49573230  0.35194171  0.12216502  1
  H  H20  1  0.49828482  0.05456323  0.50968469  1
  H  H21  1  0.99828482  0.94543677  0.49031531  1
  H  H22  1  0.99828482  0.55456323  0.99031531  1
  H  H23  1  0.49828482  0.44543677  0.00968469  1
  H  H24  1  0.65665907  0.03030397  0.61306821  1
  H  H25  1  0.15665907  0.96969603  0.38693179  1
  H  H26  1  0.15665907  0.53030397  0.88693179  1
  H  H27  1  0.65665907  0.46969603  0.11306821  1
  H  H28  1  0.47810921  0.12577771  0.85647836  1
  H  H29  1  0.97810921  0.87422229  0.14352164  1
  H  H30  1  0.97810921  0.62577771  0.64352164  1
  H  H31  1  0.47810921  0.37422229  0.35647836  1
  H  H32  1  0.61905954  0.14246343  0.96758871  1
  H  H33  1  0.11905954  0.85753657  0.03241129  1
  H  H34  1  0.11905954  0.64246343  0.53241129  1
  H  H35  1  0.61905954  0.35753657  0.46758871  1
  H  H36  1  0.70217006  0.06866144  0.85388889  1
  H  H37  1  0.20217006  0.93133856  0.14611111  1
  H  H38  1  0.20217006  0.56866144  0.64611111  1
  H  H39  1  0.70217006  0.43133856  0.35388889  1
  H  H40  1  0.51960664  0.67045356  0.49782053  1
  H  H41  1  0.01960664  0.32954644  0.50217947  1
  H  H42  1  0.01960664  0.17045356  0.00217947  1
  H  H43  1  0.51960664  0.82954644  0.99782053  1
  H  H44  1  0.66138419  0.69817130  0.38794624  1
  H  H45  1  0.16138419  0.30182870  0.61205376  1
  H  H46  1  0.16138419  0.19817130  0.11205376  1
  H  H47  1  0.66138419  0.80182870  0.88794624  1
  H  H48  1  0.49953590  0.80720901  0.42505967  1
  H  H49  1  0.99953590  0.19279099  0.57494033  1
  H  H50  1  0.99953590  0.30720901  0.07494033  1
  H  H51  1  0.49953590  0.69279099  0.92505967  1
  N  N52  1  0.76574812  0.37724160  0.76835595  1
  N  N53  1  0.26574812  0.62275840  0.23164405  1
  N  N54  1  0.26574812  0.87724160  0.73164405  1
  N  N55  1  0.76574812  0.12275840  0.26835595  1
  N  N56  1  0.51454033  0.05404712  0.59614493  1
  N  N57  1  0.01454033  0.94595288  0.40385507  1
  N  N58  1  0.01454033  0.55404712  0.90385507  1
  N  N59  1  0.51454033  0.44595288  0.09614493  1
  N  N60  1  0.61896767  0.14531629  0.88063875  1
  N  N61  1  0.11896767  0.85468371  0.11936125  1
  N  N62  1  0.11896767  0.64531629  0.61936125  1
  N  N63  1  0.61896767  0.35468371  0.38063875  1
  N  N64  1  0.52171037  0.70964938  0.41782757  1
  N  N65  1  0.02171037  0.29035062  0.58217243  1
  N  N66  1  0.02171037  0.20964938  0.08217243  1
  N  N67  1  0.52171037  0.79035062  0.91782757  1
  F  F68  1  0.47020795  0.37546500  0.65277375  1
  F  F69  1  0.97020795  0.62453500  0.34722625  1
  F  F70  1  0.97020795  0.87546500  0.84722625  1
  F  F71  1  0.47020795  0.12453500  0.15277375  1
  F  F72  1  0.46622864  0.48848052  0.82380817  1
  F  F73  1  0.96622864  0.51151948  0.17619183  1
  F  F74  1  0.96622864  0.98848052  0.67619183  1
  F  F75  1  0.46622864  0.01151948  0.32380817  1
  F  F76  1  0.64424588  0.56826899  0.67011223  1
  F  F77  1  0.14424588  0.43173101  0.32988777  1
  F  F78  1  0.14424588  0.06826899  0.82988777  1
  F  F79  1  0.64424588  0.93173101  0.17011223  1
