# generated using pymatgen
data_Dy2Ga3Fe14
_symmetry_space_group_name_H-M   'P 1'
_cell_length_a   8.27204369
_cell_length_b   8.56311821
_cell_length_c   8.56311821
_cell_angle_alpha   120.08114876
_cell_angle_beta   90.00000000
_cell_angle_gamma   90.00000000
_symmetry_Int_Tables_number   1
_chemical_formula_structural   Dy2Ga3Fe14
_chemical_formula_sum   'Dy4 Ga6 Fe28'
_cell_volume   524.86984521
_cell_formula_units_Z   2
loop_
 _symmetry_equiv_pos_site_id
 _symmetry_equiv_pos_as_xyz
  1  'x, y, z'
loop_
 _atom_site_type_symbol
 _atom_site_label
 _atom_site_symmetry_multiplicity
 _atom_site_fract_x
 _atom_site_fract_y
 _atom_site_fract_z
 _atom_site_occupancy
  Dy  Dy0  1  0.75000000  0.00002093  0.99997907  1
  Dy  Dy1  1  0.25000000  0.99997907  0.00002093  1
  Dy  Dy2  1  0.25000000  0.66681467  0.33318533  1
  Dy  Dy3  1  0.75000000  0.33318533  0.66681467  1
  Ga  Ga4  1  0.50000000  0.50000000  -0.00000000  1
  Ga  Ga5  1  0.50000000  0.50000000  0.50000000  1
  Ga  Ga6  1  0.50000000  0.00000000  0.50000000  1
  Ga  Ga7  1  0.00000000  0.50000000  0.00000000  1
  Ga  Ga8  1  0.00000000  0.50000000  0.50000000  1
  Ga  Ga9  1  0.00000000  -0.00000000  0.50000000  1
  Fe  Fe10  1  0.61165152  0.66675132  0.33324868  1
  Fe  Fe11  1  0.38834848  0.33324868  0.66675132  1
  Fe  Fe12  1  0.11165152  0.33324868  0.66675132  1
  Fe  Fe13  1  0.88834848  0.66675132  0.33324868  1
  Fe  Fe14  1  0.75000000  0.67669482  0.02936863  1
  Fe  Fe15  1  0.75000000  0.35259839  0.32332345  1
  Fe  Fe16  1  0.75000000  0.97067366  0.64741651  1
  Fe  Fe17  1  0.75000000  0.35258349  0.02932634  1
  Fe  Fe18  1  0.75000000  0.97063137  0.32330518  1
  Fe  Fe19  1  0.75000000  0.67667655  0.64740161  1
  Fe  Fe20  1  0.25000000  0.32330518  0.97063137  1
  Fe  Fe21  1  0.25000000  0.64740161  0.67667655  1
  Fe  Fe22  1  0.25000000  0.02932634  0.35258349  1
  Fe  Fe23  1  0.25000000  0.64741651  0.97067366  1
  Fe  Fe24  1  0.25000000  0.02936863  0.67669482  1
  Fe  Fe25  1  0.25000000  0.32332345  0.35259839  1
  Fe  Fe26  1  0.49127865  0.83449982  0.66878043  1
  Fe  Fe27  1  0.49116168  0.83452600  0.16547400  1
  Fe  Fe28  1  0.49127865  0.33121957  0.16550018  1
  Fe  Fe29  1  0.50872135  0.16550018  0.33121957  1
  Fe  Fe30  1  0.50883832  0.16547400  0.83452600  1
  Fe  Fe31  1  0.50872135  0.66878043  0.83449982  1
  Fe  Fe32  1  0.99127865  0.16550018  0.33121957  1
  Fe  Fe33  1  0.99116168  0.16547400  0.83452600  1
  Fe  Fe34  1  0.99127865  0.66878043  0.83449982  1
  Fe  Fe35  1  0.00872135  0.83449982  0.66878043  1
  Fe  Fe36  1  0.00883832  0.83452600  0.16547400  1
  Fe  Fe37  1  0.00872135  0.33121957  0.16550018  1
