# generated using pymatgen
data_Yb(Ga2Cu)4
_symmetry_space_group_name_H-M   'P 1'
_cell_length_a   9.02256738
_cell_length_b   9.02256738
_cell_length_c   10.01036229
_cell_angle_alpha   116.78612858
_cell_angle_beta   116.78612858
_cell_angle_gamma   90.00000000
_symmetry_Int_Tables_number   1
_chemical_formula_structural   Yb(Ga2Cu)4
_chemical_formula_sum   'Yb3 Ga24 Cu12'
_cell_volume   627.96188838
_cell_formula_units_Z   3
loop_
 _symmetry_equiv_pos_site_id
 _symmetry_equiv_pos_as_xyz
  1  'x, y, z'
loop_
 _atom_site_type_symbol
 _atom_site_label
 _atom_site_symmetry_multiplicity
 _atom_site_fract_x
 _atom_site_fract_y
 _atom_site_fract_z
 _atom_site_occupancy
  Yb  Yb0  1  -0.00000000  -0.00000000  -0.00000000  1
  Yb  Yb1  1  0.65914621  0.65914621  0.31829242  1
  Yb  Yb2  1  0.34085379  0.34085379  0.68170758  1
  Ga  Ga3  1  0.00328441  0.65638326  0.31276652  1
  Ga  Ga4  1  0.30948210  0.65638326  0.31276652  1
  Ga  Ga5  1  0.65638326  0.30948210  0.31276652  1
  Ga  Ga6  1  0.65638326  0.00328441  0.31276652  1
  Ga  Ga7  1  0.99671559  0.34361674  0.68723348  1
  Ga  Ga8  1  0.69051790  0.34361674  0.68723348  1
  Ga  Ga9  1  0.34361674  0.69051790  0.68723348  1
  Ga  Ga10  1  0.34361674  0.99671559  0.68723348  1
  Ga  Ga11  1  0.15986749  0.37257548  0.31973497  1
  Ga  Ga12  1  0.15986749  0.94715950  0.31973497  1
  Ga  Ga13  1  0.37257548  0.15986749  0.31973497  1
  Ga  Ga14  1  0.94715950  0.15986749  0.31973497  1
  Ga  Ga15  1  0.84013251  0.62742452  0.68026503  1
  Ga  Ga16  1  0.84013251  0.05284050  0.68026503  1
  Ga  Ga17  1  0.62742452  0.84013251  0.68026503  1
  Ga  Ga18  1  0.05284050  0.84013251  0.68026503  1
  Ga  Ga19  1  -0.00000000  0.50000000  0.50000000  1
  Ga  Ga20  1  0.50000000  -0.00000000  0.50000000  1
  Ga  Ga21  1  0.50000000  0.50000000  0.50000000  1
  Ga  Ga22  1  -0.00000000  -0.00000000  0.50000000  1
  Ga  Ga23  1  0.65050594  0.00000000  0.00000000  1
  Ga  Ga24  1  0.34949406  1.00000000  1.00000000  1
  Ga  Ga25  1  1.00000000  0.34949406  1.00000000  1
  Ga  Ga26  1  0.00000000  0.65050594  0.00000000  1
  Cu  Cu27  1  0.50000000  0.28701930  1.00000000  1
  Cu  Cu28  1  0.50000000  0.71298070  0.00000000  1
  Cu  Cu29  1  0.28701930  0.50000000  1.00000000  1
  Cu  Cu30  1  0.71298070  0.50000000  0.00000000  1
  Cu  Cu31  1  0.82697376  0.33388279  0.16085656  1
  Cu  Cu32  1  0.33388279  0.82697376  0.16085656  1
  Cu  Cu33  1  0.33388279  0.33388279  0.16085656  1
  Cu  Cu34  1  0.82697376  0.82697376  0.16085656  1
  Cu  Cu35  1  0.17302624  0.66611721  0.83914344  1
  Cu  Cu36  1  0.66611721  0.17302624  0.83914344  1
  Cu  Cu37  1  0.66611721  0.66611721  0.83914344  1
  Cu  Cu38  1  0.17302624  0.17302624  0.83914344  1
