# generated using pymatgen
data_Ho2Co12Ni5
_symmetry_space_group_name_H-M   'P 1'
_cell_length_a   8.01834694
_cell_length_b   8.29266954
_cell_length_c   8.29266954
_cell_angle_alpha   119.98769252
_cell_angle_beta   90.00000000
_cell_angle_gamma   90.00000000
_symmetry_Int_Tables_number   1
_chemical_formula_structural   Ho2Co12Ni5
_chemical_formula_sum   'Ho4 Co24 Ni10'
_cell_volume   477.59309720
_cell_formula_units_Z   2
loop_
 _symmetry_equiv_pos_site_id
 _symmetry_equiv_pos_as_xyz
  1  'x, y, z'
loop_
 _atom_site_type_symbol
 _atom_site_label
 _atom_site_symmetry_multiplicity
 _atom_site_fract_x
 _atom_site_fract_y
 _atom_site_fract_z
 _atom_site_occupancy
  Ho  Ho0  1  0.75000000  0.99996541  0.00003459  1
  Ho  Ho1  1  0.25000000  0.00003459  0.99996541  1
  Ho  Ho2  1  0.25000000  0.66660787  0.33339213  1
  Ho  Ho3  1  0.75000000  0.33339213  0.66660787  1
  Co  Co4  1  0.75000000  0.67314012  0.04974700  1
  Co  Co5  1  0.75000000  0.37658925  0.32686563  1
  Co  Co6  1  0.75000000  0.95043940  0.62350338  1
  Co  Co7  1  0.75000000  0.37649662  0.04956060  1
  Co  Co8  1  0.75000000  0.95025300  0.32685988  1
  Co  Co9  1  0.75000000  0.67313437  0.62341075  1
  Co  Co10  1  0.25000000  0.32685988  0.95025300  1
  Co  Co11  1  0.25000000  0.62341075  0.67313437  1
  Co  Co12  1  0.25000000  0.04956060  0.37649662  1
  Co  Co13  1  0.25000000  0.62350338  0.95043940  1
  Co  Co14  1  0.25000000  0.04974700  0.67314012  1
  Co  Co15  1  0.25000000  0.32686563  0.37658925  1
  Co  Co16  1  0.47623144  0.83779785  0.67568114  1
  Co  Co17  1  0.47629090  0.83784511  0.16215489  1
  Co  Co18  1  0.47623144  0.32431886  0.16220215  1
  Co  Co19  1  0.52376856  0.16220215  0.32431886  1
  Co  Co20  1  0.52370910  0.16215489  0.83784511  1
  Co  Co21  1  0.52376856  0.67568114  0.83779785  1
  Co  Co22  1  0.97623144  0.16220215  0.32431886  1
  Co  Co23  1  0.97629090  0.16215489  0.83784511  1
  Co  Co24  1  0.97623144  0.67568114  0.83779785  1
  Co  Co25  1  0.02376856  0.83779785  0.67568114  1
  Co  Co26  1  0.02370910  0.83784511  0.16215489  1
  Co  Co27  1  0.02376856  0.32431886  0.16220215  1
  Ni  Ni28  1  0.59909404  0.66674101  0.33325899  1
  Ni  Ni29  1  0.40090596  0.33325899  0.66674101  1
  Ni  Ni30  1  0.09909404  0.33325899  0.66674101  1
  Ni  Ni31  1  0.90090596  0.66674101  0.33325899  1
  Ni  Ni32  1  0.50000000  0.50000000  0.00000000  1
  Ni  Ni33  1  0.50000000  0.50000000  0.50000000  1
  Ni  Ni34  1  0.50000000  -0.00000000  0.50000000  1
  Ni  Ni35  1  -0.00000000  0.50000000  0.00000000  1
  Ni  Ni36  1  0.00000000  0.50000000  0.50000000  1
  Ni  Ni37  1  0.00000000  -0.00000000  0.50000000  1
