# generated using pymatgen
data_Mn2Pb2O5
_symmetry_space_group_name_H-M   'P 1'
_cell_length_a   3.92612647
_cell_length_b   5.84423701
_cell_length_c   21.74559098
_cell_angle_alpha   90.00000000
_cell_angle_beta   90.00000000
_cell_angle_gamma   90.00000000
_symmetry_Int_Tables_number   1
_chemical_formula_structural   Mn2Pb2O5
_chemical_formula_sum   'Mn8 Pb8 O20'
_cell_volume   498.95723037
_cell_formula_units_Z   4
loop_
 _symmetry_equiv_pos_site_id
 _symmetry_equiv_pos_as_xyz
  1  'x, y, z'
loop_
 _atom_site_type_symbol
 _atom_site_label
 _atom_site_symmetry_multiplicity
 _atom_site_fract_x
 _atom_site_fract_y
 _atom_site_fract_z
 _atom_site_occupancy
  Mn  Mn0  1  0.75000000  0.05093268  0.94716167  1
  Mn  Mn1  1  0.75000000  0.55093268  0.55283833  1
  Mn  Mn2  1  0.25000000  0.94906732  0.05283833  1
  Mn  Mn3  1  0.25000000  0.44906732  0.44716167  1
  Mn  Mn4  1  0.75000000  0.53966053  0.81499162  1
  Mn  Mn5  1  0.75000000  0.03966053  0.68500838  1
  Mn  Mn6  1  0.25000000  0.46033947  0.18500838  1
  Mn  Mn7  1  0.25000000  0.96033947  0.31499162  1
  Pb  Pb8  1  0.25000000  0.55577846  0.92765844  1
  Pb  Pb9  1  0.25000000  0.05577846  0.57234156  1
  Pb  Pb10  1  0.75000000  0.44422154  0.07234156  1
  Pb  Pb11  1  0.75000000  0.94422154  0.42765844  1
  Pb  Pb12  1  0.25000000  0.58063186  0.69032783  1
  Pb  Pb13  1  0.25000000  0.08063186  0.80967217  1
  Pb  Pb14  1  0.75000000  0.41936814  0.30967217  1
  Pb  Pb15  1  0.75000000  0.91936814  0.19032783  1
  O  O16  1  0.25000000  0.51746819  0.81893881  1
  O  O17  1  0.25000000  0.01746819  0.68106119  1
  O  O18  1  0.75000000  0.48253181  0.18106119  1
  O  O19  1  0.75000000  0.98253181  0.31893881  1
  O  O20  1  0.75000000  0.76569117  0.74253654  1
  O  O21  1  0.75000000  0.26569117  0.75746346  1
  O  O22  1  0.25000000  0.23430883  0.25746346  1
  O  O23  1  0.25000000  0.73430883  0.24253654  1
  O  O24  1  0.75000000  0.30238676  0.88991177  1
  O  O25  1  0.75000000  0.80238676  0.61008823  1
  O  O26  1  0.25000000  0.69761324  0.11008823  1
  O  O27  1  0.25000000  0.19761324  0.38991177  1
  O  O28  1  0.75000000  0.77384389  0.88471371  1
  O  O29  1  0.75000000  0.27384389  0.61528629  1
  O  O30  1  0.25000000  0.22615611  0.11528629  1
  O  O31  1  0.25000000  0.72615611  0.38471371  1
  O  O32  1  0.25000000  0.07586664  0.96593094  1
  O  O33  1  0.25000000  0.57586664  0.53406906  1
  O  O34  1  0.75000000  0.92413336  0.03406906  1
  O  O35  1  0.75000000  0.42413336  0.46593094  1
