# generated using pymatgen
data_Na6Ni3B9P6H3O38
_symmetry_space_group_name_H-M   'P 1'
_cell_length_a   11.84931411
_cell_length_b   11.84921756
_cell_length_c   12.22718689
_cell_angle_alpha   90.00000000
_cell_angle_beta   90.00000000
_cell_angle_gamma   120.00681470
_symmetry_Int_Tables_number   1
_chemical_formula_structural   Na6Ni3B9P6H3O38
_chemical_formula_sum   'Na12 Ni6 B18 P12 H6 O76'
_cell_volume   1486.65515411
_cell_formula_units_Z   2
loop_
 _symmetry_equiv_pos_site_id
 _symmetry_equiv_pos_as_xyz
  1  'x, y, z'
loop_
 _atom_site_type_symbol
 _atom_site_label
 _atom_site_symmetry_multiplicity
 _atom_site_fract_x
 _atom_site_fract_y
 _atom_site_fract_z
 _atom_site_occupancy
  Na  Na0  1  0.72024174  0.70399142  0.02923305  1
  Na  Na1  1  0.29597874  0.01623723  0.02930475  1
  Na  Na2  1  0.98375094  0.27978082  0.02929094  1
  Na  Na3  1  0.27975826  0.29600858  0.52923305  1
  Na  Na4  1  0.70402126  0.98376277  0.52930475  1
  Na  Na5  1  0.01624906  0.72021918  0.52929094  1
  Na  Na6  1  0.66661411  0.33328198  0.37997088  1
  Na  Na7  1  0.33338589  0.66671802  0.87997088  1
  Na  Na8  1  0.33334347  0.66662162  0.36892500  1
  Na  Na9  1  0.66665653  0.33337838  0.86892500  1
  Na  Na10  1  0.00007597  0.00008686  0.98365369  1
  Na  Na11  1  0.99992403  0.99991314  0.48365369  1
  Ni  Ni12  1  0.99718763  0.50066863  0.28164775  1
  Ni  Ni13  1  0.49930528  0.49655434  0.28168383  1
  Ni  Ni14  1  0.50339518  0.00271337  0.28169171  1
  Ni  Ni15  1  0.00281237  0.49933137  0.78164775  1
  Ni  Ni16  1  0.50069472  0.50344566  0.78168383  1
  Ni  Ni17  1  0.49660482  0.99728663  0.78169171  1
  B  B18  1  0.03742853  0.74690026  0.13229323  1
  B  B19  1  0.25307945  0.29049729  0.13229595  1
  B  B20  1  0.70950777  0.96260679  0.13230750  1
  B  B21  1  0.96257147  0.25309974  0.63229323  1
  B  B22  1  0.74692055  0.70950271  0.63229595  1
  B  B23  1  0.29049223  0.03739321  0.63230750  1
  B  B24  1  0.29601227  0.04165674  0.43071739  1
  B  B25  1  0.95834955  0.25437619  0.43071922  1
  B  B26  1  0.74562934  0.70396313  0.43072107  1
  B  B27  1  0.70398773  0.95834326  0.93071739  1
  B  B28  1  0.04165045  0.74562381  0.93071922  1
  B  B29  1  0.25437066  0.29603687  0.93072107  1
  B  B30  1  0.08426656  0.59019568  0.03457218  1
  B  B31  1  0.40980192  0.49405273  0.03458836  1
  B  B32  1  0.50590780  0.91570039  0.03458854  1
  B  B33  1  0.91573344  0.40980432  0.53457218  1
  B  B34  1  0.59019808  0.50594727  0.53458836  1
  B  B35  1  0.49409220  0.08429961  0.53458854  1
  P  P36  1  0.18796942  0.80691905  0.31601615  1
  P  P37  1  0.19301920  0.38108499  0.31597787  1
  P  P38  1  0.61895377  0.81184105  0.31595080  1
  P  P39  1  0.81203058  0.19308095  0.81601615  1
  P  P40  1  0.80698080  0.61891501  0.81597787  1
  P  P41  1  0.38104623  0.18815895  0.81595080  1
  P  P42  1  0.81286435  0.19627125  0.24402779  1
  P  P43  1  0.80378278  0.61656838  0.24402866  1
  P  P44  1  0.38343528  0.18731159  0.24406091  1
  P  P45  1  0.18713565  0.80372875  0.74402779  1
  P  P46  1  0.19621722  0.38343162  0.74402866  1
  P  P47  1  0.61656472  0.81268841  0.74406091  1
  H  H48  1  0.16420499  0.50584443  0.11550228  1
  H  H49  1  0.49418422  0.65839139  0.11548244  1
  H  H50  1  0.34156250  0.83576245  0.11548179  1
  H  H51  1  0.83579501  0.49415557  0.61550228  1
  H  H52  1  0.50581578  0.34160861  0.61548244  1
  H  H53  1  0.65843750  0.16423755  0.61548179  1
  O  O54  1  0.11598213  0.83481682  0.22192890  1
  O  O55  1  0.16520316  0.28111535  0.22194163  1
  O  O56  1  0.71889312  0.88414646  0.22195993  1
  O  O57  1  0.88401787  0.16518318  0.72192890  1
  O  O58  1  0.83479684  0.71888465  0.72194163  1
  O  O59  1  0.28110688  0.11585354  0.72195993  1
  O  O60  1  0.80461907  0.10224256  0.15018915  1
  O  O61  1  0.89779144  0.70245532  0.15021415  1
  O  O62  1  0.29752145  0.19526464  0.15020982  1
  O  O63  1  0.19538093  0.89775744  0.65018915  1
  O  O64  1  0.10220856  0.29754468  0.65021415  1
  O  O65  1  0.70247855  0.80473536  0.65020982  1
  O  O66  1  0.20032552  0.90035888  0.41170546  1
  O  O67  1  0.09963795  0.29994608  0.41169909  1
  O  O68  1  0.70009612  0.79976033  0.41168122  1
  O  O69  1  0.79967448  0.09964112  0.91170546  1
  O  O70  1  0.90036205  0.70005392  0.91169909  1
  O  O71  1  0.29990388  0.20023967  0.91168122  1
  O  O72  1  0.88099649  0.16632760  0.34195483  1
  O  O73  1  0.83364726  0.71465774  0.34193817  1
  O  O74  1  0.28534356  0.11899041  0.34197479  1
  O  O75  1  0.11900351  0.83367240  0.84195483  1
  O  O76  1  0.16635274  0.28534226  0.84193817  1
  O  O77  1  0.71465644  0.88100959  0.84197479  1
  O  O78  1  0.05578143  0.62952877  0.13135782  1
  O  O79  1  0.37047593  0.42622785  0.13135055  1
  O  O80  1  0.57370866  0.94420643  0.13137271  1
  O  O81  1  0.94421857  0.37047123  0.63135782  1
  O  O82  1  0.62952407  0.57377215  0.63135055  1
  O  O83  1  0.42629134  0.05579357  0.63137271  1
  O  O84  1  0.93980860  0.37281704  0.43427210  1
  O  O85  1  0.62717008  0.56699972  0.43428422  1
  O  O86  1  0.43305218  0.06020694  0.43427665  1
  O  O87  1  0.06019140  0.62718296  0.93427210  1
  O  O88  1  0.37282992  0.43300028  0.93428422  1
  O  O89  1  0.56694782  0.93979306  0.93427665  1
  O  O90  1  0.10702119  0.67052408  0.36570363  1
  O  O91  1  0.32951992  0.43649660  0.36574432  1
  O  O92  1  0.56344753  0.89304670  0.36575133  1
  O  O93  1  0.89297881  0.32947592  0.86570363  1
  O  O94  1  0.67048008  0.56350340  0.86574432  1
  O  O95  1  0.43655247  0.10695330  0.86575133  1
  O  O96  1  0.90186182  0.33204662  0.19670900  1
  O  O97  1  0.66788685  0.56982206  0.19665711  1
  O  O98  1  0.43021970  0.09803079  0.19670734  1
  O  O99  1  0.09813818  0.66795338  0.69670900  1
  O  O100  1  0.33211315  0.43017794  0.69665711  1
  O  O101  1  0.56978030  0.90196921  0.69670734  1
  O  O102  1  0.07979912  0.81901959  0.03113123  1
  O  O103  1  0.18096575  0.26070849  0.03112729  1
  O  O104  1  0.73924525  0.92025314  0.03113985  1
  O  O105  1  0.92020088  0.18098041  0.53113123  1
  O  O106  1  0.81903425  0.73929151  0.53112729  1
  O  O107  1  0.26075475  0.07974686  0.53113985  1
  O  O108  1  0.32146788  0.83289840  0.27387945  1
  O  O109  1  0.16718532  0.48854864  0.27384460  1
  O  O110  1  0.51153128  0.67868775  0.27386729  1
  O  O111  1  0.67853212  0.16710160  0.77387945  1
  O  O112  1  0.83281468  0.51145136  0.77384460  1
  O  O113  1  0.48846872  0.32131225  0.77386729  1
  O  O114  1  0.82959977  0.50931167  0.28272857  1
  O  O115  1  0.49063271  0.32025946  0.28270243  1
  O  O116  1  0.67959196  0.17027047  0.28280402  1
  O  O117  1  0.17040023  0.49068833  0.78272857  1
  O  O118  1  0.50936729  0.67974054  0.78270243  1
  O  O119  1  0.32040804  0.82972953  0.78280402  1
  O  O120  1  0.14318978  0.51426338  0.03857127  1
  O  O121  1  0.48575074  0.62893874  0.03856842  1
  O  O122  1  0.37103846  0.85679785  0.03857012  1
  O  O123  1  0.85681022  0.48573662  0.53857127  1
  O  O124  1  0.51424926  0.37106126  0.53856842  1
  O  O125  1  0.62896154  0.14320215  0.53857012  1
  O  O126  1  0.66652295  0.33350258  0.07188236  1
  O  O127  1  0.33347705  0.66649742  0.57188236  1
  O  O128  1  0.00000699  0.99993768  0.78325543  1
  O  O129  1  0.99999301  0.00006232  0.28325543  1
