# generated using pymatgen
data_Tm2Ga2Fe15
_symmetry_space_group_name_H-M   'P 1'
_cell_length_a   8.37846254
_cell_length_b   8.38981028
_cell_length_c   8.38981028
_cell_angle_alpha   119.94482162
_cell_angle_beta   90.00000000
_cell_angle_gamma   90.00000000
_symmetry_Int_Tables_number   1
_chemical_formula_structural   Tm2Ga2Fe15
_chemical_formula_sum   'Tm4 Ga4 Fe30'
_cell_volume   511.02300244
_cell_formula_units_Z   2
loop_
 _symmetry_equiv_pos_site_id
 _symmetry_equiv_pos_as_xyz
  1  'x, y, z'
loop_
 _atom_site_type_symbol
 _atom_site_label
 _atom_site_symmetry_multiplicity
 _atom_site_fract_x
 _atom_site_fract_y
 _atom_site_fract_z
 _atom_site_occupancy
  Tm  Tm0  1  0.75000000  0.00001912  -0.00001912  1
  Tm  Tm1  1  0.25000000  -0.00001912  0.00001912  1
  Tm  Tm2  1  0.25000000  0.66673055  0.33326945  1
  Tm  Tm3  1  0.75000000  0.33326945  0.66673055  1
  Ga  Ga4  1  0.59906970  0.66667705  0.33332295  1
  Ga  Ga5  1  0.40093030  0.33332295  0.66667705  1
  Ga  Ga6  1  0.09906970  0.33332295  0.66667705  1
  Ga  Ga7  1  0.90093030  0.66667705  0.33332295  1
  Fe  Fe8  1  0.50000000  0.50000000  0.00000000  1
  Fe  Fe9  1  0.50000000  0.50000000  0.50000000  1
  Fe  Fe10  1  0.50000000  -0.00000000  0.50000000  1
  Fe  Fe11  1  -0.00000000  0.50000000  0.00000000  1
  Fe  Fe12  1  -0.00000000  0.50000000  0.50000000  1
  Fe  Fe13  1  -0.00000000  -0.00000000  0.50000000  1
  Fe  Fe14  1  0.75000000  0.66848087  0.02793628  1
  Fe  Fe15  1  0.75000000  0.35941394  0.33149691  1
  Fe  Fe16  1  0.75000000  0.97177032  0.64035123  1
  Fe  Fe17  1  0.75000000  0.35964877  0.02822968  1
  Fe  Fe18  1  0.75000000  0.97206372  0.33151913  1
  Fe  Fe19  1  0.75000000  0.66850309  0.64058606  1
  Fe  Fe20  1  0.25000000  0.33151913  0.97206372  1
  Fe  Fe21  1  0.25000000  0.64058606  0.66850309  1
  Fe  Fe22  1  0.25000000  0.02822968  0.35964877  1
  Fe  Fe23  1  0.25000000  0.64035123  0.97177032  1
  Fe  Fe24  1  0.25000000  0.02793628  0.66848087  1
  Fe  Fe25  1  0.25000000  0.33149691  0.35941394  1
  Fe  Fe26  1  0.48969784  0.83561176  0.67127100  1
  Fe  Fe27  1  0.48975901  0.83571226  0.16428774  1
  Fe  Fe28  1  0.48969784  0.32872900  0.16438824  1
  Fe  Fe29  1  0.51030216  0.16438824  0.32872900  1
  Fe  Fe30  1  0.51024099  0.16428774  0.83571226  1
  Fe  Fe31  1  0.51030216  0.67127100  0.83561176  1
  Fe  Fe32  1  0.98969784  0.16438824  0.32872900  1
  Fe  Fe33  1  0.98975901  0.16428774  0.83571226  1
  Fe  Fe34  1  0.98969784  0.67127100  0.83561176  1
  Fe  Fe35  1  0.01030216  0.83561176  0.67127100  1
  Fe  Fe36  1  0.01024099  0.83571226  0.16428774  1
  Fe  Fe37  1  0.01030216  0.32872900  0.16438824  1
