# generated using pymatgen
data_Er2Ge6Pt
_symmetry_space_group_name_H-M   'P 1'
_cell_length_a   4.06163634
_cell_length_b   4.08531464
_cell_length_c   11.14971580
_cell_angle_alpha   90.00000000
_cell_angle_beta   100.49447851
_cell_angle_gamma   90.00000000
_symmetry_Int_Tables_number   1
_chemical_formula_structural   Er2Ge6Pt
_chemical_formula_sum   'Er2 Ge6 Pt1'
_cell_volume   181.91320343
_cell_formula_units_Z   1
loop_
 _symmetry_equiv_pos_site_id
 _symmetry_equiv_pos_as_xyz
  1  'x, y, z'
loop_
 _atom_site_type_symbol
 _atom_site_label
 _atom_site_symmetry_multiplicity
 _atom_site_fract_x
 _atom_site_fract_y
 _atom_site_fract_z
 _atom_site_occupancy
  Er  Er0  1  0.77781264  0.50000000  0.55562528  1
  Er  Er1  1  0.11704857  0.50000000  0.23409715  1
  Ge  Ge2  1  0.49305968  0.50000000  0.98611935  1
  Ge  Ge3  1  0.37878316  0.50000000  0.75756632  1
  Ge  Ge4  1  0.99207499  0.00000000  0.98414998  1
  Ge  Ge5  1  0.87754481  -0.00000000  0.75508961  1
  Ge  Ge6  1  0.67011287  -0.00000000  0.34022573  1
  Ge  Ge7  1  0.24085987  0.00000000  0.48171975  1
  Pt  Pt8  1  0.55970341  0.00000000  0.11940683  1
