# generated using pymatgen
data_RbSeO4
_symmetry_space_group_name_H-M   'P 1'
_cell_length_a   4.40878786
_cell_length_b   7.77170047
_cell_length_c   20.63298628
_cell_angle_alpha   90.38904080
_cell_angle_beta   88.92776071
_cell_angle_gamma   91.89596663
_symmetry_Int_Tables_number   1
_chemical_formula_structural   RbSeO4
_chemical_formula_sum   'Rb6 Se6 O24'
_cell_volume   706.43985225
_cell_formula_units_Z   6
loop_
 _symmetry_equiv_pos_site_id
 _symmetry_equiv_pos_as_xyz
  1  'x, y, z'
loop_
 _atom_site_type_symbol
 _atom_site_label
 _atom_site_symmetry_multiplicity
 _atom_site_fract_x
 _atom_site_fract_y
 _atom_site_fract_z
 _atom_site_occupancy
  Rb  Rb0  1  0.29949828  0.17927465  0.09224380  1
  Rb  Rb1  1  0.70050172  0.82072535  0.90775620  1
  Rb  Rb2  1  0.69556993  0.74024206  0.25320578  1
  Rb  Rb3  1  0.30443007  0.25975794  0.74679422  1
  Rb  Rb4  1  0.14453537  0.18376545  0.41497436  1
  Rb  Rb5  1  0.85546463  0.81623455  0.58502564  1
  Se  Se6  1  0.15907873  0.68282198  0.09018412  1
  Se  Se7  1  0.84092127  0.31717802  0.90981588  1
  Se  Se8  1  0.69961937  0.24116476  0.25194561  1
  Se  Se9  1  0.30038063  0.75883524  0.74805439  1
  Se  Se10  1  0.23164316  0.68568518  0.41672503  1
  Se  Se11  1  0.76835684  0.31431482  0.58327497  1
  O  O12  1  0.26055219  0.80829145  0.15216730  1
  O  O13  1  0.73944781  0.19170855  0.84783270  1
  O  O14  1  0.06403503  0.79430883  0.02605186  1
  O  O15  1  0.93596497  0.20569117  0.97394814  1
  O  O16  1  0.87870039  0.54095296  0.11799604  1
  O  O17  1  0.12129961  0.45904704  0.88200396  1
  O  O18  1  0.44439285  0.54908359  0.06688839  1
  O  O19  1  0.55560715  0.45091641  0.93311161  1
  O  O20  1  0.58572041  0.12104278  0.31422438  1
  O  O21  1  0.41427959  0.87895722  0.68577562  1
  O  O22  1  0.80787247  0.12516809  0.18842297  1
  O  O23  1  0.19212753  0.87483191  0.81157703  1
  O  O24  1  0.98402468  0.37844516  0.27949326  1
  O  O25  1  0.01597532  0.62155484  0.72050674  1
  O  O26  1  0.42222408  0.37298068  0.22500768  1
  O  O27  1  0.57777592  0.62701932  0.77499232  1
  O  O28  1  0.50164537  0.55056381  0.38716768  1
  O  O29  1  0.49835463  0.44943619  0.61283232  1
  O  O30  1  0.12229442  0.80682371  0.35627754  1
  O  O31  1  0.87770558  0.19317629  0.64372246  1
  O  O32  1  0.93483768  0.54997809  0.44184464  1
  O  O33  1  0.06516232  0.45002191  0.55815536  1
  O  O34  1  0.35028189  0.80135312  0.47980480  1
  O  O35  1  0.64971811  0.19864688  0.52019520  1
