# generated using pymatgen
data_Pb2IO2
_symmetry_space_group_name_H-M   'P 1'
_cell_length_a   4.08245560
_cell_length_b   4.08245560
_cell_length_c   7.52255523
_cell_angle_alpha   105.74447071
_cell_angle_beta   105.74447071
_cell_angle_gamma   90.00000000
_symmetry_Int_Tables_number   1
_chemical_formula_structural   Pb2IO2
_chemical_formula_sum   'Pb2 I1 O2'
_cell_volume   115.77556165
_cell_formula_units_Z   1
loop_
 _symmetry_equiv_pos_site_id
 _symmetry_equiv_pos_as_xyz
  1  'x, y, z'
loop_
 _atom_site_type_symbol
 _atom_site_label
 _atom_site_symmetry_multiplicity
 _atom_site_fract_x
 _atom_site_fract_y
 _atom_site_fract_z
 _atom_site_occupancy
  Pb  Pb0  1  0.33651871  0.33651871  0.67303742  1
  Pb  Pb1  1  0.66348129  0.66348129  0.32696258  1
  I  I2  1  0.00000000  0.00000000  0.00000000  1
  O  O3  1  0.25000000  0.75000000  0.50000000  1
  O  O4  1  0.75000000  0.25000000  0.50000000  1
