# generated using pymatgen
data_TmTa5Ag2O15
_symmetry_space_group_name_H-M   'P 1'
_cell_length_a   3.91530452
_cell_length_b   12.59018549
_cell_length_c   12.59018549
_cell_angle_alpha   90.00000000
_cell_angle_beta   90.00000000
_cell_angle_gamma   90.00000000
_symmetry_Int_Tables_number   1
_chemical_formula_structural   TmTa5Ag2O15
_chemical_formula_sum   'Tm2 Ta10 Ag4 O30'
_cell_volume   620.62576749
_cell_formula_units_Z   2
loop_
 _symmetry_equiv_pos_site_id
 _symmetry_equiv_pos_as_xyz
  1  'x, y, z'
loop_
 _atom_site_type_symbol
 _atom_site_label
 _atom_site_symmetry_multiplicity
 _atom_site_fract_x
 _atom_site_fract_y
 _atom_site_fract_z
 _atom_site_occupancy
  Tm  Tm0  1  0.50000000  0.00000000  -0.00000000  1
  Tm  Tm1  1  0.50000000  0.50000000  0.50000000  1
  Ta  Ta2  1  0.00000000  0.00000000  0.50000000  1
  Ta  Ta3  1  0.00000000  0.50000000  -0.00000000  1
  Ta  Ta4  1  0.00000000  0.07864326  0.21035297  1
  Ta  Ta5  1  -0.00000000  0.92135674  0.78964703  1
  Ta  Ta6  1  -0.00000000  0.78964703  0.07864326  1
  Ta  Ta7  1  0.00000000  0.42135674  0.71035297  1
  Ta  Ta8  1  0.00000000  0.21035297  0.92135674  1
  Ta  Ta9  1  -0.00000000  0.57864326  0.28964703  1
  Ta  Ta10  1  0.00000000  0.71035297  0.57864326  1
  Ta  Ta11  1  -0.00000000  0.28964703  0.42135674  1
  Ag  Ag12  1  0.50000000  0.17181464  0.67181464  1
  Ag  Ag13  1  0.50000000  0.82818536  0.32818536  1
  Ag  Ag14  1  0.50000000  0.32818536  0.17181464  1
  Ag  Ag15  1  0.50000000  0.67181464  0.82818536  1
  O  O16  1  0.50000000  0.07926538  0.18667406  1
  O  O17  1  0.50000000  0.92073462  0.81332594  1
  O  O18  1  0.50000000  0.81332594  0.07926538  1
  O  O19  1  0.50000000  0.42073462  0.68667406  1
  O  O20  1  0.50000000  0.18667406  0.92073462  1
  O  O21  1  0.50000000  0.57926538  0.31332594  1
  O  O22  1  0.50000000  0.68667406  0.57926538  1
  O  O23  1  0.50000000  0.31332594  0.42073462  1
  O  O24  1  0.00000000  0.72487678  0.22487678  1
  O  O25  1  -0.00000000  0.27512322  0.77512322  1
  O  O26  1  -0.00000000  0.77512322  0.72487678  1
  O  O27  1  0.00000000  0.22487678  0.27512322  1
  O  O28  1  0.50000000  0.00000000  0.50000000  1
  O  O29  1  0.50000000  0.50000000  -0.00000000  1
  O  O30  1  -0.00000000  0.12943970  0.05646277  1
  O  O31  1  0.00000000  0.87056030  0.94353723  1
  O  O32  1  0.00000000  0.94353723  0.12943970  1
  O  O33  1  -0.00000000  0.37056030  0.55646277  1
  O  O34  1  -0.00000000  0.05646277  0.87056030  1
  O  O35  1  0.00000000  0.62943970  0.44353723  1
  O  O36  1  -0.00000000  0.55646277  0.62943970  1
  O  O37  1  0.00000000  0.44353723  0.37056030  1
  O  O38  1  -0.00000000  0.99895546  0.34083441  1
  O  O39  1  0.00000000  0.00104454  0.65916559  1
  O  O40  1  -0.00000000  0.65916559  0.99895546  1
  O  O41  1  0.00000000  0.50104454  0.84083441  1
  O  O42  1  0.00000000  0.34083441  0.00104454  1
  O  O43  1  -0.00000000  0.49895546  0.15916559  1
  O  O44  1  -0.00000000  0.84083441  0.49895546  1
  O  O45  1  0.00000000  0.15916559  0.50104454  1
