# generated using pymatgen
data_Zn7(MoO4)6
_symmetry_space_group_name_H-M   'P 1'
_cell_length_a   7.07283964
_cell_length_b   8.27974265
_cell_length_c   10.17290986
_cell_angle_alpha   103.30296156
_cell_angle_beta   105.62383132
_cell_angle_gamma   100.91727437
_symmetry_Int_Tables_number   1
_chemical_formula_structural   Zn7(MoO4)6
_chemical_formula_sum   'Zn7 Mo6 O24'
_cell_volume   537.87585917
_cell_formula_units_Z   1
loop_
 _symmetry_equiv_pos_site_id
 _symmetry_equiv_pos_as_xyz
  1  'x, y, z'
loop_
 _atom_site_type_symbol
 _atom_site_label
 _atom_site_symmetry_multiplicity
 _atom_site_fract_x
 _atom_site_fract_y
 _atom_site_fract_z
 _atom_site_occupancy
  Zn  Zn0  1  0.04420552  0.20015394  0.01158339  1
  Zn  Zn1  1  0.95579448  0.79984606  0.98841661  1
  Zn  Zn2  1  0.26782349  0.27764038  0.78246689  1
  Zn  Zn3  1  0.73217651  0.72235962  0.21753311  1
  Zn  Zn4  1  0.61494156  0.04088542  0.39420588  1
  Zn  Zn5  1  0.38505844  0.95911458  0.60579412  1
  Zn  Zn6  1  0.00000000  0.50000000  0.50000000  1
  Mo  Mo7  1  0.09669003  0.09706416  0.33591004  1
  Mo  Mo8  1  0.90330997  0.90293584  0.66408996  1
  Mo  Mo9  1  0.22870860  0.64562200  0.27145939  1
  Mo  Mo10  1  0.77129140  0.35437800  0.72854061  1
  Mo  Mo11  1  0.59454157  0.27916651  0.12174188  1
  Mo  Mo12  1  0.40545843  0.72083349  0.87825812  1
  O  O13  1  0.01680344  0.71061367  0.16936514  1
  O  O14  1  0.98319656  0.28938633  0.83063486  1
  O  O15  1  0.05994903  0.04486232  0.14129146  1
  O  O16  1  0.94005097  0.95513768  0.85870854  1
  O  O17  1  0.10984707  0.31267557  0.43855921  1
  O  O18  1  0.89015293  0.68732443  0.56144079  1
  O  O19  1  0.14573314  0.03928655  0.65330112  1
  O  O20  1  0.85426686  0.96071345  0.34669888  1
  O  O21  1  0.18819709  0.42298579  0.19157744  1
  O  O22  1  0.81180291  0.57701421  0.80842256  1
  O  O23  1  0.22378822  0.68048717  0.45327635  1
  O  O24  1  0.77621178  0.31951283  0.54672365  1
  O  O25  1  0.33123148  0.02691601  0.41626562  1
  O  O26  1  0.66876852  0.97308399  0.58373438  1
  O  O27  1  0.35550815  0.27146406  0.98865008  1
  O  O28  1  0.64449185  0.72853594  0.01134992  1
  O  O29  1  0.52810138  0.24490766  0.73380326  1
  O  O30  1  0.47189862  0.75509234  0.26619674  1
  O  O31  1  0.55350802  0.13246697  0.22061408  1
  O  O32  1  0.44649198  0.86753303  0.77938592  1
  O  O33  1  0.71652177  0.49232252  0.24836459  1
  O  O34  1  0.28347823  0.50767748  0.75163541  1
  O  O35  1  0.76635764  0.22756589  0.03134344  1
  O  O36  1  0.23364236  0.77243411  0.96865656  1
