# generated using pymatgen
data_Th6Mn23H44
_symmetry_space_group_name_H-M   'P 1'
_cell_length_a   9.35603500
_cell_length_b   9.35603500
_cell_length_c   9.35603500
_cell_angle_alpha   60.00000000
_cell_angle_beta   60.00000000
_cell_angle_gamma   60.00000000
_symmetry_Int_Tables_number   1
_chemical_formula_structural   Th6Mn23H44
_chemical_formula_sum   'Th6 Mn23 H44'
_cell_volume   579.10926729
_cell_formula_units_Z   1
loop_
 _symmetry_equiv_pos_site_id
 _symmetry_equiv_pos_as_xyz
  1  'x, y, z'
loop_
 _atom_site_type_symbol
 _atom_site_label
 _atom_site_symmetry_multiplicity
 _atom_site_fract_x
 _atom_site_fract_y
 _atom_site_fract_z
 _atom_site_occupancy
  Th  Th0  1  0.70965390  0.70965390  0.29034610  1
  Th  Th1  1  0.29034610  0.29034610  0.70965390  1
  Th  Th2  1  0.70965390  0.29034610  0.70965390  1
  Th  Th3  1  0.29034610  0.70965390  0.29034610  1
  Th  Th4  1  0.29034610  0.70965390  0.70965390  1
  Th  Th5  1  0.70965390  0.29034610  0.29034610  1
  Mn  Mn6  1  0.86786928  0.86786928  0.86786928  1
  Mn  Mn7  1  0.13213072  0.13213072  0.13213072  1
  Mn  Mn8  1  0.39639216  0.86786928  0.86786928  1
  Mn  Mn9  1  0.86786928  0.39639216  0.86786928  1
  Mn  Mn10  1  0.60360784  0.13213072  0.13213072  1
  Mn  Mn11  1  0.13213072  0.60360784  0.13213072  1
  Mn  Mn12  1  0.86786928  0.86786928  0.39639216  1
  Mn  Mn13  1  0.13213072  0.13213072  0.60360784  1
  Mn  Mn14  1  0.68761865  0.68761865  0.68761865  1
  Mn  Mn15  1  0.31238135  0.31238135  0.31238135  1
  Mn  Mn16  1  0.93714406  0.68761865  0.68761865  1
  Mn  Mn17  1  0.68761865  0.93714406  0.68761865  1
  Mn  Mn18  1  0.06285594  0.31238135  0.31238135  1
  Mn  Mn19  1  0.31238135  0.06285594  0.31238135  1
  Mn  Mn20  1  0.68761865  0.68761865  0.93714406  1
  Mn  Mn21  1  0.31238135  0.31238135  0.06285594  1
  Mn  Mn22  1  -0.00000000  0.00000000  -0.00000000  1
  Mn  Mn23  1  -0.00000000  0.00000000  0.50000000  1
  Mn  Mn24  1  0.50000000  0.50000000  -0.00000000  1
  Mn  Mn25  1  -0.00000000  0.50000000  -0.00000000  1
  Mn  Mn26  1  0.50000000  0.00000000  0.50000000  1
  Mn  Mn27  1  0.50000000  0.00000000  -0.00000000  1
  Mn  Mn28  1  -0.00000000  0.50000000  0.50000000  1
  H  H29  1  -0.00000000  0.00000000  0.69029873  1
  H  H30  1  -0.00000000  0.00000000  0.30970127  1
  H  H31  1  0.30970127  0.69029873  -0.00000000  1
  H  H32  1  0.69029873  0.30970127  0.00000000  1
  H  H33  1  0.00000000  0.69029873  -0.00000000  1
  H  H34  1  0.69029873  -0.00000000  0.30970127  1
  H  H35  1  -0.00000000  0.30970127  0.00000000  1
  H  H36  1  0.30970127  0.00000000  0.69029873  1
  H  H37  1  0.69029873  0.00000000  -0.00000000  1
  H  H38  1  0.30970127  -0.00000000  0.00000000  1
  H  H39  1  -0.00000000  0.69029873  0.30970127  1
  H  H40  1  0.00000000  0.30970127  0.69029873  1
  H  H41  1  0.09256568  0.56336778  0.56336778  1
  H  H42  1  0.90743432  0.43663222  0.43663222  1
  H  H43  1  0.78069876  0.56336778  0.56336778  1
  H  H44  1  0.56336778  0.78069876  0.09256568  1
  H  H45  1  0.56336778  0.56336778  0.09256568  1
  H  H46  1  0.21930124  0.43663222  0.43663222  1
  H  H47  1  0.43663222  0.21930124  0.90743432  1
  H  H48  1  0.43663222  0.43663222  0.90743432  1
  H  H49  1  0.56336778  0.09256568  0.78069876  1
  H  H50  1  0.56336778  0.56336778  0.78069876  1
  H  H51  1  0.43663222  0.90743432  0.21930124  1
  H  H52  1  0.43663222  0.43663222  0.21930124  1
  H  H53  1  0.78069876  0.09256568  0.56336778  1
  H  H54  1  0.21930124  0.90743432  0.43663222  1
  H  H55  1  0.09256568  0.78069876  0.56336778  1
  H  H56  1  0.90743432  0.21930124  0.43663222  1
  H  H57  1  0.56336778  0.09256568  0.56336778  1
  H  H58  1  0.21930124  0.43663222  0.90743432  1
  H  H59  1  0.43663222  0.90743432  0.43663222  1
  H  H60  1  0.78069876  0.56336778  0.09256568  1
  H  H61  1  0.09256568  0.56336778  0.78069876  1
  H  H62  1  0.90743432  0.43663222  0.21930124  1
  H  H63  1  0.43663222  0.21930124  0.43663222  1
  H  H64  1  0.56336778  0.78069876  0.56336778  1
  H  H65  1  0.56161928  0.56161928  0.56161928  1
  H  H66  1  0.43838072  0.43838072  0.43838072  1
  H  H67  1  0.31514217  0.56161928  0.56161928  1
  H  H68  1  0.56161928  0.31514217  0.56161928  1
  H  H69  1  0.68485783  0.43838072  0.43838072  1
  H  H70  1  0.43838072  0.68485783  0.43838072  1
  H  H71  1  0.56161928  0.56161928  0.31514217  1
  H  H72  1  0.43838072  0.43838072  0.68485783  1
