# generated using pymatgen
data_VH3CO5
_symmetry_space_group_name_H-M   'P 1'
_cell_length_a   5.23234815
_cell_length_b   5.91558561
_cell_length_c   7.25079732
_cell_angle_alpha   77.76063402
_cell_angle_beta   70.14448384
_cell_angle_gamma   74.38055922
_symmetry_Int_Tables_number   1
_chemical_formula_structural   VH3CO5
_chemical_formula_sum   'V2 H6 C2 O10'
_cell_volume   201.48429334
_cell_formula_units_Z   2
loop_
 _symmetry_equiv_pos_site_id
 _symmetry_equiv_pos_as_xyz
  1  'x, y, z'
loop_
 _atom_site_type_symbol
 _atom_site_label
 _atom_site_symmetry_multiplicity
 _atom_site_fract_x
 _atom_site_fract_y
 _atom_site_fract_z
 _atom_site_occupancy
  V  V0  1  0.06060789  0.19614788  0.81633769  1
  V  V1  1  0.93939211  0.80385212  0.18366231  1
  H  H2  1  0.22177176  0.11342950  0.14005586  1
  H  H3  1  0.77822824  0.88657050  0.85994414  1
  H  H4  1  0.54028878  0.56907698  0.21783161  1
  H  H5  1  0.45971122  0.43092302  0.78216839  1
  H  H6  1  0.83697628  0.38477295  0.20500045  1
  H  H7  1  0.16302372  0.61522705  0.79499955  1
  C  C8  1  0.40307878  0.05308117  0.43587588  1
  C  C9  1  0.59692122  0.94691883  0.56412412  1
  O  O10  1  0.24530498  0.62621086  0.16983710  1
  O  O11  1  0.75469502  0.37378914  0.83016290  1
  O  O12  1  0.05115359  0.12605246  0.10393053  1
  O  O13  1  0.94884641  0.87394754  0.89606947  1
  O  O14  1  0.16291526  0.16562923  0.51866452  1
  O  O15  1  0.83708474  0.83437077  0.48133548  1
  O  O16  1  0.50199579  0.01820957  0.25551155  1
  O  O17  1  0.49800421  0.98179043  0.74448845  1
  O  O18  1  0.71973351  0.53747702  0.25165973  1
  O  O19  1  0.28026649  0.46252298  0.74834027  1
