# generated using pymatgen
data_U3Ga2Si3
_symmetry_space_group_name_H-M   'P 1'
_cell_length_a   7.59747583
_cell_length_b   7.59747583
_cell_length_c   7.64890928
_cell_angle_alpha   119.77781058
_cell_angle_beta   119.77781058
_cell_angle_gamma   90.00000000
_symmetry_Int_Tables_number   1
_chemical_formula_structural   U3Ga2Si3
_chemical_formula_sum   'U6 Ga4 Si6'
_cell_volume   314.27825689
_cell_formula_units_Z   2
loop_
 _symmetry_equiv_pos_site_id
 _symmetry_equiv_pos_as_xyz
  1  'x, y, z'
loop_
 _atom_site_type_symbol
 _atom_site_label
 _atom_site_symmetry_multiplicity
 _atom_site_fract_x
 _atom_site_fract_y
 _atom_site_fract_z
 _atom_site_occupancy
  U  U0  1  0.17698871  0.36567664  0.04270004  1
  U  U1  1  0.86571133  0.67702340  0.04270004  1
  U  U2  1  0.67702340  0.17698871  0.04270004  1
  U  U3  1  0.36567664  0.86571133  0.04270004  1
  U  U4  1  0.74831164  0.74831164  0.49662328  1
  U  U5  1  0.24825278  0.24825278  0.49650557  1
  Ga  Ga6  1  0.47221125  0.68780167  0.65996317  1
  Ga  Ga7  1  0.18775192  0.97216150  0.65996317  1
  Ga  Ga8  1  0.97216150  0.47221125  0.65996317  1
  Ga  Ga9  1  0.68780167  0.18775192  0.65996317  1
  Si  Si10  1  0.55894127  0.35116507  0.41008914  1
  Si  Si11  1  0.85114787  0.05892406  0.41008914  1
  Si  Si12  1  0.05892406  0.55894127  0.41008914  1
  Si  Si13  1  0.35116507  0.85114787  0.41008914  1
  Si  Si14  1  0.99844674  0.99844674  0.99689347  1
  Si  Si15  1  0.49838413  0.49838413  0.99676826  1
