# generated using pymatgen
data_SrCa3Lu9O18
_symmetry_space_group_name_H-M   'P 1'
_cell_length_a   3.32354913
_cell_length_b   17.32835109
_cell_length_c   17.32835110
_cell_angle_alpha   119.99999796
_cell_angle_beta   90.00000000
_cell_angle_gamma   90.00000000
_symmetry_Int_Tables_number   1
_chemical_formula_structural   SrCa3Lu9O18
_chemical_formula_sum   'Sr2 Ca6 Lu18 O36'
_cell_volume   864.26558786
_cell_formula_units_Z   2
loop_
 _symmetry_equiv_pos_site_id
 _symmetry_equiv_pos_as_xyz
  1  'x, y, z'
loop_
 _atom_site_type_symbol
 _atom_site_label
 _atom_site_symmetry_multiplicity
 _atom_site_fract_x
 _atom_site_fract_y
 _atom_site_fract_z
 _atom_site_occupancy
  Sr  Sr0  1  0.03051268  0.66666700  0.33333300  1
  Sr  Sr1  1  0.53051268  0.33333300  0.66666700  1
  Ca  Ca2  1  0.74920737  0.00214427  0.32926328  1
  Ca  Ca3  1  0.74920737  0.32711901  0.99785573  1
  Ca  Ca4  1  0.24920737  0.99785573  0.67073672  1
  Ca  Ca5  1  0.74920737  0.67073672  0.67288099  1
  Ca  Ca6  1  0.24920737  0.67288099  0.00214427  1
  Ca  Ca7  1  0.24920737  0.32926328  0.32711901  1
  Lu  Lu8  1  0.74266619  0.78380710  0.21901600  1
  Lu  Lu9  1  0.74266619  0.43520890  0.21619290  1
  Lu  Lu10  1  0.24266619  0.21619290  0.78098400  1
  Lu  Lu11  1  0.74266619  0.78098400  0.56479110  1
  Lu  Lu12  1  0.24266619  0.56479110  0.78380710  1
  Lu  Lu13  1  0.24266619  0.21901600  0.43520890  1
  Lu  Lu14  1  0.74884387  0.77059798  0.88689036  1
  Lu  Lu15  1  0.74884387  0.11629238  0.22940202  1
  Lu  Lu16  1  0.24884387  0.22940202  0.11310964  1
  Lu  Lu17  1  0.74884387  0.11310964  0.88370762  1
  Lu  Lu18  1  0.24884387  0.88370762  0.77059798  1
  Lu  Lu19  1  0.24884387  0.88689036  0.11629238  1
  Lu  Lu20  1  0.75610121  0.44997160  0.55218780  1
  Lu  Lu21  1  0.75610121  0.10221620  0.55002840  1
  Lu  Lu22  1  0.25610121  0.55002840  0.44781220  1
  Lu  Lu23  1  0.75610121  0.44781220  0.89778380  1
  Lu  Lu24  1  0.25610121  0.89778380  0.44997160  1
  Lu  Lu25  1  0.25610121  0.55218780  0.10221620  1
  O  O26  1  0.74271394  0.49832451  0.69428887  1
  O  O27  1  0.74271394  0.19596436  0.50167549  1
  O  O28  1  0.24271394  0.50167549  0.30571113  1
  O  O29  1  0.74271394  0.30571113  0.80403564  1
  O  O30  1  0.24271394  0.80403564  0.49832451  1
  O  O31  1  0.24271394  0.69428887  0.19596436  1
  O  O32  1  0.74829346  0.78079151  0.09110102  1
  O  O33  1  0.74829346  0.31030951  0.21920849  1
  O  O34  1  0.24829346  0.21920849  0.90889898  1
  O  O35  1  0.74829346  0.90889898  0.68969049  1
  O  O36  1  0.24829346  0.68969049  0.78079151  1
  O  O37  1  0.24829346  0.09110102  0.31030951  1
  O  O38  1  0.75190789  0.97400597  0.55157169  1
  O  O39  1  0.75190789  0.57756572  0.02599403  1
  O  O40  1  0.25190789  0.02599403  0.44842831  1
  O  O41  1  0.75190789  0.44842831  0.42243428  1
  O  O42  1  0.25190789  0.42243428  0.97400597  1
  O  O43  1  0.25190789  0.55157169  0.57756572  1
  O  O44  1  0.74723410  0.63780170  0.88578432  1
  O  O45  1  0.74723410  0.24798262  0.36219830  1
  O  O46  1  0.24723410  0.36219830  0.11421568  1
  O  O47  1  0.74723410  0.11421568  0.75201738  1
  O  O48  1  0.24723410  0.75201738  0.63780170  1
  O  O49  1  0.24723410  0.88578432  0.24798262  1
  O  O50  1  0.74893954  0.97426663  0.15446422  1
  O  O51  1  0.74893954  0.18019759  0.02573337  1
  O  O52  1  0.24893954  0.02573337  0.84553578  1
  O  O53  1  0.74893954  0.84553578  0.81980241  1
  O  O54  1  0.24893954  0.81980241  0.97426663  1
  O  O55  1  0.24893954  0.15446422  0.18019759  1
  O  O56  1  0.75392153  0.82100347  0.36108089  1
  O  O57  1  0.75392153  0.54007742  0.17899653  1
  O  O58  1  0.25392153  0.17899653  0.63891911  1
  O  O59  1  0.75392153  0.63891911  0.45992258  1
  O  O60  1  0.25392153  0.45992258  0.82100347  1
  O  O61  1  0.25392153  0.36108089  0.54007742  1
