# generated using pymatgen
data_Np(MoO4)2
_symmetry_space_group_name_H-M   'P 1'
_cell_length_a   9.69393003
_cell_length_b   10.30994984
_cell_length_c   14.47792739
_cell_angle_alpha   90.00000000
_cell_angle_beta   90.00000000
_cell_angle_gamma   90.00000000
_symmetry_Int_Tables_number   1
_chemical_formula_structural   Np(MoO4)2
_chemical_formula_sum   'Np8 Mo16 O64'
_cell_volume   1446.98099580
_cell_formula_units_Z   8
loop_
 _symmetry_equiv_pos_site_id
 _symmetry_equiv_pos_as_xyz
  1  'x, y, z'
loop_
 _atom_site_type_symbol
 _atom_site_label
 _atom_site_symmetry_multiplicity
 _atom_site_fract_x
 _atom_site_fract_y
 _atom_site_fract_z
 _atom_site_occupancy
  Np  Np0  1  0.72285573  0.53382515  0.88960865  1
  Np  Np1  1  0.27714427  0.46617485  0.11039135  1
  Np  Np2  1  0.77714427  0.03382515  0.11039135  1
  Np  Np3  1  0.27714427  0.96617485  0.38960865  1
  Np  Np4  1  0.22285573  0.96617485  0.88960865  1
  Np  Np5  1  0.72285573  0.03382515  0.61039135  1
  Np  Np6  1  0.22285573  0.46617485  0.61039135  1
  Np  Np7  1  0.77714427  0.53382515  0.38960865  1
  Mo  Mo8  1  0.99872940  0.77583973  0.55942330  1
  Mo  Mo9  1  0.00127060  0.22416027  0.44057670  1
  Mo  Mo10  1  0.50127060  0.27583973  0.44057670  1
  Mo  Mo11  1  0.00127060  0.72416027  0.05942330  1
  Mo  Mo12  1  0.49872940  0.72416027  0.55942330  1
  Mo  Mo13  1  0.99872940  0.27583973  0.94057670  1
  Mo  Mo14  1  0.49872940  0.22416027  0.94057670  1
  Mo  Mo15  1  0.50127060  0.77583973  0.05942330  1
  Mo  Mo16  1  0.81863105  0.89508206  0.84821485  1
  Mo  Mo17  1  0.18136895  0.10491794  0.15178515  1
  Mo  Mo18  1  0.68136895  0.39508206  0.15178515  1
  Mo  Mo19  1  0.18136895  0.60491794  0.34821485  1
  Mo  Mo20  1  0.31863105  0.60491794  0.84821485  1
  Mo  Mo21  1  0.81863105  0.39508206  0.65178515  1
  Mo  Mo22  1  0.31863105  0.10491794  0.65178515  1
  Mo  Mo23  1  0.68136895  0.89508206  0.34821485  1
  O  O24  1  0.61243331  0.82683479  0.62468456  1
  O  O25  1  0.38756669  0.17316521  0.37531544  1
  O  O26  1  0.88756669  0.32683479  0.37531544  1
  O  O27  1  0.38756669  0.67316521  0.12468456  1
  O  O28  1  0.11243331  0.67316521  0.62468456  1
  O  O29  1  0.61243331  0.32683479  0.87531544  1
  O  O30  1  0.11243331  0.17316521  0.87531544  1
  O  O31  1  0.88756669  0.82683479  0.12468456  1
  O  O32  1  0.76237872  0.92934805  0.96323308  1
  O  O33  1  0.23762128  0.07065195  0.03676692  1
  O  O34  1  0.73762128  0.42934805  0.03676692  1
  O  O35  1  0.23762128  0.57065195  0.46323308  1
  O  O36  1  0.26237872  0.57065195  0.96323308  1
  O  O37  1  0.76237872  0.42934805  0.53676692  1
  O  O38  1  0.26237872  0.07065195  0.53676692  1
  O  O39  1  0.73762128  0.92934805  0.46323308  1
  O  O40  1  0.88052788  0.66861534  0.50269000  1
  O  O41  1  0.11947212  0.33138466  0.49731000  1
  O  O42  1  0.61947212  0.16861534  0.49731000  1
  O  O43  1  0.11947212  0.83138466  0.00269000  1
  O  O44  1  0.38052788  0.83138466  0.50269000  1
  O  O45  1  0.88052788  0.16861534  0.99731000  1
  O  O46  1  0.38052788  0.33138466  0.99731000  1
  O  O47  1  0.61947212  0.66861534  0.00269000  1
  O  O48  1  0.77041691  0.73076824  0.82245686  1
  O  O49  1  0.22958309  0.26923176  0.17754314  1
  O  O50  1  0.72958309  0.23076824  0.17754314  1
  O  O51  1  0.22958309  0.76923176  0.32245686  1
  O  O52  1  0.27041691  0.76923176  0.82245686  1
  O  O53  1  0.77041691  0.23076824  0.67754314  1
  O  O54  1  0.27041691  0.26923176  0.67754314  1
  O  O55  1  0.72958309  0.73076824  0.32245686  1
  O  O56  1  0.90563976  0.89181336  0.63128374  1
  O  O57  1  0.09436024  0.10818664  0.36871626  1
  O  O58  1  0.59436024  0.39181336  0.36871626  1
  O  O59  1  0.09436024  0.60818664  0.13128374  1
  O  O60  1  0.40563976  0.60818664  0.63128374  1
  O  O61  1  0.90563976  0.39181336  0.86871626  1
  O  O62  1  0.40563976  0.10818664  0.86871626  1
  O  O63  1  0.59436024  0.89181336  0.13128374  1
  O  O64  1  0.73535840  0.50243768  0.73196248  1
  O  O65  1  0.26464160  0.49756232  0.26803752  1
  O  O66  1  0.76464160  0.00243768  0.26803752  1
  O  O67  1  0.26464160  0.99756232  0.23196248  1
  O  O68  1  0.23535840  0.99756232  0.73196248  1
  O  O69  1  0.73535840  0.00243768  0.76803752  1
  O  O70  1  0.23535840  0.49756232  0.76803752  1
  O  O71  1  0.76464160  0.50243768  0.23196248  1
  O  O72  1  0.90641952  0.63772748  0.97322034  1
  O  O73  1  0.09358048  0.36227252  0.02677966  1
  O  O74  1  0.59358048  0.13772748  0.02677966  1
  O  O75  1  0.09358048  0.86227252  0.47322034  1
  O  O76  1  0.40641952  0.86227252  0.97322034  1
  O  O77  1  0.90641952  0.13772748  0.52677966  1
  O  O78  1  0.40641952  0.36227252  0.52677966  1
  O  O79  1  0.59358048  0.63772748  0.47322034  1
  O  O80  1  0.00192302  0.91797318  0.84408192  1
  O  O81  1  0.99807698  0.08202682  0.15591808  1
  O  O82  1  0.49807698  0.41797318  0.15591808  1
  O  O83  1  0.99807698  0.58202682  0.34408192  1
  O  O84  1  0.50192302  0.58202682  0.84408192  1
  O  O85  1  0.00192302  0.41797318  0.65591808  1
  O  O86  1  0.50192302  0.08202682  0.65591808  1
  O  O87  1  0.49807698  0.91797318  0.34408192  1
