# generated using pymatgen
data_Na3TbV2O8
_symmetry_space_group_name_H-M   'P 1'
_cell_length_a   5.92088880
_cell_length_b   5.92088880
_cell_length_c   7.17047242
_cell_angle_alpha   90.00000000
_cell_angle_beta   90.00000000
_cell_angle_gamma   120.00000630
_symmetry_Int_Tables_number   1
_chemical_formula_structural   Na3TbV2O8
_chemical_formula_sum   'Na3 Tb1 V2 O8'
_cell_volume   217.69686944
_cell_formula_units_Z   1
loop_
 _symmetry_equiv_pos_site_id
 _symmetry_equiv_pos_as_xyz
  1  'x, y, z'
loop_
 _atom_site_type_symbol
 _atom_site_label
 _atom_site_symmetry_multiplicity
 _atom_site_fract_x
 _atom_site_fract_y
 _atom_site_fract_z
 _atom_site_occupancy
  Na  Na0  1  0.66666700  0.33333300  0.31950465  1
  Na  Na1  1  0.33333300  0.66666700  0.68049535  1
  Na  Na2  1  -0.00000000  -0.00000000  0.00000000  1
  Tb  Tb3  1  -0.00000000  -0.00000000  0.50000000  1
  V  V4  1  0.66666700  0.33333300  0.78099056  1
  V  V5  1  0.33333300  0.66666700  0.21900944  1
  O  O6  1  0.66666700  0.33333300  0.01495504  1
  O  O7  1  0.33333300  0.66666700  0.98504496  1
  O  O8  1  0.82665619  0.65331238  0.69173163  1
  O  O9  1  0.17334381  0.34668762  0.30826837  1
  O  O10  1  0.82665619  0.17334381  0.69173163  1
  O  O11  1  0.17334381  0.82665619  0.30826837  1
  O  O12  1  0.34668762  0.17334381  0.69173163  1
  O  O13  1  0.65331238  0.82665619  0.30826837  1
