# generated using pymatgen
data_MnH3C2N9O
_symmetry_space_group_name_H-M   'P 1'
_cell_length_a   6.76049796
_cell_length_b   9.66724134
_cell_length_c   10.62107063
_cell_angle_alpha   90.00000000
_cell_angle_beta   93.23810885
_cell_angle_gamma   90.00000000
_symmetry_Int_Tables_number   1
_chemical_formula_structural   MnH3C2N9O
_chemical_formula_sum   'Mn4 H12 C8 N36 O4'
_cell_volume   693.03569143
_cell_formula_units_Z   4
loop_
 _symmetry_equiv_pos_site_id
 _symmetry_equiv_pos_as_xyz
  1  'x, y, z'
loop_
 _atom_site_type_symbol
 _atom_site_label
 _atom_site_symmetry_multiplicity
 _atom_site_fract_x
 _atom_site_fract_y
 _atom_site_fract_z
 _atom_site_occupancy
  Mn  Mn0  1  0.96848095  0.66393329  0.13616426  1
  Mn  Mn1  1  0.03151905  0.33606671  0.86383574  1
  Mn  Mn2  1  0.53151905  0.16393329  0.36383574  1
  Mn  Mn3  1  0.46848095  0.83606671  0.63616426  1
  H  H4  1  0.25868670  0.47984462  0.62543039  1
  H  H5  1  0.74131330  0.52015538  0.37456961  1
  H  H6  1  0.24131330  0.97984462  0.87456961  1
  H  H7  1  0.75868670  0.02015538  0.12543039  1
  H  H8  1  0.17636424  0.87673176  0.44217889  1
  H  H9  1  0.82363576  0.12326824  0.55782111  1
  H  H10  1  0.32363576  0.37673176  0.05782111  1
  H  H11  1  0.67636424  0.62326824  0.94217889  1
  H  H12  1  0.17033028  0.71873635  0.47139002  1
  H  H13  1  0.82966972  0.28126365  0.52860998  1
  H  H14  1  0.32966972  0.21873635  0.02860998  1
  H  H15  1  0.67033028  0.78126365  0.97139002  1
  C  C16  1  0.70485607  0.72919441  0.39451780  1
  C  C17  1  0.29514393  0.27080559  0.60548220  1
  C  C18  1  0.79514393  0.22919441  0.10548220  1
  C  C19  1  0.20485607  0.77080559  0.89451780  1
  C  C20  1  0.27893469  0.43780656  0.43500416  1
  C  C21  1  0.72106531  0.56219344  0.56499584  1
  C  C22  1  0.22106531  0.93780656  0.06499584  1
  C  C23  1  0.77893469  0.06219344  0.93500416  1
  N  N24  1  0.14575400  0.86296374  0.15798086  1
  N  N25  1  0.85424600  0.13703626  0.84201914  1
  N  N26  1  0.35424600  0.36296374  0.34201914  1
  N  N27  1  0.64575400  0.63703626  0.65798086  1
  N  N28  1  0.77352053  0.76422472  0.28194799  1
  N  N29  1  0.22647947  0.23577528  0.71805201  1
  N  N30  1  0.72647947  0.26422472  0.21805201  1
  N  N31  1  0.27352053  0.73577528  0.78194799  1
  N  N32  1  0.19380423  0.93462123  0.26472572  1
  N  N33  1  0.80619577  0.06537877  0.73527428  1
  N  N34  1  0.30619577  0.43462123  0.23527428  1
  N  N35  1  0.69380423  0.56537877  0.76472572  1
  N  N36  1  0.21043810  0.54679395  0.26448457  1
  N  N37  1  0.78956190  0.45320605  0.73551543  1
  N  N38  1  0.28956190  0.04679395  0.23551543  1
  N  N39  1  0.71043810  0.95320605  0.76448457  1
  N  N40  1  0.87359745  0.33902679  0.04886567  1
  N  N41  1  0.12640255  0.66097321  0.95113433  1
  N  N42  1  0.62640255  0.83902679  0.45113433  1
  N  N43  1  0.37359745  0.16097321  0.54886567  1
  N  N44  1  0.29033016  0.40389528  0.56081765  1
  N  N45  1  0.70966984  0.59610472  0.43918235  1
  N  N46  1  0.20966984  0.90389528  0.93918235  1
  N  N47  1  0.79033016  0.09610472  0.06081765  1
  N  N48  1  0.72880914  0.89955353  0.26802666  1
  N  N49  1  0.27119086  0.10044647  0.73197334  1
  N  N50  1  0.77119086  0.39955353  0.23197334  1
  N  N51  1  0.22880914  0.60044647  0.76802666  1
  N  N52  1  0.85549521  0.44353661  0.13217435  1
  N  N53  1  0.14450479  0.55646339  0.86782565  1
  N  N54  1  0.64450479  0.94353661  0.36782565  1
  N  N55  1  0.35549521  0.05646339  0.63217435  1
  N  N56  1  0.18935411  0.55325861  0.39004484  1
  N  N57  1  0.81064589  0.44674139  0.60995516  1
  N  N58  1  0.31064589  0.05325861  0.10995516  1
  N  N59  1  0.68935411  0.94674139  0.89004484  1
  O  O60  1  0.68960321  0.68923831  0.01362480  1
  O  O61  1  0.31039679  0.31076169  0.98637520  1
  O  O62  1  0.81039679  0.18923831  0.48637520  1
  O  O63  1  0.18960321  0.81076169  0.51362480  1
