# generated using pymatgen
data_Rb3SbF6
_symmetry_space_group_name_H-M   'P 1'
_cell_length_a   8.83945317
_cell_length_b   7.26192314
_cell_length_c   7.27745867
_cell_angle_alpha   76.47107930
_cell_angle_beta   112.63265404
_cell_angle_gamma   127.71556200
_symmetry_Int_Tables_number   1
_chemical_formula_structural   Rb3SbF6
_chemical_formula_sum   'Rb3 Sb1 F6'
_cell_volume   341.08404117
_cell_formula_units_Z   1
loop_
 _symmetry_equiv_pos_site_id
 _symmetry_equiv_pos_as_xyz
  1  'x, y, z'
loop_
 _atom_site_type_symbol
 _atom_site_label
 _atom_site_symmetry_multiplicity
 _atom_site_fract_x
 _atom_site_fract_y
 _atom_site_fract_z
 _atom_site_occupancy
  Rb  Rb0  1  -0.00000000  0.00000000  0.50000000  1
  Rb  Rb1  1  0.50000000  0.50000000  0.00000000  1
  Rb  Rb2  1  -0.00000000  0.50000000  0.00000000  1
  Sb  Sb3  1  -0.00000000  0.00000000  0.00000000  1
  F  F4  1  0.04905671  0.27711579  0.77283991  1
  F  F5  1  0.95094329  0.72288421  0.22716009  1
  F  F6  1  0.77860214  0.70929945  0.78175299  1
  F  F7  1  0.22139786  0.29070055  0.21824701  1
  F  F8  1  0.77250911  0.99129008  0.06749687  1
  F  F9  1  0.22749089  0.00870992  0.93250313  1
