# generated using pymatgen
data_Nd2NiRuO6
_symmetry_space_group_name_H-M   'P 1'
_cell_length_a   5.44787012
_cell_length_b   5.77317369
_cell_length_c   7.83840867
_cell_angle_alpha   90.00000000
_cell_angle_beta   90.23609598
_cell_angle_gamma   90.00000000
_symmetry_Int_Tables_number   1
_chemical_formula_structural   Nd2NiRuO6
_chemical_formula_sum   'Nd4 Ni2 Ru2 O12'
_cell_volume   246.52762079
_cell_formula_units_Z   2
loop_
 _symmetry_equiv_pos_site_id
 _symmetry_equiv_pos_as_xyz
  1  'x, y, z'
loop_
 _atom_site_type_symbol
 _atom_site_label
 _atom_site_symmetry_multiplicity
 _atom_site_fract_x
 _atom_site_fract_y
 _atom_site_fract_z
 _atom_site_occupancy
  Nd  Nd0  1  0.01744421  0.43283915  0.25001380  1
  Nd  Nd1  1  0.98255579  0.56716085  0.74998620  1
  Nd  Nd2  1  0.48255579  0.93283915  0.24998620  1
  Nd  Nd3  1  0.51744421  0.06716085  0.75001380  1
  Ni  Ni4  1  0.00000000  -0.00000000  0.50000000  1
  Ni  Ni5  1  0.50000000  0.50000000  -0.00000000  1
  Ru  Ru6  1  -0.00000000  -0.00000000  0.00000000  1
  Ru  Ru7  1  0.50000000  0.50000000  0.50000000  1
  O  O8  1  0.89991675  0.03072138  0.24826145  1
  O  O9  1  0.10008325  0.96927862  0.75173855  1
  O  O10  1  0.60008325  0.53072138  0.25173855  1
  O  O11  1  0.39991675  0.46927862  0.74826145  1
  O  O12  1  0.19284287  0.70510293  0.05501316  1
  O  O13  1  0.80715713  0.29489707  0.94498684  1
  O  O14  1  0.30715713  0.20510293  0.44498684  1
  O  O15  1  0.69284287  0.79489707  0.55501316  1
  O  O16  1  0.29978704  0.19415744  0.04862889  1
  O  O17  1  0.70021296  0.80584256  0.95137111  1
  O  O18  1  0.20021296  0.69415744  0.45137111  1
  O  O19  1  0.79978704  0.30584256  0.54862889  1
