# generated using pymatgen
data_Nb3Co5B2
_symmetry_space_group_name_H-M   'P 1'
_cell_length_a   3.24184807
_cell_length_b   8.44826227
_cell_length_c   8.44826227
_cell_angle_alpha   90.00000000
_cell_angle_beta   90.00000000
_cell_angle_gamma   90.00000000
_symmetry_Int_Tables_number   1
_chemical_formula_structural   Nb3Co5B2
_chemical_formula_sum   'Nb6 Co10 B4'
_cell_volume   231.38086119
_cell_formula_units_Z   2
loop_
 _symmetry_equiv_pos_site_id
 _symmetry_equiv_pos_as_xyz
  1  'x, y, z'
loop_
 _atom_site_type_symbol
 _atom_site_label
 _atom_site_symmetry_multiplicity
 _atom_site_fract_x
 _atom_site_fract_y
 _atom_site_fract_z
 _atom_site_occupancy
  Nb  Nb0  1  0.00000000  0.17502924  0.67502924  1
  Nb  Nb1  1  -0.00000000  0.82497076  0.32497076  1
  Nb  Nb2  1  -0.00000000  0.32497076  0.17502924  1
  Nb  Nb3  1  0.00000000  0.67502924  0.82497076  1
  Nb  Nb4  1  0.00000000  0.00000000  0.00000000  1
  Nb  Nb5  1  0.00000000  0.50000000  0.50000000  1
  Co  Co6  1  0.50000000  0.00000000  0.50000000  1
  Co  Co7  1  0.50000000  0.50000000  0.00000000  1
  Co  Co8  1  0.50000000  0.06956644  0.22081432  1
  Co  Co9  1  0.50000000  0.93043356  0.77918568  1
  Co  Co10  1  0.50000000  0.77918568  0.06956644  1
  Co  Co11  1  0.50000000  0.43043356  0.72081432  1
  Co  Co12  1  0.50000000  0.22081432  0.93043356  1
  Co  Co13  1  0.50000000  0.56956644  0.27918568  1
  Co  Co14  1  0.50000000  0.72081432  0.56956644  1
  Co  Co15  1  0.50000000  0.27918568  0.43043356  1
  B  B16  1  -0.00000000  0.61790548  0.11790548  1
  B  B17  1  0.00000000  0.38209452  0.88209452  1
  B  B18  1  0.00000000  0.88209452  0.61790548  1
  B  B19  1  -0.00000000  0.11790548  0.38209452  1
