# generated using pymatgen
data_Na5S3ClO12
_symmetry_space_group_name_H-M   'P 1'
_cell_length_a   6.78790325
_cell_length_b   9.90550074
_cell_length_c   9.90550074
_cell_angle_alpha   120.00000392
_cell_angle_beta   90.00000000
_cell_angle_gamma   90.00000000
_symmetry_Int_Tables_number   1
_chemical_formula_structural   Na5S3ClO12
_chemical_formula_sum   'Na10 S6 Cl2 O24'
_cell_volume   576.79186611
_cell_formula_units_Z   2
loop_
 _symmetry_equiv_pos_site_id
 _symmetry_equiv_pos_as_xyz
  1  'x, y, z'
loop_
 _atom_site_type_symbol
 _atom_site_label
 _atom_site_symmetry_multiplicity
 _atom_site_fract_x
 _atom_site_fract_y
 _atom_site_fract_z
 _atom_site_occupancy
  Na  Na0  1  0.01050766  0.66666700  0.33333300  1
  Na  Na1  1  0.98949234  0.33333300  0.66666700  1
  Na  Na2  1  0.51050766  0.33333300  0.66666700  1
  Na  Na3  1  0.48949234  0.66666700  0.33333300  1
  Na  Na4  1  0.75000000  0.74477444  0.00277638  1
  Na  Na5  1  0.25000000  0.25522556  0.99722362  1
  Na  Na6  1  0.75000000  0.25800194  0.25522556  1
  Na  Na7  1  0.25000000  0.74199806  0.74477444  1
  Na  Na8  1  0.75000000  0.99722362  0.74199806  1
  Na  Na9  1  0.25000000  0.00277638  0.25800194  1
  S  S10  1  0.75000000  0.96899401  0.37955071  1
  S  S11  1  0.25000000  0.03100599  0.62044929  1
  S  S12  1  0.75000000  0.41055670  0.03100599  1
  S  S13  1  0.25000000  0.58944330  0.96899401  1
  S  S14  1  0.75000000  0.62044929  0.58944330  1
  S  S15  1  0.25000000  0.37955071  0.41055670  1
  Cl  Cl16  1  0.00000000  0.00000000  0.00000000  1
  Cl  Cl17  1  0.50000000  0.00000000  0.00000000  1
  O  O18  1  0.75000000  0.87759644  0.46258066  1
  O  O19  1  0.25000000  0.12240356  0.53741934  1
  O  O20  1  0.75000000  0.58498422  0.12240356  1
  O  O21  1  0.25000000  0.41501578  0.87759644  1
  O  O22  1  0.75000000  0.53741934  0.41501578  1
  O  O23  1  0.25000000  0.46258066  0.58498422  1
  O  O24  1  0.75000000  0.50773014  0.64569854  1
  O  O25  1  0.25000000  0.49226986  0.35430146  1
  O  O26  1  0.75000000  0.13796840  0.49226986  1
  O  O27  1  0.25000000  0.86203160  0.50773014  1
  O  O28  1  0.75000000  0.35430146  0.86203160  1
  O  O29  1  0.25000000  0.64569854  0.13796840  1
  O  O30  1  0.92662502  0.92038983  0.27605579  1
  O  O31  1  0.07337498  0.07961017  0.72394421  1
  O  O32  1  0.92662502  0.35566596  0.07961017  1
  O  O33  1  0.42662502  0.07961017  0.72394421  1
  O  O34  1  0.07337498  0.64433404  0.92038983  1
  O  O35  1  0.57337498  0.92038983  0.27605579  1
  O  O36  1  0.92662502  0.72394421  0.64433404  1
  O  O37  1  0.42662502  0.64433404  0.92038983  1
  O  O38  1  0.07337498  0.27605579  0.35566596  1
  O  O39  1  0.57337498  0.35566596  0.07961017  1
  O  O40  1  0.42662502  0.27605579  0.35566596  1
  O  O41  1  0.57337498  0.72394421  0.64433404  1
