# generated using pymatgen
data_Rb5(Pb3Cl8)2
_symmetry_space_group_name_H-M   'P 1'
_cell_length_a   10.89917860
_cell_length_b   12.15636698
_cell_length_c   12.15636698
_cell_angle_alpha   90.00000000
_cell_angle_beta   90.00000000
_cell_angle_gamma   90.00000000
_symmetry_Int_Tables_number   1
_chemical_formula_structural   Rb5(Pb3Cl8)2
_chemical_formula_sum   'Rb10 Pb12 Cl32'
_cell_volume   1610.65072962
_cell_formula_units_Z   2
loop_
 _symmetry_equiv_pos_site_id
 _symmetry_equiv_pos_as_xyz
  1  'x, y, z'
loop_
 _atom_site_type_symbol
 _atom_site_label
 _atom_site_symmetry_multiplicity
 _atom_site_fract_x
 _atom_site_fract_y
 _atom_site_fract_z
 _atom_site_occupancy
  Rb  Rb0  1  0.50000000  0.63528914  0.13528914  1
  Rb  Rb1  1  0.50000000  0.36471086  0.86471086  1
  Rb  Rb2  1  0.50000000  0.86471086  0.63528914  1
  Rb  Rb3  1  0.50000000  0.13528914  0.36471086  1
  Rb  Rb4  1  -0.00000000  0.61964246  0.11964246  1
  Rb  Rb5  1  -0.00000000  0.38035754  0.88035754  1
  Rb  Rb6  1  -0.00000000  0.88035754  0.61964246  1
  Rb  Rb7  1  -0.00000000  0.11964246  0.38035754  1
  Rb  Rb8  1  -0.00000000  0.00000000  -0.00000000  1
  Rb  Rb9  1  -0.00000000  0.50000000  0.50000000  1
  Pb  Pb10  1  0.34954863  0.00000000  -0.00000000  1
  Pb  Pb11  1  0.65045137  0.00000000  -0.00000000  1
  Pb  Pb12  1  0.65045137  0.50000000  0.50000000  1
  Pb  Pb13  1  0.34954863  0.50000000  0.50000000  1
  Pb  Pb14  1  0.26601577  0.17814254  0.67814254  1
  Pb  Pb15  1  0.73398423  0.82185746  0.32185746  1
  Pb  Pb16  1  0.26601577  0.82185746  0.32185746  1
  Pb  Pb17  1  0.26601577  0.32185746  0.17814254  1
  Pb  Pb18  1  0.73398423  0.32185746  0.17814254  1
  Pb  Pb19  1  0.73398423  0.17814254  0.67814254  1
  Pb  Pb20  1  0.73398423  0.67814254  0.82185746  1
  Pb  Pb21  1  0.26601577  0.67814254  0.82185746  1
  Cl  Cl22  1  0.22063762  0.08504691  0.20052144  1
  Cl  Cl23  1  0.77936238  0.91495309  0.79947856  1
  Cl  Cl24  1  0.22063762  0.91495309  0.79947856  1
  Cl  Cl25  1  0.22063762  0.79947856  0.08504691  1
  Cl  Cl26  1  0.77936238  0.41495309  0.70052144  1
  Cl  Cl27  1  0.77936238  0.08504691  0.20052144  1
  Cl  Cl28  1  0.77936238  0.20052144  0.91495309  1
  Cl  Cl29  1  0.22063762  0.58504691  0.29947856  1
  Cl  Cl30  1  0.22063762  0.20052144  0.91495309  1
  Cl  Cl31  1  0.77936238  0.58504691  0.29947856  1
  Cl  Cl32  1  0.77936238  0.79947856  0.08504691  1
  Cl  Cl33  1  0.22063762  0.41495309  0.70052144  1
  Cl  Cl34  1  0.77936238  0.70052144  0.58504691  1
  Cl  Cl35  1  0.22063762  0.29947856  0.41495309  1
  Cl  Cl36  1  0.77936238  0.29947856  0.41495309  1
  Cl  Cl37  1  0.22063762  0.70052144  0.58504691  1
  Cl  Cl38  1  0.27950867  0.00000000  0.50000000  1
  Cl  Cl39  1  0.72049133  0.00000000  0.50000000  1
  Cl  Cl40  1  0.27950867  0.50000000  -0.00000000  1
  Cl  Cl41  1  0.72049133  0.50000000  -0.00000000  1
  Cl  Cl42  1  0.50000000  0.21347950  0.09157781  1
  Cl  Cl43  1  0.50000000  0.78652050  0.90842219  1
  Cl  Cl44  1  0.50000000  0.90842219  0.21347950  1
  Cl  Cl45  1  0.50000000  0.28652050  0.59157781  1
  Cl  Cl46  1  0.50000000  0.09157781  0.78652050  1
  Cl  Cl47  1  0.50000000  0.71347950  0.40842219  1
  Cl  Cl48  1  0.50000000  0.59157781  0.71347950  1
  Cl  Cl49  1  0.50000000  0.40842219  0.28652050  1
  Cl  Cl50  1  -0.00000000  0.15808588  0.65808588  1
  Cl  Cl51  1  -0.00000000  0.84191412  0.34191412  1
  Cl  Cl52  1  -0.00000000  0.34191412  0.15808588  1
  Cl  Cl53  1  -0.00000000  0.65808588  0.84191412  1
