# generated using pymatgen
data_Mn10Al29
_symmetry_space_group_name_H-M   'P 1'
_cell_length_a   12.38776282
_cell_length_b   12.56997286
_cell_length_c   14.72217922
_cell_angle_alpha   90.00000000
_cell_angle_beta   90.00000000
_cell_angle_gamma   90.00000000
_symmetry_Int_Tables_number   1
_chemical_formula_structural   Mn10Al29
_chemical_formula_sum   'Mn40 Al116'
_cell_volume   2292.44709549
_cell_formula_units_Z   4
loop_
 _symmetry_equiv_pos_site_id
 _symmetry_equiv_pos_as_xyz
  1  'x, y, z'
loop_
 _atom_site_type_symbol
 _atom_site_label
 _atom_site_symmetry_multiplicity
 _atom_site_fract_x
 _atom_site_fract_y
 _atom_site_fract_z
 _atom_site_occupancy
  Mn  Mn0  1  0.00112861  0.94695349  0.95013857  1
  Mn  Mn1  1  0.50112861  0.05304651  0.04986143  1
  Mn  Mn2  1  0.00112861  0.55304651  0.45013857  1
  Mn  Mn3  1  0.50112861  0.44695349  0.54986143  1
  Mn  Mn4  1  0.80834809  0.96284716  0.68267053  1
  Mn  Mn5  1  0.30834809  0.03715284  0.31732947  1
  Mn  Mn6  1  0.80834809  0.53715284  0.18267053  1
  Mn  Mn7  1  0.30834809  0.46284716  0.81732947  1
  Mn  Mn8  1  0.00394608  0.67145370  0.77017505  1
  Mn  Mn9  1  0.50394608  0.32854630  0.22982495  1
  Mn  Mn10  1  0.00394608  0.82854630  0.27017505  1
  Mn  Mn11  1  0.50394608  0.17145370  0.72982495  1
  Mn  Mn12  1  0.99858833  0.35422425  0.95846499  1
  Mn  Mn13  1  0.49858833  0.64577575  0.04153501  1
  Mn  Mn14  1  0.99858833  0.14577575  0.45846499  1
  Mn  Mn15  1  0.49858833  0.85422425  0.54153501  1
  Mn  Mn16  1  0.69118006  0.46136739  0.81811398  1
  Mn  Mn17  1  0.19118006  0.53863261  0.18188602  1
  Mn  Mn18  1  0.69118006  0.03863261  0.31811398  1
  Mn  Mn19  1  0.19118006  0.96136739  0.68188602  1
  Mn  Mn20  1  0.69261362  0.84761715  0.82184831  1
  Mn  Mn21  1  0.19261362  0.15238285  0.17815169  1
  Mn  Mn22  1  0.69261362  0.65238285  0.32184831  1
  Mn  Mn23  1  0.19261362  0.34761715  0.67815169  1
  Mn  Mn24  1  0.81371675  0.65857048  0.87349759  1
  Mn  Mn25  1  0.31371675  0.34142952  0.12650241  1
  Mn  Mn26  1  0.81371675  0.84142952  0.37349759  1
  Mn  Mn27  1  0.31371675  0.15857048  0.62650241  1
  Mn  Mn28  1  0.49932916  0.52295872  0.72442205  1
  Mn  Mn29  1  0.99932916  0.47704128  0.27557795  1
  Mn  Mn30  1  0.49932916  0.97704128  0.22442205  1
  Mn  Mn31  1  0.99932916  0.02295872  0.77557795  1
  Mn  Mn32  1  0.30715184  0.84620620  0.82438946  1
  Mn  Mn33  1  0.80715184  0.15379380  0.17561054  1
  Mn  Mn34  1  0.30715184  0.65379380  0.32438946  1
  Mn  Mn35  1  0.80715184  0.34620620  0.67561054  1
  Mn  Mn36  1  0.99952492  0.84446054  0.66695286  1
  Mn  Mn37  1  0.49952492  0.15553946  0.33304714  1
  Mn  Mn38  1  0.99952492  0.65553946  0.16695286  1
  Mn  Mn39  1  0.49952492  0.34446054  0.83304714  1
  Al  Al40  1  0.62166213  0.95543236  0.95006534  1
  Al  Al41  1  0.12166213  0.04456764  0.04993466  1
  Al  Al42  1  0.62166213  0.54456764  0.45006534  1
  Al  Al43  1  0.12166213  0.45543236  0.54993466  1
  Al  Al44  1  0.18800302  0.85478080  0.98383925  1
  Al  Al45  1  0.68800302  0.14521920  0.01616075  1
  Al  Al46  1  0.18800302  0.64521920  0.48383925  1
  Al  Al47  1  0.68800302  0.35478080  0.51616075  1
  Al  Al48  1  0.85774601  0.85359451  0.54349653  1
  Al  Al49  1  0.35774601  0.14640549  0.45650347  1
  Al  Al50  1  0.85774601  0.64640549  0.04349653  1
  Al  Al51  1  0.35774601  0.35359451  0.95650347  1
  Al  Al52  1  0.81788187  0.73240348  0.69215743  1
  Al  Al53  1  0.31788187  0.26759652  0.30784257  1
  Al  Al54  1  0.81788187  0.76759652  0.19215743  1
  Al  Al55  1  0.31788187  0.23240348  0.80784257  1
  Al  Al56  1  0.63229369  0.65917365  0.77489020  1
  Al  Al57  1  0.13229369  0.34082635  0.22510980  1
  Al  Al58  1  0.63229369  0.84082635  0.27489020  1
  Al  Al59  1  0.13229369  0.15917365  0.72510980  1
  Al  Al60  1  0.99839207  0.64714740  0.60071292  1
  Al  Al61  1  0.49839207  0.35285260  0.39928708  1
  Al  Al62  1  0.99839207  0.85285260  0.10071292  1
  Al  Al63  1  0.49839207  0.14714740  0.89928708  1
  Al  Al64  1  0.99681439  0.74319154  0.93715909  1
  Al  Al65  1  0.49681439  0.25680846  0.06284091  1
  Al  Al66  1  0.99681439  0.75680846  0.43715909  1
  Al  Al67  1  0.49681439  0.24319154  0.56284091  1
  Al  Al68  1  0.66666067  0.95124464  0.51845616  1
  Al  Al69  1  0.16666067  0.04875536  0.48154384  1
  Al  Al70  1  0.66666067  0.54875536  0.01845616  1
  Al  Al71  1  0.16666067  0.45124464  0.98154384  1
  Al  Al72  1  0.37796051  0.96146313  0.94891788  1
  Al  Al73  1  0.87796051  0.03853687  0.05108212  1
  Al  Al74  1  0.37796051  0.53853687  0.44891788  1
  Al  Al75  1  0.87796051  0.46146313  0.55108212  1
  Al  Al76  1  0.87167769  0.33865277  0.83601786  1
  Al  Al77  1  0.37167769  0.66134723  0.16398214  1
  Al  Al78  1  0.87167769  0.16134723  0.33601786  1
  Al  Al79  1  0.37167769  0.83865277  0.66398214  1
  Al  Al80  1  0.62777848  0.83888447  0.66317157  1
  Al  Al81  1  0.12777848  0.16111553  0.33682843  1
  Al  Al82  1  0.62777848  0.66111553  0.16317157  1
  Al  Al83  1  0.12777848  0.33888447  0.83682843  1
  Al  Al84  1  0.68113585  0.23364319  0.80984130  1
  Al  Al85  1  0.18113585  0.76635681  0.19015870  1
  Al  Al86  1  0.68113585  0.26635681  0.30984130  1
  Al  Al87  1  0.18113585  0.73364319  0.69015870  1
  Al  Al88  1  0.37777054  0.74422777  0.95135421  1
  Al  Al89  1  0.87777054  0.25577223  0.04864579  1
  Al  Al90  1  0.37777054  0.75577223  0.45135421  1
  Al  Al91  1  0.87777054  0.24422777  0.54864579  1
  Al  Al92  1  0.62861635  0.73490639  0.94854404  1
  Al  Al93  1  0.12861635  0.26509361  0.05145596  1
  Al  Al94  1  0.62861635  0.76509361  0.44854404  1
  Al  Al95  1  0.12861635  0.23490639  0.55145596  1
  Al  Al96  1  0.50040292  0.84472719  0.81819728  1
  Al  Al97  1  0.00040292  0.15527281  0.18180272  1
  Al  Al98  1  0.50040292  0.65527281  0.31819728  1
  Al  Al99  1  0.00040292  0.34472719  0.68180272  1
  Al  Al100  1  0.37471030  0.66089284  0.77374775  1
  Al  Al101  1  0.87471030  0.33910716  0.22625225  1
  Al  Al102  1  0.37471030  0.83910716  0.27374775  1
  Al  Al103  1  0.87471030  0.16089284  0.72625225  1
  Al  Al104  1  0.50152130  0.53659207  0.89509314  1
  Al  Al105  1  0.00152130  0.46340793  0.10490686  1
  Al  Al106  1  0.50152130  0.96340793  0.39509314  1
  Al  Al107  1  0.00152130  0.03659207  0.60490686  1
  Al  Al108  1  0.83064822  0.44933768  0.98245631  1
  Al  Al109  1  0.33064822  0.55066232  0.01754369  1
  Al  Al110  1  0.83064822  0.05066232  0.48245631  1
  Al  Al111  1  0.33064822  0.94933768  0.51754369  1
  Al  Al112  1  0.68282032  0.53378678  0.63174199  1
  Al  Al113  1  0.18282032  0.46621322  0.36825801  1
  Al  Al114  1  0.68282032  0.96621322  0.13174199  1
  Al  Al115  1  0.18282032  0.03378678  0.86825801  1
  Al  Al116  1  0.86785723  0.52746554  0.73778325  1
  Al  Al117  1  0.36785723  0.47253446  0.26221675  1
  Al  Al118  1  0.86785723  0.97253446  0.23778325  1
  Al  Al119  1  0.36785723  0.02746554  0.76221675  1
  Al  Al120  1  0.50048954  0.66027255  0.59569687  1
  Al  Al121  1  0.00048954  0.33972745  0.40430313  1
  Al  Al122  1  0.50048954  0.83972745  0.09569687  1
  Al  Al123  1  0.00048954  0.16027255  0.90430313  1
  Al  Al124  1  0.64066571  0.34796807  0.95428758  1
  Al  Al125  1  0.14066571  0.65203193  0.04571242  1
  Al  Al126  1  0.64066571  0.15203193  0.45428758  1
  Al  Al127  1  0.14066571  0.84796807  0.54571242  1
  Al  Al128  1  0.81724740  0.46879497  0.36841261  1
  Al  Al129  1  0.31724740  0.53120503  0.63158739  1
  Al  Al130  1  0.81724740  0.03120503  0.86841261  1
  Al  Al131  1  0.31724740  0.96879497  0.13158739  1
  Al  Al132  1  0.18855090  0.65786897  0.86793379  1
  Al  Al133  1  0.68855090  0.34213103  0.13206621  1
  Al  Al134  1  0.18855090  0.84213103  0.36793379  1
  Al  Al135  1  0.68855090  0.15786897  0.63206621  1
  Al  Al136  1  0.60220294  0.35527885  0.68606891  1
  Al  Al137  1  0.10220294  0.64472115  0.31393109  1
  Al  Al138  1  0.60220294  0.14472115  0.18606891  1
  Al  Al139  1  0.10220294  0.85527885  0.81393109  1
  Al  Al140  1  0.98887761  0.53498823  0.89181854  1
  Al  Al141  1  0.48887761  0.46501177  0.10818146  1
  Al  Al142  1  0.98887761  0.96501177  0.39181854  1
  Al  Al143  1  0.48887761  0.03498823  0.60818146  1
  Al  Al144  1  0.81156594  0.84733721  0.97976120  1
  Al  Al145  1  0.31156594  0.15266279  0.02023880  1
  Al  Al146  1  0.81156594  0.65266279  0.47976120  1
  Al  Al147  1  0.31156594  0.34733721  0.52023880  1
  Al  Al148  1  0.62846349  0.47592876  0.26525332  1
  Al  Al149  1  0.12846349  0.52407124  0.73474668  1
  Al  Al150  1  0.62846349  0.02407124  0.76525332  1
  Al  Al151  1  0.12846349  0.97592876  0.23474668  1
  Al  Al152  1  0.89595543  0.85135475  0.81368885  1
  Al  Al153  1  0.39595543  0.14864525  0.18631115  1
  Al  Al154  1  0.89595543  0.64864525  0.31368885  1
  Al  Al155  1  0.39595543  0.35135475  0.68631115  1
