# generated using pymatgen
data_Er3Cu11Si4
_symmetry_space_group_name_H-M   'P 1'
_cell_length_a   8.40486014
_cell_length_b   8.40486014
_cell_length_c   8.59423676
_cell_angle_alpha   90.00000000
_cell_angle_beta   90.00000000
_cell_angle_gamma   119.99999965
_symmetry_Int_Tables_number   1
_chemical_formula_structural   Er3Cu11Si4
_chemical_formula_sum   'Er6 Cu22 Si8'
_cell_volume   525.77378513
_cell_formula_units_Z   2
loop_
 _symmetry_equiv_pos_site_id
 _symmetry_equiv_pos_as_xyz
  1  'x, y, z'
loop_
 _atom_site_type_symbol
 _atom_site_label
 _atom_site_symmetry_multiplicity
 _atom_site_fract_x
 _atom_site_fract_y
 _atom_site_fract_z
 _atom_site_occupancy
  Er  Er0  1  0.80244230  0.19755770  0.75000000  1
  Er  Er1  1  0.19755770  0.80244230  0.25000000  1
  Er  Er2  1  0.39511540  0.19755770  0.75000000  1
  Er  Er3  1  0.60488460  0.80244230  0.25000000  1
  Er  Er4  1  0.80244230  0.60488460  0.75000000  1
  Er  Er5  1  0.19755770  0.39511540  0.25000000  1
  Cu  Cu6  1  0.84686438  0.15313562  0.41056594  1
  Cu  Cu7  1  0.15313562  0.84686438  0.58943406  1
  Cu  Cu8  1  0.30627123  0.15313562  0.41056594  1
  Cu  Cu9  1  0.15313562  0.84686438  0.91056594  1
  Cu  Cu10  1  0.69372877  0.84686438  0.58943406  1
  Cu  Cu11  1  0.84686438  0.15313562  0.08943406  1
  Cu  Cu12  1  0.84686438  0.69372877  0.41056594  1
  Cu  Cu13  1  0.69372877  0.84686438  0.91056594  1
  Cu  Cu14  1  0.15313562  0.30627123  0.58943406  1
  Cu  Cu15  1  0.30627123  0.15313562  0.08943406  1
  Cu  Cu16  1  0.15313562  0.30627123  0.91056594  1
  Cu  Cu17  1  0.84686438  0.69372877  0.08943406  1
  Cu  Cu18  1  0.43502702  0.56497298  0.75000000  1
  Cu  Cu19  1  0.56497298  0.43502702  0.25000000  1
  Cu  Cu20  1  0.12994596  0.56497298  0.75000000  1
  Cu  Cu21  1  0.87005404  0.43502702  0.25000000  1
  Cu  Cu22  1  0.43502702  0.87005404  0.75000000  1
  Cu  Cu23  1  0.56497298  0.12994596  0.25000000  1
  Cu  Cu24  1  0.66666700  0.33333300  0.00483841  1
  Cu  Cu25  1  0.33333300  0.66666700  0.99516159  1
  Cu  Cu26  1  0.33333300  0.66666700  0.50483841  1
  Cu  Cu27  1  0.66666700  0.33333300  0.49516159  1
  Si  Si28  1  0.50000000  0.50000000  -0.00000000  1
  Si  Si29  1  -0.00000000  0.50000000  -0.00000000  1
  Si  Si30  1  0.50000000  0.50000000  0.50000000  1
  Si  Si31  1  0.50000000  -0.00000000  -0.00000000  1
  Si  Si32  1  -0.00000000  0.50000000  0.50000000  1
  Si  Si33  1  0.50000000  -0.00000000  0.50000000  1
  Si  Si34  1  -0.00000000  -0.00000000  0.75000000  1
  Si  Si35  1  -0.00000000  -0.00000000  0.25000000  1
