# generated using pymatgen
data_Ba2V2CuClO7
_symmetry_space_group_name_H-M   'P 1'
_cell_length_a   5.51178233
_cell_length_b   9.10073499
_cell_length_c   9.10073499
_cell_angle_alpha   90.00000000
_cell_angle_beta   90.00000000
_cell_angle_gamma   90.00000000
_symmetry_Int_Tables_number   1
_chemical_formula_structural   Ba2V2CuClO7
_chemical_formula_sum   'Ba4 V4 Cu2 Cl2 O14'
_cell_volume   456.50442783
_cell_formula_units_Z   2
loop_
 _symmetry_equiv_pos_site_id
 _symmetry_equiv_pos_as_xyz
  1  'x, y, z'
loop_
 _atom_site_type_symbol
 _atom_site_label
 _atom_site_symmetry_multiplicity
 _atom_site_fract_x
 _atom_site_fract_y
 _atom_site_fract_z
 _atom_site_occupancy
  Ba  Ba0  1  0.38548692  0.67743291  0.17743291  1
  Ba  Ba1  1  0.38548692  0.32256709  0.82256709  1
  Ba  Ba2  1  0.38548692  0.82256709  0.67743291  1
  Ba  Ba3  1  0.38548692  0.17743291  0.32256709  1
  V  V4  1  0.92763144  0.13044720  0.63044720  1
  V  V5  1  0.92763144  0.86955280  0.36955280  1
  V  V6  1  0.92763144  0.36955280  0.13044720  1
  V  V7  1  0.92763144  0.63044720  0.86955280  1
  Cu  Cu8  1  0.99183582  -0.00000000  -0.00000000  1
  Cu  Cu9  1  0.99183582  0.50000000  0.50000000  1
  Cl  Cl10  1  0.53443584  -0.00000000  -0.00000000  1
  Cl  Cl11  1  0.53443584  0.50000000  0.50000000  1
  O  O12  1  0.07034218  0.50000000  -0.00000000  1
  O  O13  1  0.07034218  -0.00000000  0.50000000  1
  O  O14  1  0.61155421  0.12546740  0.62546740  1
  O  O15  1  0.61155421  0.87453260  0.37453260  1
  O  O16  1  0.61155421  0.37453260  0.12546740  1
  O  O17  1  0.61155421  0.62546740  0.87453260  1
  O  O18  1  0.04831025  0.20141877  0.08868595  1
  O  O19  1  0.04831025  0.79858123  0.91131405  1
  O  O20  1  0.04831025  0.91131405  0.20141877  1
  O  O21  1  0.04831025  0.70141877  0.41131405  1
  O  O22  1  0.04831025  0.08868595  0.79858123  1
  O  O23  1  0.04831025  0.29858123  0.58868595  1
  O  O24  1  0.04831025  0.41131405  0.29858123  1
  O  O25  1  0.04831025  0.58868595  0.70141877  1
