# generated using pymatgen
data_CeCo5H3
_symmetry_space_group_name_H-M   'P 1'
_cell_length_a   5.04876858
_cell_length_b   5.04876858
_cell_length_c   8.03705818
_cell_angle_alpha   90.00000000
_cell_angle_beta   90.00000000
_cell_angle_gamma   119.69966667
_symmetry_Int_Tables_number   1
_chemical_formula_structural   CeCo5H3
_chemical_formula_sum   'Ce2 Co10 H6'
_cell_volume   177.95289733
_cell_formula_units_Z   2
loop_
 _symmetry_equiv_pos_site_id
 _symmetry_equiv_pos_as_xyz
  1  'x, y, z'
loop_
 _atom_site_type_symbol
 _atom_site_label
 _atom_site_symmetry_multiplicity
 _atom_site_fract_x
 _atom_site_fract_y
 _atom_site_fract_z
 _atom_site_occupancy
  Ce  Ce0  1  0.00000000  0.00000000  -0.00000000  1
  Ce  Ce1  1  0.00000000  0.00000000  0.50000000  1
  Co  Co2  1  0.50000000  0.00000000  0.76672790  1
  Co  Co3  1  0.50000000  0.00000000  0.23327210  1
  Co  Co4  1  0.00000000  0.50000000  0.73327210  1
  Co  Co5  1  0.00000000  0.50000000  0.26672790  1
  Co  Co6  1  0.29604479  0.59207357  -0.00000000  1
  Co  Co7  1  0.70395521  0.40792643  -0.00000000  1
  Co  Co8  1  0.40792643  0.70395521  0.50000000  1
  Co  Co9  1  0.59207357  0.29604479  0.50000000  1
  Co  Co10  1  0.50000000  0.50000000  0.75000000  1
  Co  Co11  1  0.50000000  0.50000000  0.25000000  1
  H  H12  1  0.86392586  0.13607414  0.75000000  1
  H  H13  1  0.13607414  0.86392586  0.25000000  1
  H  H14  1  0.13607414  0.86392586  0.75000000  1
  H  H15  1  0.86392586  0.13607414  0.25000000  1
  H  H16  1  0.50000000  0.00000000  -0.00000000  1
  H  H17  1  0.00000000  0.50000000  0.50000000  1
