# generated using pymatgen
data_Ce4CdNi
_symmetry_space_group_name_H-M   'P 1'
_cell_length_a   9.63661649
_cell_length_b   9.63661649
_cell_length_c   9.63661649
_cell_angle_alpha   60.00000000
_cell_angle_beta   60.00000000
_cell_angle_gamma   60.00000000
_symmetry_Int_Tables_number   1
_chemical_formula_structural   Ce4CdNi
_chemical_formula_sum   'Ce16 Cd4 Ni4'
_cell_volume   632.78872091
_cell_formula_units_Z   4
loop_
 _symmetry_equiv_pos_site_id
 _symmetry_equiv_pos_as_xyz
  1  'x, y, z'
loop_
 _atom_site_type_symbol
 _atom_site_label
 _atom_site_symmetry_multiplicity
 _atom_site_fract_x
 _atom_site_fract_y
 _atom_site_fract_z
 _atom_site_occupancy
  Ce  Ce0  1  0.65087250  0.65087250  0.65087250  1
  Ce  Ce1  1  0.04738249  0.65087250  0.65087250  1
  Ce  Ce2  1  0.65087250  0.04738249  0.65087250  1
  Ce  Ce3  1  0.65087250  0.65087250  0.04738249  1
  Ce  Ce4  1  0.80719294  0.80719294  0.19280706  1
  Ce  Ce5  1  0.19280706  0.19280706  0.80719294  1
  Ce  Ce6  1  0.80719294  0.19280706  0.80719294  1
  Ce  Ce7  1  0.19280706  0.80719294  0.19280706  1
  Ce  Ce8  1  0.19280706  0.80719294  0.80719294  1
  Ce  Ce9  1  0.80719294  0.19280706  0.19280706  1
  Ce  Ce10  1  0.43672821  0.43672821  0.06327179  1
  Ce  Ce11  1  0.06327179  0.06327179  0.43672821  1
  Ce  Ce12  1  0.43672821  0.06327179  0.43672821  1
  Ce  Ce13  1  0.06327179  0.43672821  0.06327179  1
  Ce  Ce14  1  0.06327179  0.43672821  0.43672821  1
  Ce  Ce15  1  0.43672821  0.06327179  0.06327179  1
  Cd  Cd16  1  0.42062131  0.42062131  0.42062131  1
  Cd  Cd17  1  0.73813606  0.42062131  0.42062131  1
  Cd  Cd18  1  0.42062131  0.73813606  0.42062131  1
  Cd  Cd19  1  0.42062131  0.42062131  0.73813606  1
  Ni  Ni20  1  0.85904833  0.85904833  0.85904833  1
  Ni  Ni21  1  0.42285502  0.85904833  0.85904833  1
  Ni  Ni22  1  0.85904833  0.42285502  0.85904833  1
  Ni  Ni23  1  0.85904833  0.85904833  0.42285502  1
