# generated using pymatgen
data_K3(SeO4)2
_symmetry_space_group_name_H-M   'P 1'
_cell_length_a   6.57528401
_cell_length_b   6.57528401
_cell_length_c   7.74678004
_cell_angle_alpha   90.00000000
_cell_angle_beta   90.00000000
_cell_angle_gamma   120.00000187
_symmetry_Int_Tables_number   1
_chemical_formula_structural   K3(SeO4)2
_chemical_formula_sum   'K3 Se2 O8'
_cell_volume   290.05535009
_cell_formula_units_Z   1
loop_
 _symmetry_equiv_pos_site_id
 _symmetry_equiv_pos_as_xyz
  1  'x, y, z'
loop_
 _atom_site_type_symbol
 _atom_site_label
 _atom_site_symmetry_multiplicity
 _atom_site_fract_x
 _atom_site_fract_y
 _atom_site_fract_z
 _atom_site_occupancy
  K  K0  1  0.66666700  0.33333300  0.80824324  1
  K  K1  1  0.33333300  0.66666700  0.19175676  1
  K  K2  1  0.00000000  0.00000000  0.00000000  1
  Se  Se3  1  0.66666700  0.33333300  0.26133888  1
  Se  Se4  1  0.33333300  0.66666700  0.73866112  1
  O  O5  1  0.19624784  0.39249569  0.81898284  1
  O  O6  1  0.80375216  0.60750431  0.18101716  1
  O  O7  1  0.19624784  0.80375216  0.81898284  1
  O  O8  1  0.80375216  0.19624784  0.18101716  1
  O  O9  1  0.60750431  0.80375216  0.81898284  1
  O  O10  1  0.39249569  0.19624784  0.18101716  1
  O  O11  1  0.66666700  0.33333300  0.47507330  1
  O  O12  1  0.33333300  0.66666700  0.52492670  1
