# generated using pymatgen
data_CaY4Sb3O14
_symmetry_space_group_name_H-M   'P 1'
_cell_length_a   7.48538209
_cell_length_b   7.48538209
_cell_length_c   7.48407127
_cell_angle_alpha   60.49908803
_cell_angle_beta   60.49908803
_cell_angle_gamma   60.50073732
_symmetry_Int_Tables_number   1
_chemical_formula_structural   CaY4Sb3O14
_chemical_formula_sum   'Ca1 Y4 Sb3 O14'
_cell_volume   299.86608100
_cell_formula_units_Z   1
loop_
 _symmetry_equiv_pos_site_id
 _symmetry_equiv_pos_as_xyz
  1  'x, y, z'
loop_
 _atom_site_type_symbol
 _atom_site_label
 _atom_site_symmetry_multiplicity
 _atom_site_fract_x
 _atom_site_fract_y
 _atom_site_fract_z
 _atom_site_occupancy
  Ca  Ca0  1  0.00000000  -0.00000000  0.00000000  1
  Y  Y1  1  0.50000000  0.50000000  0.00000000  1
  Y  Y2  1  0.50000000  -0.00000000  0.50000000  1
  Y  Y3  1  0.00000000  0.50000000  0.50000000  1
  Y  Y4  1  0.50000000  0.50000000  0.50000000  1
  Sb  Sb5  1  0.50000000  -0.00000000  0.00000000  1
  Sb  Sb6  1  0.00000000  0.50000000  0.00000000  1
  Sb  Sb7  1  0.00000000  -0.00000000  0.50000000  1
  O  O8  1  0.38078431  0.88978605  0.89530249  1
  O  O9  1  0.61921569  0.11021395  0.10469751  1
  O  O10  1  0.11021395  0.61921569  0.10469751  1
  O  O11  1  0.88978605  0.38078431  0.89530249  1
  O  O12  1  0.67927845  0.09843978  0.67807283  1
  O  O13  1  0.32072155  0.90156022  0.32192717  1
  O  O14  1  0.90156022  0.32072155  0.32192717  1
  O  O15  1  0.09843978  0.67927845  0.67807283  1
  O  O16  1  0.62108742  0.62108742  0.61981845  1
  O  O17  1  0.37891258  0.37891258  0.38018155  1
  O  O18  1  0.10559915  0.10559915  0.62310935  1
  O  O19  1  0.89440085  0.89440085  0.37689065  1
  O  O20  1  0.31912771  0.31912771  0.89503657  1
  O  O21  1  0.68087229  0.68087229  0.10496343  1
