# generated using pymatgen
data_Ca2Al3Si3O13
_symmetry_space_group_name_H-M   'P 1'
_cell_length_a   5.65596324
_cell_length_b   8.91884352
_cell_length_c   10.38416308
_cell_angle_alpha   116.48960543
_cell_angle_beta   90.00000000
_cell_angle_gamma   90.00000000
_symmetry_Int_Tables_number   1
_chemical_formula_structural   Ca2Al3Si3O13
_chemical_formula_sum   'Ca4 Al6 Si6 O26'
_cell_volume   468.83182002
_cell_formula_units_Z   2
loop_
 _symmetry_equiv_pos_site_id
 _symmetry_equiv_pos_as_xyz
  1  'x, y, z'
loop_
 _atom_site_type_symbol
 _atom_site_label
 _atom_site_symmetry_multiplicity
 _atom_site_fract_x
 _atom_site_fract_y
 _atom_site_fract_z
 _atom_site_occupancy
  Ca  Ca0  1  0.75000000  0.23969993  0.85032577  1
  Ca  Ca1  1  0.25000000  0.76030007  0.14967423  1
  Ca  Ca2  1  0.75000000  0.40097690  0.57565448  1
  Ca  Ca3  1  0.25000000  0.59902310  0.42434552  1
  Al  Al4  1  -0.00000000  -0.00000000  -0.00000000  1
  Al  Al5  1  0.50000000  -0.00000000  -0.00000000  1
  Al  Al6  1  0.75000000  0.28784729  0.23006086  1
  Al  Al7  1  0.25000000  0.71215271  0.76993914  1
  Al  Al8  1  0.00000000  -0.00000000  0.50000000  1
  Al  Al9  1  0.50000000  -0.00000000  0.50000000  1
  Si  Si10  1  0.75000000  0.67628538  0.26870647  1
  Si  Si11  1  0.25000000  0.32371462  0.73129353  1
  Si  Si12  1  0.75000000  0.81470893  0.68297038  1
  Si  Si13  1  0.25000000  0.18529107  0.31702962  1
  Si  Si14  1  0.75000000  0.65917089  0.94976003  1
  Si  Si15  1  0.25000000  0.34082911  0.05023997  1
  O  O16  1  0.75000000  0.06001753  0.12750301  1
  O  O17  1  0.25000000  0.93998247  0.87249699  1
  O  O18  1  0.75000000  0.47834382  0.81649966  1
  O  O19  1  0.25000000  0.52165618  0.18350034  1
  O  O20  1  0.99492671  0.76408869  0.95589332  1
  O  O21  1  0.00507329  0.23591131  0.04410668  1
  O  O22  1  0.49492671  0.23591131  0.04410668  1
  O  O23  1  0.50507329  0.76408869  0.95589332  1
  O  O24  1  0.75000000  0.51258508  0.29538202  1
  O  O25  1  0.25000000  0.48741492  0.70461798  1
  O  O26  1  0.75000000  0.95971753  0.85502585  1
  O  O27  1  0.25000000  0.04028247  0.14497415  1
  O  O28  1  0.98412925  0.79441171  0.33716973  1
  O  O29  1  0.01587075  0.20558829  0.66283027  1
  O  O30  1  0.48412925  0.20558829  0.66283027  1
  O  O31  1  0.51587075  0.79441171  0.33716973  1
  O  O32  1  0.98521158  0.69246217  0.64774723  1
  O  O33  1  0.01478842  0.30753783  0.35225277  1
  O  O34  1  0.48521158  0.30753783  0.35225277  1
  O  O35  1  0.51478842  0.69246217  0.64774723  1
  O  O36  1  0.75000000  0.09349735  0.44611366  1
  O  O37  1  0.25000000  0.90650265  0.55388634  1
  O  O38  1  0.75000000  0.62716841  0.09577326  1
  O  O39  1  0.25000000  0.37283159  0.90422674  1
  O  O40  1  0.75000000  0.92742970  0.59262654  1
  O  O41  1  0.25000000  0.07257030  0.40737346  1
