# generated using pymatgen
data_Ca2LaGaCu2O7
_symmetry_space_group_name_H-M   'P 1'
_cell_length_a   5.44487590
_cell_length_b   5.64566808
_cell_length_c   11.78676243
_cell_angle_alpha   103.85655103
_cell_angle_beta   103.35443338
_cell_angle_gamma   90.00000000
_symmetry_Int_Tables_number   1
_chemical_formula_structural   Ca2LaGaCu2O7
_chemical_formula_sum   'Ca4 La2 Ga2 Cu4 O14'
_cell_volume   341.68088156
_cell_formula_units_Z   2
loop_
 _symmetry_equiv_pos_site_id
 _symmetry_equiv_pos_as_xyz
  1  'x, y, z'
loop_
 _atom_site_type_symbol
 _atom_site_label
 _atom_site_symmetry_multiplicity
 _atom_site_fract_x
 _atom_site_fract_y
 _atom_site_fract_z
 _atom_site_occupancy
  Ca  Ca0  1  0.37798976  0.30166179  0.69051662  1
  Ca  Ca1  1  0.68747314  0.69833821  0.30948338  1
  Ca  Ca2  1  0.87798976  0.88885483  0.69051662  1
  Ca  Ca3  1  0.18747314  0.11114517  0.30948338  1
  La  La4  1  0.00491463  -0.00000000  -0.00000000  1
  La  La5  1  0.50491463  0.50000000  -0.00000000  1
  Ga  Ga6  1  0.30461145  0.67663149  0.50000000  1
  Ga  Ga7  1  0.80461145  0.32336851  0.50000000  1
  Cu  Cu8  1  0.92605832  0.42305734  0.83727020  1
  Cu  Cu9  1  0.08878812  0.57694266  0.16272980  1
  Cu  Cu10  1  0.42605832  0.91421286  0.83727020  1
  Cu  Cu11  1  0.58878812  0.08578714  0.16272980  1
  O  O12  1  0.65806075  0.63381403  0.50000000  1
  O  O13  1  0.15806075  0.36618597  0.50000000  1
  O  O14  1  0.78144935  0.24998717  0.64050805  1
  O  O15  1  0.14094130  0.75001283  0.35949195  1
  O  O16  1  0.28144935  0.89052087  0.64050805  1
  O  O17  1  0.64094130  0.10947913  0.35949195  1
  O  O18  1  0.18720439  0.18237768  0.86017266  1
  O  O19  1  0.32703173  0.81762232  0.13982734  1
  O  O20  1  0.68720439  0.17779498  0.86017266  1
  O  O21  1  0.82703173  0.82220502  0.13982734  1
  O  O22  1  0.68080868  0.67434972  0.85014028  1
  O  O23  1  0.83066840  0.32565028  0.14985972  1
  O  O24  1  0.18080868  0.67579056  0.85014028  1
  O  O25  1  0.33066840  0.32420944  0.14985972  1
