# generated using pymatgen
data_ZnNi4O5
_symmetry_space_group_name_H-M   'P 1'
_cell_length_a   3.00287235
_cell_length_b   3.00287235
_cell_length_c   12.37434078
_cell_angle_alpha   90.00000000
_cell_angle_beta   96.96913465
_cell_angle_gamma   120.00000000
_symmetry_Int_Tables_number   1
_chemical_formula_structural   ZnNi4O5
_chemical_formula_sum   'Zn1 Ni4 O5'
_cell_volume   95.68008915
_cell_formula_units_Z   1
loop_
 _symmetry_equiv_pos_site_id
 _symmetry_equiv_pos_as_xyz
  1  'x, y, z'
loop_
 _atom_site_type_symbol
 _atom_site_label
 _atom_site_symmetry_multiplicity
 _atom_site_fract_x
 _atom_site_fract_y
 _atom_site_fract_z
 _atom_site_occupancy
  Zn  Zn0  1  0.00000000  0.00000000  0.00000000  1
  Ni  Ni1  1  0.80044729  0.40022364  0.20067093  1
  Ni  Ni2  1  0.59999817  0.79999908  0.39999725  1
  Ni  Ni3  1  0.40000183  0.20000092  0.60000275  1
  Ni  Ni4  1  0.19955271  0.59977636  0.79932907  1
  O  O5  1  0.59849875  0.29924937  0.89774812  1
  O  O6  1  0.79995834  0.89997917  0.69993751  1
  O  O7  1  0.00000000  0.50000000  0.50000000  1
  O  O8  1  0.40150125  0.70075063  0.10225188  1
  O  O9  1  0.20004166  0.10002083  0.30006249  1
