# generated using pymatgen
data_ZrMnGa
_symmetry_space_group_name_H-M   'P 1'
_cell_length_a   5.09128474
_cell_length_b   5.13958688
_cell_length_c   8.46099075
_cell_angle_alpha   90.00000000
_cell_angle_beta   90.00000000
_cell_angle_gamma   120.32979004
_symmetry_Int_Tables_number   1
_chemical_formula_structural   ZrMnGa
_chemical_formula_sum   'Zr4 Mn4 Ga4'
_cell_volume   191.09731985
_cell_formula_units_Z   4
loop_
 _symmetry_equiv_pos_site_id
 _symmetry_equiv_pos_as_xyz
  1  'x, y, z'
loop_
 _atom_site_type_symbol
 _atom_site_label
 _atom_site_symmetry_multiplicity
 _atom_site_fract_x
 _atom_site_fract_y
 _atom_site_fract_z
 _atom_site_occupancy
  Zr  Zr0  1  0.66937077  0.33478354  0.55782519  1
  Zr  Zr1  1  0.34101911  0.67043724  0.42621737  1
  Zr  Zr2  1  0.34101911  0.67043724  0.07378263  1
  Zr  Zr3  1  0.66937077  0.33478354  0.94217481  1
  Mn  Mn4  1  0.67072405  0.83510031  0.75000000  1
  Mn  Mn5  1  0.81023414  0.62512602  0.25000000  1
  Mn  Mn6  1  0.81031012  0.18523941  0.25000000  1
  Mn  Mn7  1  0.35082021  0.17536101  0.25000000  1
  Ga  Ga8  1  0.98929791  0.99470537  0.48266644  1
  Ga  Ga9  1  0.98929791  0.99470537  0.01733356  1
  Ga  Ga10  1  0.17902772  0.34603839  0.75000000  1
  Ga  Ga11  1  0.17950819  0.83328256  0.75000000  1
