# generated using pymatgen
data_TiVS2
_symmetry_space_group_name_H-M   'P 1'
_cell_length_a   3.31811231
_cell_length_b   5.97442081
_cell_length_c   5.84552756
_cell_angle_alpha   90.00000000
_cell_angle_beta   90.00000000
_cell_angle_gamma   90.00000000
_symmetry_Int_Tables_number   1
_chemical_formula_structural   TiVS2
_chemical_formula_sum   'Ti2 V2 S4'
_cell_volume   115.88056477
_cell_formula_units_Z   2
loop_
 _symmetry_equiv_pos_site_id
 _symmetry_equiv_pos_as_xyz
  1  'x, y, z'
loop_
 _atom_site_type_symbol
 _atom_site_label
 _atom_site_symmetry_multiplicity
 _atom_site_fract_x
 _atom_site_fract_y
 _atom_site_fract_z
 _atom_site_occupancy
  Ti  Ti0  1  0.75000000  0.49107166  0.69103937  1
  Ti  Ti1  1  0.75000000  0.99107166  0.80896063  1
  V  V2  1  0.25000000  0.51456633  0.30786840  1
  V  V3  1  0.25000000  0.01456633  0.19213160  1
  S  S4  1  0.75000000  0.28061813  0.08629384  1
  S  S5  1  0.75000000  0.78061813  0.41370616  1
  S  S6  1  0.25000000  0.71374388  0.92927282  1
  S  S7  1  0.25000000  0.21374388  0.57072718  1
