# generated using pymatgen
data_ZnNi4O5
_symmetry_space_group_name_H-M   'P 1'
_cell_length_a   4.25019536
_cell_length_b   5.20841448
_cell_length_c   5.20815207
_cell_angle_alpha   99.58235716
_cell_angle_beta   65.91987990
_cell_angle_gamma   114.08243472
_symmetry_Int_Tables_number   1
_chemical_formula_structural   ZnNi4O5
_chemical_formula_sum   'Zn1 Ni4 O5'
_cell_volume   96.09676725
_cell_formula_units_Z   1
loop_
 _symmetry_equiv_pos_site_id
 _symmetry_equiv_pos_as_xyz
  1  'x, y, z'
loop_
 _atom_site_type_symbol
 _atom_site_label
 _atom_site_symmetry_multiplicity
 _atom_site_fract_x
 _atom_site_fract_y
 _atom_site_fract_z
 _atom_site_occupancy
  Zn  Zn0  1  0.00000000  -0.00000000  -0.00000000  1
  Ni  Ni1  1  0.40008170  0.20038697  0.40018498  1
  Ni  Ni2  1  0.80031099  0.40020272  0.79960219  1
  Ni  Ni3  1  0.19968901  0.59979728  0.20039781  1
  Ni  Ni4  1  0.59991830  0.79961303  0.59981502  1
  O  O5  1  0.30317565  0.40427223  0.79792412  1
  O  O6  1  0.69682435  0.59572777  0.20207588  1
  O  O7  1  0.10110268  0.79792239  0.59572612  1
  O  O8  1  0.50000000  -0.00000000  -0.00000000  1
  O  O9  1  0.89889732  0.20207761  0.40427388  1
