# generated using pymatgen
data_ZnNi4O5
_symmetry_space_group_name_H-M   'P 1'
_cell_length_a   3.00509402
_cell_length_b   4.24524709
_cell_length_c   7.95055242
_cell_angle_alpha   74.51586411
_cell_angle_beta   79.10689119
_cell_angle_gamma   90.00194582
_symmetry_Int_Tables_number   1
_chemical_formula_structural   ZnNi4O5
_chemical_formula_sum   'Zn1 Ni4 O5'
_cell_volume   95.84877879
_cell_formula_units_Z   1
loop_
 _symmetry_equiv_pos_site_id
 _symmetry_equiv_pos_as_xyz
  1  'x, y, z'
loop_
 _atom_site_type_symbol
 _atom_site_label
 _atom_site_symmetry_multiplicity
 _atom_site_fract_x
 _atom_site_fract_y
 _atom_site_fract_z
 _atom_site_occupancy
  Zn  Zn0  1  -0.00000000  0.00000000  -0.00000000  1
  Ni  Ni1  1  0.39931373  0.39931373  0.20137253  1
  Ni  Ni2  1  0.79943467  0.79943467  0.40113066  1
  Ni  Ni3  1  0.20056533  0.20056533  0.59886934  1
  Ni  Ni4  1  0.60068627  0.60068627  0.79862747  1
  O  O5  1  0.19958081  0.69958081  0.60083838  1
  O  O6  1  0.60235748  0.10235748  0.79528503  1
  O  O7  1  -0.00000000  0.50000000  -0.00000000  1
  O  O8  1  0.39764252  0.89764252  0.20471497  1
  O  O9  1  0.80041919  0.30041919  0.39916162  1
