# generated using pymatgen
data_Y4CrS7
_symmetry_space_group_name_H-M   'P 1'
_cell_length_a   3.81107646
_cell_length_b   6.51686075
_cell_length_c   11.37948359
_cell_angle_alpha   104.95174549
_cell_angle_beta   90.00000000
_cell_angle_gamma   72.99822982
_symmetry_Int_Tables_number   1
_chemical_formula_structural   Y4CrS7
_chemical_formula_sum   'Y4 Cr1 S7'
_cell_volume   260.24947393
_cell_formula_units_Z   1
loop_
 _symmetry_equiv_pos_site_id
 _symmetry_equiv_pos_as_xyz
  1  'x, y, z'
loop_
 _atom_site_type_symbol
 _atom_site_label
 _atom_site_symmetry_multiplicity
 _atom_site_fract_x
 _atom_site_fract_y
 _atom_site_fract_z
 _atom_site_occupancy
  Y  Y0  1  0.69333627  0.61332745  0.20834982  1
  Y  Y1  1  0.30715722  0.38568555  0.80124392  1
  Y  Y2  1  0.99828685  0.00342630  0.00813418  1
  Y  Y3  1  0.11271955  0.77456091  0.56192578  1
  Cr  Cr4  1  0.88469227  0.23061546  0.42538268  1
  S  S5  1  0.74831437  0.50337125  0.63137253  1
  S  S6  1  0.27424146  0.45151708  0.35252599  1
  S  S7  1  0.33570435  0.32859130  0.05251264  1
  S  S8  1  0.65945288  0.68109423  0.94752221  1
  S  S9  1  0.02997470  0.94005061  0.23279236  1
  S  S10  1  0.96483810  0.07032379  0.78463069  1
  S  S11  1  0.49128197  0.01743607  0.49360721  1
