# generated using pymatgen
data_ZnNi4O5
_symmetry_space_group_name_H-M   'P 1'
_cell_length_a   3.00356394
_cell_length_b   6.71478145
_cell_length_c   5.20210100
_cell_angle_alpha   104.95792649
_cell_angle_beta   106.77939609
_cell_angle_gamma   77.07631476
_symmetry_Int_Tables_number   1
_chemical_formula_structural   ZnNi4O5
_chemical_formula_sum   'Zn1 Ni4 O5'
_cell_volume   95.77691335
_cell_formula_units_Z   1
loop_
 _symmetry_equiv_pos_site_id
 _symmetry_equiv_pos_as_xyz
  1  'x, y, z'
loop_
 _atom_site_type_symbol
 _atom_site_label
 _atom_site_symmetry_multiplicity
 _atom_site_fract_x
 _atom_site_fract_y
 _atom_site_fract_z
 _atom_site_occupancy
  Zn  Zn0  1  0.00000000  -0.00000000  0.00000000  1
  Ni  Ni1  1  0.40001205  0.40069365  0.20071776  1
  Ni  Ni2  1  0.80021516  0.79900087  0.39943119  1
  Ni  Ni3  1  0.19978484  0.20099913  0.60056881  1
  Ni  Ni4  1  0.59998795  0.59930635  0.79928224  1
  O  O5  1  0.00000000  0.50000000  0.50000000  1
  O  O6  1  0.39805412  0.89802087  0.69412912  1
  O  O7  1  0.79851206  0.30282967  0.89985380  1
  O  O8  1  0.20148794  0.69717033  0.10014620  1
  O  O9  1  0.60194588  0.10197913  0.30587088  1
