# generated using pymatgen
data_TiMn2VAs4
_symmetry_space_group_name_H-M   'P 1'
_cell_length_a   3.60697715
_cell_length_b   6.39980888
_cell_length_c   5.80905587
_cell_angle_alpha   90.21645237
_cell_angle_beta   89.97890454
_cell_angle_gamma   90.00053633
_symmetry_Int_Tables_number   1
_chemical_formula_structural   TiMn2VAs4
_chemical_formula_sum   'Ti1 Mn2 V1 As4'
_cell_volume   134.09507278
_cell_formula_units_Z   1
loop_
 _symmetry_equiv_pos_site_id
 _symmetry_equiv_pos_as_xyz
  1  'x, y, z'
loop_
 _atom_site_type_symbol
 _atom_site_label
 _atom_site_symmetry_multiplicity
 _atom_site_fract_x
 _atom_site_fract_y
 _atom_site_fract_z
 _atom_site_occupancy
  Ti  Ti0  1  -0.00000000  -0.00000000  0.50000000  1
  Mn  Mn1  1  0.50000000  0.50000000  0.50000000  1
  Mn  Mn2  1  -0.00000000  -0.00000000  0.00000000  1
  V  V3  1  0.50000000  0.50000000  0.00000000  1
  As  As4  1  0.50006771  0.17338835  0.75869830  1
  As  As5  1  0.99997105  0.66661452  0.75187466  1
  As  As6  1  0.00002895  0.33338548  0.24812534  1
  As  As7  1  0.49993229  0.82661165  0.24130170  1
