# generated using pymatgen
data_Li3Cr2Fe5O12
_symmetry_space_group_name_H-M   'P 1'
_cell_length_a   5.19021701
_cell_length_b   5.19021723
_cell_length_c   10.03698677
_cell_angle_alpha   84.51651890
_cell_angle_beta   95.48347509
_cell_angle_gamma   59.02673098
_symmetry_Int_Tables_number   1
_chemical_formula_structural   Li3Cr2Fe5O12
_chemical_formula_sum   'Li3 Cr2 Fe5 O12'
_cell_volume   227.42242689
_cell_formula_units_Z   1
loop_
 _symmetry_equiv_pos_site_id
 _symmetry_equiv_pos_as_xyz
  1  'x, y, z'
loop_
 _atom_site_type_symbol
 _atom_site_label
 _atom_site_symmetry_multiplicity
 _atom_site_fract_x
 _atom_site_fract_y
 _atom_site_fract_z
 _atom_site_occupancy
  Li  Li0  1  0.32761944  0.83388446  0.99121995  1
  Li  Li1  1  0.83388446  0.32761944  0.50878005  1
  Li  Li2  1  0.91157260  0.91157260  0.75000000  1
  Cr  Cr3  1  0.24616892  0.24616892  0.75000000  1
  Cr  Cr4  1  0.75133767  0.75133767  0.25000000  1
  Fe  Fe5  1  0.08084583  0.08084583  0.25000000  1
  Fe  Fe6  1  -0.00170625  0.51824827  0.99425426  1
  Fe  Fe7  1  0.51824827  -0.00170625  0.50574574  1
  Fe  Fe8  1  0.41879077  0.41879077  0.25000000  1
  Fe  Fe9  1  0.57315499  0.57315499  0.75000000  1
  O  O10  1  0.12991666  0.36173918  0.36266760  1
  O  O11  1  0.05112499  0.77680631  0.13902428  1
  O  O12  1  0.28486207  0.53986696  0.85258209  1
  O  O13  1  0.36173918  0.12991666  0.13733240  1
  O  O14  1  0.53986696  0.28486207  0.64741791  1
  O  O15  1  0.22980829  0.98977887  0.63569434  1
  O  O16  1  0.77680631  0.05112499  0.36097572  1
  O  O17  1  0.46832245  0.71586059  0.36074533  1
  O  O18  1  0.60599225  0.85151168  0.86275979  1
  O  O19  1  0.98977887  0.22980829  0.86430566  1
  O  O20  1  0.71586059  0.46832245  0.13925467  1
  O  O21  1  0.85151168  0.60599225  0.63724021  1
