# generated using pymatgen
data_TiB4Mo
_symmetry_space_group_name_H-M   'P 1'
_cell_length_a   3.05311673
_cell_length_b   3.05314370
_cell_length_c   6.45059179
_cell_angle_alpha   90.00000000
_cell_angle_beta   90.00000000
_cell_angle_gamma   119.99971839
_symmetry_Int_Tables_number   1
_chemical_formula_structural   TiB4Mo
_chemical_formula_sum   'Ti1 B4 Mo1'
_cell_volume   52.07413657
_cell_formula_units_Z   1
loop_
 _symmetry_equiv_pos_site_id
 _symmetry_equiv_pos_as_xyz
  1  'x, y, z'
loop_
 _atom_site_type_symbol
 _atom_site_label
 _atom_site_symmetry_multiplicity
 _atom_site_fract_x
 _atom_site_fract_y
 _atom_site_fract_z
 _atom_site_occupancy
  Ti  Ti0  1  0.99995737  0.00000000  0.50000000  1
  B  B1  1  0.33328490  0.66663879  0.25619805  1
  B  B2  1  0.33328490  0.66663879  0.74380195  1
  B  B3  1  0.66664611  0.33336121  0.25619805  1
  B  B4  1  0.66664611  0.33336121  0.74380195  1
  Mo  Mo5  1  0.99998060  0.00000000  0.00000000  1
