# generated using pymatgen
data_SrCaMn2O6
_symmetry_space_group_name_H-M   'P 1'
_cell_length_a   5.46773884
_cell_length_b   5.42953582
_cell_length_c   7.68299283
_cell_angle_alpha   90.00000000
_cell_angle_beta   90.00000000
_cell_angle_gamma   90.00000000
_symmetry_Int_Tables_number   1
_chemical_formula_structural   SrCaMn2O6
_chemical_formula_sum   'Sr2 Ca2 Mn4 O12'
_cell_volume   228.08718924
_cell_formula_units_Z   2
loop_
 _symmetry_equiv_pos_site_id
 _symmetry_equiv_pos_as_xyz
  1  'x, y, z'
loop_
 _atom_site_type_symbol
 _atom_site_label
 _atom_site_symmetry_multiplicity
 _atom_site_fract_x
 _atom_site_fract_y
 _atom_site_fract_z
 _atom_site_occupancy
  Sr  Sr0  1  0.50410859  0.98845145  0.75000000  1
  Sr  Sr1  1  0.99589141  0.48845145  0.75000000  1
  Ca  Ca2  1  0.50050027  0.00577278  0.25000000  1
  Ca  Ca3  1  0.99949973  0.50577278  0.25000000  1
  Mn  Mn4  1  0.49959087  0.49866813  0.00430854  1
  Mn  Mn5  1  0.00040913  0.99866813  0.49569146  1
  Mn  Mn6  1  0.49959087  0.49866813  0.49569146  1
  Mn  Mn7  1  0.00040913  0.99866813  0.00430854  1
  O  O8  1  0.26928106  0.77058299  0.03524588  1
  O  O9  1  0.23071894  0.27058299  0.46475412  1
  O  O10  1  0.72997354  0.23115649  0.51741382  1
  O  O11  1  0.77002646  0.73115649  0.98258618  1
  O  O12  1  0.72997354  0.23115649  0.98258618  1
  O  O13  1  0.77002646  0.73115649  0.51741382  1
  O  O14  1  0.26928106  0.77058299  0.46475412  1
  O  O15  1  0.23071894  0.27058299  0.03524588  1
  O  O16  1  0.56200913  0.50205014  0.25000000  1
  O  O17  1  0.93799087  0.00205014  0.25000000  1
  O  O18  1  0.45822089  0.50291040  0.75000000  1
  O  O19  1  0.04177911  0.00291040  0.75000000  1
