# generated using pymatgen
data_Ta3Mo3N4
_symmetry_space_group_name_H-M   'P 1'
_cell_length_a   3.04921416
_cell_length_b   3.04921416
_cell_length_c   12.66677961
_cell_angle_alpha   90.00000000
_cell_angle_beta   90.00000000
_cell_angle_gamma   90.00000000
_symmetry_Int_Tables_number   1
_chemical_formula_structural   Ta3Mo3N4
_chemical_formula_sum   'Ta3 Mo3 N4'
_cell_volume   117.77200537
_cell_formula_units_Z   1
loop_
 _symmetry_equiv_pos_site_id
 _symmetry_equiv_pos_as_xyz
  1  'x, y, z'
loop_
 _atom_site_type_symbol
 _atom_site_label
 _atom_site_symmetry_multiplicity
 _atom_site_fract_x
 _atom_site_fract_y
 _atom_site_fract_z
 _atom_site_occupancy
  Ta  Ta0  1  0.00000000  -0.00000000  0.64597234  1
  Ta  Ta1  1  -0.00000000  0.00000000  0.35247803  1
  Ta  Ta2  1  0.50000000  0.50000000  0.85231438  1
  Mo  Mo3  1  0.00000000  -0.00000000  0.00375297  1
  Mo  Mo4  1  0.50000000  0.50000000  0.49989808  1
  Mo  Mo5  1  0.50000000  0.50000000  0.14669628  1
  N  N6  1  0.50000000  0.50000000  0.32297668  1
  N  N7  1  0.00000000  -0.00000000  0.82526988  1
  N  N8  1  -0.00000000  0.00000000  0.17416432  1
  N  N9  1  0.50000000  0.50000000  0.67647705  1
