# generated using pymatgen
data_U3(Ga2Cu)4
_symmetry_space_group_name_H-M   'P 1'
_cell_length_a   4.09295061
_cell_length_b   4.09295061
_cell_length_c   16.07285321
_cell_angle_alpha   82.68496280
_cell_angle_beta   82.68496280
_cell_angle_gamma   90.00000000
_symmetry_Int_Tables_number   1
_chemical_formula_structural   U3(Ga2Cu)4
_chemical_formula_sum   'U3 Ga8 Cu4'
_cell_volume   264.85531536
_cell_formula_units_Z   1
loop_
 _symmetry_equiv_pos_site_id
 _symmetry_equiv_pos_as_xyz
  1  'x, y, z'
loop_
 _atom_site_type_symbol
 _atom_site_label
 _atom_site_symmetry_multiplicity
 _atom_site_fract_x
 _atom_site_fract_y
 _atom_site_fract_z
 _atom_site_occupancy
  U  U0  1  0.99758108  0.99758108  0.00483784  1
  U  U1  1  0.33575192  0.33575192  0.32849516  1
  U  U2  1  0.66666700  0.66666700  0.66666700  1
  Ga  Ga3  1  0.75050320  0.25050320  0.49899360  1
  Ga  Ga4  1  0.08282980  0.58282980  0.83433940  1
  Ga  Ga5  1  0.45825834  0.45825834  0.08348331  1
  Ga  Ga6  1  0.79704661  0.79704661  0.40590579  1
  Ga  Ga7  1  0.12818132  0.12818132  0.74363836  1
  Ga  Ga8  1  0.87507466  0.87507466  0.24984969  1
  Ga  Ga9  1  0.20515268  0.20515268  0.58969564  1
  Ga  Ga10  1  0.53628639  0.53628639  0.92742721  1
  Cu  Cu11  1  0.91666700  0.41666700  0.16666700  1
  Cu  Cu12  1  0.24992625  0.74992625  0.50014751  1
  Cu  Cu13  1  0.58340675  0.08340675  0.83318549  1
  Cu  Cu14  1  0.41666700  0.91666700  0.16666700  1
