# generated using pymatgen
data_TiAlNi
_symmetry_space_group_name_H-M   'P 1'
_cell_length_a   4.91349634
_cell_length_b   4.91369038
_cell_length_c   7.95633060
_cell_angle_alpha   90.00000000
_cell_angle_beta   90.00000000
_cell_angle_gamma   61.52036863
_symmetry_Int_Tables_number   1
_chemical_formula_structural   TiAlNi
_chemical_formula_sum   'Ti4 Al4 Ni4'
_cell_volume   168.84707525
_cell_formula_units_Z   4
loop_
 _symmetry_equiv_pos_site_id
 _symmetry_equiv_pos_as_xyz
  1  'x, y, z'
loop_
 _atom_site_type_symbol
 _atom_site_label
 _atom_site_symmetry_multiplicity
 _atom_site_fract_x
 _atom_site_fract_y
 _atom_site_fract_z
 _atom_site_occupancy
  Ti  Ti0  1  0.33328695  0.33324583  0.54379079  1
  Ti  Ti1  1  0.66408515  0.66405546  0.42322186  1
  Ti  Ti2  1  0.66408515  0.66405546  0.07677814  1
  Ti  Ti3  1  0.33328695  0.33324583  0.95620921  1
  Al  Al4  1  0.99115971  0.99109866  0.48873109  1
  Al  Al5  1  0.99115971  0.99109866  0.01126891  1
  Al  Al6  1  0.83738727  0.34958142  0.75000000  1
  Al  Al7  1  0.34965454  0.83727369  0.75000000  1
  Ni  Ni8  1  0.83737415  0.83742653  0.75000000  1
  Ni  Ni9  1  0.17446218  0.65405612  0.25000000  1
  Ni  Ni10  1  0.65397428  0.17462951  0.25000000  1
  Ni  Ni11  1  0.17008397  0.17023282  0.25000000  1
