# generated using pymatgen
data_Ti12Cu9(BiO18)2
_symmetry_space_group_name_H-M   'P 1'
_cell_length_a   6.47892046
_cell_length_b   10.54851687
_cell_length_c   10.54851687
_cell_angle_alpha   60.00000000
_cell_angle_beta   90.00000003
_cell_angle_gamma   89.99999997
_symmetry_Int_Tables_number   1
_chemical_formula_structural   Ti12Cu9(BiO18)2
_chemical_formula_sum   'Ti12 Cu9 Bi2 O36'
_cell_volume   624.33270169
_cell_formula_units_Z   1
loop_
 _symmetry_equiv_pos_site_id
 _symmetry_equiv_pos_as_xyz
  1  'x, y, z'
loop_
 _atom_site_type_symbol
 _atom_site_label
 _atom_site_symmetry_multiplicity
 _atom_site_fract_x
 _atom_site_fract_y
 _atom_site_fract_z
 _atom_site_occupancy
  Ti  Ti0  1  0.83333300  0.16666700  0.16666700  1
  Ti  Ti1  1  0.49667425  0.50675623  0.50944502  1
  Ti  Ti2  1  0.16999275  0.82657677  0.82388798  1
  Ti  Ti3  1  0.83333300  0.66666700  0.66666700  1
  Ti  Ti4  1  0.49462228  0.00000000  -0.00000000  1
  Ti  Ti5  1  0.17204472  0.33333300  0.33333300  1
  Ti  Ti6  1  0.49667425  0.50944502  0.98379874  1
  Ti  Ti7  1  0.16999275  0.82388798  0.34953426  1
  Ti  Ti8  1  0.83333300  0.16666700  0.66666700  1
  Ti  Ti9  1  0.16999275  0.34953426  0.82657677  1
  Ti  Ti10  1  0.83333300  0.66666700  0.16666700  1
  Ti  Ti11  1  0.49667425  0.98379874  0.50675623  1
  Cu  Cu12  1  0.99594374  0.49866862  0.49876362  1
  Cu  Cu13  1  0.67072326  0.83466438  0.83456938  1
  Cu  Cu14  1  0.33333300  0.16666700  0.16666700  1
  Cu  Cu15  1  0.67072326  0.33076523  0.83466438  1
  Cu  Cu16  1  0.33333300  0.66666700  0.16666700  1
  Cu  Cu17  1  0.99594374  0.00256777  0.49866862  1
  Cu  Cu18  1  0.99594374  0.49876362  0.00256777  1
  Cu  Cu19  1  0.67072326  0.83456938  0.33076523  1
  Cu  Cu20  1  0.33333300  0.16666700  0.66666700  1
  Bi  Bi21  1  0.00919292  -0.00000000  -0.00000000  1
  Bi  Bi22  1  0.65747408  0.33333300  0.33333300  1
  O  O23  1  0.24531210  0.44259949  0.62250978  1
  O  O24  1  0.91852238  0.78072454  0.95873222  1
  O  O25  1  0.58275270  0.11392084  0.29188294  1
  O  O26  1  0.34631141  0.35051109  0.17371037  1
  O  O27  1  0.00325875  0.68333538  0.50262383  1
  O  O28  1  0.68125202  0.01755446  0.84028808  1
  O  O29  1  0.98541498  0.31577854  0.49304492  1
  O  O30  1  0.66340725  0.64999862  0.83071017  1
  O  O31  1  0.32035559  0.98282191  0.15962263  1
  O  O32  1  0.08391430  0.21941216  0.04145006  1
  O  O33  1  0.74814362  0.55260946  0.37460178  1
  O  O34  1  0.42135490  0.89073351  0.71082322  1
  O  O35  1  0.42135490  0.39844327  0.89073351  1
  O  O36  1  0.08391430  0.73913678  0.21941216  1
  O  O37  1  0.74814362  0.07278976  0.55260946  1
  O  O38  1  0.66340725  0.51929221  0.64999862  1
  O  O39  1  0.32035559  0.85755546  0.98282191  1
  O  O40  1  0.98541498  0.19117554  0.31577854  1
  O  O41  1  0.68125202  0.14215746  0.01755446  1
  O  O42  1  0.34631141  0.47577754  0.35051109  1
  O  O43  1  0.00325875  0.81404179  0.68333538  1
  O  O44  1  0.91852238  0.26054424  0.78072454  1
  O  O45  1  0.58275270  0.59419622  0.11392084  1
  O  O46  1  0.24531210  0.93488973  0.44259949  1
  O  O47  1  0.00325875  0.50262383  0.81404179  1
  O  O48  1  0.68125202  0.84028808  0.14215746  1
  O  O49  1  0.34631141  0.17371037  0.47577754  1
  O  O50  1  0.58275270  0.29188294  0.59419622  1
  O  O51  1  0.24531210  0.62250978  0.93488973  1
  O  O52  1  0.91852238  0.95873222  0.26054424  1
  O  O53  1  0.74814362  0.37460178  0.07278976  1
  O  O54  1  0.42135490  0.71082322  0.39844327  1
  O  O55  1  0.08391430  0.04145006  0.73913678  1
  O  O56  1  0.32035559  0.15962263  0.85755546  1
  O  O57  1  0.98541498  0.49304492  0.19117554  1
  O  O58  1  0.66340725  0.83071017  0.51929221  1
