# generated using pymatgen
data_Sb8Cl2O11
_symmetry_space_group_name_H-M   'P 1'
_cell_length_a   4.21523236
_cell_length_b   9.39714591
_cell_length_c   11.47414419
_cell_angle_alpha   96.06080416
_cell_angle_beta   86.84209720
_cell_angle_gamma   73.79253520
_symmetry_Int_Tables_number   1
_chemical_formula_structural   Sb8Cl2O11
_chemical_formula_sum   'Sb8 Cl2 O11'
_cell_volume   432.29637711
_cell_formula_units_Z   1
loop_
 _symmetry_equiv_pos_site_id
 _symmetry_equiv_pos_as_xyz
  1  'x, y, z'
loop_
 _atom_site_type_symbol
 _atom_site_label
 _atom_site_symmetry_multiplicity
 _atom_site_fract_x
 _atom_site_fract_y
 _atom_site_fract_z
 _atom_site_occupancy
  Sb  Sb0  1  0.79336529  0.52380895  0.13790884  1
  Sb  Sb1  1  0.20663471  0.47619105  0.86209116  1
  Sb  Sb2  1  0.66822971  0.05251781  0.31808704  1
  Sb  Sb3  1  0.33177029  0.94748219  0.68191296  1
  Sb  Sb4  1  0.27446671  0.85950850  0.06264812  1
  Sb  Sb5  1  0.72553329  0.14049150  0.93735188  1
  Sb  Sb6  1  0.31291307  0.44697095  0.34916750  1
  Sb  Sb7  1  0.68708693  0.55302905  0.65083250  1
  Cl  Cl8  1  0.88893601  0.18976647  0.48413951  1
  Cl  Cl9  1  0.11106399  0.81023353  0.51586049  1
  O  O10  1  0.78242888  0.48654902  0.30653114  1
  O  O11  1  0.21757112  0.51345098  0.69346886  1
  O  O12  1  0.26382832  0.53729899  0.19420952  1
  O  O13  1  0.73617168  0.46270101  0.80579048  1
  O  O14  1  0.08416518  0.99831082  0.21016626  1
  O  O15  1  0.91583482  0.00168918  0.78983374  1
  O  O16  1  0.66628114  0.74766401  0.14087672  1
  O  O17  1  0.33371886  0.25233599  0.85912328  1
  O  O18  1  0.50000000  -0.00000000  -0.00000000  1
  O  O19  1  0.47087101  0.24310814  0.25596129  1
  O  O20  1  0.52912899  0.75689186  0.74403871  1
