# generated using pymatgen
data_RbTa7(CuO7)3
_symmetry_space_group_name_H-M   'P 1'
_cell_length_a   7.55208517
_cell_length_b   7.68054057
_cell_length_c   14.73801435
_cell_angle_alpha   90.00000000
_cell_angle_beta   75.15463882
_cell_angle_gamma   90.00000000
_symmetry_Int_Tables_number   1
_chemical_formula_structural   RbTa7(CuO7)3
_chemical_formula_sum   'Rb2 Ta14 Cu6 O42'
_cell_volume   826.33053207
_cell_formula_units_Z   2
loop_
 _symmetry_equiv_pos_site_id
 _symmetry_equiv_pos_as_xyz
  1  'x, y, z'
loop_
 _atom_site_type_symbol
 _atom_site_label
 _atom_site_symmetry_multiplicity
 _atom_site_fract_x
 _atom_site_fract_y
 _atom_site_fract_z
 _atom_site_occupancy
  Rb  Rb0  1  0.99862344  -0.00000000  0.00275313  1
  Rb  Rb1  1  0.00024692  0.50000000  0.99950616  1
  Ta  Ta2  1  0.50380639  0.24979824  0.50061955  1
  Ta  Ta3  1  0.99557406  0.75020176  0.50061955  1
  Ta  Ta4  1  0.50380639  0.75020176  0.50061955  1
  Ta  Ta5  1  0.99557406  0.24979824  0.50061955  1
  Ta  Ta6  1  0.50009753  0.24834737  0.99980495  1
  Ta  Ta7  1  0.50009753  0.75165263  0.99980495  1
  Ta  Ta8  1  0.63442998  0.25433617  0.22744216  1
  Ta  Ta9  1  0.36011671  0.24936394  0.77246275  1
  Ta  Ta10  1  0.13812786  0.74566383  0.22744216  1
  Ta  Ta11  1  0.86742053  0.75063606  0.77246275  1
  Ta  Ta12  1  0.36011671  0.75063606  0.77246275  1
  Ta  Ta13  1  0.63442998  0.74566383  0.22744216  1
  Ta  Ta14  1  0.86742053  0.24936394  0.77246275  1
  Ta  Ta15  1  0.13812786  0.25433617  0.22744216  1
  Cu  Cu16  1  0.67947954  -0.00000000  0.64104093  1
  Cu  Cu17  1  0.31688103  -0.00000000  0.36623793  1
  Cu  Cu18  1  0.81520663  0.50000000  0.36958674  1
  Cu  Cu19  1  0.18256283  0.50000000  0.63487435  1
  Cu  Cu20  1  0.68010196  0.50000000  0.63979607  1
  Cu  Cu21  1  0.81951968  -0.00000000  0.36096064  1
  O  O22  1  0.90049184  0.28264764  0.19901631  1
  O  O23  1  0.09921534  0.30617146  0.80156932  1
  O  O24  1  0.90049184  0.71735236  0.19901631  1
  O  O25  1  0.09921534  0.69382854  0.80156932  1
  O  O26  1  0.58581899  0.50000000  0.22428926  1
  O  O27  1  0.44888902  0.50000000  0.74661975  1
  O  O28  1  0.18989175  0.50000000  0.22428926  1
  O  O29  1  0.80449123  0.50000000  0.74661975  1
  O  O30  1  0.63300127  0.31351212  0.37051500  1
  O  O31  1  0.35471759  0.28151276  0.62948803  1
  O  O32  1  0.99648373  0.68648788  0.37051500  1
  O  O33  1  0.01579439  0.71848724  0.62948803  1
  O  O34  1  0.35471759  0.71848724  0.62948803  1
  O  O35  1  0.63300127  0.68648788  0.37051500  1
  O  O36  1  0.01579439  0.28151276  0.62948803  1
  O  O37  1  0.99648373  0.31351212  0.37051500  1
  O  O38  1  0.50669086  -0.00000000  0.98661828  1
  O  O39  1  0.63394416  0.18837000  0.73211168  1
  O  O40  1  0.36419219  0.18637194  0.27161563  1
  O  O41  1  0.63394416  0.81163000  0.73211168  1
  O  O42  1  0.36419219  0.81362806  0.27161563  1
  O  O43  1  0.67882415  -0.00000000  0.26510581  1
  O  O44  1  0.32238646  -0.00000000  0.76089664  1
  O  O45  1  0.05607004  -0.00000000  0.26510581  1
  O  O46  1  0.91671690  -0.00000000  0.76089664  1
  O  O47  1  0.63887842  0.22272011  0.09903943  1
  O  O48  1  0.35768142  0.25903650  0.90188529  1
  O  O49  1  0.26208215  0.77727989  0.09903943  1
  O  O50  1  0.74043329  0.74096350  0.90188529  1
  O  O51  1  0.35768142  0.74096350  0.90188529  1
  O  O52  1  0.63887842  0.77727989  0.09903943  1
  O  O53  1  0.74043329  0.25903650  0.90188529  1
  O  O54  1  0.26208215  0.22272011  0.09903943  1
  O  O55  1  0.72503913  0.19483074  0.54992174  1
  O  O56  1  0.26770195  0.21308036  0.46459610  1
  O  O57  1  0.72503913  0.80516926  0.54992174  1
  O  O58  1  0.26770195  0.78691964  0.46459610  1
  O  O59  1  0.49409311  0.50000000  0.01181378  1
  O  O60  1  0.56479266  0.50000000  0.52282975  1
  O  O61  1  0.91237759  0.50000000  0.52282975  1
  O  O62  1  0.55237244  -0.00000000  0.46012462  1
  O  O63  1  0.98750294  -0.00000000  0.46012462  1
