# generated using pymatgen
data_Re4Pb4O13
_symmetry_space_group_name_H-M   'P 1'
_cell_length_a   7.45085021
_cell_length_b   7.45085021
_cell_length_c   7.45085021
_cell_angle_alpha   90.00000000
_cell_angle_beta   60.00000000
_cell_angle_gamma   120.00000000
_symmetry_Int_Tables_number   1
_chemical_formula_structural   Re4Pb4O13
_chemical_formula_sum   'Re4 Pb4 O13'
_cell_volume   292.48426031
_cell_formula_units_Z   1
loop_
 _symmetry_equiv_pos_site_id
 _symmetry_equiv_pos_as_xyz
  1  'x, y, z'
loop_
 _atom_site_type_symbol
 _atom_site_label
 _atom_site_symmetry_multiplicity
 _atom_site_fract_x
 _atom_site_fract_y
 _atom_site_fract_z
 _atom_site_occupancy
  Re  Re0  1  0.50005814  0.00008721  0.49997093  1
  Re  Re1  1  0.50005814  0.49997093  0.49997093  1
  Re  Re2  1  -0.00005814  0.49997093  0.00008721  1
  Re  Re3  1  -0.00005814  0.49997093  0.49997093  1
  Pb  Pb4  1  0.50461502  0.50692253  0.99769249  1
  Pb  Pb5  1  0.50461502  0.99769249  0.99769249  1
  Pb  Pb6  1  0.99538498  0.99769249  0.50692253  1
  Pb  Pb7  1  0.99538498  0.99769249  0.99769249  1
  O  O8  1  0.64060294  0.82030147  0.42969853  1
  O  O9  1  0.85939706  0.42969853  0.82030147  1
  O  O10  1  0.25000000  0.82030147  0.82030147  1
  O  O11  1  0.25000000  0.42969853  0.42969853  1
  O  O12  1  0.25000000  0.42969853  0.82030147  1
  O  O13  1  0.25000000  0.82030147  0.42969853  1
  O  O14  1  0.36622691  0.18311345  0.56688655  1
  O  O15  1  0.13377309  0.56688655  0.18311345  1
  O  O16  1  0.75000000  0.18311345  0.18311345  1
  O  O17  1  0.75000000  0.56688655  0.56688655  1
  O  O18  1  0.75000000  0.56688655  0.18311345  1
  O  O19  1  0.75000000  0.18311345  0.56688655  1
  O  O20  1  0.25000000  0.12500000  0.12500000  1
