# generated using pymatgen
data_NdTiFe11H
_symmetry_space_group_name_H-M   'P 1'
_cell_length_a   4.75248096
_cell_length_b   6.48146968
_cell_length_c   6.48148760
_cell_angle_alpha   97.35249703
_cell_angle_beta   111.50752623
_cell_angle_gamma   68.49287590
_symmetry_Int_Tables_number   1
_chemical_formula_structural   NdTiFe11H
_chemical_formula_sum   'Nd1 Ti1 Fe11 H1'
_cell_volume   172.80989973
_cell_formula_units_Z   1
loop_
 _symmetry_equiv_pos_site_id
 _symmetry_equiv_pos_as_xyz
  1  'x, y, z'
loop_
 _atom_site_type_symbol
 _atom_site_label
 _atom_site_symmetry_multiplicity
 _atom_site_fract_x
 _atom_site_fract_y
 _atom_site_fract_z
 _atom_site_occupancy
  Nd  Nd0  1  0.00599968  0.99400032  0.00599968  1
  Ti  Ti1  1  0.63155365  0.36844635  0.63155365  1
  Fe  Fe2  1  0.73186213  0.76813787  0.23186213  1
  Fe  Fe3  1  0.27151442  0.22848558  0.77151442  1
  Fe  Fe4  1  0.49838441  0.77569303  0.77246426  1
  Fe  Fe5  1  0.49838682  0.22753574  0.22430697  1
  Fe  Fe6  1  0.50038887  0.99746999  0.49947013  1
  Fe  Fe7  1  0.00161218  0.99747012  0.49947168  1
  Fe  Fe8  1  0.50038938  0.50052832  0.00252988  1
  Fe  Fe9  1  0.00161127  0.50052987  0.00253001  1
  Fe  Fe10  1  0.35733262  0.64266738  0.35733262  1
  Fe  Fe11  1  0.00017285  0.35844421  0.35878945  1
  Fe  Fe12  1  0.00017239  0.64121055  0.64155579  1
  H  H13  1  0.50061933  0.99938067  0.00061933  1
