# generated using pymatgen
data_Sr4La2Mn3(IrO6)3
_symmetry_space_group_name_H-M   'P 1'
_cell_length_a   5.67230305
_cell_length_b   5.67230305
_cell_length_c   13.83726332
_cell_angle_alpha   90.00000000
_cell_angle_beta   90.00000000
_cell_angle_gamma   120.00000000
_symmetry_Int_Tables_number   1
_chemical_formula_structural   Sr4La2Mn3(IrO6)3
_chemical_formula_sum   'Sr4 La2 Mn3 Ir3 O18'
_cell_volume   385.56685039
_cell_formula_units_Z   1
loop_
 _symmetry_equiv_pos_site_id
 _symmetry_equiv_pos_as_xyz
  1  'x, y, z'
loop_
 _atom_site_type_symbol
 _atom_site_label
 _atom_site_symmetry_multiplicity
 _atom_site_fract_x
 _atom_site_fract_y
 _atom_site_fract_z
 _atom_site_occupancy
  Sr  Sr0  1  0.66666700  0.33333300  0.91512206  1
  Sr  Sr1  1  0.33333300  0.66666700  0.08487794  1
  Sr  Sr2  1  0.66666700  0.33333300  0.41595217  1
  Sr  Sr3  1  0.33333300  0.66666700  0.58404783  1
  La  La4  1  -0.00000000  0.00000000  0.25101954  1
  La  La5  1  -0.00000000  -0.00000000  0.74898046  1
  Mn  Mn6  1  -0.00000000  0.00000000  0.00000000  1
  Mn  Mn7  1  0.33333300  0.66666700  0.33360376  1
  Mn  Mn8  1  0.66666700  0.33333300  0.66639624  1
  Ir  Ir9  1  0.66666700  0.33333300  0.16548011  1
  Ir  Ir10  1  -0.00000000  0.00000000  0.50000000  1
  Ir  Ir11  1  0.33333300  0.66666700  0.83451989  1
  O  O12  1  0.67291693  0.83645797  0.91049844  1
  O  O13  1  0.32025549  0.16012824  0.58691080  1
  O  O14  1  0.00480865  0.50240433  0.75067091  1
  O  O15  1  0.67974451  0.83987176  0.41308920  1
  O  O16  1  0.32708307  0.16354203  0.08950156  1
  O  O17  1  0.99519135  0.49759567  0.24932909  1
  O  O18  1  0.49759567  0.99519135  0.75067091  1
  O  O19  1  0.16012824  0.32025549  0.41308920  1
  O  O20  1  0.83987176  0.67974451  0.58691080  1
  O  O21  1  0.50240433  0.00480865  0.24932909  1
  O  O22  1  0.16354203  0.32708307  0.91049844  1
  O  O23  1  0.83645797  0.67291693  0.08950156  1
  O  O24  1  0.49759567  0.50240433  0.75067091  1
  O  O25  1  0.16012824  0.83987176  0.41308920  1
  O  O26  1  0.83987176  0.16012824  0.58691080  1
  O  O27  1  0.50240433  0.49759567  0.24932909  1
  O  O28  1  0.16354203  0.83645797  0.91049844  1
  O  O29  1  0.83645797  0.16354203  0.08950156  1
