# generated using pymatgen
data_SrCaDy4Be2O10
_symmetry_space_group_name_H-M   'P 1'
_cell_length_a   6.39954777
_cell_length_b   7.03700223
_cell_length_c   9.35823430
_cell_angle_alpha   90.00000000
_cell_angle_beta   90.30116609
_cell_angle_gamma   90.00000000
_symmetry_Int_Tables_number   1
_chemical_formula_structural   SrCaDy4Be2O10
_chemical_formula_sum   'Sr2 Ca2 Dy8 Be4 O20'
_cell_volume   421.42945701
_cell_formula_units_Z   2
loop_
 _symmetry_equiv_pos_site_id
 _symmetry_equiv_pos_as_xyz
  1  'x, y, z'
loop_
 _atom_site_type_symbol
 _atom_site_label
 _atom_site_symmetry_multiplicity
 _atom_site_fract_x
 _atom_site_fract_y
 _atom_site_fract_z
 _atom_site_occupancy
  Sr  Sr0  1  0.08247822  0.48021387  0.82473101  1
  Sr  Sr1  1  0.91752178  0.98021387  0.17526899  1
  Ca  Ca2  1  0.58376242  0.98362877  0.67679636  1
  Ca  Ca3  1  0.41623758  0.48362877  0.32320364  1
  Dy  Dy4  1  0.09700867  0.74521403  0.51962792  1
  Dy  Dy5  1  0.40530978  0.74837310  0.02225830  1
  Dy  Dy6  1  0.90299133  0.24521403  0.48037208  1
  Dy  Dy7  1  0.59469022  0.24837310  0.97774170  1
  Dy  Dy8  1  0.92808319  0.52230328  0.17864563  1
  Dy  Dy9  1  0.07191681  0.02230328  0.82135437  1
  Dy  Dy10  1  0.43332562  0.03337514  0.32872414  1
  Dy  Dy11  1  0.56667438  0.53337514  0.67127586  1
  Be  Be12  1  0.69040606  0.74608560  0.39970991  1
  Be  Be13  1  0.80348638  0.75069995  0.89619563  1
  Be  Be14  1  0.30959394  0.24608560  0.60029009  1
  Be  Be15  1  0.19651362  0.25069995  0.10380437  1
  O  O16  1  0.32350507  0.05519480  0.07793599  1
  O  O17  1  0.19977937  0.44680664  0.56854810  1
  O  O18  1  0.67649493  0.55519480  0.92206401  1
  O  O19  1  0.80022063  0.94680664  0.43145190  1
  O  O20  1  0.68993361  0.94731455  0.93033054  1
  O  O21  1  0.81970324  0.55315273  0.43114223  1
  O  O22  1  0.31006639  0.44731455  0.06966946  1
  O  O23  1  0.18029676  0.05315273  0.56885777  1
  O  O24  1  0.02304836  0.75066216  0.98890184  1
  O  O25  1  0.47633708  0.74790968  0.49303771  1
  O  O26  1  0.97695164  0.25066216  0.01109816  1
  O  O27  1  0.52366292  0.24790968  0.50696229  1
  O  O28  1  0.62964711  0.74115485  0.22307668  1
  O  O29  1  0.86071143  0.75599577  0.71865615  1
  O  O30  1  0.37035289  0.24115485  0.77692332  1
  O  O31  1  0.13928857  0.25599577  0.28134385  1
  O  O32  1  0.16154768  0.73589460  0.28160165  1
  O  O33  1  0.33957444  0.75602048  0.77735647  1
  O  O34  1  0.83845232  0.23589460  0.71839835  1
  O  O35  1  0.66042556  0.25602048  0.22264353  1
