# generated using pymatgen
data_Rb2U2O7
_symmetry_space_group_name_H-M   'P 1'
_cell_length_a   4.05694146
_cell_length_b   7.50966932
_cell_length_c   7.02385525
_cell_angle_alpha   71.95345858
_cell_angle_beta   89.99999525
_cell_angle_gamma   90.00000736
_symmetry_Int_Tables_number   1
_chemical_formula_structural   Rb2U2O7
_chemical_formula_sum   'Rb2 U2 O7'
_cell_volume   203.46356549
_cell_formula_units_Z   1
loop_
 _symmetry_equiv_pos_site_id
 _symmetry_equiv_pos_as_xyz
  1  'x, y, z'
loop_
 _atom_site_type_symbol
 _atom_site_label
 _atom_site_symmetry_multiplicity
 _atom_site_fract_x
 _atom_site_fract_y
 _atom_site_fract_z
 _atom_site_occupancy
  Rb  Rb0  1  0.00000000  0.49632567  0.49917170  1
  Rb  Rb1  1  0.50000000  0.50050473  0.99959648  1
  U  U2  1  1.00000000  0.99864046  0.01903234  1
  U  U3  1  0.50000000  0.98898252  0.48801031  1
  O  O4  1  0.50000000  0.25548061  0.41633850  1
  O  O5  1  1.00000000  0.25948570  0.90989000  1
  O  O6  1  0.50000000  0.72187910  0.57845685  1
  O  O7  1  0.00000000  0.73765194  0.10064790  1
  O  O8  1  0.50000000  0.02139640  0.15201496  1
  O  O9  1  0.00000000  0.97646839  0.38709082  1
  O  O10  1  0.50000000  0.97818447  0.80475014  1
