# generated using pymatgen
data_Sr3Co2TeO9
_symmetry_space_group_name_H-M   'P 1'
_cell_length_a   5.63300842
_cell_length_b   7.88682783
_cell_length_c   9.70864146
_cell_angle_alpha   66.03517851
_cell_angle_beta   73.13588855
_cell_angle_gamma   90.00000000
_symmetry_Int_Tables_number   1
_chemical_formula_structural   Sr3Co2TeO9
_chemical_formula_sum   'Sr6 Co4 Te2 O18'
_cell_volume   373.74999452
_cell_formula_units_Z   2
loop_
 _symmetry_equiv_pos_site_id
 _symmetry_equiv_pos_as_xyz
  1  'x, y, z'
loop_
 _atom_site_type_symbol
 _atom_site_label
 _atom_site_symmetry_multiplicity
 _atom_site_fract_x
 _atom_site_fract_y
 _atom_site_fract_z
 _atom_site_occupancy
  Sr  Sr0  1  0.50000000  0.23966837  0.00000000  1
  Sr  Sr1  1  0.83746742  0.59253860  0.32506417  1
  Sr  Sr2  1  0.16253258  0.91760377  0.67493583  1
  Sr  Sr3  1  0.50000000  0.76033163  0.00000000  1
  Sr  Sr4  1  0.83746742  0.08239623  0.32506417  1
  Sr  Sr5  1  0.16253258  0.40746140  0.67493583  1
  Co  Co6  1  -0.00000000  0.50000000  0.00000000  1
  Co  Co7  1  0.34136461  0.84136461  0.31726977  1
  Co  Co8  1  0.65863539  0.15863539  0.68273023  1
  Co  Co9  1  -0.00000000  -0.00000000  0.00000000  1
  Te  Te10  1  0.33218535  0.33218535  0.33562829  1
  Te  Te11  1  0.66781465  0.66781465  0.66437171  1
  O  O12  1  -0.00000000  0.26159687  0.00000000  1
  O  O13  1  0.33283748  0.57806298  0.33432405  1
  O  O14  1  0.66716252  0.91238803  0.66567595  1
  O  O15  1  0.17105512  0.41365530  0.17268841  1
  O  O16  1  0.50450692  0.74853970  0.50292159  1
  O  O17  1  0.83763657  0.08026634  0.83946732  1
  O  O18  1  0.34374453  0.58634470  0.82731159  1
  O  O19  1  0.67710388  0.91973366  0.16053268  1
  O  O20  1  0.00742751  0.25146030  0.49707841  1
  O  O21  1  -0.00000000  0.73840313  0.00000000  1
  O  O22  1  0.33283748  0.08761197  0.33432405  1
  O  O23  1  0.66716252  0.42193702  0.66567595  1
  O  O24  1  0.82894488  0.58634470  0.82731159  1
  O  O25  1  0.16236343  0.91973366  0.16053268  1
  O  O26  1  0.49549308  0.25146030  0.49707841  1
  O  O27  1  0.65625547  0.41365530  0.17268841  1
  O  O28  1  0.99257249  0.74853970  0.50292159  1
  O  O29  1  0.32289612  0.08026634  0.83946732  1
