# generated using pymatgen
data_NaSr12Ni7O23
_symmetry_space_group_name_H-M   'P 1'
_cell_length_a   8.01728061
_cell_length_b   9.68699958
_cell_length_c   9.72065335
_cell_angle_alpha   59.08658920
_cell_angle_beta   90.39756870
_cell_angle_gamma   90.32986664
_symmetry_Int_Tables_number   1
_chemical_formula_structural   NaSr12Ni7O23
_chemical_formula_sum   'Na1 Sr12 Ni7 O23'
_cell_volume   647.67813262
_cell_formula_units_Z   1
loop_
 _symmetry_equiv_pos_site_id
 _symmetry_equiv_pos_as_xyz
  1  'x, y, z'
loop_
 _atom_site_type_symbol
 _atom_site_label
 _atom_site_symmetry_multiplicity
 _atom_site_fract_x
 _atom_site_fract_y
 _atom_site_fract_z
 _atom_site_occupancy
  Na  Na0  1  0.50106369  0.00196226  0.00016939  1
  Sr  Sr1  1  0.27536137  0.67580244  0.29398633  1
  Sr  Sr2  1  0.27942791  0.02828031  0.67788599  1
  Sr  Sr3  1  0.27052247  0.29959056  0.02533280  1
  Sr  Sr4  1  0.74083948  0.33267478  0.97287208  1
  Sr  Sr5  1  0.74033011  0.69555132  0.33306780  1
  Sr  Sr6  1  0.73300893  0.96328095  0.70431626  1
  Sr  Sr7  1  0.99148162  0.67217404  0.03869662  1
  Sr  Sr8  1  0.99315812  0.30540413  0.67463885  1
  Sr  Sr9  1  0.99853959  0.02570430  0.28603957  1
  Sr  Sr10  1  0.49671894  0.63864798  0.99132862  1
  Sr  Sr11  1  0.50672437  0.36715695  0.64004484  1
  Sr  Sr12  1  0.50565730  0.99407513  0.36682113  1
  Ni  Ni13  1  0.15782518  0.00363108  0.99406037  1
  Ni  Ni14  1  0.84182869  0.00153265  0.99438269  1
  Ni  Ni15  1  0.07267817  0.33216324  0.33619508  1
  Ni  Ni16  1  0.87093788  0.67467635  0.66890386  1
  Ni  Ni17  1  0.38920799  0.33311245  0.33137319  1
  Ni  Ni18  1  0.55223236  0.66408410  0.66643958  1
  Ni  Ni19  1  0.71383509  0.34979499  0.31509923  1
  O  O20  1  0.23025802  0.16382893  0.36364854  1
  O  O21  1  0.23818528  0.47638626  0.16163073  1
  O  O22  1  0.23485578  0.35294192  0.47314910  1
  O  O23  1  0.81247627  0.87795079  0.50307685  1
  O  O24  1  0.80878765  0.63506762  0.86946172  1
  O  O25  1  0.80271799  0.50682033  0.64228817  1
  O  O26  1  0.28467680  0.17339368  0.83178516  1
  O  O27  1  0.28373632  0.99711092  0.16380413  1
  O  O28  1  0.28430696  0.83957606  0.99268991  1
  O  O29  1  0.71512500  0.82738231  0.01603438  1
  O  O30  1  0.71548713  0.15605836  0.82037515  1
  O  O31  1  0.71825374  0.01588536  0.15071536  1
  O  O32  1  0.00172946  0.16413920  0.98017904  1
  O  O33  1  0.00191845  0.85190220  0.15534934  1
  O  O34  1  0.00160000  0.99369355  0.84096506  1
  O  O35  1  0.47322549  0.46404376  0.84134252  1
  O  O36  1  0.47527058  0.69306073  0.46460918  1
  O  O37  1  0.47205672  0.83881039  0.69015298  1
  O  O38  1  0.52821969  0.50451291  0.30291059  1
  O  O39  1  0.54390172  0.19538165  0.49654665  1
  O  O40  1  0.52718134  0.30944966  0.18857381  1
  O  O41  1  0.91446697  0.45705754  0.36323533  1
  O  O42  1  0.90798341  0.29664586  0.22112205  1
