# generated using pymatgen
data_MnCu(SeO3)2
_symmetry_space_group_name_H-M   'P 1'
_cell_length_a   5.32254302
_cell_length_b   6.11804887
_cell_length_c   7.71500523
_cell_angle_alpha   90.00000000
_cell_angle_beta   91.68032525
_cell_angle_gamma   90.00000000
_symmetry_Int_Tables_number   1
_chemical_formula_structural   MnCu(SeO3)2
_chemical_formula_sum   'Mn2 Cu2 Se4 O12'
_cell_volume   251.12014612
_cell_formula_units_Z   2
loop_
 _symmetry_equiv_pos_site_id
 _symmetry_equiv_pos_as_xyz
  1  'x, y, z'
loop_
 _atom_site_type_symbol
 _atom_site_label
 _atom_site_symmetry_multiplicity
 _atom_site_fract_x
 _atom_site_fract_y
 _atom_site_fract_z
 _atom_site_occupancy
  Mn  Mn0  1  -0.00000000  0.50000000  0.50000000  1
  Mn  Mn1  1  0.50000000  0.00000000  -0.00000000  1
  Cu  Cu2  1  -0.00000000  0.50000000  -0.00000000  1
  Cu  Cu3  1  0.50000000  0.00000000  0.50000000  1
  Se  Se4  1  0.50349811  0.53639008  0.24925488  1
  Se  Se5  1  0.99650189  0.03639008  0.25074512  1
  Se  Se6  1  0.49650189  0.46360992  0.75074512  1
  Se  Se7  1  0.00349811  0.96360992  0.74925488  1
  O  O8  1  0.61335003  0.69040668  0.07988139  1
  O  O9  1  0.88664997  0.19040668  0.42011861  1
  O  O10  1  0.38769531  0.30176107  0.57519758  1
  O  O11  1  0.11230469  0.80176107  0.92480242  1
  O  O12  1  0.38664997  0.30959332  0.92011861  1
  O  O13  1  0.11335003  0.80959332  0.57988139  1
  O  O14  1  0.61230469  0.69823893  0.42480242  1
  O  O15  1  0.88769531  0.19823893  0.07519758  1
  O  O16  1  0.17417405  0.57641733  0.24357967  1
  O  O17  1  0.32582595  0.07641733  0.25642033  1
  O  O18  1  0.82582595  0.42358267  0.75642033  1
  O  O19  1  0.67417405  0.92358267  0.74357967  1
