# generated using pymatgen
data_Mn3B4Mo3
_symmetry_space_group_name_H-M   'P 1'
_cell_length_a   3.09196002
_cell_length_b   5.70171717
_cell_length_c   5.70171717
_cell_angle_alpha   91.04620778
_cell_angle_beta   90.00000000
_cell_angle_gamma   90.00000000
_symmetry_Int_Tables_number   1
_chemical_formula_structural   Mn3B4Mo3
_chemical_formula_sum   'Mn3 B4 Mo3'
_cell_volume   100.50156070
_cell_formula_units_Z   1
loop_
 _symmetry_equiv_pos_site_id
 _symmetry_equiv_pos_as_xyz
  1  'x, y, z'
loop_
 _atom_site_type_symbol
 _atom_site_label
 _atom_site_symmetry_multiplicity
 _atom_site_fract_x
 _atom_site_fract_y
 _atom_site_fract_z
 _atom_site_occupancy
  Mn  Mn0  1  -0.00000000  0.49694995  0.50018304  1
  Mn  Mn1  1  -0.00000000  0.00018304  0.99694995  1
  Mn  Mn2  1  0.50000000  0.17348651  0.67348651  1
  B  B3  1  -0.00000000  0.61342799  0.11342799  1
  B  B4  1  -0.00000000  0.37232259  0.87232259  1
  B  B5  1  -0.00000000  0.90076644  0.62285915  1
  B  B6  1  -0.00000000  0.12285915  0.40076644  1
  Mo  Mo7  1  0.50000000  0.82709712  0.32709712  1
  Mo  Mo8  1  0.50000000  0.31856195  0.17434526  1
  Mo  Mo9  1  0.50000000  0.67434526  0.81856195  1
