# generated using pymatgen
data_Mn3Ni4Sb
_symmetry_space_group_name_H-M   'P 1'
_cell_length_a   4.18745080
_cell_length_b   4.18745080
_cell_length_c   7.39541729
_cell_angle_alpha   73.55401563
_cell_angle_beta   90.00000000
_cell_angle_gamma   120.00000006
_symmetry_Int_Tables_number   1
_chemical_formula_structural   Mn3Ni4Sb
_chemical_formula_sum   'Mn3 Ni4 Sb1'
_cell_volume   106.13295363
_cell_formula_units_Z   1
loop_
 _symmetry_equiv_pos_site_id
 _symmetry_equiv_pos_as_xyz
  1  'x, y, z'
loop_
 _atom_site_type_symbol
 _atom_site_label
 _atom_site_symmetry_multiplicity
 _atom_site_fract_x
 _atom_site_fract_y
 _atom_site_fract_z
 _atom_site_occupancy
  Mn  Mn0  1  0.99620851  0.99241702  0.01137448  1
  Mn  Mn1  1  0.50379149  0.00758298  0.48862552  1
  Mn  Mn2  1  0.25000000  0.50000000  0.25000000  1
  Ni  Ni3  1  0.62162995  0.24325990  0.13511016  1
  Ni  Ni4  1  0.12913018  0.25826036  0.61260946  1
  Ni  Ni5  1  0.87837005  0.75674010  0.36488984  1
  Ni  Ni6  1  0.37086982  0.74173964  0.88739054  1
  Sb  Sb7  1  0.75000000  0.50000000  0.75000000  1
