# generated using pymatgen
data_Mo3(SeS)2
_symmetry_space_group_name_H-M   'P 1'
_cell_length_a   6.53865376
_cell_length_b   6.60924375
_cell_length_c   6.60983162
_cell_angle_alpha   91.67843007
_cell_angle_beta   91.62315869
_cell_angle_gamma   91.65694360
_symmetry_Int_Tables_number   1
_chemical_formula_structural   Mo3(SeS)2
_chemical_formula_sum   'Mo6 Se4 S4'
_cell_volume   285.28393296
_cell_formula_units_Z   2
loop_
 _symmetry_equiv_pos_site_id
 _symmetry_equiv_pos_as_xyz
  1  'x, y, z'
loop_
 _atom_site_type_symbol
 _atom_site_label
 _atom_site_symmetry_multiplicity
 _atom_site_fract_x
 _atom_site_fract_y
 _atom_site_fract_z
 _atom_site_occupancy
  Mo  Mo0  1  0.59343402  0.45458408  0.77978854  1
  Mo  Mo1  1  0.44792893  0.77945830  0.59028559  1
  Mo  Mo2  1  0.78815924  0.59831757  0.44845445  1
  Mo  Mo3  1  0.40867868  0.55102035  0.21366374  1
  Mo  Mo4  1  0.54721485  0.21386778  0.41130270  1
  Mo  Mo5  1  0.20986352  0.41085532  0.54871189  1
  Se  Se6  1  0.75117458  0.37772786  0.12726528  1
  Se  Se7  1  0.37366790  0.12763428  0.75013048  1
  Se  Se8  1  0.79201339  0.79357714  0.78786316  1
  Se  Se9  1  0.20776583  0.21163398  0.21142906  1
  S  S10  1  0.86232327  0.27771854  0.60690427  1
  S  S11  1  0.27201436  0.60984742  0.86432645  1
  S  S12  1  0.61048130  0.86605905  0.27452580  1
  S  S13  1  0.13528014  0.72769832  0.38534858  1
