# generated using pymatgen
data_LiLa3Ti4O12
_symmetry_space_group_name_H-M   'P 1'
_cell_length_a   5.55604420
_cell_length_b   5.55567246
_cell_length_c   8.79744738
_cell_angle_alpha   71.59928556
_cell_angle_beta   71.59819304
_cell_angle_gamma   89.98438040
_symmetry_Int_Tables_number   1
_chemical_formula_structural   LiLa3Ti4O12
_chemical_formula_sum   'Li1 La3 Ti4 O12'
_cell_volume   243.00207908
_cell_formula_units_Z   1
loop_
 _symmetry_equiv_pos_site_id
 _symmetry_equiv_pos_as_xyz
  1  'x, y, z'
loop_
 _atom_site_type_symbol
 _atom_site_label
 _atom_site_symmetry_multiplicity
 _atom_site_fract_x
 _atom_site_fract_y
 _atom_site_fract_z
 _atom_site_occupancy
  Li  Li0  1  0.99999911  0.49999940  0.50000240  1
  La  La1  1  0.75154507  0.25154641  0.99693810  1
  La  La2  1  0.24844649  0.74844908  0.00307413  1
  La  La3  1  0.50000821  0.00000507  0.49998176  1
  Ti  Ti4  1  0.12260319  0.12259047  0.25479856  1
  Ti  Ti5  1  0.62258243  0.62259639  0.25481387  1
  Ti  Ti6  1  0.87740702  0.87741968  0.74518183  1
  Ti  Ti7  1  0.37742851  0.37741424  0.74516260  1
  O  O8  1  0.00002326  0.00002257  0.49995676  1
  O  O9  1  0.50001514  0.50001496  0.49997057  1
  O  O10  1  0.38271635  0.37315400  0.24412634  1
  O  O11  1  0.87317948  0.88274453  0.24412665  1
  O  O12  1  0.12682840  0.11725135  0.75588696  1
  O  O13  1  0.61726197  0.62683761  0.75588750  1
  O  O14  1  0.38271064  0.88273932  0.24423658  1
  O  O15  1  0.87307383  0.37304667  0.24423794  1
  O  O16  1  0.12693295  0.62694304  0.75577143  1
  O  O17  1  0.61727247  0.11726130  0.75577434  1
  O  O18  1  0.24993350  0.25003115  0.00003601  1
  O  O19  1  0.75003198  0.74993275  0.00003564  1
