# generated using pymatgen
data_Li2CoNiO4
_symmetry_space_group_name_H-M   'P 1'
_cell_length_a   2.97464900
_cell_length_b   5.00970611
_cell_length_c   5.15659127
_cell_angle_alpha   78.87381539
_cell_angle_beta   73.23590461
_cell_angle_gamma   89.99999969
_symmetry_Int_Tables_number   1
_chemical_formula_structural   Li2CoNiO4
_chemical_formula_sum   'Li2 Co1 Ni1 O4'
_cell_volume   72.06854712
_cell_formula_units_Z   1
loop_
 _symmetry_equiv_pos_site_id
 _symmetry_equiv_pos_as_xyz
  1  'x, y, z'
loop_
 _atom_site_type_symbol
 _atom_site_label
 _atom_site_symmetry_multiplicity
 _atom_site_fract_x
 _atom_site_fract_y
 _atom_site_fract_z
 _atom_site_occupancy
  Li  Li0  1  0.24749236  0.74959802  0.50501527  1
  Li  Li1  1  0.75250764  0.25040198  0.49498473  1
  Co  Co2  1  0.50000000  0.50000000  0.00000000  1
  Ni  Ni3  1  -0.00000000  -0.00000000  0.00000000  1
  O  O4  1  0.38599421  0.15286376  0.22801159  1
  O  O5  1  0.88538506  0.61740212  0.22922988  1
  O  O6  1  0.11461494  0.38259788  0.77077012  1
  O  O7  1  0.61400579  0.84713624  0.77198841  1
