# generated using pymatgen
data_Mg3C2O7
_symmetry_space_group_name_H-M   'P 1'
_cell_length_a   7.51082067
_cell_length_b   7.51082067
_cell_length_c   7.51082067
_cell_angle_alpha   65.66397633
_cell_angle_beta   72.90503405
_cell_angle_gamma   107.09496595
_symmetry_Int_Tables_number   1
_chemical_formula_structural   Mg3C2O7
_chemical_formula_sum   'Mg6 C4 O14'
_cell_volume   324.38827458
_cell_formula_units_Z   2
loop_
 _symmetry_equiv_pos_site_id
 _symmetry_equiv_pos_as_xyz
  1  'x, y, z'
loop_
 _atom_site_type_symbol
 _atom_site_label
 _atom_site_symmetry_multiplicity
 _atom_site_fract_x
 _atom_site_fract_y
 _atom_site_fract_z
 _atom_site_occupancy
  Mg  Mg0  1  0.28272596  0.78272596  0.50000000  1
  Mg  Mg1  1  0.71727404  0.50000000  0.78272596  1
  Mg  Mg2  1  0.50000000  0.25000000  0.25000000  1
  Mg  Mg3  1  0.28272596  0.50000000  0.21727404  1
  Mg  Mg4  1  0.71727404  0.21727404  0.50000000  1
  Mg  Mg5  1  0.50000000  0.75000000  0.75000000  1
  C  C6  1  0.47824575  0.45876064  0.54123936  1
  C  C7  1  0.52175425  0.98051489  0.01948511  1
  C  C8  1  0.00000000  0.54123936  0.98051489  1
  C  C9  1  -0.00000000  0.01948511  0.45876064  1
  O  O10  1  0.40595779  0.38795998  0.43449497  1
  O  O11  1  0.40595779  0.56550503  0.61204002  1
  O  O12  1  0.62725940  0.41961965  0.58038035  1
  O  O13  1  0.59404221  0.15954724  0.01799781  1
  O  O14  1  0.59404221  0.98200219  0.84045276  1
  O  O15  1  0.37274060  0.79236025  0.20763975  1
  O  O16  1  0.17754505  0.61204002  0.98200219  1
  O  O17  1  0.82245495  0.43449497  0.15954724  1
  O  O18  1  0.00000000  0.58038035  0.79236025  1
  O  O19  1  0.82245495  0.84045276  0.56550503  1
  O  O20  1  0.17754505  0.01799781  0.38795998  1
  O  O21  1  -0.00000000  0.20763975  0.41961965  1
  O  O22  1  0.50000000  0.50000000  -0.00000000  1
  O  O23  1  0.50000000  -0.00000000  0.50000000  1
