# generated using pymatgen
data_La2Si3
_symmetry_space_group_name_H-M   'P 1'
_cell_length_a   4.32324779
_cell_length_b   4.00021528
_cell_length_c   7.78974698
_cell_angle_alpha   75.12200862
_cell_angle_beta   73.88918768
_cell_angle_gamma   90.00000000
_symmetry_Int_Tables_number   1
_chemical_formula_structural   La2Si3
_chemical_formula_sum   'La2 Si3'
_cell_volume   124.71677207
_cell_formula_units_Z   1
loop_
 _symmetry_equiv_pos_site_id
 _symmetry_equiv_pos_as_xyz
  1  'x, y, z'
loop_
 _atom_site_type_symbol
 _atom_site_label
 _atom_site_symmetry_multiplicity
 _atom_site_fract_x
 _atom_site_fract_y
 _atom_site_fract_z
 _atom_site_occupancy
  La  La0  1  0.37576991  0.62576991  0.24846018  1
  La  La1  1  0.62551484  0.37551484  0.74897032  1
  Si  Si2  1  0.21013399  0.96013399  0.57973202  1
  Si  Si3  1  0.95508962  0.20508962  0.08982077  1
  Si  Si4  1  0.04749164  0.79749164  0.90501671  1
