# generated using pymatgen
data_LiGd(WO4)2
_symmetry_space_group_name_H-M   'P 1'
_cell_length_a   5.26081397
_cell_length_b   5.26081397
_cell_length_c   6.75274947
_cell_angle_alpha   67.07466402
_cell_angle_beta   67.07466402
_cell_angle_gamma   90.00000000
_symmetry_Int_Tables_number   1
_chemical_formula_structural   LiGd(WO4)2
_chemical_formula_sum   'Li1 Gd1 W2 O8'
_cell_volume   155.97560898
_cell_formula_units_Z   1
loop_
 _symmetry_equiv_pos_site_id
 _symmetry_equiv_pos_as_xyz
  1  'x, y, z'
loop_
 _atom_site_type_symbol
 _atom_site_label
 _atom_site_symmetry_multiplicity
 _atom_site_fract_x
 _atom_site_fract_y
 _atom_site_fract_z
 _atom_site_occupancy
  Li  Li0  1  0.87500000  0.12500000  0.25000000  1
  Gd  Gd1  1  0.12500000  0.87500000  0.75000000  1
  W  W2  1  0.37500000  0.62500000  0.25000000  1
  W  W3  1  0.62500000  0.37500000  0.75000000  1
  O  O4  1  0.44221028  0.77885685  0.42939910  1
  O  O5  1  0.12839062  0.29174405  0.42939910  1
  O  O6  1  0.78522951  0.12657608  0.92242278  1
  O  O7  1  0.29234771  0.45100114  0.92242278  1
  O  O8  1  0.54899886  0.21477049  0.57757722  1
  O  O9  1  0.87342392  0.70765229  0.57757722  1
  O  O10  1  0.22114315  0.87160938  0.07060090  1
  O  O11  1  0.70825595  0.55778972  0.07060090  1
