# generated using pymatgen
data_LiSm(WO4)2
_symmetry_space_group_name_H-M   'P 1'
_cell_length_a   5.28951967
_cell_length_b   5.28951967
_cell_length_c   6.80349843
_cell_angle_alpha   67.12417722
_cell_angle_beta   67.12417722
_cell_angle_gamma   90.00000000
_symmetry_Int_Tables_number   1
_chemical_formula_structural   LiSm(WO4)2
_chemical_formula_sum   'Li1 Sm1 W2 O8'
_cell_volume   159.00869507
_cell_formula_units_Z   1
loop_
 _symmetry_equiv_pos_site_id
 _symmetry_equiv_pos_as_xyz
  1  'x, y, z'
loop_
 _atom_site_type_symbol
 _atom_site_label
 _atom_site_symmetry_multiplicity
 _atom_site_fract_x
 _atom_site_fract_y
 _atom_site_fract_z
 _atom_site_occupancy
  Li  Li0  1  0.87500000  0.12500000  0.25000000  1
  Sm  Sm1  1  0.12500000  0.87500000  0.75000000  1
  W  W2  1  0.37500000  0.62500000  0.25000000  1
  W  W3  1  0.62500000  0.37500000  0.75000000  1
  O  O4  1  0.44150047  0.77966312  0.42742185  1
  O  O5  1  0.13107767  0.29291503  0.42742185  1
  O  O6  1  0.78596409  0.13027695  0.92171841  1
  O  O7  1  0.29231750  0.44800464  0.92171841  1
  O  O8  1  0.55199536  0.21403591  0.57828159  1
  O  O9  1  0.86972305  0.70768250  0.57828159  1
  O  O10  1  0.22033688  0.86892233  0.07257815  1
  O  O11  1  0.70708497  0.55849953  0.07257815  1
