# generated using pymatgen
data_Li3Al2CoO6
_symmetry_space_group_name_H-M   'P 1'
_cell_length_a   2.86589007
_cell_length_b   7.57264930
_cell_length_c   5.08944848
_cell_angle_alpha   108.61735508
_cell_angle_beta   90.00000538
_cell_angle_gamma   100.90762094
_symmetry_Int_Tables_number   1
_chemical_formula_structural   Li3Al2CoO6
_chemical_formula_sum   'Li3 Al2 Co1 O6'
_cell_volume   102.56544099
_cell_formula_units_Z   1
loop_
 _symmetry_equiv_pos_site_id
 _symmetry_equiv_pos_as_xyz
  1  'x, y, z'
loop_
 _atom_site_type_symbol
 _atom_site_label
 _atom_site_symmetry_multiplicity
 _atom_site_fract_x
 _atom_site_fract_y
 _atom_site_fract_z
 _atom_site_occupancy
  Li  Li0  1  0.33429738  0.66859575  0.00010306  1
  Li  Li1  1  0.99903562  0.99807125  -0.00010306  1
  Li  Li2  1  0.66666700  0.33333300  0.00000000  1
  Al  Al3  1  0.83427332  0.66854763  0.50019877  1
  Al  Al4  1  0.49905968  -0.00188063  0.49980123  1
  Co  Co5  1  0.16666600  0.33333300  0.50000000  1
  O  O6  1  0.92119717  0.84239434  0.28880891  1
  O  O7  1  0.58192439  0.16384778  0.27438064  1
  O  O8  1  0.25738802  0.51477703  0.27851623  1
  O  O9  1  0.07594498  0.15188997  0.72148377  1
  O  O10  1  0.75140961  0.50281822  0.72561936  1
  O  O11  1  0.41213583  0.82427266  0.71119109  1
