# generated using pymatgen
data_Ga40Mo8S
_symmetry_space_group_name_H-M   'P 1'
_cell_length_a   5.34390906
_cell_length_b   9.63833227
_cell_length_c   18.48961379
_cell_angle_alpha   89.80774609
_cell_angle_beta   90.00000000
_cell_angle_gamma   106.09445481
_symmetry_Int_Tables_number   1
_chemical_formula_structural   Ga40Mo8S
_chemical_formula_sum   'Ga40 Mo8 S1'
_cell_volume   915.00158348
_cell_formula_units_Z   1
loop_
 _symmetry_equiv_pos_site_id
 _symmetry_equiv_pos_as_xyz
  1  'x, y, z'
loop_
 _atom_site_type_symbol
 _atom_site_label
 _atom_site_symmetry_multiplicity
 _atom_site_fract_x
 _atom_site_fract_y
 _atom_site_fract_z
 _atom_site_occupancy
  Ga  Ga0  1  0.60543820  0.21087639  0.46830638  1
  Ga  Ga1  1  0.12124087  0.24248174  0.96249774  1
  Ga  Ga2  1  0.87875913  0.75751826  0.03750226  1
  Ga  Ga3  1  0.39456180  0.78912361  0.53169362  1
  Ga  Ga4  1  0.46780279  0.93560557  0.39498861  1
  Ga  Ga5  1  0.96200257  0.92400514  0.87830712  1
  Ga  Ga6  1  0.03799743  0.07599486  0.12169288  1
  Ga  Ga7  1  0.53219721  0.06439443  0.60501139  1
  Ga  Ga8  1  0.63243638  0.26487276  0.07662250  1
  Ga  Ga9  1  0.13074191  0.26148381  0.57448446  1
  Ga  Ga10  1  0.86925809  0.73851619  0.42551554  1
  Ga  Ga11  1  0.36756362  0.73512724  0.92337750  1
  Ga  Ga12  1  0.07538731  0.15077462  0.37066930  1
  Ga  Ga13  1  0.57594867  0.15189733  0.86739338  1
  Ga  Ga14  1  0.42405133  0.84810267  0.13260662  1
  Ga  Ga15  1  0.92461269  0.84922538  0.62933070  1
  Ga  Ga16  1  -0.00000000  0.50000000  -0.00000000  1
  Ga  Ga17  1  0.50000000  0.50000000  0.50000000  1
  Ga  Ga18  1  0.50000000  0.50000000  -0.00000000  1
  Ga  Ga19  1  -0.00000000  0.50000000  0.50000000  1
  Ga  Ga20  1  0.25148840  0.99793538  0.25183304  1
  Ga  Ga21  1  0.74851160  0.00206462  0.74816696  1
  Ga  Ga22  1  0.74644698  0.99793538  0.25183304  1
  Ga  Ga23  1  0.25355302  0.00206462  0.74816696  1
  Ga  Ga24  1  0.10204396  0.70158479  0.28671436  1
  Ga  Ga25  1  0.59719075  0.69980511  0.78386858  1
  Ga  Ga26  1  0.89738564  0.30019489  0.21613142  1
  Ga  Ga27  1  0.40045917  0.29841521  0.71328564  1
  Ga  Ga28  1  0.53511354  0.57136939  0.15071698  1
  Ga  Ga29  1  0.03420676  0.57034054  0.64857124  1
  Ga  Ga30  1  0.46386622  0.42965946  0.35142876  1
  Ga  Ga31  1  0.96374416  0.42863061  0.84928302  1
  Ga  Ga32  1  0.40280925  0.30019489  0.21613142  1
  Ga  Ga33  1  0.89795604  0.29841521  0.71328564  1
  Ga  Ga34  1  0.59954083  0.70158479  0.28671436  1
  Ga  Ga35  1  0.10261436  0.69980511  0.78386858  1
  Ga  Ga36  1  0.96579324  0.42965946  0.35142876  1
  Ga  Ga37  1  0.46488646  0.42863061  0.84928302  1
  Ga  Ga38  1  0.03625584  0.57136939  0.15071698  1
  Ga  Ga39  1  0.53613378  0.57034054  0.64857124  1
  Mo  Mo40  1  0.90481957  0.80963914  0.17844546  1
  Mo  Mo41  1  0.40703828  0.81407657  0.67340207  1
  Mo  Mo42  1  0.59296172  0.18592343  0.32659793  1
  Mo  Mo43  1  0.09518043  0.19036086  0.82155454  1
  Mo  Mo44  1  0.17787436  0.35574872  0.09593491  1
  Mo  Mo45  1  0.67438746  0.34877492  0.59311890  1
  Mo  Mo46  1  0.32561254  0.65122508  0.40688110  1
  Mo  Mo47  1  0.82212564  0.64425128  0.90406509  1
  S  S48  1  -0.00000000  -0.00000000  -0.00000000  1
