# generated using pymatgen
data_HfAlRh
_symmetry_space_group_name_H-M   'P 1'
_cell_length_a   5.30422202
_cell_length_b   5.30422097
_cell_length_c   8.21768161
_cell_angle_alpha   90.00000000
_cell_angle_beta   90.00000000
_cell_angle_gamma   60.64443150
_symmetry_Int_Tables_number   1
_chemical_formula_structural   HfAlRh
_chemical_formula_sum   'Hf4 Al4 Rh4'
_cell_volume   201.51480614
_cell_formula_units_Z   4
loop_
 _symmetry_equiv_pos_site_id
 _symmetry_equiv_pos_as_xyz
  1  'x, y, z'
loop_
 _atom_site_type_symbol
 _atom_site_label
 _atom_site_symmetry_multiplicity
 _atom_site_fract_x
 _atom_site_fract_y
 _atom_site_fract_z
 _atom_site_occupancy
  Hf  Hf0  1  0.33406380  0.33406282  0.53982889  1
  Hf  Hf1  1  0.66967287  0.66967403  0.42959430  1
  Hf  Hf2  1  0.66967287  0.66967403  0.07040570  1
  Hf  Hf3  1  0.33406380  0.33406282  0.96017111  1
  Al  Al4  1  0.99550478  0.99550476  0.49391353  1
  Al  Al5  1  0.99550478  0.99550476  0.00608647  1
  Al  Al6  1  0.82927463  0.34509151  0.75000000  1
  Al  Al7  1  0.34509201  0.82927013  0.75000000  1
  Rh  Rh8  1  0.83010658  0.83010575  0.75000000  1
  Rh  Rh9  1  0.16870172  0.66158876  0.25000000  1
  Rh  Rh10  1  0.66158666  0.16870121  0.25000000  1
  Rh  Rh11  1  0.16675552  0.16675943  0.25000000  1
