# generated using pymatgen
data_Fe12Ge3As2
_symmetry_space_group_name_H-M   'P 1'
_cell_length_a   6.64313243
_cell_length_b   6.64313243
_cell_length_c   6.64313250
_cell_angle_alpha   62.03184674
_cell_angle_beta   62.03184674
_cell_angle_gamma   62.03184511
_symmetry_Int_Tables_number   1
_chemical_formula_structural   Fe12Ge3As2
_chemical_formula_sum   'Fe12 Ge3 As2'
_cell_volume   216.72129351
_cell_formula_units_Z   1
loop_
 _symmetry_equiv_pos_site_id
 _symmetry_equiv_pos_as_xyz
  1  'x, y, z'
loop_
 _atom_site_type_symbol
 _atom_site_label
 _atom_site_symmetry_multiplicity
 _atom_site_fract_x
 _atom_site_fract_y
 _atom_site_fract_z
 _atom_site_occupancy
  Fe  Fe0  1  0.07971721  0.37825326  0.85056894  1
  Fe  Fe1  1  0.37825326  0.85056894  0.07971721  1
  Fe  Fe2  1  0.85056894  0.07971721  0.37825326  1
  Fe  Fe3  1  0.62819268  0.85738956  0.32968360  1
  Fe  Fe4  1  0.85738956  0.32968360  0.62819268  1
  Fe  Fe5  1  0.32968360  0.62819268  0.85738956  1
  Fe  Fe6  1  0.46912360  0.46912360  0.46912360  1
  Fe  Fe7  1  0.23850347  0.23850347  0.23850347  1
  Fe  Fe8  1  0.85437045  0.85437045  0.85437045  1
  Fe  Fe9  1  0.11424272  0.59358752  0.35347077  1
  Fe  Fe10  1  0.59358752  0.35347077  0.11424272  1
  Fe  Fe11  1  0.35347077  0.11424272  0.59358752  1
  Ge  Ge12  1  0.20109934  0.85358764  0.50670414  1
  Ge  Ge13  1  0.85358764  0.50670414  0.20109934  1
  Ge  Ge14  1  0.50670414  0.20109934  0.85358764  1
  As  As15  1  0.99980056  0.99980056  0.99980056  1
  As  As16  1  0.70870454  0.70870454  0.70870454  1
