# generated using pymatgen
data_K2U2O7
_symmetry_space_group_name_H-M   'P 1'
_cell_length_a   4.03509055
_cell_length_b   7.18253891
_cell_length_c   6.98762832
_cell_angle_alpha   71.12121026
_cell_angle_beta   90.00000122
_cell_angle_gamma   89.99999697
_symmetry_Int_Tables_number   1
_chemical_formula_structural   K2U2O7
_chemical_formula_sum   'K2 U2 O7'
_cell_volume   191.62245565
_cell_formula_units_Z   1
loop_
 _symmetry_equiv_pos_site_id
 _symmetry_equiv_pos_as_xyz
  1  'x, y, z'
loop_
 _atom_site_type_symbol
 _atom_site_label
 _atom_site_symmetry_multiplicity
 _atom_site_fract_x
 _atom_site_fract_y
 _atom_site_fract_z
 _atom_site_occupancy
  K  K0  1  1.00000000  0.49547153  0.49908672  1
  K  K1  1  0.50000000  0.50138619  0.99874697  1
  U  U2  1  0.00000000  0.99720007  0.01856717  1
  U  U3  1  0.50000000  0.98895985  0.48839093  1
  O  O4  1  0.50000000  0.26930341  0.41007712  1
  O  O5  1  0.00000000  0.27158618  0.90733482  1
  O  O6  1  0.50000000  0.70804297  0.58322125  1
  O  O7  1  1.00000000  0.72228384  0.10529089  1
  O  O8  1  0.50000000  0.01950610  0.15225738  1
  O  O9  1  1.00000000  0.97788148  0.38781331  1
  O  O10  1  0.50000000  0.97737839  0.80621342  1
