# generated using pymatgen
data_Ho4US7
_symmetry_space_group_name_H-M   'P 1'
_cell_length_a   3.77204891
_cell_length_b   6.66022341
_cell_length_c   11.62660914
_cell_angle_alpha   104.18841513
_cell_angle_beta   90.00000000
_cell_angle_gamma   73.55006881
_symmetry_Int_Tables_number   1
_chemical_formula_structural   Ho4US7
_chemical_formula_sum   'Ho4 U1 S7'
_cell_volume   270.83231346
_cell_formula_units_Z   1
loop_
 _symmetry_equiv_pos_site_id
 _symmetry_equiv_pos_as_xyz
  1  'x, y, z'
loop_
 _atom_site_type_symbol
 _atom_site_label
 _atom_site_symmetry_multiplicity
 _atom_site_fract_x
 _atom_site_fract_y
 _atom_site_fract_z
 _atom_site_occupancy
  Ho  Ho0  1  0.69925316  0.60149367  0.18816793  1
  Ho  Ho1  1  0.30205226  0.39589549  0.81087164  1
  Ho  Ho2  1  0.99977448  0.00045105  0.99778994  1
  Ho  Ho3  1  0.11753246  0.76493507  0.57711987  1
  U  U4  1  0.88430630  0.23138739  0.42395623  1
  S  S5  1  0.73962673  0.52074654  0.65271303  1
  S  S6  1  0.25592271  0.48815457  0.34874300  1
  S  S7  1  0.34113923  0.31772155  0.05079477  1
  S  S8  1  0.65947479  0.68105042  0.94936428  1
  S  S9  1  0.04015721  0.91968559  0.21353832  1
  S  S10  1  0.95961528  0.08076944  0.78458323  1
  S  S11  1  0.50114538  0.99770924  0.50235776  1
