# generated using pymatgen
data_Ho2(Fe3Si)3
_symmetry_space_group_name_H-M   'P 1'
_cell_length_a   3.81915662
_cell_length_b   7.06559295
_cell_length_c   7.06559295
_cell_angle_alpha   89.38324143
_cell_angle_beta   90.00000000
_cell_angle_gamma   90.00000000
_symmetry_Int_Tables_number   1
_chemical_formula_structural   Ho2(Fe3Si)3
_chemical_formula_sum   'Ho2 Fe9 Si3'
_cell_volume   190.65119624
_cell_formula_units_Z   1
loop_
 _symmetry_equiv_pos_site_id
 _symmetry_equiv_pos_as_xyz
  1  'x, y, z'
loop_
 _atom_site_type_symbol
 _atom_site_label
 _atom_site_symmetry_multiplicity
 _atom_site_fract_x
 _atom_site_fract_y
 _atom_site_fract_z
 _atom_site_occupancy
  Ho  Ho0  1  0.00000000  0.50439299  0.50439299  1
  Ho  Ho1  1  0.50000000  0.99522114  0.99522114  1
  Fe  Fe2  1  0.50000000  0.14299489  0.59270257  1
  Fe  Fe3  1  0.50000000  0.85079111  0.40540943  1
  Fe  Fe4  1  -0.00000000  0.35123081  0.08697488  1
  Fe  Fe5  1  0.00000000  0.65812788  0.91341628  1
  Fe  Fe6  1  0.50000000  0.59270257  0.14299489  1
  Fe  Fe7  1  0.50000000  0.40540943  0.85079111  1
  Fe  Fe8  1  0.00000000  0.08697488  0.35123081  1
  Fe  Fe9  1  0.00000000  0.91341628  0.65812788  1
  Fe  Fe10  1  0.50000000  0.71683477  0.71683477  1
  Si  Si11  1  0.50000000  0.28120190  0.28120190  1
  Si  Si12  1  0.00000000  0.78324093  0.21746043  1
  Si  Si13  1  0.00000000  0.21746043  0.78324093  1
