# generated using pymatgen
data_Er2Ti12(CuO4)9
_symmetry_space_group_name_H-M   'P 1'
_cell_length_a   6.45079183
_cell_length_b   10.50974426
_cell_length_c   10.50974426
_cell_angle_alpha   120.00000000
_cell_angle_beta   89.99999997
_cell_angle_gamma   89.99999997
_symmetry_Int_Tables_number   1
_chemical_formula_structural   Er2Ti12(CuO4)9
_chemical_formula_sum   'Er2 Ti12 Cu9 O36'
_cell_volume   617.06079651
_cell_formula_units_Z   1
loop_
 _symmetry_equiv_pos_site_id
 _symmetry_equiv_pos_as_xyz
  1  'x, y, z'
loop_
 _atom_site_type_symbol
 _atom_site_label
 _atom_site_symmetry_multiplicity
 _atom_site_fract_x
 _atom_site_fract_y
 _atom_site_fract_z
 _atom_site_occupancy
  Er  Er0  1  0.00468263  -0.00000000  0.00000000  1
  Er  Er1  1  0.66198437  0.66666700  0.33333300  1
  Ti  Ti2  1  0.17046930  0.65286408  0.82507812  1
  Ti  Ti3  1  0.83333300  0.33333300  0.16666700  1
  Ti  Ti4  1  0.49619770  0.01380292  0.50825488  1
  Ti  Ti5  1  0.17393035  0.66666700  0.33333300  1
  Ti  Ti6  1  0.83333300  0.33333300  0.66666700  1
  Ti  Ti7  1  0.49273665  0.00000000  -0.00000000  1
  Ti  Ti8  1  0.83333300  0.83333300  0.66666700  1
  Ti  Ti9  1  0.49619770  0.49445196  0.98619708  1
  Ti  Ti10  1  0.17046930  0.17221504  0.34713592  1
  Ti  Ti11  1  0.49619770  0.49174512  0.50554804  1
  Ti  Ti12  1  0.17046930  0.17492188  0.82778496  1
  Ti  Ti13  1  0.83333300  0.83333300  0.16666700  1
  Cu  Cu14  1  0.33333300  0.33333300  0.16666700  1
  Cu  Cu15  1  0.99468395  0.99629882  0.49834186  1
  Cu  Cu16  1  0.67198305  0.67036818  0.83499114  1
  Cu  Cu17  1  0.99468395  0.50165814  0.49795696  1
  Cu  Cu18  1  0.67198305  0.16500886  0.83537604  1
  Cu  Cu19  1  0.33333300  0.83333300  0.16666700  1
  Cu  Cu20  1  0.33333300  0.83333300  0.66666700  1
  Cu  Cu21  1  0.99468395  0.50204304  0.00370118  1
  Cu  Cu22  1  0.67198305  0.16462396  0.32963182  1
  O  O23  1  0.24429875  0.06345223  0.62219361  1
  O  O24  1  0.92028938  0.74520552  0.95965259  1
  O  O25  1  0.58379117  0.41021661  0.29217249  1
  O  O26  1  0.35160150  0.52632584  0.17667061  1
  O  O27  1  0.00292372  0.18487726  0.50165231  1
  O  O28  1  0.68775954  0.86074938  0.84348534  1
  O  O29  1  0.97890646  0.80591662  0.48984866  1
  O  O30  1  0.66374328  0.48178974  0.83168069  1
  O  O31  1  0.31506550  0.14034116  0.15666239  1
  O  O32  1  0.08287583  0.25645039  0.04116051  1
  O  O33  1  0.74637662  0.92146048  0.37368141  1
  O  O34  1  0.42236825  0.60321477  0.71113939  1
  O  O35  1  0.42236825  0.28886061  0.89207538  1
  O  O36  1  0.08287583  0.95883949  0.21528888  1
  O  O37  1  0.74637662  0.62631859  0.54778007  1
  O  O38  1  0.66374328  0.16831931  0.65010906  1
  O  O39  1  0.31506550  0.84333761  0.98367777  1
  O  O40  1  0.97890646  0.51015134  0.31606896  1
  O  O41  1  0.68775954  0.15651466  0.01726504  1
  O  O42  1  0.35160150  0.82332939  0.34965523  1
  O  O43  1  0.00292372  0.49834769  0.68322394  1
  O  O44  1  0.92028938  0.04034741  0.78555393  1
  O  O45  1  0.58379117  0.70782751  0.11804412  1
  O  O46  1  0.24429875  0.37780639  0.44125762  1
  O  O47  1  0.00292372  0.31677606  0.81512274  1
  O  O48  1  0.68775954  0.98273496  0.13925062  1
  O  O49  1  0.35160150  0.65034477  0.47367416  1
  O  O50  1  0.58379117  0.88195588  0.58978339  1
  O  O51  1  0.24429875  0.55874238  0.93654777  1
  O  O52  1  0.92028938  0.21444607  0.25479448  1
  O  O53  1  0.74637662  0.45221993  0.07853952  1
  O  O54  1  0.42236825  0.10792462  0.39678523  1
  O  O55  1  0.08287583  0.78471112  0.74354961  1
  O  O56  1  0.31506550  0.01632223  0.85965884  1
  O  O57  1  0.97890646  0.68393104  0.19408338  1
  O  O58  1  0.66374328  0.34989094  0.51821026  1
