# generated using pymatgen
data_Dy4CrSe7
_symmetry_space_group_name_H-M   'P 1'
_cell_length_a   3.98094556
_cell_length_b   6.82561927
_cell_length_c   11.95306728
_cell_angle_alpha   104.93296139
_cell_angle_beta   89.99999995
_cell_angle_gamma   73.04515394
_symmetry_Int_Tables_number   1
_chemical_formula_structural   Dy4CrSe7
_chemical_formula_sum   'Dy4 Cr1 Se7'
_cell_volume   299.19049268
_cell_formula_units_Z   1
loop_
 _symmetry_equiv_pos_site_id
 _symmetry_equiv_pos_as_xyz
  1  'x, y, z'
loop_
 _atom_site_type_symbol
 _atom_site_label
 _atom_site_symmetry_multiplicity
 _atom_site_fract_x
 _atom_site_fract_y
 _atom_site_fract_z
 _atom_site_occupancy
  Dy  Dy0  1  0.69369215  0.61261570  0.20777118  1
  Dy  Dy1  1  0.30690490  0.38619021  0.80116615  1
  Dy  Dy2  1  0.99849382  0.00301235  0.00777930  1
  Dy  Dy3  1  0.11314364  0.77371273  0.56244907  1
  Cr  Cr4  1  0.88433726  0.23132548  0.42517205  1
  Se  Se5  1  0.74750439  0.50499122  0.63369326  1
  Se  Se6  1  0.27313106  0.45373788  0.35179254  1
  Se  Se7  1  0.33549690  0.32900619  0.05124515  1
  Se  Se8  1  0.66006039  0.67987922  0.94856061  1
  Se  Se9  1  0.03027816  0.93944369  0.23114891  1
  Se  Se10  1  0.96520965  0.06958071  0.78488299  1
  Se  Se11  1  0.49174769  0.01650463  0.49433879  1
