# generated using pymatgen
data_Cu4Si(GeO4)3
_symmetry_space_group_name_H-M   'P 1'
_cell_length_a   2.94411403
_cell_length_b   4.85287537
_cell_length_c   17.45774339
_cell_angle_alpha   90.00000000
_cell_angle_beta   90.00000000
_cell_angle_gamma   90.00000000
_symmetry_Int_Tables_number   1
_chemical_formula_structural   Cu4Si(GeO4)3
_chemical_formula_sum   'Cu4 Si1 Ge3 O12'
_cell_volume   249.42608523
_cell_formula_units_Z   1
loop_
 _symmetry_equiv_pos_site_id
 _symmetry_equiv_pos_as_xyz
  1  'x, y, z'
loop_
 _atom_site_type_symbol
 _atom_site_label
 _atom_site_symmetry_multiplicity
 _atom_site_fract_x
 _atom_site_fract_y
 _atom_site_fract_z
 _atom_site_occupancy
  Cu  Cu0  1  0.00000000  0.48917549  0.24774792  1
  Cu  Cu1  1  -0.00000000  0.50018000  0.75022749  1
  Cu  Cu2  1  -0.00000000  0.48917549  0.00225208  1
  Cu  Cu3  1  -0.00000000  0.50018000  0.49977251  1
  Si  Si4  1  0.50000000  0.09621954  0.12500000  1
  Ge  Ge5  1  0.50000000  0.08179658  0.62500000  1
  Ge  Ge6  1  0.50000000  0.91295482  0.37336847  1
  Ge  Ge7  1  0.50000000  0.91295482  0.87663153  1
  O  O8  1  0.50000000  0.28110247  0.20331551  1
  O  O9  1  0.50000000  0.28511047  0.70858800  1
  O  O10  1  0.50000000  0.70351378  0.29066715  1
  O  O11  1  0.50000000  0.71575663  0.79182450  1
  O  O12  1  0.50000000  0.28110247  0.04668449  1
  O  O13  1  0.50000000  0.28511047  0.54141200  1
  O  O14  1  0.50000000  0.71575663  0.45817550  1
  O  O15  1  0.50000000  0.70351378  0.95933285  1
  O  O16  1  -0.00000000  0.92535653  0.12500000  1
  O  O17  1  -0.00000000  0.87107746  0.62500000  1
  O  O18  1  -0.00000000  0.12498129  0.37403945  1
  O  O19  1  0.00000000  0.12498129  0.87596055  1
