# generated using pymatgen
data_Er2Si3
_symmetry_space_group_name_H-M   'P 1'
_cell_length_a   3.83941576
_cell_length_b   3.98053869
_cell_length_c   6.79401137
_cell_angle_alpha   90.00000000
_cell_angle_beta   90.00000000
_cell_angle_gamma   90.00000000
_symmetry_Int_Tables_number   1
_chemical_formula_structural   Er2Si3
_chemical_formula_sum   'Er2 Si3'
_cell_volume   103.83248837
_cell_formula_units_Z   1
loop_
 _symmetry_equiv_pos_site_id
 _symmetry_equiv_pos_as_xyz
  1  'x, y, z'
loop_
 _atom_site_type_symbol
 _atom_site_label
 _atom_site_symmetry_multiplicity
 _atom_site_fract_x
 _atom_site_fract_y
 _atom_site_fract_z
 _atom_site_occupancy
  Er  Er0  1  0.00000000  0.50000000  0.00858794  1
  Er  Er1  1  0.50000000  0.50000000  0.49343165  1
  Si  Si2  1  0.50000000  0.00000000  0.81426139  1
  Si  Si3  1  0.50000000  0.00000000  0.15456295  1
  Si  Si4  1  0.00000000  0.00000000  0.35715607  1
