# generated using pymatgen
data_ErMn2(Fe2Sn3)2
_symmetry_space_group_name_H-M   'P 1'
_cell_length_a   5.42473058
_cell_length_b   5.42983220
_cell_length_c   9.00768217
_cell_angle_alpha   90.00039751
_cell_angle_beta   90.00054503
_cell_angle_gamma   60.28175043
_symmetry_Int_Tables_number   1
_chemical_formula_structural   ErMn2(Fe2Sn3)2
_chemical_formula_sum   'Er1 Mn2 Fe4 Sn6'
_cell_volume   230.42748931
_cell_formula_units_Z   1
loop_
 _symmetry_equiv_pos_site_id
 _symmetry_equiv_pos_as_xyz
  1  'x, y, z'
loop_
 _atom_site_type_symbol
 _atom_site_label
 _atom_site_symmetry_multiplicity
 _atom_site_fract_x
 _atom_site_fract_y
 _atom_site_fract_z
 _atom_site_occupancy
  Er  Er0  1  0.99997810  -0.00000479  0.00058428  1
  Mn  Mn1  1  0.49998826  0.00000274  0.24633656  1
  Mn  Mn2  1  0.99998645  0.50000308  0.24644079  1
  Fe  Fe3  1  0.49998568  0.50000155  0.24628342  1
  Fe  Fe4  1  0.49999496  0.99999894  0.75325587  1
  Fe  Fe5  1  0.99998413  0.50000624  0.75320495  1
  Fe  Fe6  1  0.49998586  0.49999856  0.75256326  1
  Sn  Sn7  1  0.99998616  0.00000371  0.33671401  1
  Sn  Sn8  1  0.99999122  0.99999062  0.66287320  1
  Sn  Sn9  1  0.66635620  0.66619809  0.50128270  1
  Sn  Sn10  1  0.33360752  0.33380457  0.50128350  1
  Sn  Sn11  1  0.66626302  0.66586433  0.99959005  1
  Sn  Sn12  1  0.33369245  0.33413236  0.99958743  1
