# generated using pymatgen
data_Fe4Mo2N
_symmetry_space_group_name_H-M   'P 1'
_cell_length_a   7.69296252
_cell_length_b   7.69296252
_cell_length_c   7.69296252
_cell_angle_alpha   89.37474078
_cell_angle_beta   60.36033461
_cell_angle_gamma   119.63966539
_symmetry_Int_Tables_number   1
_chemical_formula_structural   Fe4Mo2N
_chemical_formula_sum   'Fe16 Mo8 N4'
_cell_volume   323.66579076
_cell_formula_units_Z   4
loop_
 _symmetry_equiv_pos_site_id
 _symmetry_equiv_pos_as_xyz
  1  'x, y, z'
loop_
 _atom_site_type_symbol
 _atom_site_label
 _atom_site_symmetry_multiplicity
 _atom_site_fract_x
 _atom_site_fract_y
 _atom_site_fract_z
 _atom_site_occupancy
  Fe  Fe0  1  0.49774943  0.49640611  0.00134332  1
  Fe  Fe1  1  0.49774943  0.00134332  0.00090726  1
  Fe  Fe2  1  0.00225057  0.00134332  0.49640611  1
  Fe  Fe3  1  0.00225057  0.00090726  0.00134332  1
  Fe  Fe4  1  0.08767638  0.88150328  0.20617310  1
  Fe  Fe5  1  0.08767638  0.20617310  0.20615052  1
  Fe  Fe6  1  0.41232362  0.20617310  0.88150328  1
  Fe  Fe7  1  0.41232362  0.20615052  0.20617310  1
  Fe  Fe8  1  0.91501612  0.12482663  0.79018950  1
  Fe  Fe9  1  0.91501612  0.79018950  0.79479438  1
  Fe  Fe10  1  0.58498388  0.79018950  0.12482663  1
  Fe  Fe11  1  0.58498388  0.79479438  0.79018950  1
  Fe  Fe12  1  0.64009912  0.82004956  0.42995044  1
  Fe  Fe13  1  0.85990088  0.42995044  0.82004956  1
  Fe  Fe14  1  0.25000000  0.82004956  0.82004956  1
  Fe  Fe15  1  0.25000000  0.42995044  0.42995044  1
  Mo  Mo16  1  0.25000000  0.43137722  0.81862278  1
  Mo  Mo17  1  0.25000000  0.81862278  0.43137722  1
  Mo  Mo18  1  0.35334513  0.17667257  0.57332743  1
  Mo  Mo19  1  0.14665487  0.57332743  0.17667257  1
  Mo  Mo20  1  0.75000000  0.17667257  0.17667257  1
  Mo  Mo21  1  0.75000000  0.57332743  0.57332743  1
  Mo  Mo22  1  0.75000000  0.57216184  0.17783816  1
  Mo  Mo23  1  0.75000000  0.17783816  0.57216184  1
  N  N24  1  0.49702864  0.98995569  0.50707295  1
  N  N25  1  0.49702864  0.50707295  0.49589841  1
  N  N26  1  0.00297136  0.50707295  0.98995569  1
  N  N27  1  0.00297136  0.49589841  0.50707295  1
