# generated using pymatgen
data_Cu8GeSe6
_symmetry_space_group_name_H-M   'P 1'
_cell_length_a   7.42383190
_cell_length_b   7.46034183
_cell_length_c   11.64498758
_cell_angle_alpha   90.23264798
_cell_angle_beta   90.11689579
_cell_angle_gamma   59.83718222
_symmetry_Int_Tables_number   1
_chemical_formula_structural   Cu8GeSe6
_chemical_formula_sum   'Cu16 Ge2 Se12'
_cell_volume   557.61964727
_cell_formula_units_Z   2
loop_
 _symmetry_equiv_pos_site_id
 _symmetry_equiv_pos_as_xyz
  1  'x, y, z'
loop_
 _atom_site_type_symbol
 _atom_site_label
 _atom_site_symmetry_multiplicity
 _atom_site_fract_x
 _atom_site_fract_y
 _atom_site_fract_z
 _atom_site_occupancy
  Cu  Cu0  1  0.62483292  0.18718612  0.04959469  1
  Cu  Cu1  1  0.18644017  0.18920184  0.04684936  1
  Cu  Cu2  1  0.18579726  0.62511084  0.04855468  1
  Cu  Cu3  1  0.37516708  0.81201904  0.54959469  1
  Cu  Cu4  1  0.81420274  0.81090810  0.54855468  1
  Cu  Cu5  1  0.81355983  0.37564200  0.54684936  1
  Cu  Cu6  1  0.03582150  0.47582167  0.42348395  1
  Cu  Cu7  1  0.48773894  0.47720137  0.42463321  1
  Cu  Cu8  1  0.96417850  0.51164317  0.92348395  1
  Cu  Cu9  1  0.51226106  0.96494032  0.92463321  1
  Cu  Cu10  1  0.94077683  0.53180302  0.17276674  1
  Cu  Cu11  1  0.52822053  0.52177520  0.18227757  1
  Cu  Cu12  1  0.53589653  0.94017637  0.17278789  1
  Cu  Cu13  1  0.05922317  0.47257985  0.67276674  1
  Cu  Cu14  1  0.46410347  0.47607291  0.67278789  1
  Cu  Cu15  1  0.47177947  0.04999573  0.68227757  1
  Ge  Ge16  1  0.99855611  0.00754606  0.30372575  1
  Ge  Ge17  1  0.00144389  0.00610217  0.80372575  1
  Se  Se18  1  0.65511133  0.65718335  0.04340689  1
  Se  Se19  1  0.34488867  0.31229468  0.54340689  1
  Se  Se20  1  0.00001810  0.99940337  0.50711941  1
  Se  Se21  1  0.99998190  0.99942147  0.00711941  1
  Se  Se22  1  0.65838294  0.68247347  0.40998307  1
  Se  Se23  1  0.34161706  0.34085641  0.90998307  1
  Se  Se24  1  0.63643293  0.18050744  0.25921537  1
  Se  Se25  1  0.18148321  0.18448406  0.25662733  1
  Se  Se26  1  0.17625333  0.64424450  0.25897410  1
  Se  Se27  1  0.36356707  0.81694037  0.75921537  1
  Se  Se28  1  0.82374667  0.82049782  0.75897410  1
  Se  Se29  1  0.81851679  0.36596727  0.75662733  1
