# generated using pymatgen
data_CuNi3(SnS4)2
_symmetry_space_group_name_H-M   'P 1'
_cell_length_a   7.08155212
_cell_length_b   7.08155212
_cell_length_c   7.11236921
_cell_angle_alpha   59.85594079
_cell_angle_beta   120.14405921
_cell_angle_gamma   119.17108583
_symmetry_Int_Tables_number   1
_chemical_formula_structural   CuNi3(SnS4)2
_chemical_formula_sum   'Cu1 Ni3 Sn2 S8'
_cell_volume   253.18732764
_cell_formula_units_Z   1
loop_
 _symmetry_equiv_pos_site_id
 _symmetry_equiv_pos_as_xyz
  1  'x, y, z'
loop_
 _atom_site_type_symbol
 _atom_site_label
 _atom_site_symmetry_multiplicity
 _atom_site_fract_x
 _atom_site_fract_y
 _atom_site_fract_z
 _atom_site_occupancy
  Cu  Cu0  1  0.24342538  0.75657462  0.74342538  1
  Ni  Ni1  1  0.00528948  0.99471052  0.00528948  1
  Ni  Ni2  1  0.62565080  0.37434920  0.87537633  1
  Ni  Ni3  1  0.62565080  0.37434920  0.37592527  1
  Sn  Sn4  1  0.62467076  0.87492011  0.37487532  1
  Sn  Sn5  1  0.12507989  0.37532924  0.37487532  1
  S  S6  1  0.85995675  0.14004325  0.61946451  1
  S  S7  1  0.85995675  0.14004325  0.10044899  1
  S  S8  1  0.84686271  0.61064146  0.11811062  1
  S  S9  1  0.38935854  0.15313729  0.11811062  1
  S  S10  1  0.39269679  0.60730321  0.13804033  1
  S  S11  1  0.39269679  0.60730321  0.64735325  1
  S  S12  1  0.40675718  0.14805261  0.62935228  1
  S  S13  1  0.85194739  0.59324282  0.62935228  1
