# generated using pymatgen
data_Eu(GaGe2)2
_symmetry_space_group_name_H-M   'P 1'
_cell_length_a   4.21406958
_cell_length_b   6.15495992
_cell_length_c   13.08936618
_cell_angle_alpha   90.00000000
_cell_angle_beta   90.00000000
_cell_angle_gamma   69.98103307
_symmetry_Int_Tables_number   1
_chemical_formula_structural   Eu(GaGe2)2
_chemical_formula_sum   'Eu2 Ga4 Ge8'
_cell_volume   318.99142691
_cell_formula_units_Z   2
loop_
 _symmetry_equiv_pos_site_id
 _symmetry_equiv_pos_as_xyz
  1  'x, y, z'
loop_
 _atom_site_type_symbol
 _atom_site_label
 _atom_site_symmetry_multiplicity
 _atom_site_fract_x
 _atom_site_fract_y
 _atom_site_fract_z
 _atom_site_occupancy
  Eu  Eu0  1  0.79687389  0.40625222  0.25000000  1
  Eu  Eu1  1  0.20312611  0.59374778  0.75000000  1
  Ga  Ga2  1  0.25553500  0.48893000  0.04874929  1
  Ga  Ga3  1  0.74446500  0.51107000  0.95125071  1
  Ga  Ga4  1  0.25553500  0.48893000  0.45125071  1
  Ga  Ga5  1  0.74446500  0.51107000  0.54874929  1
  Ge  Ge6  1  0.46905632  0.06188736  0.09379096  1
  Ge  Ge7  1  0.53094368  0.93811264  0.90620904  1
  Ge  Ge8  1  0.46905632  0.06188736  0.40620904  1
  Ge  Ge9  1  0.53094368  0.93811264  0.59379096  1
  Ge  Ge10  1  0.07195739  0.85608521  0.15390467  1
  Ge  Ge11  1  0.92804261  0.14391479  0.84609533  1
  Ge  Ge12  1  0.07195739  0.85608521  0.34609533  1
  Ge  Ge13  1  0.92804261  0.14391479  0.65390467  1
