# generated using pymatgen
data_InCuSe2
_symmetry_space_group_name_H-M   'P 1'
_cell_length_a   4.14048207
_cell_length_b   4.14906942
_cell_length_c   6.82263714
_cell_angle_alpha   90.00000000
_cell_angle_beta   90.21084609
_cell_angle_gamma   59.93136399
_symmetry_Int_Tables_number   1
_chemical_formula_structural   InCuSe2
_chemical_formula_sum   'In1 Cu1 Se2'
_cell_volume   101.43312501
_cell_formula_units_Z   1
loop_
 _symmetry_equiv_pos_site_id
 _symmetry_equiv_pos_as_xyz
  1  'x, y, z'
loop_
 _atom_site_type_symbol
 _atom_site_label
 _atom_site_symmetry_multiplicity
 _atom_site_fract_x
 _atom_site_fract_y
 _atom_site_fract_z
 _atom_site_occupancy
  In  In0  1  0.33506370  0.33246815  0.63924107  1
  Cu  Cu1  1  0.66576657  0.66711671  0.08017215  1
  Se  Se2  1  0.66603467  0.66698267  0.45576772  1
  Se  Se3  1  0.33313506  0.33343247  0.01441906  1
