# generated using pymatgen
data_CeMnCrSi2
_symmetry_space_group_name_H-M   'P 1'
_cell_length_a   4.01674226
_cell_length_b   4.01674226
_cell_length_c   5.87580494
_cell_angle_alpha   70.01320428
_cell_angle_beta   70.01320428
_cell_angle_gamma   90.00000000
_symmetry_Int_Tables_number   1
_chemical_formula_structural   CeMnCrSi2
_chemical_formula_sum   'Ce1 Mn1 Cr1 Si2'
_cell_volume   82.99008846
_cell_formula_units_Z   1
loop_
 _symmetry_equiv_pos_site_id
 _symmetry_equiv_pos_as_xyz
  1  'x, y, z'
loop_
 _atom_site_type_symbol
 _atom_site_label
 _atom_site_symmetry_multiplicity
 _atom_site_fract_x
 _atom_site_fract_y
 _atom_site_fract_z
 _atom_site_occupancy
  Ce  Ce0  1  0.00000000  0.00000000  0.00000000  1
  Mn  Mn1  1  0.25000000  0.75000000  0.50000000  1
  Cr  Cr2  1  0.75000000  0.25000000  0.50000000  1
  Si  Si3  1  0.37748808  0.37748808  0.24502385  1
  Si  Si4  1  0.62251192  0.62251192  0.75497615  1
