# generated using pymatgen
data_CsSm2Ti2NbO10
_symmetry_space_group_name_H-M   'P 1'
_cell_length_a   3.87181317
_cell_length_b   3.87181317
_cell_length_c   15.61081067
_cell_angle_alpha   89.40300523
_cell_angle_beta   90.59699477
_cell_angle_gamma   90.33182072
_symmetry_Int_Tables_number   1
_chemical_formula_structural   CsSm2Ti2NbO10
_chemical_formula_sum   'Cs1 Sm2 Ti2 Nb1 O10'
_cell_volume   233.99149738
_cell_formula_units_Z   1
loop_
 _symmetry_equiv_pos_site_id
 _symmetry_equiv_pos_as_xyz
  1  'x, y, z'
loop_
 _atom_site_type_symbol
 _atom_site_label
 _atom_site_symmetry_multiplicity
 _atom_site_fract_x
 _atom_site_fract_y
 _atom_site_fract_z
 _atom_site_occupancy
  Cs  Cs0  1  0.49986957  0.50013043  0.51084476  1
  Sm  Sm1  1  0.51813031  0.48186969  0.84350717  1
  Sm  Sm2  1  0.52887788  0.47112212  0.12778605  1
  Ti  Ti3  1  0.98631156  0.01368844  0.99842265  1
  Ti  Ti4  1  0.00127345  0.99872655  0.71730671  1
  Nb  Nb5  1  0.00138628  0.99861372  0.27871526  1
  O  O6  1  0.49941949  0.99656065  0.75355843  1
  O  O7  1  0.00343935  0.50058051  0.75355843  1
  O  O8  1  0.49357316  0.01244311  0.24521548  1
  O  O9  1  0.98755689  0.50642684  0.24521548  1
  O  O10  1  0.97796684  0.02203316  0.87839065  1
  O  O11  1  0.96811213  0.03188787  0.12752867  1
  O  O12  1  0.99785212  0.00214788  0.60845492  1
  O  O13  1  0.00370319  0.99629681  0.39356018  1
  O  O14  1  0.46867936  0.06015158  0.00896758  1
  O  O15  1  0.93984842  0.53132064  0.00896758  1
