# generated using pymatgen
data_CaH2C2O5
_symmetry_space_group_name_H-M   'P 1'
_cell_length_a   6.33067880
_cell_length_b   6.33067880
_cell_length_c   6.49943150
_cell_angle_alpha   76.01281306
_cell_angle_beta   76.01281306
_cell_angle_gamma   71.64018390
_symmetry_Int_Tables_number   1
_chemical_formula_structural   CaH2C2O5
_chemical_formula_sum   'Ca2 H4 C4 O10'
_cell_volume   235.98283284
_cell_formula_units_Z   2
loop_
 _symmetry_equiv_pos_site_id
 _symmetry_equiv_pos_as_xyz
  1  'x, y, z'
loop_
 _atom_site_type_symbol
 _atom_site_label
 _atom_site_symmetry_multiplicity
 _atom_site_fract_x
 _atom_site_fract_y
 _atom_site_fract_z
 _atom_site_occupancy
  Ca  Ca0  1  0.81741003  0.81553102  0.99567944  1
  Ca  Ca1  1  0.18446898  0.18258997  0.00432056  1
  H  H2  1  0.60662323  0.54576170  0.38314601  1
  H  H3  1  0.45423830  0.39337677  0.61685399  1
  H  H4  1  0.30292949  0.28746318  0.51878229  1
  H  H5  1  0.71253682  0.69707051  0.48121771  1
  C  C6  1  0.39372807  0.60627193  -0.00000000  1
  C  C7  1  0.60573610  0.39426390  0.00000000  1
  C  C8  1  0.07369001  0.05701501  0.53735321  1
  C  C9  1  0.94298499  0.92630999  0.46264679  1
  O  O10  1  0.31910290  0.34285391  0.64477710  1
  O  O11  1  0.65714609  0.68089710  0.35522290  1
  O  O12  1  0.19285301  0.16439062  0.38901562  1
  O  O13  1  0.83560938  0.80714699  0.61098438  1
  O  O14  1  0.04840207  0.04788084  0.73863891  1
  O  O15  1  0.95211916  0.95159793  0.26136109  1
  O  O16  1  0.57340110  0.20798474  0.99344026  1
  O  O17  1  0.79201526  0.42659890  0.00655974  1
  O  O18  1  0.42855818  0.79355316  0.99819781  1
  O  O19  1  0.20644684  0.57144182  0.00180219  1
