# generated using pymatgen
data_CaNdCrO4
_symmetry_space_group_name_H-M   'P 1'
_cell_length_a   3.87284370
_cell_length_b   3.87284370
_cell_length_c   6.62125530
_cell_angle_alpha   72.99857881
_cell_angle_beta   72.99857881
_cell_angle_gamma   90.01174929
_symmetry_Int_Tables_number   1
_chemical_formula_structural   CaNdCrO4
_chemical_formula_sum   'Ca1 Nd1 Cr1 O4'
_cell_volume   90.42133547
_cell_formula_units_Z   1
loop_
 _symmetry_equiv_pos_site_id
 _symmetry_equiv_pos_as_xyz
  1  'x, y, z'
loop_
 _atom_site_type_symbol
 _atom_site_label
 _atom_site_symmetry_multiplicity
 _atom_site_fract_x
 _atom_site_fract_y
 _atom_site_fract_z
 _atom_site_occupancy
  Ca  Ca0  1  0.35780959  0.35780959  0.28438083  1
  Nd  Nd1  1  0.64037018  0.64037018  0.71925964  1
  Cr  Cr2  1  0.99507005  0.99507005  0.00985989  1
  O  O3  1  0.50419000  0.00419000  0.99162001  1
  O  O4  1  0.00419000  0.50419000  0.99162001  1
  O  O5  1  0.16989559  0.16989559  0.66020882  1
  O  O6  1  0.82847460  0.82847460  0.34305080  1
