# generated using pymatgen
data_Cs(MoS)9
_symmetry_space_group_name_H-M   'P 1'
_cell_length_a   9.43280527
_cell_length_b   9.42868352
_cell_length_c   13.12519803
_cell_angle_alpha   90.00000000
_cell_angle_beta   90.00000000
_cell_angle_gamma   59.99950827
_symmetry_Int_Tables_number   1
_chemical_formula_structural   Cs(MoS)9
_chemical_formula_sum   'Cs2 Mo18 S18'
_cell_volume   1010.94207443
_cell_formula_units_Z   2
loop_
 _symmetry_equiv_pos_site_id
 _symmetry_equiv_pos_as_xyz
  1  'x, y, z'
loop_
 _atom_site_type_symbol
 _atom_site_label
 _atom_site_symmetry_multiplicity
 _atom_site_fract_x
 _atom_site_fract_y
 _atom_site_fract_z
 _atom_site_occupancy
  Cs  Cs0  1  0.66663172  0.66674399  0.25000000  1
  Cs  Cs1  1  0.33336828  0.33325601  0.75000000  1
  Mo  Mo2  1  0.17938198  0.84831571  0.25000000  1
  Mo  Mo3  1  0.18085652  0.84758710  0.58321643  1
  Mo  Mo4  1  0.18085652  0.84758710  0.91678357  1
  Mo  Mo5  1  0.97221908  0.17945578  0.25000000  1
  Mo  Mo6  1  0.97146398  0.18092826  0.58321234  1
  Mo  Mo7  1  0.97146398  0.18092826  0.91678766  1
  Mo  Mo8  1  0.84840134  0.97222162  0.25000000  1
  Mo  Mo9  1  0.84769335  0.97143450  0.58321949  1
  Mo  Mo10  1  0.84769335  0.97143450  0.91678051  1
  Mo  Mo11  1  0.81914348  0.15241290  0.08321643  1
  Mo  Mo12  1  0.81914348  0.15241290  0.41678357  1
  Mo  Mo13  1  0.82061802  0.15168429  0.75000000  1
  Mo  Mo14  1  0.02853602  0.81907174  0.08321234  1
  Mo  Mo15  1  0.02853602  0.81907174  0.41678766  1
  Mo  Mo16  1  0.02778092  0.82054422  0.75000000  1
  Mo  Mo17  1  0.15230665  0.02856550  0.08321949  1
  Mo  Mo18  1  0.15230665  0.02856550  0.41678051  1
  Mo  Mo19  1  0.15159866  0.02777838  0.75000000  1
  S  S20  1  0.05163205  0.67160492  0.25000000  1
  S  S21  1  0.05172416  0.67165959  0.58348633  1
  S  S22  1  0.05172416  0.67165959  0.91651367  1
  S  S23  1  0.27662252  0.05164515  0.25000000  1
  S  S24  1  0.27650749  0.05170091  0.58347797  1
  S  S25  1  0.27650749  0.05170091  0.91652203  1
  S  S26  1  0.67172903  0.27677974  0.25000000  1
  S  S27  1  0.67178472  0.27662407  0.58348842  1
  S  S28  1  0.67178472  0.27662407  0.91651158  1
  S  S29  1  0.94827584  0.32834041  0.08348633  1
  S  S30  1  0.94827584  0.32834041  0.41651367  1
  S  S31  1  0.94836795  0.32839508  0.75000000  1
  S  S32  1  0.72349251  0.94829909  0.08347797  1
  S  S33  1  0.72349251  0.94829909  0.41652203  1
  S  S34  1  0.72337748  0.94835485  0.75000000  1
  S  S35  1  0.32821528  0.72337593  0.08348842  1
  S  S36  1  0.32821528  0.72337593  0.41651158  1
  S  S37  1  0.32827097  0.72322026  0.75000000  1
