# generated using pymatgen
data_Ca4MnFe3(SiO3)10
_symmetry_space_group_name_H-M   'P 1'
_cell_length_a   6.70475844
_cell_length_b   7.51629566
_cell_length_c   11.85731618
_cell_angle_alpha   103.58405761
_cell_angle_beta   92.95111656
_cell_angle_gamma   93.63983752
_symmetry_Int_Tables_number   1
_chemical_formula_structural   Ca4MnFe3(SiO3)10
_chemical_formula_sum   'Ca4 Mn1 Fe3 Si10 O30'
_cell_volume   578.30227363
_cell_formula_units_Z   1
loop_
 _symmetry_equiv_pos_site_id
 _symmetry_equiv_pos_as_xyz
  1  'x, y, z'
loop_
 _atom_site_type_symbol
 _atom_site_label
 _atom_site_symmetry_multiplicity
 _atom_site_fract_x
 _atom_site_fract_y
 _atom_site_fract_z
 _atom_site_occupancy
  Ca  Ca0  1  0.84227886  0.21416022  0.04996675  1
  Ca  Ca1  1  0.15948797  0.79024449  0.95384067  1
  Ca  Ca2  1  0.70377842  0.77021899  0.48065148  1
  Ca  Ca3  1  0.29876929  0.23132619  0.51739443  1
  Mn  Mn4  1  0.93294477  0.40522425  0.35218357  1
  Fe  Fe5  1  0.81222598  0.95505407  0.76866219  1
  Fe  Fe6  1  0.18231336  0.04540935  0.23118671  1
  Fe  Fe7  1  0.06638848  0.59467962  0.64924013  1
  Si  Si8  1  0.79090142  0.19448354  0.55627631  1
  Si  Si9  1  0.20959830  0.80857577  0.44637152  1
  Si  Si10  1  0.57703584  0.53603439  0.68649310  1
  Si  Si11  1  0.42079069  0.46531792  0.31297176  1
  Si  Si12  1  0.65726508  0.71514744  0.94471968  1
  Si  Si13  1  0.34441310  0.28451430  0.05391160  1
  Si  Si14  1  0.88316994  0.67469586  0.16378985  1
  Si  Si15  1  0.11583453  0.32428477  0.83601459  1
  Si  Si16  1  0.68472657  0.01417666  0.28522001  1
  Si  Si17  1  0.31610583  0.98298925  0.71176628  1
  O  O18  1  0.63984016  0.45175741  0.37801724  1
  O  O19  1  0.35608087  0.54847168  0.62322435  1
  O  O20  1  0.87158917  0.13172044  0.24535146  1
  O  O21  1  0.12699006  0.85587457  0.74421498  1
  O  O22  1  0.97358245  0.33611762  0.53332467  1
  O  O23  1  0.03233838  0.67488970  0.48092365  1
  O  O24  1  0.76358887  0.66818707  0.65464694  1
  O  O25  1  0.23470049  0.33209872  0.34509848  1
  O  O26  1  0.61852184  0.31844808  0.62266780  1
  O  O27  1  0.37734612  0.68213542  0.37682123  1
  O  O28  1  0.84793318  0.03268911  0.61767274  1
  O  O29  1  0.14592105  0.96830187  0.38434993  1
  O  O30  1  0.77145877  0.60096994  0.03178593  1
  O  O31  1  0.22973885  0.39971550  0.96704713  1
  O  O32  1  0.93691003  0.49196458  0.20562517  1
  O  O33  1  0.06577066  0.50658219  0.79076123  1
  O  O34  1  0.52838343  0.94939089  0.76492041  1
  O  O35  1  0.46700983  0.04650523  0.23788349  1
  O  O36  1  0.58034514  0.55733005  0.82518419  1
  O  O37  1  0.42083285  0.44108577  0.17392955  1
  O  O38  1  0.47479970  0.81134127  0.00671435  1
  O  O39  1  0.52776930  0.18849434  0.99269589  1
  O  O40  1  0.74109516  0.79617012  0.26165677  1
  O  O41  1  0.25542465  0.19894827  0.73883181  1
  O  O42  1  0.82930784  0.86210137  0.91420845  1
  O  O43  1  0.17288809  0.13593360  0.08294451  1
  O  O44  1  0.92250302  0.19540646  0.85543707  1
  O  O45  1  0.07651294  0.80454100  0.14479897  1
  O  O46  1  0.67659229  0.07313227  0.43133938  1
  O  O47  1  0.33619635  0.93315835  0.56726158  1
