# generated using pymatgen
data_Ca4Mn2Al2O11
_symmetry_space_group_name_H-M   'P 1'
_cell_length_a   5.35587445
_cell_length_b   5.44861657
_cell_length_c   15.28974015
_cell_angle_alpha   79.82985385
_cell_angle_beta   80.00796444
_cell_angle_gamma   90.52568100
_symmetry_Int_Tables_number   1
_chemical_formula_structural   Ca4Mn2Al2O11
_chemical_formula_sum   'Ca8 Mn4 Al4 O22'
_cell_volume   432.14981109
_cell_formula_units_Z   2
loop_
 _symmetry_equiv_pos_site_id
 _symmetry_equiv_pos_as_xyz
  1  'x, y, z'
loop_
 _atom_site_type_symbol
 _atom_site_label
 _atom_site_symmetry_multiplicity
 _atom_site_fract_x
 _atom_site_fract_y
 _atom_site_fract_z
 _atom_site_occupancy
  Ca  Ca0  1  0.55578171  0.06392415  0.88545060  1
  Ca  Ca1  1  0.44421829  0.93607585  0.11454940  1
  Ca  Ca2  1  0.05876768  0.55062525  0.88545060  1
  Ca  Ca3  1  0.94123232  0.44937475  0.11454940  1
  Ca  Ca4  1  0.80220722  0.35503645  0.35835282  1
  Ca  Ca5  1  0.19779278  0.64496355  0.64164718  1
  Ca  Ca6  1  0.33943996  0.78661073  0.35835282  1
  Ca  Ca7  1  0.66056004  0.21338927  0.64164718  1
  Mn  Mn8  1  0.62807087  0.63559875  0.74931927  1
  Mn  Mn9  1  0.37192913  0.36440125  0.25068073  1
  Mn  Mn10  1  0.12260986  0.11508198  0.74931927  1
  Mn  Mn11  1  0.87739014  0.88491802  0.25068073  1
  Al  Al12  1  0.50000000  0.50000000  0.00000000  1
  Al  Al13  1  -0.00000000  -0.00000000  0.00000000  1
  Al  Al14  1  0.83376266  0.82040992  0.50000000  1
  Al  Al15  1  0.16623734  0.17959008  0.50000000  1
  O  O16  1  0.78902166  0.74869972  0.39563907  1
  O  O17  1  0.21097834  0.25130028  0.60436093  1
  O  O18  1  0.31533927  0.35566121  0.39563907  1
  O  O19  1  0.68466073  0.64433879  0.60436093  1
  O  O20  1  0.56905161  0.63636738  0.87005810  1
  O  O21  1  0.43094839  0.36363262  0.12994190  1
  O  O22  1  0.06089028  0.99357452  0.87005810  1
  O  O23  1  0.93910972  0.00642548  0.12994190  1
  O  O24  1  0.74295128  0.74295128  0.01409744  1
  O  O25  1  0.75653517  0.25653517  0.98692965  1
  O  O26  1  0.24346483  0.74346483  0.01307035  1
  O  O27  1  0.25704872  0.25704872  0.98590256  1
  O  O28  1  0.89081922  0.89081922  0.71836156  1
  O  O29  1  0.61222855  0.11222855  0.27554291  1
  O  O30  1  0.38777145  0.88777145  0.72445709  1
  O  O31  1  0.10918078  0.10918078  0.28163844  1
  O  O32  1  0.36998168  0.36998168  0.76003664  1
  O  O33  1  0.12866899  0.62866899  0.24266202  1
  O  O34  1  0.87133101  0.37133101  0.75733798  1
  O  O35  1  0.63001832  0.63001832  0.23996336  1
  O  O36  1  0.82274200  0.15241532  0.50000000  1
  O  O37  1  0.17725800  0.84758468  0.50000000  1
