# generated using pymatgen
data_Ba4Pr2(Cu2O5)3
_symmetry_space_group_name_H-M   'P 1'
_cell_length_a   5.62694124
_cell_length_b   5.62694124
_cell_length_c   12.34754910
_cell_angle_alpha   76.72325035
_cell_angle_beta   76.72325035
_cell_angle_gamma   89.54782775
_symmetry_Int_Tables_number   1
_chemical_formula_structural   Ba4Pr2(Cu2O5)3
_chemical_formula_sum   'Ba4 Pr2 Cu6 O15'
_cell_volume   369.91912466
_cell_formula_units_Z   1
loop_
 _symmetry_equiv_pos_site_id
 _symmetry_equiv_pos_as_xyz
  1  'x, y, z'
loop_
 _atom_site_type_symbol
 _atom_site_label
 _atom_site_symmetry_multiplicity
 _atom_site_fract_x
 _atom_site_fract_y
 _atom_site_fract_z
 _atom_site_occupancy
  Ba  Ba0  1  0.09567171  0.57972647  0.82460182  1
  Ba  Ba1  1  0.57972647  0.09567171  0.82460182  1
  Ba  Ba2  1  0.40432829  0.92027353  0.17539818  1
  Ba  Ba3  1  0.92027353  0.40432829  0.17539818  1
  Pr  Pr4  1  0.25000000  0.75000000  0.50000000  1
  Pr  Pr5  1  0.75000000  0.25000000  0.50000000  1
  Cu  Cu6  1  0.48954660  0.48954660  -0.00000000  1
  Cu  Cu7  1  0.01045340  0.01045340  0.00000000  1
  Cu  Cu8  1  0.17062104  0.17062104  0.65491843  1
  Cu  Cu9  1  0.67446053  0.67446053  0.65491843  1
  Cu  Cu10  1  0.32937896  0.32937896  0.34508157  1
  Cu  Cu11  1  0.82553947  0.82553947  0.34508157  1
  O  O12  1  0.06474337  0.06474337  0.83761877  1
  O  O13  1  0.59763785  0.59763785  0.83761877  1
  O  O14  1  0.43525663  0.43525663  0.16238123  1
  O  O15  1  0.90236215  0.90236215  0.16238123  1
  O  O16  1  0.93530605  0.93530605  0.62938790  1
  O  O17  1  0.43308392  0.43308392  0.63383217  1
  O  O18  1  0.43516974  0.93516974  0.62966052  1
  O  O19  1  0.93516974  0.43516974  0.62966052  1
  O  O20  1  0.06691608  0.06691608  0.36616783  1
  O  O21  1  0.56469395  0.56469395  0.37061210  1
  O  O22  1  0.56483026  0.06483026  0.37033948  1
  O  O23  1  0.06483026  0.56483026  0.37033948  1
  O  O24  1  0.25000000  0.25000000  -0.00000000  1
  O  O25  1  0.25000000  0.75000000  0.00000000  1
  O  O26  1  0.75000000  0.25000000  0.00000000  1
