# generated using pymatgen
data_Ca8Al11Fe(Si3O13)4
_symmetry_space_group_name_H-M   'P 1'
_cell_length_a   5.66940166
_cell_length_b   8.93667217
_cell_length_c   18.62735739
_cell_angle_alpha   90.66464287
_cell_angle_beta   90.00000000
_cell_angle_gamma   90.00000000
_symmetry_Int_Tables_number   1
_chemical_formula_structural   Ca8Al11Fe(Si3O13)4
_chemical_formula_sum   'Ca8 Al11 Fe1 Si12 O52'
_cell_volume   943.70244295
_cell_formula_units_Z   1
loop_
 _symmetry_equiv_pos_site_id
 _symmetry_equiv_pos_as_xyz
  1  'x, y, z'
loop_
 _atom_site_type_symbol
 _atom_site_label
 _atom_site_symmetry_multiplicity
 _atom_site_fract_x
 _atom_site_fract_y
 _atom_site_fract_z
 _atom_site_occupancy
  Ca  Ca0  1  0.25000000  0.11328873  0.28925867  1
  Ca  Ca1  1  0.25000000  0.61219909  0.79054102  1
  Ca  Ca2  1  0.75000000  0.38674807  0.21016744  1
  Ca  Ca3  1  0.75000000  0.88909089  0.71035231  1
  Ca  Ca4  1  0.25000000  0.81358928  0.42446479  1
  Ca  Ca5  1  0.25000000  0.31294071  0.92401791  1
  Ca  Ca6  1  0.75000000  0.68668057  0.07610684  1
  Ca  Ca7  1  0.75000000  0.18948818  0.57807182  1
  Al  Al8  1  0.50000412  0.99988859  -0.00001574  1
  Al  Al9  1  0.49943154  0.50309373  0.50100583  1
  Al  Al10  1  0.99999588  0.99988859  -0.00001574  1
  Al  Al11  1  0.00056846  0.50309373  0.50100583  1
  Al  Al12  1  0.49919572  0.74880580  0.24926694  1
  Al  Al13  1  0.50002805  0.24966855  0.75053769  1
  Al  Al14  1  0.00080428  0.74880580  0.24926694  1
  Al  Al15  1  0.99997195  0.24966855  0.75053769  1
  Al  Al16  1  0.75000000  0.82898242  0.88393326  1
  Al  Al17  1  0.25000000  0.17050308  0.11601745  1
  Al  Al18  1  0.25000000  0.67215761  0.61702595  1
  Fe  Fe19  1  0.75000000  0.32443593  0.38675225  1
  Si  Si20  1  0.25000000  0.18564746  0.47678536  1
  Si  Si21  1  0.25000000  0.68549266  0.97618784  1
  Si  Si22  1  0.75000000  0.31433126  0.02352610  1
  Si  Si23  1  0.75000000  0.81665063  0.52406853  1
  Si  Si24  1  0.25000000  0.47506941  0.34049312  1
  Si  Si25  1  0.25000000  0.97346893  0.84200248  1
  Si  Si26  1  0.75000000  0.02626765  0.15808561  1
  Si  Si27  1  0.75000000  0.52702843  0.65903006  1
  Si  Si28  1  0.75000000  0.95181834  0.36358321  1
  Si  Si29  1  0.75000000  0.45981950  0.86450958  1
  Si  Si30  1  0.25000000  0.53993100  0.13493656  1
  Si  Si31  1  0.25000000  0.04073537  0.63578607  1
  O  O32  1  0.75000000  0.12679121  0.34557026  1
  O  O33  1  0.75000000  0.63681875  0.85250134  1
  O  O34  1  0.25000000  0.36268304  0.14659280  1
  O  O35  1  0.25000000  0.86406960  0.64846312  1
  O  O36  1  0.75000000  0.51308418  0.43811266  1
  O  O37  1  0.75000000  0.00314506  0.93577183  1
  O  O38  1  0.25000000  0.99657731  0.06398653  1
  O  O39  1  0.25000000  0.49862927  0.56454694  1
  O  O40  1  0.49354883  0.28839090  0.48085876  1
  O  O41  1  0.49440722  0.78681512  0.97918571  1
  O  O42  1  0.99411538  0.21292681  0.02018752  1
  O  O43  1  0.99519613  0.71574800  0.52173848  1
  O  O44  1  0.50588462  0.21292681  0.02018752  1
  O  O45  1  0.50480387  0.71574800  0.52173848  1
  O  O46  1  0.00645117  0.28839090  0.48085876  1
  O  O47  1  0.00559278  0.78681512  0.97918571  1
  O  O48  1  0.51404891  0.87028195  0.33078539  1
  O  O49  1  0.51526310  0.37835005  0.82969311  1
  O  O50  1  0.01568004  0.62181350  0.16954668  1
  O  O51  1  0.01597346  0.12274262  0.67057147  1
  O  O52  1  0.48431996  0.62181350  0.16954668  1
  O  O53  1  0.48402654  0.12274262  0.67057147  1
  O  O54  1  0.98595109  0.87028195  0.33078539  1
  O  O55  1  0.98473690  0.37835005  0.82969311  1
  O  O56  1  0.25000000  0.63389247  0.29673924  1
  O  O57  1  0.25000000  0.13400018  0.79844042  1
  O  O58  1  0.75000000  0.86650483  0.20215149  1
  O  O59  1  0.75000000  0.36578400  0.70201861  1
  O  O60  1  0.25000000  0.07268437  0.40994445  1
  O  O61  1  0.25000000  0.57035956  0.91012248  1
  O  O62  1  0.75000000  0.42925317  0.08957979  1
  O  O63  1  0.75000000  0.93197525  0.59010563  1
  O  O64  1  0.25000000  0.53030059  0.42709421  1
  O  O65  1  0.25000000  0.03044006  0.92786622  1
  O  O66  1  0.75000000  0.96908286  0.07208688  1
  O  O67  1  0.75000000  0.47086908  0.57298534  1
  O  O68  1  0.75000000  0.91985874  0.45030114  1
  O  O69  1  0.75000000  0.41812244  0.95010844  1
  O  O70  1  0.25000000  0.58143786  0.04935507  1
  O  O71  1  0.25000000  0.08120444  0.54981970  1
  O  O72  1  0.75000000  0.63056566  0.27774319  1
  O  O73  1  0.75000000  0.13147424  0.77931495  1
  O  O74  1  0.25000000  0.86941902  0.22136965  1
  O  O75  1  0.25000000  0.36776583  0.72118472  1
  O  O76  1  0.47917700  0.36930963  0.32020002  1
  O  O77  1  0.48446814  0.86973776  0.82380472  1
  O  O78  1  0.98465036  0.13019447  0.17575363  1
  O  O79  1  0.98464999  0.63065337  0.67708913  1
  O  O80  1  0.51534964  0.13019447  0.17575363  1
  O  O81  1  0.51535001  0.63065337  0.67708913  1
  O  O82  1  0.02082300  0.36930963  0.32020002  1
  O  O83  1  0.01553186  0.86973776  0.82380472  1
