# generated using pymatgen
data_BaGaSn
_symmetry_space_group_name_H-M   'P 1'
_cell_length_a   4.68102082
_cell_length_b   4.66663479
_cell_length_c   10.55485187
_cell_angle_alpha   90.00000000
_cell_angle_beta   90.03334439
_cell_angle_gamma   60.10161669
_symmetry_Int_Tables_number   1
_chemical_formula_structural   BaGaSn
_chemical_formula_sum   'Ba2 Ga2 Sn2'
_cell_volume   199.88069582
_cell_formula_units_Z   2
loop_
 _symmetry_equiv_pos_site_id
 _symmetry_equiv_pos_as_xyz
  1  'x, y, z'
loop_
 _atom_site_type_symbol
 _atom_site_label
 _atom_site_symmetry_multiplicity
 _atom_site_fract_x
 _atom_site_fract_y
 _atom_site_fract_z
 _atom_site_occupancy
  Ba  Ba0  1  0.99925422  0.00037289  0.76713663  1
  Ba  Ba1  1  0.00074578  0.99962711  0.23286337  1
  Ga  Ga2  1  0.32966915  0.33516543  0.99294247  1
  Ga  Ga3  1  0.67033085  0.66483457  0.00705753  1
  Sn  Sn4  1  0.66703636  0.66648182  0.44548888  1
  Sn  Sn5  1  0.33296364  0.33351818  0.55451112  1
