# generated using pymatgen
data_YMg14FeO16
_symmetry_space_group_name_H-M   'P 1'
_cell_length_a   8.69200536
_cell_length_b   8.70590192
_cell_length_c   4.34347598
_cell_angle_alpha   90.00000000
_cell_angle_beta   90.00000000
_cell_angle_gamma   90.00000000
_symmetry_Int_Tables_number   1
_chemical_formula_structural   YMg14FeO16
_chemical_formula_sum   'Y1 Mg14 Fe1 O16'
_cell_volume   328.67841178
_cell_formula_units_Z   1
loop_
 _symmetry_equiv_pos_site_id
 _symmetry_equiv_pos_as_xyz
  1  'x, y, z'
loop_
 _atom_site_type_symbol
 _atom_site_label
 _atom_site_symmetry_multiplicity
 _atom_site_fract_x
 _atom_site_fract_y
 _atom_site_fract_z
 _atom_site_occupancy
  Y  Y0  1  0.00000000  0.00000000  0.00000000  1
  Mg  Mg1  1  0.50000000  0.00000000  0.00000000  1
  Mg  Mg2  1  0.50000000  0.50000000  0.00000000  1
  Mg  Mg3  1  0.00000000  0.26514097  0.50000000  1
  Mg  Mg4  1  0.00000000  0.73485903  0.50000000  1
  Mg  Mg5  1  0.50000000  0.25371215  0.50000000  1
  Mg  Mg6  1  0.50000000  0.74628785  0.50000000  1
  Mg  Mg7  1  0.26292108  0.00000000  0.50000000  1
  Mg  Mg8  1  0.25069852  0.50000000  0.50000000  1
  Mg  Mg9  1  0.73707892  0.00000000  0.50000000  1
  Mg  Mg10  1  0.74930148  0.50000000  0.50000000  1
  Mg  Mg11  1  0.25541703  0.26120727  -0.00000000  1
  Mg  Mg12  1  0.25541703  0.73879273  -0.00000000  1
  Mg  Mg13  1  0.74458297  0.26120727  0.00000000  1
  Mg  Mg14  1  0.74458297  0.73879273  0.00000000  1
  Fe  Fe15  1  0.00000000  0.50000000  0.00000000  1
  O  O16  1  0.26004339  0.00000000  0.00000000  1
  O  O17  1  0.26692997  0.50000000  0.00000000  1
  O  O18  1  0.73995661  0.00000000  -0.00000000  1
  O  O19  1  0.73307003  0.50000000  -0.00000000  1
  O  O20  1  0.24875886  0.24939223  0.50000000  1
  O  O21  1  0.24875886  0.75060777  0.50000000  1
  O  O22  1  0.75124114  0.24939223  0.50000000  1
  O  O23  1  0.75124114  0.75060777  0.50000000  1
  O  O24  1  0.00000000  0.00000000  0.50000000  1
  O  O25  1  0.00000000  0.50000000  0.50000000  1
  O  O26  1  0.50000000  0.00000000  0.50000000  1
  O  O27  1  0.50000000  0.50000000  0.50000000  1
  O  O28  1  0.00000000  0.25202738  0.00000000  1
  O  O29  1  0.00000000  0.74797262  0.00000000  1
  O  O30  1  0.50000000  0.24804185  0.00000000  1
  O  O31  1  0.50000000  0.75195815  0.00000000  1
