# generated using pymatgen
data_Ag2SnBiSe4
_symmetry_space_group_name_H-M   'P 1'
_cell_length_a   4.12256350
_cell_length_b   4.12256350
_cell_length_c   13.82813625
_cell_angle_alpha   90.00000000
_cell_angle_beta   81.42728990
_cell_angle_gamma   120.00000000
_symmetry_Int_Tables_number   1
_chemical_formula_structural   Ag2SnBiSe4
_chemical_formula_sum   'Ag2 Sn1 Bi1 Se4'
_cell_volume   200.49260574
_cell_formula_units_Z   1
loop_
 _symmetry_equiv_pos_site_id
 _symmetry_equiv_pos_as_xyz
  1  'x, y, z'
loop_
 _atom_site_type_symbol
 _atom_site_label
 _atom_site_symmetry_multiplicity
 _atom_site_fract_x
 _atom_site_fract_y
 _atom_site_fract_z
 _atom_site_occupancy
  Ag  Ag0  1  0.98688254  0.49344127  0.51967618  1
  Ag  Ag1  1  0.51651761  0.75825881  0.72522358  1
  Sn  Sn2  1  0.48656943  0.24328471  0.27014586  1
  Bi  Bi3  1  0.00779668  0.00389834  0.98830497  1
  Se  Se4  1  0.25065646  0.12532823  0.62401531  1
  Se  Se5  1  0.75866297  0.37933148  0.86200555  1
  Se  Se6  1  0.25096535  0.62548268  0.12355197  1
  Se  Se7  1  0.74194895  0.87097448  0.38707657  1
