# generated using pymatgen
data_Dy2O3
_symmetry_space_group_name_H-M   'P 1'
_cell_length_a   3.68004820
_cell_length_b   3.68004820
_cell_length_c   5.88007820
_cell_angle_alpha   90.00000000
_cell_angle_beta   90.00000000
_cell_angle_gamma   119.99999999
_symmetry_Int_Tables_number   1
_chemical_formula_structural   Dy2O3
_chemical_formula_sum   'Dy2 O3'
_cell_volume   68.96373076
_cell_formula_units_Z   1
loop_
 _symmetry_equiv_pos_site_id
 _symmetry_equiv_pos_as_xyz
  1  'x, y, z'
loop_
 _atom_site_type_symbol
 _atom_site_label
 _atom_site_symmetry_multiplicity
 _atom_site_fract_x
 _atom_site_fract_y
 _atom_site_fract_z
 _atom_site_occupancy
  O  O0  1  0.66666667  0.33333333  0.35454260  1
  O  O1  1  0.33333333  0.66666667  0.64545740  1
  O  O2  1  0.00000000  0.00000000  0.00000000  1
  Dy  Dy3  1  0.66666667  0.33333333  0.75004867  1
  Dy  Dy4  1  0.33333333  0.66666667  0.24995133  1
