# generated using pymatgen
data_Ag2Bi2SeS3
_symmetry_space_group_name_H-M   'P 1'
_cell_length_a   5.78137217
_cell_length_b   5.64944909
_cell_length_c   7.05733040
_cell_angle_alpha   66.40594341
_cell_angle_beta   65.82025844
_cell_angle_gamma   90.00000000
_symmetry_Int_Tables_number   1
_chemical_formula_structural   Ag2Bi2SeS3
_chemical_formula_sum   'Ag2 Bi2 Se1 S3'
_cell_volume   188.96002075
_cell_formula_units_Z   1
loop_
 _symmetry_equiv_pos_site_id
 _symmetry_equiv_pos_as_xyz
  1  'x, y, z'
loop_
 _atom_site_type_symbol
 _atom_site_label
 _atom_site_symmetry_multiplicity
 _atom_site_fract_x
 _atom_site_fract_y
 _atom_site_fract_z
 _atom_site_occupancy
  Ag  Ag0  1  0.99566807  0.99566807  0.00866385  1
  Ag  Ag1  1  0.25019928  0.75019928  0.49960143  1
  Bi  Bi2  1  0.50589216  0.50589216  0.98821568  1
  Bi  Bi3  1  0.75184095  0.25184095  0.49631811  1
  Se  Se4  1  0.24808708  0.24808708  0.50382585  1
  S  S5  1  0.50544291  0.00544291  0.98911418  1
  S  S6  1  0.74732062  0.74732062  0.50535876  1
  S  S7  1  0.99554893  0.49554893  0.00890214  1
