# generated using pymatgen
data_Ba2Pr3(CoO3)5
_symmetry_space_group_name_H-M   'P 1'
_cell_length_a   8.68442910
_cell_length_b   8.83964269
_cell_length_c   8.77030929
_cell_angle_alpha   89.27408884
_cell_angle_beta   101.79328173
_cell_angle_gamma   114.27244698
_symmetry_Int_Tables_number   1
_chemical_formula_structural   Ba2Pr3(CoO3)5
_chemical_formula_sum   'Ba4 Pr6 Co10 O30'
_cell_volume   598.87700186
_cell_formula_units_Z   2
loop_
 _symmetry_equiv_pos_site_id
 _symmetry_equiv_pos_as_xyz
  1  'x, y, z'
loop_
 _atom_site_type_symbol
 _atom_site_label
 _atom_site_symmetry_multiplicity
 _atom_site_fract_x
 _atom_site_fract_y
 _atom_site_fract_z
 _atom_site_occupancy
  Ba  Ba0  1  0.99846767  0.40082334  0.19812570  1
  Ba  Ba1  1  -0.00057215  0.80137487  0.40139525  1
  Ba  Ba2  1  0.00057215  0.19862513  0.59860475  1
  Ba  Ba3  1  0.00153233  0.59917666  0.80187430  1
  Pr  Pr4  1  0.50201973  0.79622483  0.89666920  1
  Pr  Pr5  1  0.50000000  0.00000000  0.50000000  1
  Pr  Pr6  1  0.49805301  0.40193348  0.69746522  1
  Pr  Pr7  1  0.50194699  0.59806652  0.30253478  1
  Pr  Pr8  1  0.49798027  0.20377517  0.10333080  1
  Pr  Pr9  1  -0.00000000  0.00000000  -0.00000000  1
  Co  Co10  1  0.74609669  0.79783517  0.64977387  1
  Co  Co11  1  0.74947364  0.99883314  0.24970127  1
  Co  Co12  1  0.75098229  0.40045931  0.45075568  1
  Co  Co13  1  0.74956012  0.60048656  0.04937931  1
  Co  Co14  1  0.74513963  0.19748774  0.84866567  1
  Co  Co15  1  0.24901771  0.59954069  0.54924432  1
  Co  Co16  1  0.25486037  0.80251226  0.15133433  1
  Co  Co17  1  0.25390331  0.20216483  0.35022613  1
  Co  Co18  1  0.25043988  0.39951344  0.95062069  1
  Co  Co19  1  0.25052636  0.00116686  0.75029873  1
  O  O20  1  0.49455555  0.69808462  0.59989441  1
  O  O21  1  0.51100706  0.90562804  0.19805072  1
  O  O22  1  0.50544445  0.30191538  0.40010559  1
  O  O23  1  0.50000000  0.50000000  -0.00000000  1
  O  O24  1  0.48899294  0.09437196  0.80194928  1
  O  O25  1  0.73370918  0.98609836  0.74913205  1
  O  O26  1  0.72983585  0.19110239  0.34485408  1
  O  O27  1  0.72747300  0.59253552  0.55249246  1
  O  O28  1  0.73566232  0.79894030  0.13578296  1
  O  O29  1  0.72588903  0.39308664  0.94504333  1
  O  O30  1  0.73563124  0.70445065  0.84699595  1
  O  O31  1  0.72732959  0.88727763  0.44986837  1
  O  O32  1  0.73006786  0.28482853  0.65449891  1
  O  O33  1  0.72742539  0.49659474  0.24562057  1
  O  O34  1  0.73885563  0.09132024  0.03264244  1
  O  O35  1  0.27016415  0.80889761  0.65514592  1
  O  O36  1  0.26629082  0.01390164  0.25086795  1
  O  O37  1  0.27252700  0.40746448  0.44750754  1
  O  O38  1  0.27411097  0.60691336  0.05495667  1
  O  O39  1  0.26433768  0.20105970  0.86421704  1
  O  O40  1  0.27257461  0.50340526  0.75437943  1
  O  O41  1  0.26993214  0.71517147  0.34550109  1
  O  O42  1  0.27267041  0.11272237  0.55013163  1
  O  O43  1  0.26436876  0.29554935  0.15300405  1
  O  O44  1  0.26114437  0.90867976  0.96735756  1
  O  O45  1  -0.00000000  0.50000000  0.50000000  1
  O  O46  1  0.99199910  0.71358706  0.09382046  1
  O  O47  1  0.98851540  0.09154748  0.28214045  1
  O  O48  1  0.00800090  0.28641294  0.90617954  1
  O  O49  1  0.01148460  0.90845252  0.71785955  1
