# generated using pymatgen
data_UFe5Sn
_symmetry_space_group_name_H-M   'P 1'
_cell_length_a   4.70047034
_cell_length_b   8.08879278
_cell_length_c   10.44209703
_cell_angle_alpha   90.00000000
_cell_angle_beta   90.00000000
_cell_angle_gamma   90.00000000
_symmetry_Int_Tables_number   1
_chemical_formula_structural   UFe5Sn
_chemical_formula_sum   'U4 Fe20 Sn4'
_cell_volume   397.02033438
_cell_formula_units_Z   4
loop_
 _symmetry_equiv_pos_site_id
 _symmetry_equiv_pos_as_xyz
  1  'x, y, z'
loop_
 _atom_site_type_symbol
 _atom_site_label
 _atom_site_symmetry_multiplicity
 _atom_site_fract_x
 _atom_site_fract_y
 _atom_site_fract_z
 _atom_site_occupancy
  Fe  Fe0  1  0.75000000  0.43035350  0.60666795  1
  Fe  Fe1  1  0.75000000  0.10672807  0.52378050  1
  Fe  Fe2  1  0.25000000  0.39327193  0.02378050  1
  Fe  Fe3  1  0.75000000  0.60672807  0.97621950  1
  Fe  Fe4  1  0.49921714  0.92741855  0.68452566  1
  Fe  Fe5  1  0.99921714  0.07258145  0.31547434  1
  Fe  Fe6  1  0.00078286  0.42741855  0.81547434  1
  Fe  Fe7  1  0.50078286  0.57258145  0.18452566  1
  Fe  Fe8  1  0.50078286  0.07258145  0.31547434  1
  Fe  Fe9  1  0.00078286  0.92741855  0.68452566  1
  Fe  Fe10  1  0.99921714  0.57258145  0.18452566  1
  Fe  Fe11  1  0.25000000  0.81862790  0.25124052  1
  Fe  Fe12  1  0.75000000  0.93035350  0.89333205  1
  Fe  Fe13  1  0.25000000  0.06964650  0.10666795  1
  Fe  Fe14  1  0.49921714  0.42741855  0.81547434  1
  Fe  Fe15  1  0.25000000  0.56964650  0.39333205  1
  Fe  Fe16  1  0.75000000  0.68137210  0.75124052  1
  Fe  Fe17  1  0.25000000  0.31862790  0.24875948  1
  Fe  Fe18  1  0.75000000  0.18137210  0.74875948  1
  Fe  Fe19  1  0.25000000  0.89327193  0.47621950  1
  Sn  Sn20  1  0.75000000  0.87249122  0.13960778  1
  Sn  Sn21  1  0.25000000  0.12750878  0.86039222  1
  Sn  Sn22  1  0.75000000  0.37249122  0.36039222  1
  Sn  Sn23  1  0.25000000  0.62750878  0.63960778  1
  U  U24  1  0.25000000  0.73949911  0.93950352  1
  U  U25  1  0.75000000  0.26050089  0.06049648  1
  U  U26  1  0.25000000  0.23949911  0.56049648  1
  U  U27  1  0.75000000  0.76050089  0.43950352  1
