# generated using pymatgen
data_Co2As
_symmetry_space_group_name_H-M   'P 1'
_cell_length_a   11.89791408
_cell_length_b   11.89791408
_cell_length_c   3.58193426
_cell_angle_alpha   90.00000000
_cell_angle_beta   90.00000000
_cell_angle_gamma   119.99999999
_symmetry_Int_Tables_number   1
_chemical_formula_structural   Co2As
_chemical_formula_sum   'Co24 As12'
_cell_volume   439.12675604
_cell_formula_units_Z   12
loop_
 _symmetry_equiv_pos_site_id
 _symmetry_equiv_pos_as_xyz
  1  'x, y, z'
loop_
 _atom_site_type_symbol
 _atom_site_label
 _atom_site_symmetry_multiplicity
 _atom_site_fract_x
 _atom_site_fract_y
 _atom_site_fract_z
 _atom_site_occupancy
  Co  Co0  1  0.31238274  0.00000000  0.00000000  1
  Co  Co1  1  0.68761726  0.68761726  0.00000000  1
  Co  Co2  1  0.00000000  0.31238274  0.00000000  1
  Co  Co3  1  0.79684536  0.00000000  0.00000000  1
  Co  Co4  1  0.20315464  0.20315464  0.00000000  1
  Co  Co5  1  0.00000000  0.79684536  0.00000000  1
  Co  Co6  1  0.17245921  0.54372202  0.50000000  1
  Co  Co7  1  0.37126281  0.82754079  0.50000000  1
  Co  Co8  1  0.45627798  0.62873719  0.50000000  1
  Co  Co9  1  0.62873719  0.45627798  0.50000000  1
  Co  Co10  1  0.82754079  0.37126281  0.50000000  1
  Co  Co11  1  0.54372202  0.17245921  0.50000000  1
  Co  Co12  1  0.12786538  0.00000000  0.50000000  1
  Co  Co13  1  0.87213462  0.87213462  0.50000000  1
  Co  Co14  1  0.00000000  0.12786538  0.50000000  1
  Co  Co15  1  0.62805033  0.00000000  0.50000000  1
  Co  Co16  1  0.37194967  0.37194967  0.50000000  1
  Co  Co17  1  0.00000000  0.62805033  0.50000000  1
  Co  Co18  1  0.17527637  0.71867860  0.00000000  1
  Co  Co19  1  0.54340223  0.82472363  0.00000000  1
  Co  Co20  1  0.28132140  0.45659777  0.00000000  1
  Co  Co21  1  0.45659777  0.28132140  0.00000000  1
  Co  Co22  1  0.82472363  0.54340223  0.00000000  1
  Co  Co23  1  0.71867860  0.17527637  0.00000000  1
  As  As24  1  0.00000000  0.00000000  0.00000000  1
  As  As25  1  0.50277975  0.00000000  0.00000000  1
  As  As26  1  0.49722025  0.49722025  0.00000000  1
  As  As27  1  0.00000000  0.50277975  0.00000000  1
  As  As28  1  0.33628589  0.15845372  0.50000000  1
  As  As29  1  0.82216783  0.66371411  0.50000000  1
  As  As30  1  0.84154628  0.17783217  0.50000000  1
  As  As31  1  0.17783217  0.84154628  0.50000000  1
  As  As32  1  0.66371411  0.82216783  0.50000000  1
  As  As33  1  0.15845372  0.33628589  0.50000000  1
  As  As34  1  0.33333333  0.66666667  0.00000000  1
  As  As35  1  0.66666667  0.33333333  0.00000000  1
