# generated using pymatgen
data_Na4Mo(NO)2
_symmetry_space_group_name_H-M   'P 1'
_cell_length_a   5.91738420
_cell_length_b   5.95144141
_cell_length_c   8.98467031
_cell_angle_alpha   82.81308832
_cell_angle_beta   71.51611291
_cell_angle_gamma   68.88208754
_symmetry_Int_Tables_number   1
_chemical_formula_structural   Na4Mo(NO)2
_chemical_formula_sum   'Na8 Mo2 N4 O4'
_cell_volume   279.91505275
_cell_formula_units_Z   2
loop_
 _symmetry_equiv_pos_site_id
 _symmetry_equiv_pos_as_xyz
  1  'x, y, z'
loop_
 _atom_site_type_symbol
 _atom_site_label
 _atom_site_symmetry_multiplicity
 _atom_site_fract_x
 _atom_site_fract_y
 _atom_site_fract_z
 _atom_site_occupancy
  N  N0  1  0.29527736  0.03771425  0.36226903  1
  N  N1  1  0.15674375  0.54324639  0.64586056  1
  N  N2  1  0.84325625  0.45675361  0.35413944  1
  N  N3  1  0.70472264  0.96228575  0.63773097  1
  O  O4  1  0.64018268  0.51558597  0.81430072  1
  O  O5  1  0.15026712  0.15633040  0.05475427  1
  O  O6  1  0.35981732  0.48441403  0.18569928  1
  O  O7  1  0.84973288  0.84366960  0.94524573  1
  Na  Na8  1  0.24048375  0.76152721  0.98511257  1
  Na  Na9  1  0.75951625  0.23847279  0.01488743  1
  Na  Na10  1  0.05646774  0.75765826  0.40247053  1
  Na  Na11  1  0.94353226  0.24234174  0.59752947  1
  Na  Na12  1  0.47910509  0.73989279  0.55725889  1
  Na  Na13  1  0.52089491  0.26010721  0.44274111  1
  Na  Na14  1  0.61282753  0.72350459  0.18372226  1
  Na  Na15  1  0.38717247  0.27649541  0.81627774  1
  Mo  Mo16  1  0.84173048  0.71979918  0.76218105  1
  Mo  Mo17  1  0.15826952  0.28020082  0.23781895  1
