# generated using pymatgen
data_Yb5Si4
_symmetry_space_group_name_H-M   'P 1'
_cell_length_a   7.51486441
_cell_length_b   7.80974719
_cell_length_c   15.47795151
_cell_angle_alpha   90.00000000
_cell_angle_beta   90.00000000
_cell_angle_gamma   90.00000000
_symmetry_Int_Tables_number   1
_chemical_formula_structural   Yb5Si4
_chemical_formula_sum   'Yb20 Si16'
_cell_volume   908.38845570
_cell_formula_units_Z   4
loop_
 _symmetry_equiv_pos_site_id
 _symmetry_equiv_pos_as_xyz
  1  'x, y, z'
loop_
 _atom_site_type_symbol
 _atom_site_label
 _atom_site_symmetry_multiplicity
 _atom_site_fract_x
 _atom_site_fract_y
 _atom_site_fract_z
 _atom_site_occupancy
  Si  Si0  1  0.86358055  0.52385886  0.46273711  1
  Si  Si1  1  0.36358055  0.97614114  0.03726289  1
  Si  Si2  1  0.63641945  0.02385886  0.53726289  1
  Si  Si3  1  0.13641945  0.47614114  0.96273711  1
  Si  Si4  1  0.13641945  0.47614114  0.53726289  1
  Si  Si5  1  0.63641945  0.02385886  0.96273711  1
  Si  Si6  1  0.36358055  0.97614114  0.46273711  1
  Si  Si7  1  0.86358055  0.52385886  0.03726289  1
  Si  Si8  1  0.97335289  0.90455112  0.25000000  1
  Si  Si9  1  0.47335289  0.59544888  0.25000000  1
  Si  Si10  1  0.52664711  0.40455112  0.75000000  1
  Si  Si11  1  0.02664711  0.09544888  0.75000000  1
  Si  Si12  1  0.25246808  0.37952000  0.25000000  1
  Si  Si13  1  0.75246808  0.12048000  0.25000000  1
  Si  Si14  1  0.24753192  0.87952000  0.75000000  1
  Si  Si15  1  0.74753192  0.62048000  0.75000000  1
  Yb  Yb16  1  0.31651437  0.18134017  0.87747606  1
  Yb  Yb17  1  0.81651437  0.31865983  0.62252394  1
  Yb  Yb18  1  0.18348563  0.68134017  0.12252394  1
  Yb  Yb19  1  0.68348563  0.81865983  0.37747606  1
  Yb  Yb20  1  0.31651437  0.18134017  0.62252394  1
  Yb  Yb21  1  0.81651437  0.31865983  0.87747606  1
  Yb  Yb22  1  0.18348563  0.68134017  0.37747606  1
  Yb  Yb23  1  0.68348563  0.81865983  0.12252394  1
  Yb  Yb24  1  0.96662275  0.82068663  0.59887264  1
  Yb  Yb25  1  0.46662275  0.67931337  0.90112736  1
  Yb  Yb26  1  0.53337725  0.32068663  0.40112736  1
  Yb  Yb27  1  0.03337725  0.17931337  0.09887264  1
  Yb  Yb28  1  0.03337725  0.17931337  0.40112736  1
  Yb  Yb29  1  0.53337725  0.32068663  0.09887264  1
  Yb  Yb30  1  0.46662275  0.67931337  0.59887264  1
  Yb  Yb31  1  0.96662275  0.82068663  0.90112736  1
  Yb  Yb32  1  0.35967193  0.00862576  0.25000000  1
  Yb  Yb33  1  0.85967193  0.49137424  0.25000000  1
  Yb  Yb34  1  0.14032807  0.50862576  0.75000000  1
  Yb  Yb35  1  0.64032807  0.99137424  0.75000000  1
