# generated using pymatgen
data_Nb2Zn4O9
_symmetry_space_group_name_H-M   'P 1'
_cell_length_a   5.26038653
_cell_length_b   5.26038653
_cell_length_c   14.38239345
_cell_angle_alpha   90.00000000
_cell_angle_beta   90.00000000
_cell_angle_gamma   120.00000004
_symmetry_Int_Tables_number   1
_chemical_formula_structural   Nb2Zn4O9
_chemical_formula_sum   'Nb4 Zn8 O18'
_cell_volume   344.66494222
_cell_formula_units_Z   2
loop_
 _symmetry_equiv_pos_site_id
 _symmetry_equiv_pos_as_xyz
  1  'x, y, z'
loop_
 _atom_site_type_symbol
 _atom_site_label
 _atom_site_symmetry_multiplicity
 _atom_site_fract_x
 _atom_site_fract_y
 _atom_site_fract_z
 _atom_site_occupancy
  O  O0  1  0.28588192  0.28588192  0.75000000  1
  O  O1  1  0.00000000  0.71411808  0.75000000  1
  O  O2  1  0.71411808  0.00000000  0.75000000  1
  O  O3  1  0.71411808  0.71411808  0.25000000  1
  O  O4  1  0.00000000  0.28588192  0.25000000  1
  O  O5  1  0.28588192  0.00000000  0.25000000  1
  O  O6  1  0.68008563  0.66039893  0.58351706  1
  O  O7  1  0.33960107  0.01968670  0.58351706  1
  O  O8  1  0.98031330  0.31991437  0.58351706  1
  O  O9  1  0.01968670  0.33960107  0.91648294  1
  O  O10  1  0.31991437  0.98031330  0.91648294  1
  O  O11  1  0.66039893  0.68008563  0.91648294  1
  O  O12  1  0.33960107  0.31991437  0.08351706  1
  O  O13  1  0.68008563  0.01968670  0.08351706  1
  O  O14  1  0.98031330  0.66039893  0.08351706  1
  O  O15  1  0.01968670  0.68008563  0.41648294  1
  O  O16  1  0.66039893  0.98031330  0.41648294  1
  O  O17  1  0.31991437  0.33960107  0.41648294  1
  Zn  Zn18  1  0.33333333  0.66666667  0.01423450  1
  Zn  Zn19  1  0.66666667  0.33333333  0.48576550  1
  Zn  Zn20  1  0.66666667  0.33333333  0.98576550  1
  Zn  Zn21  1  0.33333333  0.66666667  0.51423450  1
  Zn  Zn22  1  0.33333333  0.66666667  0.79459488  1
  Zn  Zn23  1  0.66666667  0.33333333  0.70540512  1
  Zn  Zn24  1  0.66666667  0.33333333  0.20540512  1
  Zn  Zn25  1  0.33333333  0.66666667  0.29459488  1
  Nb  Nb26  1  0.00000000  0.00000000  0.36092907  1
  Nb  Nb27  1  0.00000000  0.00000000  0.13907093  1
  Nb  Nb28  1  0.00000000  0.00000000  0.63907093  1
  Nb  Nb29  1  0.00000000  0.00000000  0.86092907  1
