# generated using pymatgen
data_Sr2Mn3(AsO)2
_symmetry_space_group_name_H-M   'P 1'
_cell_length_a   4.24379554
_cell_length_b   4.24379554
_cell_length_c   10.12752325
_cell_angle_alpha   102.09410362
_cell_angle_beta   102.09410363
_cell_angle_gamma   89.99999999
_symmetry_Int_Tables_number   1
_chemical_formula_structural   Sr2Mn3(AsO)2
_chemical_formula_sum   'Sr2 Mn3 As2 O2'
_cell_volume   174.20405159
_cell_formula_units_Z   1
loop_
 _symmetry_equiv_pos_site_id
 _symmetry_equiv_pos_as_xyz
  1  'x, y, z'
loop_
 _atom_site_type_symbol
 _atom_site_label
 _atom_site_symmetry_multiplicity
 _atom_site_fract_x
 _atom_site_fract_y
 _atom_site_fract_z
 _atom_site_occupancy
  O  O0  1  0.00000079  0.50000002  0.00000024  1
  O  O1  1  0.49999943  1.00000000  0.00000012  1
  Mn  Mn2  1  0.00000000  0.00000000  0.00000000  1
  Mn  Mn3  1  0.75000032  0.24999924  0.49999995  1
  Mn  Mn4  1  0.24999911  0.74999926  0.49999985  1
  As  As5  1  0.16503999  0.16504141  0.33008138  1
  As  As6  1  0.83495955  0.83495966  0.66991866  1
  Sr  Sr7  1  0.58458169  0.58458221  0.16916340  1
  Sr  Sr8  1  0.41541785  0.41541886  0.83083664  1
