# generated using pymatgen
data_CuH6CN2O3
_symmetry_space_group_name_H-M   'P 1'
_cell_length_a   5.83442371
_cell_length_b   7.62831903
_cell_length_c   10.96202656
_cell_angle_alpha   90.00000000
_cell_angle_beta   90.00000000
_cell_angle_gamma   94.54298007
_symmetry_Int_Tables_number   1
_chemical_formula_structural   CuH6CN2O3
_chemical_formula_sum   'Cu4 H24 C4 N8 O12'
_cell_volume   486.35238231
_cell_formula_units_Z   4
loop_
 _symmetry_equiv_pos_site_id
 _symmetry_equiv_pos_as_xyz
  1  'x, y, z'
loop_
 _atom_site_type_symbol
 _atom_site_label
 _atom_site_symmetry_multiplicity
 _atom_site_fract_x
 _atom_site_fract_y
 _atom_site_fract_z
 _atom_site_occupancy
  Cu  Cu0  1  0.86059828  0.31037258  0.57448180  1
  Cu  Cu1  1  0.13940172  0.18962742  0.07448180  1
  Cu  Cu2  1  0.13940172  0.68962742  0.42551820  1
  Cu  Cu3  1  0.86059828  0.81037258  0.92551820  1
  H  H4  1  0.29247534  0.25758035  0.60605424  1
  H  H5  1  0.70752466  0.24241965  0.10605424  1
  H  H6  1  0.70752466  0.74241965  0.39394576  1
  H  H7  1  0.29247534  0.75758035  0.89394576  1
  H  H8  1  0.25136012  0.34003344  0.47081542  1
  H  H9  1  0.74863988  0.15996656  0.97081542  1
  H  H10  1  0.74863988  0.65996656  0.52918458  1
  H  H11  1  0.25136012  0.84003344  0.02918458  1
  H  H12  1  0.19623721  0.12867374  0.49197194  1
  H  H13  1  0.80376279  0.37132626  0.99197194  1
  H  H14  1  0.80376279  0.87132626  0.50802806  1
  H  H15  1  0.19623721  0.62867374  0.00802806  1
  H  H16  1  0.60888349  0.16357486  0.40660091  1
  H  H17  1  0.39111651  0.33642514  0.90660091  1
  H  H18  1  0.39111651  0.83642514  0.59339909  1
  H  H19  1  0.60888349  0.66357486  0.09339909  1
  H  H20  1  0.85122429  0.24469613  0.34538570  1
  H  H21  1  0.14877571  0.25530387  0.84538570  1
  H  H22  1  0.14877571  0.75530387  0.65461430  1
  H  H23  1  0.85122429  0.74469613  0.15461430  1
  H  H24  1  0.64039020  0.37550158  0.37542448  1
  H  H25  1  0.35960980  0.12449842  0.87542448  1
  H  H26  1  0.35960980  0.62449842  0.62457552  1
  H  H27  1  0.64039020  0.87550158  0.12457552  1
  C  C28  1  0.73537766  0.95944173  0.74324349  1
  C  C29  1  0.26462234  0.54055827  0.24324349  1
  C  C30  1  0.26462234  0.04055827  0.25675651  1
  C  C31  1  0.73537766  0.45944173  0.75675651  1
  N  N32  1  0.18305142  0.24905247  0.53281923  1
  N  N33  1  0.81694858  0.25094753  0.03281923  1
  N  N34  1  0.81694858  0.75094753  0.46718077  1
  N  N35  1  0.18305142  0.74905247  0.96718077  1
  N  N36  1  0.72620634  0.27171900  0.40730076  1
  N  N37  1  0.27379366  0.22828100  0.90730076  1
  N  N38  1  0.27379366  0.72828100  0.59269924  1
  N  N39  1  0.72620634  0.77171900  0.09269924  1
  O  O40  1  0.92908554  0.38335693  0.74640237  1
  O  O41  1  0.07091446  0.11664307  0.24640237  1
  O  O42  1  0.07091446  0.61664307  0.25359763  1
  O  O43  1  0.92908554  0.88335693  0.75359763  1
  O  O44  1  0.66874891  0.52511722  0.85530650  1
  O  O45  1  0.33125109  0.97488278  0.35530650  1
  O  O46  1  0.33125109  0.47488278  0.14469350  1
  O  O47  1  0.66874891  0.02511722  0.64469350  1
  O  O48  1  0.61666427  0.45761337  0.65409999  1
  O  O49  1  0.38333573  0.04238663  0.15409999  1
  O  O50  1  0.38333573  0.54238663  0.34590001  1
  O  O51  1  0.61666427  0.95761337  0.84590001  1
