# generated using pymatgen
data_Pb(CO2)2
_symmetry_space_group_name_H-M   'P 1'
_cell_length_a   5.72882929
_cell_length_b   5.75579764
_cell_length_c   7.12721309
_cell_angle_alpha   70.79061752
_cell_angle_beta   88.36028993
_cell_angle_gamma   65.36409029
_symmetry_Int_Tables_number   1
_chemical_formula_structural   Pb(CO2)2
_chemical_formula_sum   'Pb2 C4 O8'
_cell_volume   200.10752026
_cell_formula_units_Z   2
loop_
 _symmetry_equiv_pos_site_id
 _symmetry_equiv_pos_as_xyz
  1  'x, y, z'
loop_
 _atom_site_type_symbol
 _atom_site_label
 _atom_site_symmetry_multiplicity
 _atom_site_fract_x
 _atom_site_fract_y
 _atom_site_fract_z
 _atom_site_occupancy
  C  C0  1  0.87557887  0.62483408  0.50035368  1
  C  C1  1  0.12442113  0.37516592  0.49964632  1
  C  C2  1  0.64152726  0.45600345  0.04502066  1
  C  C3  1  0.35847274  0.54399655  0.95497934  1
  O  O4  1  0.12652014  0.14213581  0.57326673  1
  O  O5  1  0.87347986  0.85786419  0.42673327  1
  O  O6  1  0.67696705  0.59149263  0.13888825  1
  O  O7  1  0.32303295  0.40850737  0.86111175  1
  O  O8  1  0.81923188  0.24926724  0.01554319  1
  O  O9  1  0.18076812  0.75073276  0.98445681  1
  O  O10  1  0.31361595  0.41797524  0.42511511  1
  O  O11  1  0.68638405  0.58202476  0.57488489  1
  Pb  Pb12  1  0.74098712  0.10829752  0.73931547  1
  Pb  Pb13  1  0.25901288  0.89170248  0.26068453  1
