# generated using pymatgen
data_SiP3H29C10BrN
_symmetry_space_group_name_H-M   'P 1'
_cell_length_a   11.26573635
_cell_length_b   11.95919982
_cell_length_c   15.37697605
_cell_angle_alpha   101.50706924
_cell_angle_beta   90.00000000
_cell_angle_gamma   90.00000000
_symmetry_Int_Tables_number   1
_chemical_formula_structural   SiP3H29C10BrN
_chemical_formula_sum   'Si4 P12 H116 C40 Br4 N4'
_cell_volume   2030.08604229
_cell_formula_units_Z   4
loop_
 _symmetry_equiv_pos_site_id
 _symmetry_equiv_pos_as_xyz
  1  'x, y, z'
loop_
 _atom_site_type_symbol
 _atom_site_label
 _atom_site_symmetry_multiplicity
 _atom_site_fract_x
 _atom_site_fract_y
 _atom_site_fract_z
 _atom_site_occupancy
  H  H0  1  0.47524102  0.59153203  0.97862210  1
  H  H1  1  0.97524102  0.90846797  0.02137790  1
  H  H2  1  0.52475898  0.40846797  0.02137790  1
  H  H3  1  0.02475898  0.09153203  0.97862210  1
  H  H4  1  0.59572036  0.65928655  0.93495645  1
  H  H5  1  0.09572036  0.84071345  0.06504355  1
  H  H6  1  0.40427964  0.34071345  0.06504355  1
  H  H7  1  0.90427964  0.15928655  0.93495645  1
  H  H8  1  0.50453588  0.56045153  0.86317597  1
  H  H9  1  0.00453588  0.93954847  0.13682403  1
  H  H10  1  0.49546412  0.43954847  0.13682403  1
  H  H11  1  0.99546412  0.06045153  0.86317597  1
  H  H12  1  0.21782758  0.64233659  0.93901601  1
  H  H13  1  0.71782758  0.85766341  0.06098399  1
  H  H14  1  0.78217242  0.35766341  0.06098399  1
  H  H15  1  0.28217242  0.14233659  0.93901601  1
  H  H16  1  0.24996717  0.61725909  0.82367825  1
  H  H17  1  0.74996717  0.88274091  0.17632175  1
  H  H18  1  0.75003283  0.38274091  0.17632175  1
  H  H19  1  0.25003283  0.11725909  0.82367825  1
  H  H20  1  0.18078772  0.74709853  0.87635039  1
  H  H21  1  0.68078772  0.75290147  0.12364961  1
  H  H22  1  0.81921228  0.25290147  0.12364961  1
  H  H23  1  0.31921228  0.24709853  0.87635039  1
  H  H24  1  0.48492549  0.89507977  0.03127495  1
  H  H25  1  0.98492549  0.60492023  0.96872505  1
  H  H26  1  0.51507451  0.10492023  0.96872505  1
  H  H27  1  0.01507451  0.39507977  0.03127495  1
  H  H28  1  0.93161999  0.17282261  0.47615946  1
  H  H29  1  0.43161999  0.32717739  0.52384054  1
  H  H30  1  0.06838001  0.82717739  0.52384054  1
  H  H31  1  0.56838001  0.67282261  0.47615946  1
  H  H32  1  0.08503680  0.19876278  0.50623724  1
  H  H33  1  0.58503680  0.30123722  0.49376276  1
  H  H34  1  0.91496320  0.80123722  0.49376276  1
  H  H35  1  0.41496320  0.69876278  0.50623724  1
  H  H36  1  0.98398539  0.31741184  0.50723199  1
  H  H37  1  0.48398539  0.18258816  0.49276801  1
  H  H38  1  0.01601461  0.68258816  0.49276801  1
  H  H39  1  0.51601461  0.81741184  0.50723199  1
  H  H40  1  0.36567454  0.82166272  0.07110319  1
  H  H41  1  0.86567454  0.67833728  0.92889681  1
  H  H42  1  0.63432546  0.17833728  0.92889681  1
  H  H43  1  0.13432546  0.32166272  0.07110319  1
  H  H44  1  0.75710726  0.20433028  0.59448228  1
  H  H45  1  0.25710726  0.29566972  0.40551772  1
  H  H46  1  0.24289274  0.79566972  0.40551772  1
  H  H47  1  0.74289274  0.70433028  0.59448228  1
  H  H48  1  0.78923325  0.35200844  0.63470321  1
  H  H49  1  0.28923325  0.14799156  0.36529679  1
  H  H50  1  0.21076675  0.64799156  0.36529679  1
  H  H51  1  0.71076675  0.85200844  0.63470321  1
  H  H52  1  0.33611941  0.92852594  0.00901621  1
  H  H53  1  0.83611941  0.57147406  0.99098379  1
  H  H54  1  0.66388059  0.07147406  0.99098379  1
  H  H55  1  0.16388059  0.42852594  0.00901621  1
  H  H56  1  0.28282651  0.36346070  0.72797484  1
  H  H57  1  0.78282651  0.13653930  0.27202516  1
  H  H58  1  0.71717349  0.63653930  0.27202516  1
  H  H59  1  0.21717349  0.86346070  0.72797484  1
  H  H60  1  0.22154004  0.34928388  0.61909895  1
  H  H61  1  0.72154004  0.15071612  0.38090105  1
  H  H62  1  0.77845996  0.65071612  0.38090105  1
  H  H63  1  0.27845996  0.84928388  0.61909895  1
  H  H64  1  0.24305815  0.22450049  0.66690896  1
  H  H65  1  0.74305815  0.27549951  0.33309104  1
  H  H66  1  0.75694185  0.77549951  0.33309104  1
  H  H67  1  0.25694185  0.72450049  0.66690896  1
  H  H68  1  0.45264788  0.99037425  0.64970504  1
  H  H69  1  0.95264788  0.50962575  0.35029496  1
  H  H70  1  0.54735212  0.00962575  0.35029496  1
  H  H71  1  0.04735212  0.49037425  0.64970504  1
  H  H72  1  0.70048830  0.37890190  0.89083624  1
  H  H73  1  0.20048830  0.12109810  0.10916376  1
  H  H74  1  0.29951170  0.62109810  0.10916376  1
  H  H75  1  0.79951170  0.87890190  0.89083624  1
  H  H76  1  0.72044440  0.45443686  0.80281182  1
  H  H77  1  0.22044440  0.04556314  0.19718818  1
  H  H78  1  0.27955560  0.54556314  0.19718818  1
  H  H79  1  0.77955560  0.95443686  0.80281182  1
  H  H80  1  0.84488467  0.38960338  0.84710558  1
  H  H81  1  0.34488467  0.11039662  0.15289442  1
  H  H82  1  0.15511533  0.61039662  0.15289442  1
  H  H83  1  0.65511533  0.88960338  0.84710558  1
  H  H84  1  0.56516309  0.99458769  0.73435109  1
  H  H85  1  0.06516309  0.50541231  0.26564891  1
  H  H86  1  0.43483691  0.00541231  0.26564891  1
  H  H87  1  0.93483691  0.49458769  0.73435109  1
  H  H88  1  0.51242099  0.25989824  0.77385854  1
  H  H89  1  0.01242099  0.24010176  0.22614146  1
  H  H90  1  0.48757901  0.74010176  0.22614146  1
  H  H91  1  0.98757901  0.75989824  0.77385854  1
  H  H92  1  0.54692071  0.19770468  0.66184763  1
  H  H93  1  0.04692071  0.30229532  0.33815237  1
  H  H94  1  0.45307929  0.80229532  0.33815237  1
  H  H95  1  0.95307929  0.69770468  0.66184763  1
  H  H96  1  0.56010537  0.34894811  0.69993436  1
  H  H97  1  0.06010537  0.15105189  0.30006564  1
  H  H98  1  0.43989463  0.65105189  0.30006564  1
  H  H99  1  0.93989463  0.84894811  0.69993436  1
  H  H100  1  0.41809278  0.04175472  0.76440041  1
  H  H101  1  0.91809278  0.45824528  0.23559959  1
  H  H102  1  0.58190722  0.95824528  0.23559959  1
  H  H103  1  0.08190722  0.54175472  0.76440041  1
  H  H104  1  0.91464603  0.02809848  0.60428149  1
  H  H105  1  0.41464603  0.47190152  0.39571851  1
  H  H106  1  0.08535397  0.97190152  0.39571851  1
  H  H107  1  0.58535397  0.52809848  0.60428149  1
  H  H108  1  0.95818517  0.07959364  0.71820640  1
  H  H109  1  0.45818517  0.42040636  0.28179360  1
  H  H110  1  0.04181483  0.92040636  0.28179360  1
  H  H111  1  0.54181483  0.57959364  0.71820640  1
  H  H112  1  0.06946999  0.05678546  0.63085563  1
  H  H113  1  0.56946999  0.44321454  0.36914437  1
  H  H114  1  0.93053001  0.94321454  0.36914437  1
  H  H115  1  0.43053001  0.55678546  0.63085563  1
  C  C116  1  0.02895794  0.47955713  0.71790428  1
  C  C117  1  0.52895794  0.02044287  0.28209572  1
  C  C118  1  0.97104206  0.52044287  0.28209572  1
  C  C119  1  0.47104206  0.97955713  0.71790428  1
  C  C120  1  0.52258863  0.58284639  0.64884650  1
  C  C121  1  0.02258863  0.91715361  0.35115350  1
  C  C122  1  0.47741137  0.41715361  0.35115350  1
  C  C123  1  0.97741137  0.08284639  0.64884650  1
  C  C124  1  0.92799513  0.76531314  0.71821136  1
  C  C125  1  0.42799513  0.73468686  0.28178864  1
  C  C126  1  0.07200487  0.23468686  0.28178864  1
  C  C127  1  0.57200487  0.26531314  0.71821136  1
  C  C128  1  0.74963494  0.88048684  0.82958898  1
  C  C129  1  0.24963494  0.61951316  0.17041102  1
  C  C130  1  0.25036506  0.11951316  0.17041102  1
  C  C131  1  0.75036506  0.38048684  0.82958898  1
  C  C132  1  0.99614935  0.12946204  0.92242295  1
  C  C133  1  0.60354523  0.14194628  0.98529418  1
  C  C134  1  0.89645477  0.64194628  0.98529418  1
  C  C135  1  0.39645477  0.85805372  0.01470582  1
  C  C136  1  0.28108269  0.81536483  0.68070041  1
  C  C137  1  0.78108269  0.68463517  0.31929959  1
  C  C138  1  0.71891731  0.18463517  0.31929959  1
  C  C139  1  0.21891731  0.31536483  0.68070041  1
  C  C140  1  0.69928351  0.76563796  0.64881762  1
  C  C141  1  0.19928351  0.73436204  0.35118238  1
  C  C142  1  0.30071649  0.23436204  0.35118238  1
  C  C143  1  0.80071649  0.26563796  0.64881762  1
  C  C144  1  0.50635515  0.73016469  0.51893466  1
  C  C145  1  0.00635515  0.76983531  0.48106534  1
  C  C146  1  0.49364485  0.26983531  0.48106534  1
  C  C147  1  0.99364485  0.23016469  0.51893466  1
  C  C148  1  0.25216545  0.18326621  0.88479914  1
  C  C149  1  0.75216545  0.31673379  0.11520086  1
  C  C150  1  0.74783455  0.81673379  0.11520086  1
  C  C151  1  0.24783455  0.68326621  0.88479914  1
  C  C152  1  0.50385065  0.62946204  0.92242295  1
  C  C153  1  0.00385065  0.87053796  0.07757705  1
  C  C154  1  0.49614935  0.37053796  0.07757705  1
  C  C155  1  0.10354523  0.35805372  0.01470582  1
  N  N156  1  0.55223489  0.18648351  0.17499527  1
  N  N157  1  0.44776511  0.81351649  0.82500473  1
  N  N158  1  0.94776511  0.68648351  0.17499527  1
  N  N159  1  0.05223489  0.31351649  0.82500473  1
  Si  Si160  1  0.40026182  0.74854091  0.90825578  1
  Si  Si161  1  0.09973818  0.24854091  0.90825578  1
  Si  Si162  1  0.90026182  0.75145909  0.09174422  1
  Si  Si163  1  0.59973818  0.25145909  0.09174422  1
  P  P164  1  0.07351342  0.33911575  0.73179657  1
  P  P165  1  0.54443352  0.72615405  0.63223192  1
  P  P166  1  0.95556648  0.22615405  0.63223192  1
  P  P167  1  0.45556648  0.27384595  0.36776808  1
  P  P168  1  0.04443352  0.77384595  0.36776808  1
  P  P169  1  0.27393703  0.75714547  0.24718914  1
  P  P170  1  0.22606297  0.25714547  0.24718914  1
  P  P171  1  0.72606297  0.24285453  0.75281086  1
  P  P172  1  0.42648658  0.83911575  0.73179657  1
  P  P173  1  0.92648658  0.66088425  0.26820343  1
  P  P174  1  0.57351342  0.16088425  0.26820343  1
  P  P175  1  0.77393703  0.74285453  0.75281086  1
  Br  Br176  1  0.72654810  0.98647577  0.48761740  1
  Br  Br177  1  0.22654810  0.51352423  0.51238260  1
  Br  Br178  1  0.27345190  0.01352423  0.51238260  1
  Br  Br179  1  0.77345190  0.48647577  0.48761740  1
