# generated using pymatgen
data_CrCl2
_symmetry_space_group_name_H-M   'P 1'
_cell_length_a   3.48899080
_cell_length_b   6.16532060
_cell_length_c   6.92974698
_cell_angle_alpha   90.00000000
_cell_angle_beta   90.00000000
_cell_angle_gamma   90.00000000
_symmetry_Int_Tables_number   1
_chemical_formula_structural   CrCl2
_chemical_formula_sum   'Cr2 Cl4'
_cell_volume   149.06403304
_cell_formula_units_Z   2
loop_
 _symmetry_equiv_pos_site_id
 _symmetry_equiv_pos_as_xyz
  1  'x, y, z'
loop_
 _atom_site_type_symbol
 _atom_site_label
 _atom_site_symmetry_multiplicity
 _atom_site_fract_x
 _atom_site_fract_y
 _atom_site_fract_z
 _atom_site_occupancy
  Cl  Cl0  1  0.50000000  0.78634792  0.13683052  1
  Cl  Cl1  1  0.50000000  0.21365208  0.86316948  1
  Cl  Cl2  1  0.00000000  0.71365208  0.63683052  1
  Cl  Cl3  1  0.00000000  0.28634792  0.36316948  1
  Cr  Cr4  1  0.50000000  0.50000000  0.50000000  1
  Cr  Cr5  1  0.00000000  0.00000000  0.00000000  1
