# generated using pymatgen
data_Li2Nb(PO4)2
_symmetry_space_group_name_H-M   'P 1'
_cell_length_a   7.73294229
_cell_length_b   8.16926613
_cell_length_c   5.14737198
_cell_angle_alpha   90.00000000
_cell_angle_beta   93.86321308
_cell_angle_gamma   90.00000000
_symmetry_Int_Tables_number   1
_chemical_formula_structural   Li2Nb(PO4)2
_chemical_formula_sum   'Li4 Nb2 P4 O16'
_cell_volume   324.43329429
_cell_formula_units_Z   2
loop_
 _symmetry_equiv_pos_site_id
 _symmetry_equiv_pos_as_xyz
  1  'x, y, z'
loop_
 _atom_site_type_symbol
 _atom_site_label
 _atom_site_symmetry_multiplicity
 _atom_site_fract_x
 _atom_site_fract_y
 _atom_site_fract_z
 _atom_site_occupancy
  Li  Li0  1  0.90340344  0.62873505  0.40139485  1
  Li  Li1  1  0.59659656  0.12873505  0.09860515  1
  Li  Li2  1  0.40340344  0.87126495  0.90139485  1
  Li  Li3  1  0.09659656  0.37126495  0.59860515  1
  Nb  Nb4  1  -0.00000000  0.00000000  0.50000000  1
  Nb  Nb5  1  0.50000000  0.50000000  0.00000000  1
  P  P6  1  0.29652961  0.69067242  0.46332965  1
  P  P7  1  0.70347039  0.30932758  0.53667035  1
  P  P8  1  0.20347039  0.19067242  0.03667035  1
  P  P9  1  0.79652961  0.80932758  0.96332965  1
  O  O10  1  0.75855018  0.13195640  0.46280353  1
  O  O11  1  0.74144982  0.63195640  0.03719647  1
  O  O12  1  0.25855018  0.36804360  0.96280353  1
  O  O13  1  0.35382409  0.07358030  0.04945811  1
  O  O14  1  0.24144982  0.86804360  0.53719647  1
  O  O15  1  0.44336960  0.64542588  0.67589803  1
  O  O16  1  0.55663040  0.35457412  0.32410197  1
  O  O17  1  0.61326240  0.31387299  0.80376383  1
  O  O18  1  0.14617591  0.57358030  0.45054189  1
  O  O19  1  0.64617591  0.92641970  0.95054189  1
  O  O20  1  0.85382409  0.42641970  0.54945811  1
  O  O21  1  0.88673760  0.81387299  0.69623617  1
  O  O22  1  0.11326240  0.18612701  0.30376383  1
  O  O23  1  0.94336960  0.85457412  0.17589803  1
  O  O24  1  0.38673760  0.68612701  0.19623617  1
  O  O25  1  0.05663040  0.14542588  0.82410197  1
