# generated using pymatgen
data_Mn2GeO4
_symmetry_space_group_name_H-M   'P 1'
_cell_length_a   3.01215365
_cell_length_b   5.34673618
_cell_length_c   9.41382990
_cell_angle_alpha   90.00000000
_cell_angle_beta   90.00000000
_cell_angle_gamma   90.00000000
_symmetry_Int_Tables_number   1
_chemical_formula_structural   Mn2GeO4
_chemical_formula_sum   'Mn4 Ge2 O8'
_cell_volume   151.61152764
_cell_formula_units_Z   2
loop_
 _symmetry_equiv_pos_site_id
 _symmetry_equiv_pos_as_xyz
  1  'x, y, z'
loop_
 _atom_site_type_symbol
 _atom_site_label
 _atom_site_symmetry_multiplicity
 _atom_site_fract_x
 _atom_site_fract_y
 _atom_site_fract_z
 _atom_site_occupancy
  O  O0  1  0.00000000  0.13007267  0.81275689  1
  O  O1  1  0.00000000  0.86992598  0.18724311  1
  O  O2  1  0.00000000  0.63007388  0.68724258  1
  O  O3  1  0.00000000  0.36992665  0.31275742  1
  O  O4  1  0.50000132  0.26942204  0.54307297  1
  O  O5  1  0.50000132  0.73057849  0.45692703  1
  O  O6  1  0.50000132  0.23057728  0.04307350  1
  O  O7  1  0.50000132  0.76942137  0.95692650  1
  Mn  Mn8  1  0.50000132  0.43646212  0.82329421  1
  Mn  Mn9  1  0.50000132  0.56353841  0.17670579  1
  Mn  Mn10  1  0.50000132  0.93646144  0.67670632  1
  Mn  Mn11  1  0.50000132  0.06353721  0.32329368  1
  Ge  Ge12  1  0.00000000  0.49999932  0.50000053  1
  Ge  Ge13  1  0.00000000  0.00000000  0.00000000  1
