# generated using pymatgen
data_TiFeO3
_symmetry_space_group_name_H-M   'P 1'
_cell_length_a   5.23280171
_cell_length_b   5.29105917
_cell_length_c   7.54040129
_cell_angle_alpha   90.00000000
_cell_angle_beta   90.00000000
_cell_angle_gamma   90.00000000
_symmetry_Int_Tables_number   1
_chemical_formula_structural   TiFeO3
_chemical_formula_sum   'Ti4 Fe4 O12'
_cell_volume   208.77156912
_cell_formula_units_Z   4
loop_
 _symmetry_equiv_pos_site_id
 _symmetry_equiv_pos_as_xyz
  1  'x, y, z'
loop_
 _atom_site_type_symbol
 _atom_site_label
 _atom_site_symmetry_multiplicity
 _atom_site_fract_x
 _atom_site_fract_y
 _atom_site_fract_z
 _atom_site_occupancy
  O  O0  1  0.82319009  0.81809723  0.44328296  1
  O  O1  1  0.17680991  0.18190277  0.55671704  1
  O  O2  1  0.82319009  0.81809723  0.05671704  1
  O  O3  1  0.32319009  0.68190277  0.94328296  1
  O  O4  1  0.10524560  0.44323479  0.25000000  1
  O  O5  1  0.60524560  0.05676521  0.75000000  1
  O  O6  1  0.39475440  0.94323479  0.25000000  1
  O  O7  1  0.32319009  0.68190277  0.55671704  1
  O  O8  1  0.67680991  0.31809723  0.05671704  1
  O  O9  1  0.17680991  0.18190277  0.94328296  1
  O  O10  1  0.89475440  0.55676521  0.75000000  1
  O  O11  1  0.67680991  0.31809723  0.44328296  1
  Ti  Ti12  1  0.50000000  0.00000000  0.00000000  1
  Ti  Ti13  1  0.00000000  0.50000000  0.00000000  1
  Ti  Ti14  1  0.00000000  0.50000000  0.50000000  1
  Ti  Ti15  1  0.50000000  0.00000000  0.50000000  1
  Fe  Fe16  1  0.99201016  0.96044651  0.75000000  1
  Fe  Fe17  1  0.49201016  0.53955349  0.25000000  1
  Fe  Fe18  1  0.50798984  0.46044651  0.75000000  1
  Fe  Fe19  1  0.00798984  0.03955349  0.25000000  1
