# generated using pymatgen
data_Bi6Br7
_symmetry_space_group_name_H-M   'P 1'
_cell_length_a   9.19429832
_cell_length_b   16.01728218
_cell_length_c   24.46221687
_cell_angle_alpha   90.00000000
_cell_angle_beta   90.00000000
_cell_angle_gamma   90.00000000
_symmetry_Int_Tables_number   1
_chemical_formula_structural   Bi6Br7
_chemical_formula_sum   'Bi48 Br56'
_cell_volume   3602.49369710
_cell_formula_units_Z   8
loop_
 _symmetry_equiv_pos_site_id
 _symmetry_equiv_pos_as_xyz
  1  'x, y, z'
loop_
 _atom_site_type_symbol
 _atom_site_label
 _atom_site_symmetry_multiplicity
 _atom_site_fract_x
 _atom_site_fract_y
 _atom_site_fract_z
 _atom_site_occupancy
  Br  Br0  1  0.80889590  0.79166309  0.66930838  1
  Br  Br1  1  0.80889590  0.20833691  0.33069162  1
  Br  Br2  1  0.69110410  0.29166309  0.83069162  1
  Br  Br3  1  0.69110410  0.70833691  0.16930838  1
  Br  Br4  1  0.19110410  0.20833691  0.33069162  1
  Br  Br5  1  0.19110410  0.79166309  0.66930838  1
  Br  Br6  1  0.30889590  0.70833691  0.16930838  1
  Br  Br7  1  0.30889590  0.29166309  0.83069162  1
  Br  Br8  1  0.77713449  0.55420956  0.66410680  1
  Br  Br9  1  0.77713449  0.44579044  0.33589320  1
  Br  Br10  1  0.72286551  0.05420956  0.83589320  1
  Br  Br11  1  0.72286551  0.94579044  0.16410680  1
  Br  Br12  1  0.22286551  0.44579044  0.33589320  1
  Br  Br13  1  0.22286551  0.55420956  0.66410680  1
  Br  Br14  1  0.27713449  0.94579044  0.16410680  1
  Br  Br15  1  0.27713449  0.05420956  0.83589320  1
  Br  Br16  1  0.69330903  0.91943633  0.56048360  1
  Br  Br17  1  0.69330903  0.08056367  0.43951640  1
  Br  Br18  1  0.80669097  0.41943633  0.93951640  1
  Br  Br19  1  0.80669097  0.58056367  0.06048360  1
  Br  Br20  1  0.30669097  0.08056367  0.43951640  1
  Br  Br21  1  0.30669097  0.91943633  0.56048360  1
  Br  Br22  1  0.19330903  0.58056367  0.06048360  1
  Br  Br23  1  0.19330903  0.41943633  0.93951640  1
  Br  Br24  1  0.72382230  0.00000000  0.00000000  1
  Br  Br25  1  0.77617770  0.50000000  0.50000000  1
  Br  Br26  1  0.27617770  0.00000000  0.00000000  1
  Br  Br27  1  0.22382230  0.50000000  0.50000000  1
  Br  Br28  1  0.00000000  0.07804382  0.55636704  1
  Br  Br29  1  0.00000000  0.92195618  0.44363296  1
  Br  Br30  1  0.50000000  0.57804382  0.94363296  1
  Br  Br31  1  0.50000000  0.42195618  0.05636704  1
  Br  Br32  1  0.00000000  0.36797391  0.60856441  1
  Br  Br33  1  0.00000000  0.63202609  0.39143559  1
  Br  Br34  1  0.50000000  0.86797391  0.89143559  1
  Br  Br35  1  0.50000000  0.13202609  0.10856441  1
  Br  Br36  1  0.00000000  0.22333016  0.75553890  1
  Br  Br37  1  0.00000000  0.77666984  0.24446110  1
  Br  Br38  1  0.50000000  0.72333016  0.74446110  1
  Br  Br39  1  0.50000000  0.27666984  0.25553890  1
  Br  Br40  1  0.00000000  0.18040061  0.93919342  1
  Br  Br41  1  0.00000000  0.81959939  0.06080658  1
  Br  Br42  1  0.50000000  0.68040061  0.56080658  1
  Br  Br43  1  0.50000000  0.31959939  0.43919342  1
  Br  Br44  1  0.00000000  0.99446307  0.69600354  1
  Br  Br45  1  0.00000000  0.00553693  0.30399646  1
  Br  Br46  1  0.50000000  0.49446307  0.80399646  1
  Br  Br47  1  0.50000000  0.50553693  0.19600354  1
  Br  Br48  1  0.00000000  0.71910272  0.54022993  1
  Br  Br49  1  0.00000000  0.28089728  0.45977007  1
  Br  Br50  1  0.50000000  0.21910272  0.95977007  1
  Br  Br51  1  0.50000000  0.78089728  0.04022993  1
  Br  Br52  1  0.00000000  0.46069019  0.78904604  1
  Br  Br53  1  0.00000000  0.53930981  0.21095396  1
  Br  Br54  1  0.50000000  0.96069019  0.71095396  1
  Br  Br55  1  0.50000000  0.03930981  0.28904604  1
  Bi  Bi56  1  0.82135294  0.83447703  0.80511977  1
  Bi  Bi57  1  0.82135294  0.16552297  0.19488023  1
  Bi  Bi58  1  0.67864706  0.33447703  0.69488023  1
  Bi  Bi59  1  0.67864706  0.66552297  0.30511977  1
  Bi  Bi60  1  0.17864706  0.16552297  0.19488023  1
  Bi  Bi61  1  0.17864706  0.83447703  0.80511977  1
  Bi  Bi62  1  0.32135294  0.66552297  0.30511977  1
  Bi  Bi63  1  0.32135294  0.33447703  0.69488023  1
  Bi  Bi64  1  0.81665685  0.78189963  0.95044794  1
  Bi  Bi65  1  0.81665685  0.21810037  0.04955206  1
  Bi  Bi66  1  0.68334315  0.28189963  0.54955206  1
  Bi  Bi67  1  0.68334315  0.71810037  0.45044794  1
  Bi  Bi68  1  0.18334315  0.21810037  0.04955206  1
  Bi  Bi69  1  0.18334315  0.78189963  0.95044794  1
  Bi  Bi70  1  0.31665685  0.71810037  0.45044794  1
  Bi  Bi71  1  0.31665685  0.28189963  0.54955206  1
  Bi  Bi72  1  0.74458198  0.65635432  0.85156423  1
  Bi  Bi73  1  0.74458198  0.34364568  0.14843577  1
  Bi  Bi74  1  0.75541802  0.15635432  0.64843577  1
  Bi  Bi75  1  0.75541802  0.84364568  0.35156423  1
  Bi  Bi76  1  0.25541802  0.34364568  0.14843577  1
  Bi  Bi77  1  0.25541802  0.65635432  0.85156423  1
  Bi  Bi78  1  0.24458198  0.84364568  0.35156423  1
  Bi  Bi79  1  0.24458198  0.15635432  0.64843577  1
  Bi  Bi80  1  0.00000000  0.61450914  0.93278784  1
  Bi  Bi81  1  0.00000000  0.38549086  0.06721216  1
  Bi  Bi82  1  0.50000000  0.11450914  0.56721216  1
  Bi  Bi83  1  0.50000000  0.88549086  0.43278784  1
  Bi  Bi84  1  0.00000000  0.92560477  0.89860203  1
  Bi  Bi85  1  0.00000000  0.07439523  0.10139797  1
  Bi  Bi86  1  0.50000000  0.42560477  0.60139797  1
  Bi  Bi87  1  0.50000000  0.57439523  0.39860203  1
  Bi  Bi88  1  0.00000000  0.67212304  0.76694421  1
  Bi  Bi89  1  0.00000000  0.32787696  0.23305579  1
  Bi  Bi90  1  0.50000000  0.17212304  0.73305579  1
  Bi  Bi91  1  0.50000000  0.82787696  0.26694421  1
  Bi  Bi92  1  0.00000000  0.90369117  0.59922194  1
  Bi  Bi93  1  0.00000000  0.09630883  0.40077806  1
  Bi  Bi94  1  0.50000000  0.40369117  0.90077806  1
  Bi  Bi95  1  0.50000000  0.59630883  0.09922194  1
  Bi  Bi96  1  0.00000000  0.32167195  0.85566210  1
  Bi  Bi97  1  0.00000000  0.67832805  0.14433790  1
  Bi  Bi98  1  0.50000000  0.82167195  0.64433790  1
  Bi  Bi99  1  0.50000000  0.17832805  0.35566210  1
  Bi  Bi100  1  0.00000000  0.54431487  0.58764873  1
  Bi  Bi101  1  0.00000000  0.45568513  0.41235127  1
  Bi  Bi102  1  0.50000000  0.04431487  0.91235127  1
  Bi  Bi103  1  0.50000000  0.95568513  0.08764873  1
