# generated using pymatgen
data_Ca3SiO5
_symmetry_space_group_name_H-M   'P 1'
_cell_length_a   9.52731283
_cell_length_b   9.52731283
_cell_length_c   9.52731283
_cell_angle_alpha   43.68760601
_cell_angle_beta   43.68760602
_cell_angle_gamma   43.68760597
_symmetry_Int_Tables_number   1
_chemical_formula_structural   Ca3SiO5
_chemical_formula_sum   'Ca9 Si3 O15'
_cell_volume   374.50459818
_cell_formula_units_Z   3
loop_
 _symmetry_equiv_pos_site_id
 _symmetry_equiv_pos_as_xyz
  1  'x, y, z'
loop_
 _atom_site_type_symbol
 _atom_site_label
 _atom_site_symmetry_multiplicity
 _atom_site_fract_x
 _atom_site_fract_y
 _atom_site_fract_z
 _atom_site_occupancy
  O  O0  1  0.75380902  0.13587160  0.13587160  1
  O  O1  1  0.13587160  0.13587160  0.75380902  1
  O  O2  1  0.13587160  0.75380902  0.13587160  1
  O  O3  1  0.78440043  0.40703695  0.40703695  1
  O  O4  1  0.40703695  0.40703695  0.78440043  1
  O  O5  1  0.40703695  0.78440043  0.40703695  1
  O  O6  1  0.49433955  0.86975123  0.86975123  1
  O  O7  1  0.86975123  0.86975123  0.49433955  1
  O  O8  1  0.86975123  0.49433955  0.86975123  1
  O  O9  1  0.62044562  0.62044562  0.62044562  1
  O  O10  1  0.27476277  0.27476277  0.27476277  1
  O  O11  1  0.92570972  0.92570972  0.92570972  1
  O  O12  1  0.83084371  0.83084371  0.83084371  1
  O  O13  1  0.40196095  0.40196095  0.40196095  1
  O  O14  1  0.15039614  0.15039614  0.15039614  1
  Si  Si15  1  0.76795095  0.76795095  0.76795095  1
  Si  Si16  1  0.55526233  0.55526233  0.55526233  1
  Si  Si17  1  0.98906113  0.98906113  0.98906113  1
  Ca  Ca18  1  0.78682193  0.26236216  0.26236216  1
  Ca  Ca19  1  0.26236216  0.26236216  0.78682193  1
  Ca  Ca20  1  0.26236216  0.78682193  0.26236216  1
  Ca  Ca21  1  0.53207722  0.05805379  0.05805379  1
  Ca  Ca22  1  0.05805379  0.05805379  0.53207722  1
  Ca  Ca23  1  0.05805379  0.53207722  0.05805379  1
  Ca  Ca24  1  0.01950221  0.49500243  0.49500243  1
  Ca  Ca25  1  0.49500243  0.49500243  0.01950221  1
  Ca  Ca26  1  0.49500243  0.01950221  0.49500243  1
