# generated using pymatgen
data_Pd(S3N)2
_symmetry_space_group_name_H-M   'P 1'
_cell_length_a   8.09939272
_cell_length_b   9.43484725
_cell_length_c   12.91799061
_cell_angle_alpha   90.00000000
_cell_angle_beta   96.02390735
_cell_angle_gamma   90.00000000
_symmetry_Int_Tables_number   1
_chemical_formula_structural   Pd(S3N)2
_chemical_formula_sum   'Pd4 S24 N8'
_cell_volume   981.69721701
_cell_formula_units_Z   4
loop_
 _symmetry_equiv_pos_site_id
 _symmetry_equiv_pos_as_xyz
  1  'x, y, z'
loop_
 _atom_site_type_symbol
 _atom_site_label
 _atom_site_symmetry_multiplicity
 _atom_site_fract_x
 _atom_site_fract_y
 _atom_site_fract_z
 _atom_site_occupancy
  N  N0  1  0.33248065  0.10059357  0.80355712  1
  N  N1  1  0.16751935  0.60059357  0.19644288  1
  N  N2  1  0.66751935  0.89940643  0.19644288  1
  N  N3  1  0.83248065  0.39940643  0.80355712  1
  N  N4  1  0.72378923  0.32861225  0.42330828  1
  N  N5  1  0.77621077  0.82861225  0.57669172  1
  N  N6  1  0.27621077  0.67138775  0.57669172  1
  N  N7  1  0.22378923  0.17138775  0.42330828  1
  S  S8  1  0.33748675  0.66994123  0.80784329  1
  S  S9  1  0.70074143  0.22316785  0.32920424  1
  S  S10  1  0.20074143  0.27683215  0.32920424  1
  S  S11  1  0.29925857  0.77683215  0.67079576  1
  S  S12  1  0.77927435  1.00010547  0.58338844  1
  S  S13  1  0.72072565  0.50010547  0.41661156  1
  S  S14  1  0.22072565  -0.00010547  0.41661156  1
  S  S15  1  0.79925857  0.72316785  0.67079576  1
  S  S16  1  0.86313420  0.13436738  0.92900717  1
  S  S17  1  0.63686580  0.63436738  0.07099283  1
  S  S18  1  0.13686580  0.86563262  0.07099283  1
  S  S19  1  0.36313420  0.36563262  0.92900717  1
  S  S20  1  0.85827183  0.34953041  0.91974190  1
  S  S21  1  0.64172817  0.84953041  0.08025810  1
  S  S22  1  0.14172817  0.65046959  0.08025810  1
  S  S23  1  0.35827183  0.15046959  0.91974190  1
  S  S24  1  0.81052861  0.29815220  0.70181058  1
  S  S25  1  0.68947139  0.79815220  0.29818942  1
  S  S26  1  0.18947139  0.70184780  0.29818942  1
  S  S27  1  0.31052861  0.20184780  0.70181058  1
  S  S28  1  0.66251325  0.33005877  0.19215671  1
  S  S29  1  0.83748675  0.83005877  0.80784329  1
  S  S30  1  0.27927435  0.49989453  0.58338844  1
  S  S31  1  0.16251325  0.16994123  0.19215671  1
  Pd  Pd32  1  0.32309689  0.43377812  0.75448770  1
  Pd  Pd33  1  0.17690311  0.93377812  0.24551230  1
  Pd  Pd34  1  0.67690311  0.56622188  0.24551230  1
  Pd  Pd35  1  0.82309689  0.06622188  0.75448770  1
