# generated using pymatgen
data_SCl2
_symmetry_space_group_name_H-M   'P 1'
_cell_length_a   5.18133271
_cell_length_b   9.73072753
_cell_length_c   16.82401368
_cell_angle_alpha   90.00000000
_cell_angle_beta   90.00000000
_cell_angle_gamma   90.00000000
_symmetry_Int_Tables_number   1
_chemical_formula_structural   SCl2
_chemical_formula_sum   'S8 Cl16'
_cell_volume   848.23542397
_cell_formula_units_Z   8
loop_
 _symmetry_equiv_pos_site_id
 _symmetry_equiv_pos_as_xyz
  1  'x, y, z'
loop_
 _atom_site_type_symbol
 _atom_site_label
 _atom_site_symmetry_multiplicity
 _atom_site_fract_x
 _atom_site_fract_y
 _atom_site_fract_z
 _atom_site_occupancy
  S  S0  1  0.21416483  0.30098055  0.30658769  1
  S  S1  1  0.71416483  0.19901945  0.69341231  1
  S  S2  1  0.78583517  0.80098055  0.19341231  1
  S  S3  1  0.28583517  0.69901945  0.80658769  1
  S  S4  1  0.58504958  0.28973845  0.15223605  1
  S  S5  1  0.08504958  0.21026155  0.84776395  1
  S  S6  1  0.41495042  0.78973845  0.34776395  1
  S  S7  1  0.91495042  0.71026155  0.65223605  1
  Cl  Cl8  1  0.03427702  0.27680337  0.41467722  1
  Cl  Cl9  1  0.53427702  0.22319663  0.58532278  1
  Cl  Cl10  1  0.96572298  0.77680337  0.08532278  1
  Cl  Cl11  1  0.46572298  0.72319663  0.91467722  1
  Cl  Cl12  1  0.06168396  0.47936930  0.26498853  1
  Cl  Cl13  1  0.56168396  0.02063070  0.73501147  1
  Cl  Cl14  1  0.93831604  0.97936930  0.23501147  1
  Cl  Cl15  1  0.43831604  0.52063070  0.76498853  1
  Cl  Cl16  1  0.49610429  0.46507660  0.09364042  1
  Cl  Cl17  1  0.99610429  0.03492340  0.90635958  1
  Cl  Cl18  1  0.50389571  0.96507660  0.40635958  1
  Cl  Cl19  1  0.00389571  0.53492340  0.59364042  1
  Cl  Cl20  1  0.42966366  0.14027197  0.08405161  1
  Cl  Cl21  1  0.92966366  0.35972803  0.91594839  1
  Cl  Cl22  1  0.57033634  0.64027197  0.41594839  1
  Cl  Cl23  1  0.07033634  0.85972803  0.58405161  1
