# generated using pymatgen
data_LiV(PO4)2
_symmetry_space_group_name_H-M   'P 1'
_cell_length_a   8.47977303
_cell_length_b   8.48623994
_cell_length_c   7.37973243
_cell_angle_alpha   91.11201560
_cell_angle_beta   89.95613111
_cell_angle_gamma   60.47069349
_symmetry_Int_Tables_number   1
_chemical_formula_structural   LiV(PO4)2
_chemical_formula_sum   'Li3 V3 P6 O24'
_cell_volume   461.95401394
_cell_formula_units_Z   3
loop_
 _symmetry_equiv_pos_site_id
 _symmetry_equiv_pos_as_xyz
  1  'x, y, z'
loop_
 _atom_site_type_symbol
 _atom_site_label
 _atom_site_symmetry_multiplicity
 _atom_site_fract_x
 _atom_site_fract_y
 _atom_site_fract_z
 _atom_site_occupancy
  Li  Li0  1  -0.01120787  0.20041429  0.40609250  1
  Li  Li1  1  0.32054051  0.34628850  0.49493515  1
  Li  Li2  1  0.66810990  0.65978804  0.50862185  1
  O  O3  1  0.52860735  0.32084533  0.05146855  1
  O  O4  1  0.14664102  0.35212668  0.76380181  1
  O  O5  1  0.24290689  0.15313031  0.38948255  1
  O  O6  1  0.33807676  0.14580165  0.06356619  1
  O  O7  1  0.16177398  0.50563400  0.06509874  1
  O  O8  1  0.14136792  0.58783338  0.39758488  1
  O  O9  1  0.49777159  0.13136464  0.76097974  1
  O  O10  1  0.16392791  0.80917156  0.84257622  1
  O  O11  1  0.36530511  0.48688655  0.76141043  1
  O  O12  1  0.18853596  0.96841777  0.15361022  1
  O  O13  1  0.01868446  0.16198451  0.86363440  1
  O  O14  1  0.56261324  0.27857105  0.39051309  1
  O  O15  1  0.42728145  0.72148185  0.61464460  1
  O  O16  1  0.47788923  0.66581890  0.95049711  1
  O  O17  1  0.81383588  0.01628124  0.85345355  1
  O  O18  1  0.97834694  0.82862175  0.15168978  1
  O  O19  1  0.84202975  0.17942886  0.18411234  1
  O  O20  1  0.50513355  0.86000604  0.24911225  1
  O  O21  1  0.87334391  0.37759886  0.59978290  1
  O  O22  1  0.83770977  0.49011696  0.92573658  1
  O  O23  1  0.66246267  0.84665268  0.94736555  1
  O  O24  1  0.74106751  0.83429982  0.61481847  1
  O  O25  1  0.86018258  0.62620383  0.23633991  1
  O  O26  1  0.63660769  0.50369973  0.24071500  1
  P  P27  1  0.32035268  0.03540425  0.22143674  1
  P  P28  1  0.04000971  0.63546560  0.22486693  1
  P  P29  1  0.36303319  0.67181798  0.77990263  1
  P  P30  1  0.63735521  0.31768791  0.22558287  1
  P  P31  1  0.68078856  0.95099225  0.78146216  1
  P  P32  1  0.96489552  0.34916625  0.78053062  1
  V  V33  1  0.34002117  0.32499986  0.92228527  1
  V  V34  1  0.66215490  0.66626964  0.08160407  1
  V  V35  1  1.00203627  0.98882004  1.00042319  1
