# generated using pymatgen
data_CrP2O7
_symmetry_space_group_name_H-M   'P 1'
_cell_length_a   5.15351879
_cell_length_b   5.15351906
_cell_length_c   4.54863946
_cell_angle_alpha   81.81704500
_cell_angle_beta   98.18295545
_cell_angle_gamma   79.86731926
_symmetry_Int_Tables_number   1
_chemical_formula_structural   CrP2O7
_chemical_formula_sum   'Cr1 P2 O7'
_cell_volume   115.96155119
_cell_formula_units_Z   1
loop_
 _symmetry_equiv_pos_site_id
 _symmetry_equiv_pos_as_xyz
  1  'x, y, z'
loop_
 _atom_site_type_symbol
 _atom_site_label
 _atom_site_symmetry_multiplicity
 _atom_site_fract_x
 _atom_site_fract_y
 _atom_site_fract_z
 _atom_site_occupancy
  Cr  Cr0  1  0.11227872  0.11227872  0.00000000  1
  P  P1  1  0.66597859  0.25991446  0.40992081  1
  P  P2  1  0.25991446  0.66597859  0.59007919  1
  O  O3  1  0.13730178  0.44463727  0.73657379  1
  O  O4  1  0.85698957  0.33642917  0.19744719  1
  O  O5  1  0.81584129  0.07827089  0.70461854  1
  O  O6  1  0.33642917  0.85698957  0.80255281  1
  O  O7  1  0.53886827  0.53886827  0.50000000  1
  O  O8  1  0.07827089  0.81584129  0.29538146  1
  O  O9  1  0.44463727  0.13730178  0.26342621  1
