# generated using pymatgen
data_Zn(Bi3O5)4
_symmetry_space_group_name_H-M   'P 1'
_cell_length_a   8.83167839
_cell_length_b   8.83167836
_cell_length_c   8.83167769
_cell_angle_alpha   109.47122142
_cell_angle_beta   109.47122135
_cell_angle_gamma   109.47121999
_symmetry_Int_Tables_number   1
_chemical_formula_structural   Zn(Bi3O5)4
_chemical_formula_sum   'Zn1 Bi12 O20'
_cell_volume   530.28312325
_cell_formula_units_Z   1
loop_
 _symmetry_equiv_pos_site_id
 _symmetry_equiv_pos_as_xyz
  1  'x, y, z'
loop_
 _atom_site_type_symbol
 _atom_site_label
 _atom_site_symmetry_multiplicity
 _atom_site_fract_x
 _atom_site_fract_y
 _atom_site_fract_z
 _atom_site_occupancy
  Zn  Zn0  1  0.00000000  0.00000000  0.00000000  1
  Bi  Bi1  1  0.67823988  0.81915552  0.51095178  1
  Bi  Bi2  1  0.16728811  0.48904822  0.30820375  1
  Bi  Bi3  1  0.85908436  0.69179625  0.18084448  1
  Bi  Bi4  1  0.83271189  0.14091564  0.32176012  1
  Bi  Bi5  1  0.48904822  0.30820375  0.16728811  1
  Bi  Bi6  1  0.18084448  0.85908436  0.69179625  1
  Bi  Bi7  1  0.14091564  0.32176012  0.83271189  1
  Bi  Bi8  1  0.51095178  0.67823988  0.81915552  1
  Bi  Bi9  1  0.81915552  0.51095178  0.67823988  1
  Bi  Bi10  1  0.30820375  0.16728811  0.48904822  1
  Bi  Bi11  1  0.69179625  0.18084448  0.85908436  1
  Bi  Bi12  1  0.32176012  0.83271189  0.14091564  1
  O  O13  1  0.62138329  0.62138329  0.62138329  1
  O  O14  1  0.00000000  0.37861671  0.00000000  1
  O  O15  1  1.00000000  1.00000000  0.37861671  1
  O  O16  1  0.37861671  0.00000000  0.00000000  1
  O  O17  1  0.26146640  0.38050856  0.61989748  1
  O  O18  1  0.64156892  0.38010252  0.76061107  1
  O  O19  1  0.88095785  0.23938893  0.61949144  1
  O  O20  1  0.35843108  0.11904215  0.73853360  1
  O  O21  1  0.38010252  0.76061107  0.64156892  1
  O  O22  1  0.61949144  0.88095785  0.23938893  1
  O  O23  1  0.11904215  0.73853360  0.35843108  1
  O  O24  1  0.61989748  0.26146640  0.38050856  1
  O  O25  1  0.38050856  0.61989748  0.26146640  1
  O  O26  1  0.76061107  0.64156892  0.38010252  1
  O  O27  1  0.23938893  0.61949144  0.88095785  1
  O  O28  1  0.73853360  0.35843108  0.11904215  1
  O  O29  1  0.22980036  0.22980036  0.22980036  1
  O  O30  1  1.00000000  0.77019964  1.00000000  1
  O  O31  1  0.00000000  0.00000000  0.77019964  1
  O  O32  1  0.77019964  1.00000000  1.00000000  1
