# generated using pymatgen
data_Al10Si2O19
_symmetry_space_group_name_H-M   'P 1'
_cell_length_a   5.91942818
_cell_length_b   7.68831279
_cell_length_c   15.43225665
_cell_angle_alpha   90.00000000
_cell_angle_beta   101.05711968
_cell_angle_gamma   90.00000000
_symmetry_Int_Tables_number   1
_chemical_formula_structural   Al10Si2O19
_chemical_formula_sum   'Al20 Si4 O38'
_cell_volume   689.29071786
_cell_formula_units_Z   2
loop_
 _symmetry_equiv_pos_site_id
 _symmetry_equiv_pos_as_xyz
  1  'x, y, z'
loop_
 _atom_site_type_symbol
 _atom_site_label
 _atom_site_symmetry_multiplicity
 _atom_site_fract_x
 _atom_site_fract_y
 _atom_site_fract_z
 _atom_site_occupancy
  O  O0  1  0.92368441  0.52894654  0.84736883  1
  O  O1  1  0.07631559  0.02894654  0.15263117  1
  O  O2  1  0.19617680  0.44706719  0.39235361  1
  O  O3  1  0.80382320  0.94706719  0.60764639  1
  O  O4  1  0.42039675  0.56143479  0.84079350  1
  O  O5  1  0.57960325  0.06143479  0.15920650  1
  O  O6  1  0.78460933  0.29008998  0.06306900  1
  O  O7  1  0.21539067  0.79008998  0.93693100  1
  O  O8  1  0.27845967  0.29008998  0.06306900  1
  O  O9  1  0.72154033  0.79008998  0.93693100  1
  O  O10  1  0.51425608  0.29655370  0.54119148  1
  O  O11  1  0.48574392  0.79655370  0.45880852  1
  O  O12  1  0.02693540  0.29655370  0.54119148  1
  O  O13  1  0.97306460  0.79655370  0.45880852  1
  O  O14  1  0.58145634  0.69308052  0.69822074  1
  O  O15  1  0.41854366  0.19308052  0.30177926  1
  O  O16  1  0.11676440  0.69308052  0.69822074  1
  O  O17  1  0.88323560  0.19308052  0.30177926  1
  O  O18  1  0.34666455  0.71971971  0.18287689  1
  O  O19  1  0.65333545  0.21971971  0.81712311  1
  O  O20  1  0.83621234  0.71971971  0.18287689  1
  O  O21  1  0.16378766  0.21971971  0.81712311  1
  O  O22  1  0.97532240  0.08078675  0.95064480  1
  O  O23  1  0.02467760  0.58078675  0.04935520  1
  O  O24  1  0.83604791  0.36150382  0.67209582  1
  O  O25  1  0.16395209  0.86150382  0.32790418  1
  O  O26  1  0.34292268  0.40483575  0.68584535  1
  O  O27  1  0.65707732  0.90483575  0.31415465  1
  O  O28  1  0.59880430  0.40962973  0.19760861  1
  O  O29  1  0.40119570  0.90962973  0.80239139  1
  O  O30  1  0.09813246  0.43478809  0.19626491  1
  O  O31  1  0.90186754  0.93478809  0.80373509  1
  O  O32  1  0.78400671  0.61835859  0.56801342  1
  O  O33  1  0.21599329  0.11835859  0.43198658  1
  O  O34  1  0.27140497  0.55319710  0.54280993  1
  O  O35  1  0.72859503  0.05319710  0.45719007  1
  O  O36  1  0.52580341  0.57330521  0.05160682  1
  O  O37  1  0.47419659  0.07330521  0.94839318  1
  Al  Al38  1  0.18345095  0.00681947  0.88136979  1
  Al  Al39  1  0.81654905  0.50681947  0.11863021  1
  Al  Al40  1  0.69791884  0.00681947  0.88136979  1
  Al  Al41  1  0.30208116  0.50681947  0.11863021  1
  Al  Al42  1  0.02972459  0.16132983  0.05944919  1
  Al  Al43  1  0.97027541  0.66132983  0.94055081  1
  Al  Al44  1  0.52452311  0.17977249  0.04904622  1
  Al  Al45  1  0.47547689  0.67977249  0.95095378  1
  Al  Al46  1  0.78088703  0.17567069  0.56177405  1
  Al  Al47  1  0.21911297  0.67567069  0.43822595  1
  Al  Al48  1  0.85512700  0.81123840  0.71025399  1
  Al  Al49  1  0.14487300  0.31123840  0.28974601  1
  Al  Al50  1  0.60126690  0.83713122  0.20253380  1
  Al  Al51  1  0.39873310  0.33713122  0.79746620  1
  Al  Al52  1  0.10160004  0.83023856  0.20320007  1
  Al  Al53  1  0.89839996  0.33023856  0.79679993  1
  Al  Al54  1  0.55740567  0.49161023  0.62213295  1
  Al  Al55  1  0.44259433  0.99161023  0.37786705  1
  Al  Al56  1  0.06472728  0.49161023  0.62213295  1
  Al  Al57  1  0.93527272  0.99161023  0.37786705  1
  Si  Si58  1  0.61929302  0.21589752  0.23858603  1
  Si  Si59  1  0.38070698  0.71589752  0.76141397  1
  Si  Si60  1  0.75744086  0.81412049  0.51488172  1
  Si  Si61  1  0.24255914  0.31412049  0.48511828  1
