# generated using pymatgen
data_Si3CCl7
_symmetry_space_group_name_H-M   'P 1'
_cell_length_a   9.01896556
_cell_length_b   9.36733541
_cell_length_c   18.16618959
_cell_angle_alpha   102.73472746
_cell_angle_beta   90.00000000
_cell_angle_gamma   118.77720977
_symmetry_Int_Tables_number   1
_chemical_formula_structural   Si3CCl7
_chemical_formula_sum   'Si12 C4 Cl28'
_cell_volume   1301.96486661
_cell_formula_units_Z   4
loop_
 _symmetry_equiv_pos_site_id
 _symmetry_equiv_pos_as_xyz
  1  'x, y, z'
loop_
 _atom_site_type_symbol
 _atom_site_label
 _atom_site_symmetry_multiplicity
 _atom_site_fract_x
 _atom_site_fract_y
 _atom_site_fract_z
 _atom_site_occupancy
  C  C0  1  0.53869510  0.89693820  0.67940197  1
  C  C1  1  0.46130490  0.10306180  0.32059803  1
  C  C2  1  0.64175689  0.10306180  0.82059803  1
  C  C3  1  0.35824311  0.89693820  0.17940197  1
  Si  Si4  1  0.36166453  0.74753159  0.09296716  1
  Si  Si5  1  0.24126292  0.08947855  0.31288831  1
  Si  Si6  1  0.84821562  0.08947855  0.81288831  1
  Si  Si7  1  0.47024114  0.87217019  0.77851639  1
  Si  Si8  1  0.15178438  0.91052145  0.18711169  1
  Si  Si9  1  0.61413295  0.25246841  0.40703284  1
  Si  Si10  1  0.63833547  0.25246841  0.90703284  1
  Si  Si11  1  0.38586705  0.74753159  0.59296716  1
  Si  Si12  1  0.59807095  0.12782981  0.72148361  1
  Si  Si13  1  0.52975886  0.12782981  0.22148361  1
  Si  Si14  1  0.75873708  0.91052145  0.68711169  1
  Si  Si15  1  0.40192905  0.87217019  0.27851639  1
  Cl  Cl16  1  0.22320028  0.81813105  0.78420747  1
  Cl  Cl17  1  0.51135486  0.30508121  0.18047626  1
  Cl  Cl18  1  0.79372635  0.30508121  0.68047626  1
  Cl  Cl19  1  0.48864514  0.69491879  0.81952374  1
  Cl  Cl20  1  0.93963966  0.67938249  0.17479715  1
  Cl  Cl21  1  0.26025717  0.32061751  0.32520285  1
  Cl  Cl22  1  0.20627365  0.69491879  0.31952374  1
  Cl  Cl23  1  0.73974283  0.67938249  0.67479715  1
  Cl  Cl24  1  0.09981764  0.01420876  0.10914003  1
  Cl  Cl25  1  0.08560888  0.98579124  0.39085997  1
  Cl  Cl26  1  0.90018236  0.98579124  0.89085997  1
  Cl  Cl27  1  0.91439112  0.01420876  0.60914003  1
  Cl  Cl28  1  0.60238639  0.80322845  0.06968031  1
  Cl  Cl29  1  0.79915794  0.19677155  0.43031969  1
  Cl  Cl30  1  0.39761361  0.19677155  0.93031969  1
  Cl  Cl31  1  0.20084206  0.80322845  0.56968031  1
  Cl  Cl32  1  0.24291497  0.50965880  0.10967233  1
  Cl  Cl33  1  0.73325617  0.49034120  0.39032767  1
  Cl  Cl34  1  0.75708503  0.49034120  0.89032767  1
  Cl  Cl35  1  0.26674383  0.50965880  0.60967233  1
  Cl  Cl36  1  0.23564765  0.74380121  0.99840373  1
  Cl  Cl37  1  0.49184644  0.25619879  0.50159627  1
  Cl  Cl38  1  0.76435235  0.25619879  0.00159627  1
  Cl  Cl39  1  0.50815356  0.74380121  0.49840373  1
  Cl  Cl40  1  0.40506923  0.18186895  0.71579253  1
  Cl  Cl41  1  0.77679972  0.18186895  0.21579253  1
  Cl  Cl42  1  0.59493077  0.81813105  0.28420747  1
  Cl  Cl43  1  0.06036034  0.32061751  0.82520285  1
