# generated using pymatgen
data_Sr2ReNiO6
_symmetry_space_group_name_H-M   'P 1'
_cell_length_a   5.59454747
_cell_length_b   5.59454747
_cell_length_c   5.64541651
_cell_angle_alpha   119.70237409
_cell_angle_beta   119.70237401
_cell_angle_gamma   90.00000003
_symmetry_Int_Tables_number   1
_chemical_formula_structural   Sr2ReNiO6
_chemical_formula_sum   'Sr2 Re1 Ni1 O6'
_cell_volume   126.05847337
_cell_formula_units_Z   1
loop_
 _symmetry_equiv_pos_site_id
 _symmetry_equiv_pos_as_xyz
  1  'x, y, z'
loop_
 _atom_site_type_symbol
 _atom_site_label
 _atom_site_symmetry_multiplicity
 _atom_site_fract_x
 _atom_site_fract_y
 _atom_site_fract_z
 _atom_site_occupancy
  O  O0  1  0.69827068  0.78410249  0.00000019  1
  O  O1  1  0.21589609  0.69827103  0.00000029  1
  O  O2  1  0.78410213  0.30172887  0.99999973  1
  O  O3  1  0.30172960  0.21589743  0.00000086  1
  O  O4  1  0.25908840  0.25908831  0.51817609  1
  O  O5  1  0.74091119  0.74091060  0.48182320  1
  Ni  Ni6  1  0.00000000  0.00000000  0.00000000  1
  Sr  Sr7  1  0.25000024  0.74999985  0.49999922  1
  Sr  Sr8  1  0.74999936  0.24999906  0.50000006  1
  Re  Re9  1  0.49999947  0.50000104  0.00000073  1
