# generated using pymatgen
data_SrCaMg14O16
_symmetry_space_group_name_H-M   'P 1'
_cell_length_a   8.68766640
_cell_length_b   8.84461788
_cell_length_c   4.43347281
_cell_angle_alpha   90.00000000
_cell_angle_beta   90.00000000
_cell_angle_gamma   90.00000000
_symmetry_Int_Tables_number   1
_chemical_formula_structural   SrCaMg14O16
_chemical_formula_sum   'Sr1 Ca1 Mg14 O16'
_cell_volume   340.66401438
_cell_formula_units_Z   1
loop_
 _symmetry_equiv_pos_site_id
 _symmetry_equiv_pos_as_xyz
  1  'x, y, z'
loop_
 _atom_site_type_symbol
 _atom_site_label
 _atom_site_symmetry_multiplicity
 _atom_site_fract_x
 _atom_site_fract_y
 _atom_site_fract_z
 _atom_site_occupancy
  Sr  Sr0  1  0.00000000  0.50000000  0.00000000  1
  Ca  Ca1  1  0.00000000  0.00000000  0.00000000  1
  Mg  Mg2  1  0.50000000  0.00000000  0.00000000  1
  Mg  Mg3  1  0.50000000  0.50000000  0.00000000  1
  Mg  Mg4  1  0.00000000  0.24572531  0.50000000  1
  Mg  Mg5  1  0.00000000  0.75427469  0.50000000  1
  Mg  Mg6  1  0.50000000  0.24939592  0.50000000  1
  Mg  Mg7  1  0.50000000  0.75060408  0.50000000  1
  Mg  Mg8  1  0.25702608  0.00000000  0.50000000  1
  Mg  Mg9  1  0.25981009  0.50000000  0.50000000  1
  Mg  Mg10  1  0.74297392  0.00000000  0.50000000  1
  Mg  Mg11  1  0.74018991  0.50000000  0.50000000  1
  Mg  Mg12  1  0.25847160  0.24741950  -0.00000000  1
  Mg  Mg13  1  0.25847160  0.75258050  0.00000000  1
  Mg  Mg14  1  0.74152840  0.24741950  0.00000000  1
  Mg  Mg15  1  0.74152840  0.75258050  0.00000000  1
  O  O16  1  0.26568915  0.00000000  -0.00000000  1
  O  O17  1  0.27248825  0.50000000  -0.00000000  1
  O  O18  1  0.73431085  0.00000000  0.00000000  1
  O  O19  1  0.72751175  0.50000000  0.00000000  1
  O  O20  1  0.25086912  0.24971389  0.50000000  1
  O  O21  1  0.25086912  0.75028611  0.50000000  1
  O  O22  1  0.74913088  0.24971389  0.50000000  1
  O  O23  1  0.74913088  0.75028611  0.50000000  1
  O  O24  1  0.00000000  0.00000000  0.50000000  1
  O  O25  1  0.00000000  0.50000000  0.50000000  1
  O  O26  1  0.50000000  0.00000000  0.50000000  1
  O  O27  1  0.50000000  0.50000000  0.50000000  1
  O  O28  1  0.00000000  0.24216375  -0.00000000  1
  O  O29  1  0.00000000  0.75783625  0.00000000  1
  O  O30  1  0.50000000  0.24764813  0.00000000  1
  O  O31  1  0.50000000  0.75235187  0.00000000  1
