# generated using pymatgen
data_Co(PO3)3
_symmetry_space_group_name_H-M   'P 1'
_cell_length_a   6.62034118
_cell_length_b   7.32982224
_cell_length_c   6.86429526
_cell_angle_alpha   101.56034422
_cell_angle_beta   86.08744614
_cell_angle_gamma   86.48014636
_symmetry_Int_Tables_number   1
_chemical_formula_structural   Co(PO3)3
_chemical_formula_sum   'Co2 P6 O18'
_cell_volume   324.61692379
_cell_formula_units_Z   2
loop_
 _symmetry_equiv_pos_site_id
 _symmetry_equiv_pos_as_xyz
  1  'x, y, z'
loop_
 _atom_site_type_symbol
 _atom_site_label
 _atom_site_symmetry_multiplicity
 _atom_site_fract_x
 _atom_site_fract_y
 _atom_site_fract_z
 _atom_site_occupancy
  Co  Co0  1  0.84271404  0.85884310  0.08937414  1
  Co  Co1  1  0.15728596  0.14115690  0.91062586  1
  P  P2  1  0.34923233  0.80357240  0.56697262  1
  P  P3  1  0.66452652  0.20431592  0.87676692  1
  P  P4  1  0.33547348  0.79568408  0.12323308  1
  P  P5  1  0.65076767  0.19642760  0.43302738  1
  P  P6  1  0.14948473  0.55626797  0.80440629  1
  P  P7  1  0.85051527  0.44373203  0.19559371  1
  O  O8  1  0.70857772  0.40311564  0.01147854  1
  O  O9  1  0.12608181  0.35076893  0.75693539  1
  O  O10  1  0.83354292  0.06519264  0.91088669  1
  O  O11  1  0.72033192  0.39130898  0.37691163  1
  O  O12  1  0.43456954  0.17302210  0.40660302  1
  O  O13  1  0.29142228  0.59688436  0.98852146  1
  O  O14  1  0.29537359  0.75164786  0.33784725  1
  O  O15  1  0.27966808  0.60869102  0.62308837  1
  O  O16  1  0.87391819  0.64923107  0.24306461  1
  O  O17  1  0.16645708  0.93480736  0.08911331  1
  O  O18  1  0.55034739  0.82966700  0.07156291  1
  O  O19  1  0.70462641  0.24835214  0.66215275  1
  O  O20  1  0.44965261  0.17033300  0.92843709  1
  O  O21  1  0.04619404  0.31667574  0.14673265  1
  O  O22  1  0.80996399  0.04211555  0.32425702  1
  O  O23  1  0.95380596  0.68332426  0.85326735  1
  O  O24  1  0.19003601  0.95788445  0.67574298  1
  O  O25  1  0.56543046  0.82697790  0.59339698  1
