# generated using pymatgen
data_Cu11Sb3
_symmetry_space_group_name_H-M   'P 1'
_cell_length_a   4.32139945
_cell_length_b   4.82201708
_cell_length_c   9.92445085
_cell_angle_alpha   104.05990325
_cell_angle_beta   90.00000000
_cell_angle_gamma   90.00000000
_symmetry_Int_Tables_number   1
_chemical_formula_structural   Cu11Sb3
_chemical_formula_sum   'Cu11 Sb3'
_cell_volume   200.60894728
_cell_formula_units_Z   1
loop_
 _symmetry_equiv_pos_site_id
 _symmetry_equiv_pos_as_xyz
  1  'x, y, z'
loop_
 _atom_site_type_symbol
 _atom_site_label
 _atom_site_symmetry_multiplicity
 _atom_site_fract_x
 _atom_site_fract_y
 _atom_site_fract_z
 _atom_site_occupancy
  Cu  Cu0  1  0.00000000  0.80349819  0.00000000  1
  Cu  Cu1  1  0.00000000  0.27706595  0.85410743  1
  Cu  Cu2  1  0.00000000  0.42295853  0.14589257  1
  Cu  Cu3  1  0.00000000  0.12563173  0.57210918  1
  Cu  Cu4  1  0.00000000  0.55352255  0.42789082  1
  Cu  Cu5  1  0.50000000  0.58108668  0.85338383  1
  Cu  Cu6  1  0.50000000  0.72770284  0.14661617  1
  Cu  Cu7  1  0.50000000  0.43285888  0.56017182  1
  Cu  Cu8  1  0.50000000  0.87268706  0.43982818  1
  Cu  Cu9  1  0.50000000  0.04969405  0.70449949  1
  Cu  Cu10  1  0.50000000  0.34519456  0.29550051  1
  Sb  Sb11  1  0.50000000  0.16548501  0.00000000  1
  Sb  Sb12  1  0.00000000  0.69549293  0.70837188  1
  Sb  Sb13  1  0.00000000  0.98712105  0.29162812  1
