# generated using pymatgen
data_Li3Ni3(PO4)4
_symmetry_space_group_name_H-M   'P 1'
_cell_length_a   7.60104023
_cell_length_b   8.02274225
_cell_length_c   10.20233462
_cell_angle_alpha   90.00000000
_cell_angle_beta   93.02821911
_cell_angle_gamma   90.00000000
_symmetry_Int_Tables_number   1
_chemical_formula_structural   Li3Ni3(PO4)4
_chemical_formula_sum   'Li6 Ni6 P8 O32'
_cell_volume   621.28172342
_cell_formula_units_Z   2
loop_
 _symmetry_equiv_pos_site_id
 _symmetry_equiv_pos_as_xyz
  1  'x, y, z'
loop_
 _atom_site_type_symbol
 _atom_site_label
 _atom_site_symmetry_multiplicity
 _atom_site_fract_x
 _atom_site_fract_y
 _atom_site_fract_z
 _atom_site_occupancy
  Li  Li0  1  0.09731705  0.36582921  0.29936846  1
  Li  Li1  1  0.40268256  0.86582905  0.95063191  1
  Li  Li2  1  0.60138749  0.13680797  0.55259341  1
  Li  Li3  1  0.59730972  0.13750489  0.04590862  1
  Li  Li4  1  0.89861232  0.63680781  0.69740683  1
  Li  Li5  1  0.90268969  0.63750473  0.20409184  1
  O  O6  1  0.23873671  0.86839989  0.77316378  1
  O  O7  1  0.94358822  0.84998367  0.58609938  1
  O  O8  1  0.87789776  0.80429529  0.34430325  1
  O  O9  1  0.84526557  0.42549680  0.27920372  1
  O  O10  1  0.89401953  0.79854214  0.84843996  1
  O  O11  1  0.85911456  0.41946166  0.76836734  1
  O  O12  1  0.05717322  0.15903236  0.90468546  1
  O  O13  1  0.04819065  0.14520306  0.41284040  1
  O  O14  1  0.11302431  0.19896164  0.65423011  1
  O  O15  1  0.15364938  0.56665728  0.72353125  1
  O  O16  1  0.10538895  0.20473336  0.15187673  1
  O  O17  1  0.15113225  0.57409620  0.22281307  1
  O  O18  1  0.95382035  0.86567516  0.08704331  1
  O  O19  1  0.25616701  0.37411963  0.97060820  1
  O  O20  1  0.24383393  0.87411947  0.27939223  1
  O  O21  1  0.26126290  0.36840005  0.47683658  1
  O  O22  1  0.34635155  0.06665744  0.52646918  1
  O  O23  1  0.38697662  0.69896274  0.59576933  1
  O  O24  1  0.34886828  0.07409636  0.02718758  1
  O  O25  1  0.45180897  0.64520290  0.83715997  1
  O  O26  1  0.74778992  0.12974508  0.22196262  1
  O  O27  1  0.44282772  0.65903346  0.34531497  1
  O  O28  1  0.55641159  0.34998383  0.66390087  1
  O  O29  1  0.62210205  0.30429545  0.90569700  1
  O  O30  1  0.54617906  0.36567406  0.16295715  1
  O  O31  1  0.65473424  0.92549664  0.97079652  1
  O  O32  1  0.60598028  0.29854230  0.40155930  1
  O  O33  1  0.64088525  0.91946150  0.48163191  1
  O  O34  1  0.74061446  0.62105795  0.52047041  1
  O  O35  1  0.75938535  0.12105811  0.72952885  1
  O  O36  1  0.75220949  0.62974492  0.02803685  1
  O  O37  1  0.39461158  0.70473320  0.09812292  1
  P  P38  1  0.80001487  0.79871324  0.48091702  1
  P  P39  1  0.81088980  0.80507762  0.98435546  1
  P  P40  1  0.68911001  0.30507778  0.26564380  1
  P  P41  1  0.69998494  0.29871340  0.76908323  1
  P  P42  1  0.30227886  0.69542897  0.22724297  1
  P  P43  1  0.30688893  0.69505219  0.73385323  1
  P  P44  1  0.19311200  0.19505235  0.51614621  1
  P  P45  1  0.19772035  0.19542913  0.02275761  1
  Ni  Ni46  1  0.10642148  0.35989082  0.80633572  1
  Ni  Ni47  1  0.39357813  0.85989067  0.44366366  1
  Ni  Ni48  1  0.51138941  0.50646717  0.99934080  1
  Ni  Ni49  1  0.50176729  0.49376765  0.50293527  1
  Ni  Ni50  1  0.99823252  0.99376875  0.74706498  1
  Ni  Ni51  1  0.98861040  0.00646733  0.25065945  1
