# generated using pymatgen
data_KMg14AlO16
_symmetry_space_group_name_H-M   'P 1'
_cell_length_a   8.60315911
_cell_length_b   8.50758460
_cell_length_c   4.37914612
_cell_angle_alpha   90.00000000
_cell_angle_beta   90.00000000
_cell_angle_gamma   90.00000000
_symmetry_Int_Tables_number   1
_chemical_formula_structural   KMg14AlO16
_chemical_formula_sum   'K1 Mg14 Al1 O16'
_cell_volume   320.51891805
_cell_formula_units_Z   1
loop_
 _symmetry_equiv_pos_site_id
 _symmetry_equiv_pos_as_xyz
  1  'x, y, z'
loop_
 _atom_site_type_symbol
 _atom_site_label
 _atom_site_symmetry_multiplicity
 _atom_site_fract_x
 _atom_site_fract_y
 _atom_site_fract_z
 _atom_site_occupancy
  K  K0  1  -0.00000000  0.50000000  -0.00000000  1
  Mg  Mg1  1  0.50000000  -0.00000000  -0.00000000  1
  Mg  Mg2  1  0.50000000  0.50000000  -0.00000000  1
  Mg  Mg3  1  0.00000000  0.25182528  0.50000000  1
  Mg  Mg4  1  -0.00000000  0.74817472  0.50000000  1
  Mg  Mg5  1  0.50000000  0.25165767  0.50000000  1
  Mg  Mg6  1  0.50000000  0.74834233  0.50000000  1
  Mg  Mg7  1  0.25001361  -0.00000000  0.50000000  1
  Mg  Mg8  1  0.25173134  0.50000000  0.50000000  1
  Mg  Mg9  1  0.74998639  0.00000000  0.50000000  1
  Mg  Mg10  1  0.74826866  0.50000000  0.50000000  1
  Mg  Mg11  1  0.25336982  0.25187325  -0.00000000  1
  Mg  Mg12  1  0.25336982  0.74812675  0.00000000  1
  Mg  Mg13  1  0.74663018  0.25187325  -0.00000000  1
  Mg  Mg14  1  0.74663018  0.74812675  -0.00000000  1
  Al  Al15  1  -0.00000000  0.00000000  -0.00000000  1
  O  O16  1  0.23759834  -0.00000000  -0.00000000  1
  O  O17  1  0.27457906  0.50000000  -0.00000000  1
  O  O18  1  0.76240166  -0.00000000  -0.00000000  1
  O  O19  1  0.72542094  0.50000000  -0.00000000  1
  O  O20  1  0.24909511  0.24860767  0.50000000  1
  O  O21  1  0.24909511  0.75139233  0.50000000  1
  O  O22  1  0.75090489  0.24860767  0.50000000  1
  O  O23  1  0.75090489  0.75139233  0.50000000  1
  O  O24  1  0.00000000  -0.00000000  0.50000000  1
  O  O25  1  -0.00000000  0.50000000  0.50000000  1
  O  O26  1  0.50000000  0.00000000  0.50000000  1
  O  O27  1  0.50000000  0.50000000  0.50000000  1
  O  O28  1  -0.00000000  0.21228669  -0.00000000  1
  O  O29  1  0.00000000  0.78771331  -0.00000000  1
  O  O30  1  0.50000000  0.24094085  -0.00000000  1
  O  O31  1  0.50000000  0.75905915  -0.00000000  1
