# generated using pymatgen
data_K3Ba7Ti10(O9F)3
_symmetry_space_group_name_H-M   'P 1'
_cell_length_a   3.99204328
_cell_length_b   3.99204328
_cell_length_c   40.86762256
_cell_angle_alpha   90.00000000
_cell_angle_beta   90.00000000
_cell_angle_gamma   90.00000000
_symmetry_Int_Tables_number   1
_chemical_formula_structural   K3Ba7Ti10(O9F)3
_chemical_formula_sum   'K3 Ba7 Ti10 O27 F3'
_cell_volume   651.28317043
_cell_formula_units_Z   1
loop_
 _symmetry_equiv_pos_site_id
 _symmetry_equiv_pos_as_xyz
  1  'x, y, z'
loop_
 _atom_site_type_symbol
 _atom_site_label
 _atom_site_symmetry_multiplicity
 _atom_site_fract_x
 _atom_site_fract_y
 _atom_site_fract_z
 _atom_site_occupancy
  Ba  Ba0  1  0.00000000  0.00000000  0.99928696  1
  Ba  Ba1  1  0.00000000  0.00000000  0.09998527  1
  Ba  Ba2  1  0.00000000  0.00000000  0.20000932  1
  Ba  Ba3  1  0.00000000  0.00000000  0.29998421  1
  Ba  Ba4  1  0.00000000  0.00000000  0.40003369  1
  Ba  Ba5  1  0.00000000  0.00000000  0.50073964  1
  Ba  Ba6  1  0.00000000  0.00000000  0.69996953  1
  F  F7  1  0.50000000  0.50000000  0.59982808  1
  F  F8  1  0.50000000  0.50000000  0.79984740  1
  F  F9  1  0.50000000  0.50000000  0.90033597  1
  K  K10  1  0.00000000  0.00000000  0.60006810  1
  K  K11  1  0.00000000  0.00000000  0.80075393  1
  K  K12  1  0.00000000  0.00000000  0.89915104  1
  O  O13  1  0.00000000  0.50000000  0.05048031  1
  O  O14  1  0.00000000  0.50000000  0.15011150  1
  O  O15  1  0.00000000  0.50000000  0.25000049  1
  O  O16  1  0.00000000  0.50000000  0.34990448  1
  O  O17  1  0.00000000  0.50000000  0.44959413  1
  O  O18  1  0.00000000  0.50000000  0.54883401  1
  O  O19  1  0.00000000  0.50000000  0.65064373  1
  O  O20  1  0.00000000  0.50000000  0.74904237  1
  O  O21  1  0.00000000  0.50000000  0.85006382  1
  O  O22  1  0.00000000  0.50000000  0.95133796  1
  O  O23  1  0.50000000  0.00000000  0.05048031  1
  O  O24  1  0.50000000  0.50000000  1.00051193  1
  O  O25  1  0.50000000  0.00000000  0.15011150  1
  O  O26  1  0.50000000  0.00000000  0.25000049  1
  O  O27  1  0.50000000  0.50000000  0.20002348  1
  O  O28  1  0.50000000  0.50000000  0.10017382  1
  O  O29  1  0.50000000  0.00000000  0.34990448  1
  O  O30  1  0.50000000  0.00000000  0.44959413  1
  O  O31  1  0.50000000  0.50000000  0.39988432  1
  O  O32  1  0.50000000  0.50000000  0.30000262  1
  O  O33  1  0.50000000  0.00000000  0.54883401  1
  O  O34  1  0.50000000  0.50000000  0.49962433  1
  O  O35  1  0.50000000  0.00000000  0.74904237  1
  O  O36  1  0.50000000  0.50000000  0.69984012  1
  O  O37  1  0.50000000  0.00000000  0.65064373  1
  O  O38  1  0.50000000  0.00000000  0.85006382  1
  O  O39  1  0.50000000  0.00000000  0.95133796  1
  Ti  Ti40  1  0.50000000  0.50000000  0.05077836  1
  Ti  Ti41  1  0.50000000  0.50000000  0.24998447  1
  Ti  Ti42  1  0.50000000  0.50000000  0.15020778  1
  Ti  Ti43  1  0.50000000  0.50000000  0.44929652  1
  Ti  Ti44  1  0.50000000  0.50000000  0.34978382  1
  Ti  Ti45  1  0.50000000  0.50000000  0.54736870  1
  Ti  Ti46  1  0.50000000  0.50000000  0.74772276  1
  Ti  Ti47  1  0.50000000  0.50000000  0.65178130  1
  Ti  Ti48  1  0.50000000  0.50000000  0.85009407  1
  Ti  Ti49  1  0.50000000  0.50000000  0.95290285  1
