# generated using pymatgen
data_Tb2SmS4
_symmetry_space_group_name_H-M   'P 1'
_cell_length_a   7.25654251
_cell_length_b   7.25654233
_cell_length_c   7.25654262
_cell_angle_alpha   109.34362889
_cell_angle_beta   109.34363536
_cell_angle_gamma   109.72670174
_symmetry_Int_Tables_number   1
_chemical_formula_structural   Tb2SmS4
_chemical_formula_sum   'Tb4 Sm2 S8'
_cell_volume   294.14457868
_cell_formula_units_Z   2
loop_
 _symmetry_equiv_pos_site_id
 _symmetry_equiv_pos_as_xyz
  1  'x, y, z'
loop_
 _atom_site_type_symbol
 _atom_site_label
 _atom_site_symmetry_multiplicity
 _atom_site_fract_x
 _atom_site_fract_y
 _atom_site_fract_z
 _atom_site_occupancy
  S  S0  1  0.00259279  0.85441385  0.49852551  1
  S  S1  1  0.00406727  0.35588834  0.50147449  1
  S  S2  1  0.49740721  0.99593273  0.85182106  1
  S  S3  1  0.14558615  0.14411166  0.14817894  1
  S  S4  1  0.35441385  0.50259279  0.99852551  1
  S  S5  1  0.64411166  0.64558615  0.64817894  1
  S  S6  1  0.49593273  0.99740721  0.35182106  1
  S  S7  1  0.85588834  0.50406727  0.00147449  1
  Sm  Sm8  1  0.62500000  0.37500000  0.25000000  1
  Sm  Sm9  1  0.87500000  0.12500000  0.75000000  1
  Tb  Tb10  1  0.12416179  0.75000000  0.87416179  1
  Tb  Tb11  1  0.25000000  0.62416179  0.37416179  1
  Tb  Tb12  1  0.37583821  0.25000000  0.62583821  1
  Tb  Tb13  1  0.75000000  0.87583821  0.12583821  1
