# generated using pymatgen
data_Tm2S3
_symmetry_space_group_name_H-M   'P 1'
_cell_length_a   21.35186337
_cell_length_b   8.22598416
_cell_length_c   8.22598446
_cell_angle_alpha   90.00000333
_cell_angle_beta   54.69790177
_cell_angle_gamma   54.69790029
_symmetry_Int_Tables_number   1
_chemical_formula_structural   Tm2S3
_chemical_formula_sum   'Tm16 S24'
_cell_volume   832.60829257
_cell_formula_units_Z   8
loop_
 _symmetry_equiv_pos_site_id
 _symmetry_equiv_pos_as_xyz
  1  'x, y, z'
loop_
 _atom_site_type_symbol
 _atom_site_label
 _atom_site_symmetry_multiplicity
 _atom_site_fract_x
 _atom_site_fract_y
 _atom_site_fract_z
 _atom_site_occupancy
  S  S0  1  0.12959256  0.48633965  0.99013130  1
  S  S1  1  0.04728814  0.36076446  0.49297691  1
  S  S2  1  0.28604586  0.13923554  0.13484032  1
  S  S3  1  0.04728814  0.99737214  0.36515968  1
  S  S4  1  0.28604586  0.50262786  0.00702309  1
  S  S5  1  0.20374044  0.01366035  0.87890898  1
  S  S6  1  0.12959256  0.62488267  0.62109102  1
  S  S7  1  0.20374044  0.87511733  0.50986870  1
  S  S8  1  0.45197559  0.49349623  0.99783371  1
  S  S9  1  0.38135741  0.35376149  0.50650377  1
  S  S10  1  0.38135741  0.00216629  0.34942401  1
  S  S11  1  0.62959256  0.12109102  0.12488267  1
  S  S12  1  0.62959256  0.49013130  0.98633965  1
  S  S13  1  0.54728814  0.99297691  0.86076446  1
  S  S14  1  0.45197559  0.65057599  0.64623851  1
  S  S15  1  0.54728814  0.86515968  0.49737214  1
  S  S16  1  0.78604586  0.50702309  0.00262786  1
  S  S17  1  0.70374044  0.37890898  0.51366035  1
  S  S18  1  0.70374044  0.00986870  0.37511733  1
  S  S19  1  0.95197559  0.14623851  0.15057599  1
  S  S20  1  0.95197559  0.49783371  0.99349623  1
  S  S21  1  0.88135741  0.00650377  0.85376149  1
  S  S22  1  0.78604586  0.63484032  0.63923554  1
  S  S23  1  0.88135741  0.84942401  0.50216629  1
  Tm  Tm24  1  0.99365178  0.39883472  0.24886202  1
  Tm  Tm25  1  0.99365178  0.12020993  0.77018263  1
  Tm  Tm26  1  0.08699097  0.61951305  0.36951305  1
  Tm  Tm27  1  0.16666700  0.25000000  0.63303623  1
  Tm  Tm28  1  0.24634203  0.88048695  0.13048695  1
  Tm  Tm29  1  0.33968122  0.37979007  0.25113798  1
  Tm  Tm30  1  0.16666700  0.75000000  0.86696377  1
  Tm  Tm31  1  0.33968122  0.10116528  0.72981737  1
  Tm  Tm32  1  0.49365178  0.27018263  0.62020993  1
  Tm  Tm33  1  0.66666700  0.36696377  0.25000000  1
  Tm  Tm34  1  0.58699097  0.86951305  0.11951305  1
  Tm  Tm35  1  0.49365178  0.74886202  0.89883472  1
  Tm  Tm36  1  0.66666700  0.13303623  0.75000000  1
  Tm  Tm37  1  0.74634203  0.63048695  0.38048695  1
  Tm  Tm38  1  0.83968122  0.22981737  0.60116528  1
  Tm  Tm39  1  0.83968122  0.75113798  0.87979007  1
