# generated using pymatgen
data_AgSbS2
_symmetry_space_group_name_H-M   'P 1'
_cell_length_a   7.76915133
_cell_length_b   10.41516511
_cell_length_c   6.91011344
_cell_angle_alpha   29.01564553
_cell_angle_beta   55.78549393
_cell_angle_gamma   41.55904826
_symmetry_Int_Tables_number   1
_chemical_formula_structural   AgSbS2
_chemical_formula_sum   'Ag2 Sb2 S4'
_cell_volume   172.39924694
_cell_formula_units_Z   2
loop_
 _symmetry_equiv_pos_site_id
 _symmetry_equiv_pos_as_xyz
  1  'x, y, z'
loop_
 _atom_site_type_symbol
 _atom_site_label
 _atom_site_symmetry_multiplicity
 _atom_site_fract_x
 _atom_site_fract_y
 _atom_site_fract_z
 _atom_site_occupancy
  Ag  Ag0  1  0.49949803  1.00001282  0.00092242  1
  Ag  Ag1  1  0.25050197  0.49998718  0.99907758  1
  S  S2  1  0.24225007  0.99995556  0.51561125  1
  S  S3  1  0.75855991  -0.00000097  0.48287563  1
  S  S4  1  0.50774993  0.50004444  0.48438875  1
  S  S5  1  0.99144009  0.50000097  0.51712437  1
  Sb  Sb6  1  0.99864913  0.99985526  0.00304804  1
  Sb  Sb7  1  0.75135087  0.50014474  0.99695196  1
