# generated using pymatgen
data_Lu2S3
_symmetry_space_group_name_H-M   'P 1'
_cell_length_a   21.22484727
_cell_length_b   8.17853423
_cell_length_c   8.17853392
_cell_angle_alpha   89.99999686
_cell_angle_beta   54.69053606
_cell_angle_gamma   54.69053756
_symmetry_Int_Tables_number   1
_chemical_formula_structural   Lu2S3
_chemical_formula_sum   'Lu16 S24'
_cell_volume   817.83584872
_cell_formula_units_Z   8
loop_
 _symmetry_equiv_pos_site_id
 _symmetry_equiv_pos_as_xyz
  1  'x, y, z'
loop_
 _atom_site_type_symbol
 _atom_site_label
 _atom_site_symmetry_multiplicity
 _atom_site_fract_x
 _atom_site_fract_y
 _atom_site_fract_z
 _atom_site_occupancy
  Lu  Lu0  1  0.99325457  0.40047459  0.24874378  1
  Lu  Lu1  1  0.08774073  0.61838840  0.36838840  1
  Lu  Lu2  1  0.16666700  0.25000000  0.63340709  1
  Lu  Lu3  1  0.24559227  0.88161160  0.13161160  1
  Lu  Lu4  1  0.34007843  0.38023831  0.25125622  1
  Lu  Lu5  1  0.34007843  0.09952541  0.72850751  1
  Lu  Lu6  1  0.16666700  0.75000000  0.86659291  1
  Lu  Lu7  1  0.49325457  0.27149249  0.61976169  1
  Lu  Lu8  1  0.58774073  0.86838840  0.11838840  1
  Lu  Lu9  1  0.66666700  0.36659291  0.25000000  1
  Lu  Lu10  1  0.66666700  0.13340709  0.75000000  1
  Lu  Lu11  1  0.49325457  0.74874378  0.90047459  1
  Lu  Lu12  1  0.74559227  0.63161160  0.38161160  1
  Lu  Lu13  1  0.84007843  0.22850751  0.59952541  1
  Lu  Lu14  1  0.99325457  0.11976169  0.77149249  1
  Lu  Lu15  1  0.84007843  0.75125622  0.88023831  1
  S  S16  1  0.04651965  0.99703414  0.36831951  1
  S  S17  1  0.13045473  0.48602482  0.98983889  1
  S  S18  1  0.04651965  0.36340591  0.49212054  1
  S  S19  1  0.28681335  0.13659409  0.13168049  1
  S  S20  1  0.28681335  0.50296586  0.00787946  1
  S  S21  1  0.13045473  0.62260999  0.61879593  1
  S  S22  1  0.38052685  0.00234230  0.35095317  1
  S  S23  1  0.20287827  0.87739001  0.51016111  1
  S  S24  1  0.45280715  0.49253273  0.99765770  1
  S  S25  1  0.38052685  0.35607814  0.50746727  1
  S  S26  1  0.20287827  0.01397518  0.88120407  1
  S  S27  1  0.63045473  0.11879593  0.12260999  1
  S  S28  1  0.63045473  0.48983889  0.98602482  1
  S  S29  1  0.45280715  0.64904683  0.64392186  1
  S  S30  1  0.70287827  0.01016111  0.37739001  1
  S  S31  1  0.54651965  0.86831951  0.49703414  1
  S  S32  1  0.78681335  0.50787946  0.00296586  1
  S  S33  1  0.70287827  0.38120407  0.51397518  1
  S  S34  1  0.54651965  0.99212054  0.86340591  1
  S  S35  1  0.95280715  0.14392186  0.14904683  1
  S  S36  1  0.95280715  0.49765770  0.99253273  1
  S  S37  1  0.78681335  0.63168049  0.63659409  1
  S  S38  1  0.88052685  0.85095317  0.50234230  1
  S  S39  1  0.88052685  0.00746727  0.85607814  1
