# generated using pymatgen
data_BaFe2Se3
_symmetry_space_group_name_H-M   'P 1'
_cell_length_a   5.42468981
_cell_length_b   9.19887215
_cell_length_c   12.16043282
_cell_angle_alpha   90.00000000
_cell_angle_beta   90.00000000
_cell_angle_gamma   90.00000000
_symmetry_Int_Tables_number   1
_chemical_formula_structural   BaFe2Se3
_chemical_formula_sum   'Ba4 Fe8 Se12'
_cell_volume   606.81809883
_cell_formula_units_Z   4
loop_
 _symmetry_equiv_pos_site_id
 _symmetry_equiv_pos_as_xyz
  1  'x, y, z'
loop_
 _atom_site_type_symbol
 _atom_site_label
 _atom_site_symmetry_multiplicity
 _atom_site_fract_x
 _atom_site_fract_y
 _atom_site_fract_z
 _atom_site_occupancy
  Ba  Ba0  1  0.25000000  0.52053995  0.18546529  1
  Ba  Ba1  1  0.75000000  0.47946005  0.81453471  1
  Ba  Ba2  1  0.75000000  0.02053995  0.31453471  1
  Ba  Ba3  1  0.25000000  0.97946005  0.68546529  1
  Fe  Fe4  1  -0.00008290  0.36099315  0.49454266  1
  Fe  Fe5  1  0.49991710  0.63900685  0.50545734  1
  Fe  Fe6  1  1.00008290  0.86099315  0.00545734  1
  Fe  Fe7  1  0.50008290  0.13900685  0.99454266  1
  Fe  Fe8  1  1.00008290  0.63900685  0.50545734  1
  Fe  Fe9  1  0.50008290  0.36099315  0.49454266  1
  Fe  Fe10  1  -0.00008290  0.13900685  0.99454266  1
  Fe  Fe11  1  0.49991710  0.86099315  0.00545734  1
  Se  Se12  1  0.25000000  0.23122140  0.36137611  1
  Se  Se13  1  0.75000000  0.76877860  0.63862389  1
  Se  Se14  1  0.75000000  0.73122140  0.13862389  1
  Se  Se15  1  0.25000000  0.26877860  0.86137611  1
  Se  Se16  1  0.25000000  0.49056739  0.63245733  1
  Se  Se17  1  0.75000000  0.50943261  0.36754267  1
  Se  Se18  1  0.75000000  0.99056739  0.86754267  1
  Se  Se19  1  0.25000000  0.00943261  0.13245733  1
  Se  Se20  1  0.25000000  0.81052367  0.40243750  1
  Se  Se21  1  0.75000000  0.18947633  0.59756250  1
  Se  Se22  1  0.75000000  0.31052367  0.09756250  1
  Se  Se23  1  0.25000000  0.68947633  0.90243750  1
