# generated using pymatgen
data_Fe(NiS2)2
_symmetry_space_group_name_H-M   'P 1'
_cell_length_a   6.63407828
_cell_length_b   6.63407813
_cell_length_c   6.63407860
_cell_angle_alpha   59.99999765
_cell_angle_beta   59.99999841
_cell_angle_gamma   59.99999818
_symmetry_Int_Tables_number   1
_chemical_formula_structural   Fe(NiS2)2
_chemical_formula_sum   'Fe2 Ni4 S8'
_cell_volume   206.45564858
_cell_formula_units_Z   2
loop_
 _symmetry_equiv_pos_site_id
 _symmetry_equiv_pos_as_xyz
  1  'x, y, z'
loop_
 _atom_site_type_symbol
 _atom_site_label
 _atom_site_symmetry_multiplicity
 _atom_site_fract_x
 _atom_site_fract_y
 _atom_site_fract_z
 _atom_site_occupancy
  Fe  Fe0  1  0.12500000  0.12500000  0.12500000  1
  Fe  Fe1  1  0.87500000  0.87500000  0.87500000  1
  Ni  Ni2  1  0.50000000  0.50000000  0.50000000  1
  Ni  Ni3  1  0.50000000  0.50000000  0.00000000  1
  Ni  Ni4  1  0.00000000  0.50000000  0.50000000  1
  Ni  Ni5  1  0.50000000  0.00000000  0.50000000  1
  S  S6  1  0.25515958  0.25515958  0.25515958  1
  S  S7  1  0.74484042  0.74484042  0.26547873  1
  S  S8  1  0.26547873  0.74484042  0.74484042  1
  S  S9  1  0.74484042  0.26547873  0.74484042  1
  S  S10  1  0.73452127  0.25515958  0.25515958  1
  S  S11  1  0.25515958  0.73452127  0.25515958  1
  S  S12  1  0.25515958  0.25515958  0.73452127  1
  S  S13  1  0.74484042  0.74484042  0.74484042  1
