# generated using pymatgen
data_VCuO3
_symmetry_space_group_name_H-M   'P 1'
_cell_length_a   5.56175294
_cell_length_b   5.56175294
_cell_length_c   5.56175244
_cell_angle_alpha   53.42632567
_cell_angle_beta   53.42632567
_cell_angle_gamma   53.42632314
_symmetry_Int_Tables_number   1
_chemical_formula_structural   VCuO3
_chemical_formula_sum   'V2 Cu2 O6'
_cell_volume   102.93497392
_cell_formula_units_Z   2
loop_
 _symmetry_equiv_pos_site_id
 _symmetry_equiv_pos_as_xyz
  1  'x, y, z'
loop_
 _atom_site_type_symbol
 _atom_site_label
 _atom_site_symmetry_multiplicity
 _atom_site_fract_x
 _atom_site_fract_y
 _atom_site_fract_z
 _atom_site_occupancy
  O  O0  1  0.28445189  0.93358590  0.55368998  1
  O  O1  1  0.93358390  0.55369098  0.28445389  1
  O  O2  1  0.55369098  0.28445389  0.93358490  1
  O  O3  1  0.71554711  0.06641510  0.44630902  1
  O  O4  1  0.44631002  0.71554711  0.06641510  1
  O  O5  1  0.06641510  0.44631002  0.71554611  1
  V  V6  1  0.64722292  0.64722392  0.64722492  1
  V  V7  1  0.35277708  0.35277508  0.35277708  1
  Cu  Cu8  1  0.85963931  0.85964031  0.85963931  1
  Cu  Cu9  1  0.14035969  0.14036069  0.14036169  1
