# generated using pymatgen
data_CeZrO4
_symmetry_space_group_name_H-M   'P 1'
_cell_length_a   10.63808204
_cell_length_b   10.63808204
_cell_length_c   10.63808204
_cell_angle_alpha   90.00000000
_cell_angle_beta   90.00000000
_cell_angle_gamma   90.00000000
_symmetry_Int_Tables_number   1
_chemical_formula_structural   CeZrO4
_chemical_formula_sum   'Ce16 Zr16 O64'
_cell_volume   1203.89886696
_cell_formula_units_Z   16
loop_
 _symmetry_equiv_pos_site_id
 _symmetry_equiv_pos_as_xyz
  1  'x, y, z'
loop_
 _atom_site_type_symbol
 _atom_site_label
 _atom_site_symmetry_multiplicity
 _atom_site_fract_x
 _atom_site_fract_y
 _atom_site_fract_z
 _atom_site_occupancy
  O  O0  1  0.25181396  0.74802200  0.50131881  1
  O  O1  1  0.75181396  0.75197800  0.49868119  1
  O  O2  1  0.74818604  0.24802200  0.99868119  1
  O  O3  1  0.75197800  0.49868119  0.75181396  1
  O  O4  1  0.99868119  0.74818604  0.24802200  1
  O  O5  1  0.49868119  0.75181396  0.75197800  1
  O  O6  1  0.74802200  0.50131881  0.25181396  1
  O  O7  1  0.50131881  0.25181396  0.74802200  1
  O  O8  1  0.24802200  0.99868119  0.74818604  1
  O  O9  1  0.25197800  0.00131881  0.24818604  1
  O  O10  1  0.00131881  0.24818604  0.25197800  1
  O  O11  1  0.24818604  0.25197800  0.00131881  1
  O  O12  1  0.25686841  0.74799692  0.02012222  1
  O  O13  1  0.75686841  0.75200308  0.97987778  1
  O  O14  1  0.74313159  0.24799692  0.47987778  1
  O  O15  1  0.75200308  0.97987778  0.75686841  1
  O  O16  1  0.47987778  0.74313159  0.24799692  1
  O  O17  1  0.97987778  0.75686841  0.75200308  1
  O  O18  1  0.74799692  0.02012222  0.25686841  1
  O  O19  1  0.02012222  0.25686841  0.74799692  1
  O  O20  1  0.24799692  0.47987778  0.74313159  1
  O  O21  1  0.25200308  0.52012222  0.24313159  1
  O  O22  1  0.52012222  0.24313159  0.25200308  1
  O  O23  1  0.50048591  0.75916196  0.49986035  1
  O  O24  1  0.24313159  0.25200308  0.52012222  1
  O  O25  1  0.00013965  0.49951409  0.25916196  1
  O  O26  1  0.49986035  0.50048591  0.75916196  1
  O  O27  1  0.49951409  0.25916196  0.00013965  1
  O  O28  1  0.75916196  0.49986035  0.50048591  1
  O  O29  1  0.25916196  0.00013965  0.49951409  1
  O  O30  1  0.00048591  0.74083804  0.50013965  1
  O  O31  1  0.74083804  0.50013965  0.00048591  1
  O  O32  1  0.25575113  0.25575113  0.25575113  1
  O  O33  1  0.24424887  0.74424887  0.75575113  1
  O  O34  1  0.75575113  0.24424887  0.74424887  1
  O  O35  1  0.74424887  0.75575113  0.24424887  1
  O  O36  1  0.50003248  0.50003248  0.50003248  1
  O  O37  1  0.99996752  0.49996752  0.00003248  1
  O  O38  1  0.00003248  0.99996752  0.49996752  1
  O  O39  1  0.49996752  0.00003248  0.99996752  1
  O  O40  1  0.73076246  0.73076246  0.73076246  1
  O  O41  1  0.76923754  0.26923754  0.23076246  1
  O  O42  1  0.23076246  0.76923754  0.26923754  1
  O  O43  1  0.26923754  0.23076246  0.76923754  1
  O  O44  1  0.00015132  0.00015132  0.00015132  1
  O  O45  1  0.49984868  0.99984868  0.50015132  1
  O  O46  1  0.50015132  0.49984868  0.99984868  1
  O  O47  1  0.99984868  0.50015132  0.49984868  1
  O  O48  1  0.00178739  0.00813916  0.75984232  1
  O  O49  1  0.75984232  0.00178739  0.00813916  1
  O  O50  1  0.00813916  0.75984232  0.00178739  1
  O  O51  1  0.49186084  0.24015768  0.50178739  1
  O  O52  1  0.25984232  0.49821261  0.99186084  1
  O  O53  1  0.99186084  0.25984232  0.49821261  1
  O  O54  1  0.74015768  0.99821261  0.50813916  1
  O  O55  1  0.24015768  0.50178739  0.49186084  1
  O  O56  1  0.50813916  0.74015768  0.99821261  1
  O  O57  1  0.50178739  0.49186084  0.24015768  1
  O  O58  1  0.99821261  0.50813916  0.74015768  1
  O  O59  1  0.49821261  0.99186084  0.25984232  1
  O  O60  1  0.99986035  0.99951409  0.24083804  1
  O  O61  1  0.24083804  0.99986035  0.99951409  1
  O  O62  1  0.99951409  0.24083804  0.99986035  1
  O  O63  1  0.50013965  0.00048591  0.74083804  1
  Zr  Zr64  1  0.37096567  0.87222678  0.37492467  1
  Zr  Zr65  1  0.87096567  0.62777322  0.62507533  1
  Zr  Zr66  1  0.62903433  0.37222678  0.12507533  1
  Zr  Zr67  1  0.62777322  0.62507533  0.87096567  1
  Zr  Zr68  1  0.12507533  0.62903433  0.37222678  1
  Zr  Zr69  1  0.62507533  0.87096567  0.62777322  1
  Zr  Zr70  1  0.87222678  0.37492467  0.37096567  1
  Zr  Zr71  1  0.37492467  0.37096567  0.87222678  1
  Zr  Zr72  1  0.37222678  0.12507533  0.62903433  1
  Zr  Zr73  1  0.12777322  0.87492467  0.12903433  1
  Zr  Zr74  1  0.87492467  0.12903433  0.12777322  1
  Zr  Zr75  1  0.12903433  0.12777322  0.87492467  1
  Zr  Zr76  1  0.11356951  0.38643049  0.61356951  1
  Zr  Zr77  1  0.38643049  0.61356951  0.11356951  1
  Zr  Zr78  1  0.61356951  0.11356951  0.38643049  1
  Zr  Zr79  1  0.88643049  0.88643049  0.88643049  1
  Ce  Ce80  1  0.37300868  0.87354324  0.87697701  1
  Ce  Ce81  1  0.87300868  0.62645676  0.12302299  1
  Ce  Ce82  1  0.62699132  0.37354324  0.62302299  1
  Ce  Ce83  1  0.62645676  0.12302299  0.87300868  1
  Ce  Ce84  1  0.62302299  0.62699132  0.37354324  1
  Ce  Ce85  1  0.12302299  0.87300868  0.62645676  1
  Ce  Ce86  1  0.87354324  0.87697701  0.37300868  1
  Ce  Ce87  1  0.87697701  0.37300868  0.87354324  1
  Ce  Ce88  1  0.37354324  0.62302299  0.62699132  1
  Ce  Ce89  1  0.12645676  0.37697701  0.12699132  1
  Ce  Ce90  1  0.37697701  0.12699132  0.12645676  1
  Ce  Ce91  1  0.12699132  0.12645676  0.37697701  1
  Ce  Ce92  1  0.62347992  0.87652008  0.12347992  1
  Ce  Ce93  1  0.87652008  0.12347992  0.62347992  1
  Ce  Ce94  1  0.12347992  0.62347992  0.87652008  1
  Ce  Ce95  1  0.37652008  0.37652008  0.37652008  1
