# generated using pymatgen
data_Fe(PO3)4
_symmetry_space_group_name_H-M   'P 1'
_cell_length_a   9.40956429
_cell_length_b   10.48650553
_cell_length_c   9.13632495
_cell_angle_alpha   90.00000000
_cell_angle_beta   90.00000000
_cell_angle_gamma   90.00000000
_symmetry_Int_Tables_number   1
_chemical_formula_structural   Fe(PO3)4
_chemical_formula_sum   'Fe4 P16 O48'
_cell_volume   901.51268452
_cell_formula_units_Z   4
loop_
 _symmetry_equiv_pos_site_id
 _symmetry_equiv_pos_as_xyz
  1  'x, y, z'
loop_
 _atom_site_type_symbol
 _atom_site_label
 _atom_site_symmetry_multiplicity
 _atom_site_fract_x
 _atom_site_fract_y
 _atom_site_fract_z
 _atom_site_occupancy
  Fe  Fe0  1  0.01317406  0.21147096  0.25000000  1
  Fe  Fe1  1  0.48682594  0.71147096  0.75000000  1
  Fe  Fe2  1  0.51317406  0.28852904  0.25000000  1
  Fe  Fe3  1  0.98682594  0.78852904  0.75000000  1
  O  O4  1  0.10685753  0.71244203  0.58719482  1
  O  O5  1  0.10685753  0.71244203  0.91280518  1
  O  O6  1  0.11092691  0.94642060  0.75000000  1
  O  O7  1  0.11314614  0.26900012  0.75000000  1
  O  O8  1  0.12738892  0.37703997  0.25000000  1
  O  O9  1  0.13633653  0.13003743  0.09402754  1
  O  O10  1  0.13633653  0.13003743  0.40597246  1
  O  O11  1  0.15380675  0.47531408  0.61254994  1
  O  O12  1  0.15380675  0.47531408  0.88745006  1
  O  O13  1  0.14683936  0.85278876  0.25000000  1
  O  O14  1  0.19881048  0.58135282  0.12065742  1
  O  O15  1  0.19881048  0.58135282  0.37934258  1
  O  O16  1  0.30118952  0.08135282  0.62065742  1
  O  O17  1  0.30118952  0.08135282  0.87934258  1
  O  O18  1  0.35316064  0.35278876  0.75000000  1
  O  O19  1  0.34619325  0.97531408  0.11254994  1
  O  O20  1  0.34619325  0.97531408  0.38745006  1
  O  O21  1  0.36366347  0.63003743  0.59402754  1
  O  O22  1  0.36366347  0.63003743  0.90597246  1
  O  O23  1  0.37261108  0.87703997  0.75000000  1
  O  O24  1  0.38685386  0.76900012  0.25000000  1
  O  O25  1  0.38907309  0.44642060  0.25000000  1
  O  O26  1  0.39314247  0.21244203  0.08719482  1
  O  O27  1  0.39314247  0.21244203  0.41280518  1
  O  O28  1  0.60685753  0.78755797  0.58719482  1
  O  O29  1  0.60685753  0.78755797  0.91280518  1
  O  O30  1  0.61092691  0.55357940  0.75000000  1
  O  O31  1  0.61314614  0.23099988  0.75000000  1
  O  O32  1  0.62738892  0.12296003  0.25000000  1
  O  O33  1  0.63633653  0.36996257  0.09402754  1
  O  O34  1  0.63633653  0.36996257  0.40597246  1
  O  O35  1  0.65380675  0.02468592  0.61254994  1
  O  O36  1  0.65380675  0.02468592  0.88745006  1
  O  O37  1  0.64683936  0.64721124  0.25000000  1
  O  O38  1  0.69881048  0.91864718  0.12065742  1
  O  O39  1  0.69881048  0.91864718  0.37934258  1
  O  O40  1  0.80118952  0.41864718  0.62065742  1
  O  O41  1  0.80118952  0.41864718  0.87934258  1
  O  O42  1  0.85316064  0.14721124  0.75000000  1
  O  O43  1  0.84619325  0.52468592  0.11254994  1
  O  O44  1  0.84619325  0.52468592  0.38745006  1
  O  O45  1  0.86366347  0.86996257  0.59402754  1
  O  O46  1  0.86366347  0.86996257  0.90597246  1
  O  O47  1  0.87261108  0.62296003  0.75000000  1
  O  O48  1  0.88685386  0.73099988  0.25000000  1
  O  O49  1  0.88907309  0.05357940  0.25000000  1
  O  O50  1  0.89314247  0.28755797  0.08719482  1
  O  O51  1  0.89314247  0.28755797  0.41280518  1
  P  P52  1  0.19826037  0.39066598  0.75000000  1
  P  P53  1  0.21186243  0.61012972  0.54881330  1
  P  P54  1  0.21186243  0.61012972  0.95118670  1
  P  P55  1  0.23473830  0.48264037  0.25000000  1
  P  P56  1  0.26526170  0.98264037  0.75000000  1
  P  P57  1  0.28813757  0.11012972  0.04881330  1
  P  P58  1  0.28813757  0.11012972  0.45118670  1
  P  P59  1  0.30173963  0.89066598  0.25000000  1
  P  P60  1  0.69826037  0.10933402  0.75000000  1
  P  P61  1  0.71186243  0.88987028  0.54881330  1
  P  P62  1  0.71186243  0.88987028  0.95118670  1
  P  P63  1  0.73473830  0.01735963  0.25000000  1
  P  P64  1  0.76526170  0.51735963  0.75000000  1
  P  P65  1  0.78813757  0.38987028  0.04881330  1
  P  P66  1  0.78813757  0.38987028  0.45118670  1
  P  P67  1  0.80173963  0.60933402  0.25000000  1
