# generated using pymatgen
data_ZnSeO3
_symmetry_space_group_name_H-M   'P 1'
_cell_length_a   5.13579684
_cell_length_b   6.00400891
_cell_length_c   7.81048882
_cell_angle_alpha   90.00000000
_cell_angle_beta   90.00000000
_cell_angle_gamma   90.00000000
_symmetry_Int_Tables_number   1
_chemical_formula_structural   ZnSeO3
_chemical_formula_sum   'Zn4 Se4 O12'
_cell_volume   240.83931255
_cell_formula_units_Z   4
loop_
 _symmetry_equiv_pos_site_id
 _symmetry_equiv_pos_as_xyz
  1  'x, y, z'
loop_
 _atom_site_type_symbol
 _atom_site_label
 _atom_site_symmetry_multiplicity
 _atom_site_fract_x
 _atom_site_fract_y
 _atom_site_fract_z
 _atom_site_occupancy
  O  O0  1  0.86635942  0.18886309  0.42188740  1
  O  O1  1  0.36635942  0.31113691  0.57811260  1
  O  O2  1  0.63364058  0.68886309  0.07811260  1
  O  O3  1  0.13364058  0.81113691  0.92188740  1
  O  O4  1  0.13364058  0.81113691  0.57811260  1
  O  O5  1  0.63364058  0.68886309  0.42188740  1
  O  O6  1  0.36635942  0.31113691  0.92188740  1
  O  O7  1  0.86635942  0.18886309  0.07811260  1
  O  O8  1  0.31991790  0.07826213  0.25000000  1
  O  O9  1  0.81991790  0.42173787  0.75000000  1
  O  O10  1  0.18008210  0.57826213  0.25000000  1
  O  O11  1  0.68008210  0.92173787  0.75000000  1
  Zn  Zn12  1  0.50000000  0.00000000  0.50000000  1
  Zn  Zn13  1  0.00000000  0.50000000  0.50000000  1
  Zn  Zn14  1  0.00000000  0.50000000  0.00000000  1
  Zn  Zn15  1  0.50000000  0.00000000  0.00000000  1
  Se  Se16  1  0.01533371  0.97164295  0.75000000  1
  Se  Se17  1  0.51533371  0.52835705  0.25000000  1
  Se  Se18  1  0.48466629  0.47164295  0.75000000  1
  Se  Se19  1  0.98466629  0.02835705  0.25000000  1
