# generated using pymatgen
data_Ho2CdS4
_symmetry_space_group_name_H-M   'P 1'
_cell_length_a   7.94845214
_cell_length_b   7.94845216
_cell_length_c   39.76403217
_cell_angle_alpha   60.53413531
_cell_angle_beta   60.53413522
_cell_angle_gamma   60.58567373
_symmetry_Int_Tables_number   1
_chemical_formula_structural   Ho2CdS4
_chemical_formula_sum   'Ho20 Cd10 S40'
_cell_volume   1798.52404240
_cell_formula_units_Z   10
loop_
 _symmetry_equiv_pos_site_id
 _symmetry_equiv_pos_as_xyz
  1  'x, y, z'
loop_
 _atom_site_type_symbol
 _atom_site_label
 _atom_site_symmetry_multiplicity
 _atom_site_fract_x
 _atom_site_fract_y
 _atom_site_fract_z
 _atom_site_occupancy
  Cd  Cd0  1  0.24861895  0.24861895  0.04876885  1
  Cd  Cd1  1  0.24723035  0.24723035  0.24933642  1
  Cd  Cd2  1  0.62218737  0.62218737  0.12431581  1
  Cd  Cd3  1  0.24773097  0.24773097  0.44905639  1
  Cd  Cd4  1  0.62232036  0.62232036  0.32413060  1
  Cd  Cd5  1  0.24901971  0.24901971  0.64958255  1
  Cd  Cd6  1  0.62244772  0.62244772  0.52391373  1
  Cd  Cd7  1  0.24556471  0.24556471  0.85106933  1
  Cd  Cd8  1  0.99848013  0.99848013  0.80173135  1
  Cd  Cd9  1  0.62629743  0.62629743  0.92325708  1
  Ho  Ho10  1  0.00257102  0.00257102  0.00068597  1
  Ho  Ho11  1  0.13107924  0.62346736  0.12461732  1
  Ho  Ho12  1  0.00316752  0.00316752  0.20061345  1
  Ho  Ho13  1  0.62346736  0.13107924  0.12461732  1
  Ho  Ho14  1  0.62361428  0.62361428  0.02611730  1
  Ho  Ho15  1  0.13140884  0.62371917  0.32449742  1
  Ho  Ho16  1  0.62371917  0.13140884  0.32449742  1
  Ho  Ho17  1  0.00338314  0.00338314  0.40049818  1
  Ho  Ho18  1  0.62363691  0.62363691  0.22608621  1
  Ho  Ho19  1  0.13191200  0.62400121  0.52437036  1
  Ho  Ho20  1  0.62400121  0.13191200  0.52437036  1
  Ho  Ho21  1  0.62393989  0.62393989  0.42578941  1
  Ho  Ho22  1  0.12534746  0.62173874  0.72622324  1
  Ho  Ho23  1  0.62173874  0.12534746  0.72622324  1
  Ho  Ho24  1  0.62118239  0.62118239  0.62578932  1
  Ho  Ho25  1  0.62206000  0.62206000  0.72619124  1
  Ho  Ho26  1  0.12896481  0.62472338  0.92409166  1
  Ho  Ho27  1  0.00355238  0.00355238  0.59970267  1
  Ho  Ho28  1  0.62629031  0.62629031  0.82588670  1
  Ho  Ho29  1  0.62472338  0.12896481  0.92409166  1
  S  S30  1  0.38203740  0.38203740  0.07654037  1
  S  S31  1  0.38038085  0.85410737  0.07603796  1
  S  S32  1  0.38036521  0.38036521  0.17071935  1
  S  S33  1  0.85410737  0.38038085  0.07603796  1
  S  S34  1  0.40024725  0.86731736  0.17364163  1
  S  S35  1  0.38185592  0.38185592  0.27660512  1
  S  S36  1  0.38027590  0.85356303  0.27614907  1
  S  S37  1  0.38020361  0.38020361  0.37079737  1
  S  S38  1  0.86738675  0.86738675  0.08020696  1
  S  S39  1  0.86731736  0.40024725  0.17364163  1
  S  S40  1  0.86779419  0.86779419  0.17360591  1
  S  S41  1  0.85356303  0.38027590  0.27614907  1
  S  S42  1  0.38171165  0.38171165  0.47668010  1
  S  S43  1  0.39994949  0.86728783  0.37379181  1
  S  S44  1  0.38021183  0.85344545  0.47627788  1
  S  S45  1  0.86740476  0.86740476  0.28022904  1
  S  S46  1  0.37917510  0.37917510  0.57113337  1
  S  S47  1  0.86728783  0.39994949  0.37379181  1
  S  S48  1  0.85344545  0.38021183  0.47627788  1
  S  S49  1  0.86754478  0.86754478  0.37371874  1
  S  S50  1  0.38163663  0.38163663  0.67681535  1
  S  S51  1  0.39934957  0.86791460  0.57363812  1
  S  S52  1  0.38269418  0.38269418  0.77046669  1
  S  S53  1  0.86724551  0.86724551  0.48029031  1
  S  S54  1  0.38366253  0.85041296  0.67649962  1
  S  S55  1  0.86791460  0.39934957  0.57363812  1
  S  S56  1  0.86646273  0.86646273  0.57372381  1
  S  S57  1  0.85041296  0.38366253  0.67649962  1
  S  S58  1  0.39937436  0.86769093  0.77303511  1
  S  S59  1  0.38418244  0.38418244  0.87580764  1
  S  S60  1  0.86737470  0.86737470  0.67975600  1
  S  S61  1  0.38288464  0.38288464  0.96992824  1
  S  S62  1  0.37986243  0.85472703  0.87570228  1
  S  S63  1  0.86769093  0.39937436  0.77303511  1
  S  S64  1  0.86946182  0.86946182  0.77270173  1
  S  S65  1  0.85472703  0.37986243  0.87570228  1
  S  S66  1  0.39957041  0.86790105  0.97374165  1
  S  S67  1  0.86775646  0.86775646  0.87974176  1
  S  S68  1  0.86790105  0.39957041  0.97374165  1
  S  S69  1  0.86791152  0.86791152  0.97337936  1
