# generated using pymatgen
data_GaAsO4
_symmetry_space_group_name_H-M   'P 1'
_cell_length_a   8.31157052
_cell_length_b   16.66057121
_cell_length_c   9.45920445
_cell_angle_alpha   28.17768740
_cell_angle_beta   116.06549191
_cell_angle_gamma   119.92628581
_symmetry_Int_Tables_number   1
_chemical_formula_structural   GaAsO4
_chemical_formula_sum   'Ga9 As9 O36'
_cell_volume   536.05958997
_cell_formula_units_Z   9
loop_
 _symmetry_equiv_pos_site_id
 _symmetry_equiv_pos_as_xyz
  1  'x, y, z'
loop_
 _atom_site_type_symbol
 _atom_site_label
 _atom_site_symmetry_multiplicity
 _atom_site_fract_x
 _atom_site_fract_y
 _atom_site_fract_z
 _atom_site_occupancy
  As  As0  1  0.35344510  0.74746962  0.52588718  1
  As  As1  1  0.33720445  0.56104654  0.54197246  1
  As  As2  1  0.67279392  0.66424824  0.01630507  1
  As  As3  1  0.99216649  0.74297317  0.51016969  1
  As  As4  1  0.32948107  0.07009653  0.53026691  1
  As  As5  1  0.97157980  0.40646150  0.52023088  1
  As  As6  1  0.66636821  0.06585298  0.51427576  1
  As  As7  1  0.00662678  0.25146891  0.49977522  1
  As  As8  1  0.66139453  0.14912401  0.02363695  1
  Ga  Ga9  1  0.02854587  0.83713514  0.01532075  1
  Ga  Ga10  1  0.31325333  0.66517054  0.01933541  1
  Ga  Ga11  1  0.67112414  0.97521495  0.02595036  1
  Ga  Ga12  1  0.02799480  0.33642207  0.02834197  1
  Ga  Ga13  1  0.29736428  0.14786933  0.02204067  1
  Ga  Ga14  1  0.66026099  0.47649113  0.01283020  1
  Ga  Ga15  1  0.97237242  0.90663864  0.51990454  1
  Ga  Ga16  1  0.66689424  0.55148457  0.52723278  1
  Ga  Ga17  1  0.36995154  0.26187686  0.51284079  1
  O  O18  1  0.08747193  0.96301923  0.28298682  1
  O  O19  1  0.21191392  0.85019633  0.75699540  1
  O  O20  1  0.13277974  0.81275053  0.28617207  1
  O  O21  1  0.22143081  0.68628974  0.73444980  1
  O  O22  1  0.55453145  1.00042274  0.75409042  1
  O  O23  1  0.55956043  0.83694491  0.77130975  1
  O  O24  1  0.44770606  0.97643052  0.26881485  1
  O  O25  1  0.24881180  0.51993324  0.75838472  1
  O  O26  1  0.11241388  0.61885707  0.31521411  1
  O  O27  1  0.08257812  0.47012796  0.27973311  1
  O  O28  1  0.19601952  0.34273542  0.76117295  1
  O  O29  1  0.43692466  0.78535052  0.31251466  1
  O  O30  1  0.56354536  0.66709623  0.78517622  1
  O  O31  1  0.12821845  0.32398652  0.27269521  1
  O  O32  1  0.43579225  0.62836230  0.30352552  1
  O  O33  1  0.76404872  0.98493989  0.24654364  1
  O  O34  1  0.88105217  0.82795886  0.79390566  1
  O  O35  1  0.20938058  0.18510362  0.73702030  1
  O  O36  1  0.54097213  0.48898768  0.76835537  1
  O  O37  1  0.88825562  0.67556594  0.74802277  1
  O  O38  1  0.54180849  0.30298274  0.81089826  1
  O  O39  1  0.45836422  0.51037443  0.22956361  1
  O  O40  1  0.24670793  0.01300761  0.76601457  1
  O  O41  1  0.12262466  0.13765627  0.29193431  1
  O  O42  1  0.78767178  0.79985504  0.27468086  1
  O  O43  1  0.44747819  0.29118770  0.30022079  1
  O  O44  1  0.56936449  0.15720699  0.80002761  1
  O  O45  1  0.78847866  0.65594261  0.24022492  1
  O  O46  1  0.89839541  0.52197000  0.74000964  1
  O  O47  1  0.44809704  0.12722031  0.30554160  1
  O  O48  1  0.76752330  0.48176217  0.25795776  1
  O  O49  1  0.87940723  0.33138350  0.78217965  1
  O  O50  1  0.89214978  0.19406086  0.72518308  1
  O  O51  1  0.78429338  0.29312645  0.28211356  1
  O  O52  1  0.77792294  0.14589935  0.25540930  1
  O  O53  1  0.88748295  0.02758001  0.72799952  1
