# generated using pymatgen
data_LiMn2NiO6
_symmetry_space_group_name_H-M   'P 1'
_cell_length_a   5.04871113
_cell_length_b   5.04871134
_cell_length_c   10.42146584
_cell_angle_alpha   86.40572454
_cell_angle_beta   93.59427558
_cell_angle_gamma   120.77577283
_symmetry_Int_Tables_number   1
_chemical_formula_structural   LiMn2NiO6
_chemical_formula_sum   'Li2 Mn4 Ni2 O12'
_cell_volume   227.63557412
_cell_formula_units_Z   2
loop_
 _symmetry_equiv_pos_site_id
 _symmetry_equiv_pos_as_xyz
  1  'x, y, z'
loop_
 _atom_site_type_symbol
 _atom_site_label
 _atom_site_symmetry_multiplicity
 _atom_site_fract_x
 _atom_site_fract_y
 _atom_site_fract_z
 _atom_site_occupancy
  Li  Li0  1  0.34231354  0.84231354  0.25000000  1
  Li  Li1  1  0.65768646  0.15768746  0.75000000  1
  O  O2  1  0.51567624  0.85863734  0.60242166  1
  O  O3  1  0.64136366  0.98432376  0.10242066  1
  O  O4  1  0.35863734  0.01567624  0.89757834  1
  O  O5  1  0.83382247  0.48000637  0.59473216  1
  O  O6  1  0.48432276  0.14136266  0.39757834  1
  O  O7  1  0.82421908  0.83542772  0.40767392  1
  O  O8  1  0.01999263  0.66617753  0.09473216  1
  O  O9  1  0.98000737  0.33382247  0.90526784  1
  O  O10  1  0.66457328  0.67578092  0.90767492  1
  O  O11  1  0.17577992  0.16457228  0.59232508  1
  O  O12  1  0.33542772  0.32421908  0.09232608  1
  O  O13  1  0.16617553  0.51999163  0.40526684  1
  Mn  Mn14  1  0.16922284  0.83536385  0.50517125  1
  Mn  Mn15  1  0.33536285  0.66922284  0.99482775  1
  Mn  Mn16  1  0.66463615  0.33077716  0.00517225  1
  Mn  Mn17  1  0.83077716  0.16463615  0.49482775  1
  Ni  Ni18  1  0.50000000  0.50000000  0.50000000  1
  Ni  Ni19  1  0.00000000  0.00000000  0.00000000  1
