# generated using pymatgen
data_Bi2Pd3S2
_symmetry_space_group_name_H-M   'P 1'
_cell_length_a   5.75690910
_cell_length_b   5.75690898
_cell_length_c   5.75690914
_cell_angle_alpha   65.29843976
_cell_angle_beta   65.29844032
_cell_angle_gamma   65.29843602
_symmetry_Int_Tables_number   1
_chemical_formula_structural   Bi2Pd3S2
_chemical_formula_sum   'Bi2 Pd3 S2'
_cell_volume   150.48130718
_cell_formula_units_Z   1
loop_
 _symmetry_equiv_pos_site_id
 _symmetry_equiv_pos_as_xyz
  1  'x, y, z'
loop_
 _atom_site_type_symbol
 _atom_site_label
 _atom_site_symmetry_multiplicity
 _atom_site_fract_x
 _atom_site_fract_y
 _atom_site_fract_z
 _atom_site_occupancy
  Bi  Bi0  1  0.00000000  0.00000000  0.00000000  1
  Bi  Bi1  1  0.50000000  0.50000000  0.50000000  1
  Pd  Pd2  1  0.00000000  0.50000000  0.00000000  1
  Pd  Pd3  1  0.50000000  0.00000000  0.00000000  1
  Pd  Pd4  1  0.00000000  0.00000000  0.50000000  1
  S  S5  1  0.71985863  0.71985863  0.71985863  1
  S  S6  1  0.28014137  0.28014137  0.28014137  1
