# generated using pymatgen
data_Sr2Cu(BiO3)2
_symmetry_space_group_name_H-M   'P 1'
_cell_length_a   5.13305182
_cell_length_b   5.52519655
_cell_length_c   13.01880110
_cell_angle_alpha   102.25134700
_cell_angle_beta   90.00000000
_cell_angle_gamma   90.00000000
_symmetry_Int_Tables_number   1
_chemical_formula_structural   Sr2Cu(BiO3)2
_chemical_formula_sum   'Sr4 Cu2 Bi4 O12'
_cell_volume   360.81903290
_cell_formula_units_Z   2
loop_
 _symmetry_equiv_pos_site_id
 _symmetry_equiv_pos_as_xyz
  1  'x, y, z'
loop_
 _atom_site_type_symbol
 _atom_site_label
 _atom_site_symmetry_multiplicity
 _atom_site_fract_x
 _atom_site_fract_y
 _atom_site_fract_z
 _atom_site_occupancy
  Sr  Sr0  1  0.50000000  0.93353597  0.35888483  1
  Sr  Sr1  1  0.00000000  0.57465115  0.64111517  1
  Sr  Sr2  1  0.00000000  0.42534885  0.35888483  1
  Sr  Sr3  1  0.50000000  0.06646403  0.64111517  1
  Cu  Cu4  1  0.00000000  0.00000000  0.50000000  1
  Cu  Cu5  1  0.50000000  0.50000000  0.50000000  1
  Bi  Bi6  1  0.00000000  0.79042429  0.12772003  1
  Bi  Bi7  1  0.50000000  0.33729574  0.12772003  1
  Bi  Bi8  1  0.50000000  0.66270426  0.87227997  1
  Bi  Bi9  1  0.00000000  0.20957571  0.87227997  1
  O  O10  1  0.25000000  0.25183625  0.50367250  1
  O  O11  1  0.75000000  0.25183625  0.50367250  1
  O  O12  1  0.50000000  0.73027828  0.13100742  1
  O  O13  1  0.00000000  0.91320874  0.28893260  1
  O  O14  1  0.50000000  0.37572386  0.28893260  1
  O  O15  1  0.00000000  0.40072914  0.13100742  1
  O  O16  1  0.00000000  0.08679126  0.71106740  1
  O  O17  1  0.25000000  0.74816375  0.49632750  1
  O  O18  1  0.75000000  0.74816375  0.49632750  1
  O  O19  1  0.00000000  0.59927086  0.86899258  1
  O  O20  1  0.50000000  0.62427614  0.71106740  1
  O  O21  1  0.50000000  0.26972172  0.86899258  1
