# generated using pymatgen
data_LiNiP2O7
_symmetry_space_group_name_H-M   'P 1'
_cell_length_a   7.06205686
_cell_length_b   8.30619316
_cell_length_c   9.03954962
_cell_angle_alpha   90.00000000
_cell_angle_beta   111.91357988
_cell_angle_gamma   90.00000000
_symmetry_Int_Tables_number   1
_chemical_formula_structural   LiNiP2O7
_chemical_formula_sum   'Li4 Ni4 P8 O28'
_cell_volume   491.93755001
_cell_formula_units_Z   4
loop_
 _symmetry_equiv_pos_site_id
 _symmetry_equiv_pos_as_xyz
  1  'x, y, z'
loop_
 _atom_site_type_symbol
 _atom_site_label
 _atom_site_symmetry_multiplicity
 _atom_site_fract_x
 _atom_site_fract_y
 _atom_site_fract_z
 _atom_site_occupancy
  Li  Li0  1  0.37205845  0.44144947  0.67489314  1
  Li  Li1  1  0.12794155  0.94144947  0.82510686  1
  Li  Li2  1  0.62794155  0.55855053  0.32510686  1
  Li  Li3  1  0.87205845  0.05855053  0.17489314  1
  Ni  Ni4  1  0.12350696  0.57613162  0.88514681  1
  Ni  Ni5  1  0.62350696  0.92386838  0.38514681  1
  Ni  Ni6  1  0.87649304  0.42386838  0.11485319  1
  Ni  Ni7  1  0.37649304  0.07613162  0.61485319  1
  P  P8  1  0.68691009  0.76819423  0.74558303  1
  P  P9  1  0.18691009  0.73180577  0.24558303  1
  P  P10  1  0.93760106  0.26845883  0.46816719  1
  P  P11  1  0.06239894  0.73154117  0.53183281  1
  P  P12  1  0.81308991  0.26819423  0.75441697  1
  P  P13  1  0.31308991  0.23180577  0.25441697  1
  P  P14  1  0.43760106  0.23154117  0.96816719  1
  P  P15  1  0.56239894  0.76845883  0.03183281  1
  O  O16  1  0.92541717  0.11117238  0.81533474  1
  O  O17  1  0.16045902  0.89428257  0.59865625  1
  O  O18  1  0.41691200  0.74296627  0.29893788  1
  O  O19  1  0.36230883  0.09648997  0.84280686  1
  O  O20  1  0.33954098  0.39428257  0.90134375  1
  O  O21  1  0.90233303  0.40592492  0.87861377  1
  O  O22  1  0.66045902  0.60571743  0.09865625  1
  O  O23  1  0.14561055  0.66908988  0.39892336  1
  O  O24  1  0.63769117  0.90351003  0.15719314  1
  O  O25  1  0.08308800  0.24296727  0.20106212  1
  O  O26  1  0.16888129  0.25874911  0.54621508  1
  O  O27  1  0.42541717  0.38882762  0.31533474  1
  O  O28  1  0.57458283  0.61117238  0.68466526  1
  O  O29  1  0.35438945  0.16908988  0.10107664  1
  O  O30  1  0.66888129  0.24125089  0.04621508  1
  O  O31  1  0.13769117  0.59648997  0.65719314  1
  O  O32  1  0.33111871  0.75874911  0.95378492  1
  O  O33  1  0.58308800  0.25703273  0.70106212  1
  O  O34  1  0.64561055  0.83091012  0.89892336  1
  O  O35  1  0.83111871  0.74125089  0.45378492  1
  O  O36  1  0.07458283  0.88882762  0.18466526  1
  O  O37  1  0.40233303  0.09407508  0.37861377  1
  O  O38  1  0.83954098  0.10571743  0.40134375  1
  O  O39  1  0.85438945  0.33091012  0.60107664  1
  O  O40  1  0.59766697  0.90592492  0.62138623  1
  O  O41  1  0.91691200  0.75703373  0.79893788  1
  O  O42  1  0.09766697  0.59407508  0.12138623  1
  O  O43  1  0.86230883  0.40351003  0.34280686  1
