# generated using pymatgen
data_CoP2O7
_symmetry_space_group_name_H-M   'P 1'
_cell_length_a   4.94679140
_cell_length_b   7.06792888
_cell_length_c   8.14247110
_cell_angle_alpha   90.00000000
_cell_angle_beta   90.00000000
_cell_angle_gamma   108.90911615
_symmetry_Int_Tables_number   1
_chemical_formula_structural   CoP2O7
_chemical_formula_sum   'Co2 P4 O14'
_cell_volume   269.32622974
_cell_formula_units_Z   2
loop_
 _symmetry_equiv_pos_site_id
 _symmetry_equiv_pos_as_xyz
  1  'x, y, z'
loop_
 _atom_site_type_symbol
 _atom_site_label
 _atom_site_symmetry_multiplicity
 _atom_site_fract_x
 _atom_site_fract_y
 _atom_site_fract_z
 _atom_site_occupancy
  Co  Co0  1  0.78823238  0.27854075  0.00877640  1
  Co  Co1  1  0.21176762  0.72145925  0.50877640  1
  P  P2  1  0.22757488  0.08933537  0.78032117  1
  P  P3  1  0.60787894  0.48068864  0.68421702  1
  P  P4  1  0.77242512  0.91066463  0.28032117  1
  P  P5  1  0.39212106  0.51931136  0.18421702  1
  O  O6  1  0.26646939  0.51905005  0.35511806  1
  O  O7  1  0.73353061  0.48094995  0.85511806  1
  O  O8  1  0.40497106  0.25433512  0.64770391  1
  O  O9  1  0.97371451  0.14672429  0.83922439  1
  O  O10  1  0.43440840  0.62314612  0.67432926  1
  O  O11  1  0.59502894  0.74566488  0.14770391  1
  O  O12  1  0.16185982  0.47392268  0.04994299  1
  O  O13  1  0.83814018  0.52607732  0.54994299  1
  O  O14  1  0.42408489  0.09207010  0.92917955  1
  O  O15  1  0.14313294  0.89261886  0.68912624  1
  O  O16  1  0.56559160  0.37685388  0.17432926  1
  O  O17  1  0.02628549  0.85327571  0.33922439  1
  O  O18  1  0.85686606  0.10738114  0.18912624  1
  O  O19  1  0.57591511  0.90792990  0.42917955  1
