# generated using pymatgen
data_Mg2SiO4
_symmetry_space_group_name_H-M   'P 1'
_cell_length_a   4.82891715
_cell_length_b   6.01327356
_cell_length_c   6.01581196
_cell_angle_alpha   119.98604918
_cell_angle_beta   90.00573131
_cell_angle_gamma   89.99999996
_symmetry_Int_Tables_number   1
_chemical_formula_structural   Mg2SiO4
_chemical_formula_sum   'Mg4 Si2 O8'
_cell_volume   151.30268413
_cell_formula_units_Z   2
loop_
 _symmetry_equiv_pos_site_id
 _symmetry_equiv_pos_as_xyz
  1  'x, y, z'
loop_
 _atom_site_type_symbol
 _atom_site_label
 _atom_site_symmetry_multiplicity
 _atom_site_fract_x
 _atom_site_fract_y
 _atom_site_fract_z
 _atom_site_occupancy
  Mg  Mg0  1  0.50000000  0.50000000  0.50000000  1
  Mg  Mg1  1  0.50000000  0.50000000  0.00000000  1
  Mg  Mg2  1  0.00000000  0.00000000  0.00000000  1
  Mg  Mg3  1  0.50000000  0.00000000  0.50000000  1
  Si  Si4  1  0.92683819  0.33340775  0.66681550  1
  Si  Si5  1  0.07316181  0.66659225  0.33318450  1
  O  O6  1  0.26472693  0.33339103  0.66678206  1
  O  O7  1  0.22324431  0.37715433  0.18856757  1
  O  O8  1  0.73527307  0.66660897  0.33321794  1
  O  O9  1  0.22324431  0.81141325  0.18856757  1
  O  O10  1  0.22319862  0.81126850  0.62253700  1
  O  O11  1  0.77675569  0.62284567  0.81143243  1
  O  O12  1  0.77675569  0.18858675  0.81143243  1
  O  O13  1  0.77680138  0.18873150  0.37746300  1
