# generated using pymatgen
data_K(Mo6S7)2
_symmetry_space_group_name_H-M   'P 1'
_cell_length_a   9.27955272
_cell_length_b   9.27955285
_cell_length_c   16.48243373
_cell_angle_alpha   90.00000000
_cell_angle_beta   90.00000000
_cell_angle_gamma   119.99999954
_symmetry_Int_Tables_number   1
_chemical_formula_structural   K(Mo6S7)2
_chemical_formula_sum   'K2 Mo24 S28'
_cell_volume   1229.15333814
_cell_formula_units_Z   2
loop_
 _symmetry_equiv_pos_site_id
 _symmetry_equiv_pos_as_xyz
  1  'x, y, z'
loop_
 _atom_site_type_symbol
 _atom_site_label
 _atom_site_symmetry_multiplicity
 _atom_site_fract_x
 _atom_site_fract_y
 _atom_site_fract_z
 _atom_site_occupancy
  K  K0  1  0.66666700  0.33333300  0.75000000  1
  K  K1  1  0.33333300  0.66666700  0.25000000  1
  Mo  Mo2  1  0.66881194  0.50317439  0.31606862  1
  Mo  Mo3  1  0.65346215  0.15815826  0.45814181  1
  Mo  Mo4  1  0.49682561  0.16563755  0.31606862  1
  Mo  Mo5  1  0.34653785  0.50469611  0.95814181  1
  Mo  Mo6  1  0.15815826  0.65346215  0.95814181  1
  Mo  Mo7  1  0.34653785  0.84184174  0.54185819  1
  Mo  Mo8  1  0.50469611  0.34653785  0.45814181  1
  Mo  Mo9  1  0.84184174  0.49530389  0.45814181  1
  Mo  Mo10  1  0.66881194  0.16563755  0.18393138  1
  Mo  Mo11  1  0.83436245  0.33118806  0.31606862  1
  Mo  Mo12  1  0.49530389  0.84184174  0.95814181  1
  Mo  Mo13  1  0.33118806  0.49682561  0.68393138  1
  Mo  Mo14  1  0.49530389  0.65346215  0.54185819  1
  Mo  Mo15  1  0.50469611  0.15815826  0.04185819  1
  Mo  Mo16  1  0.83436245  0.50317439  0.18393138  1
  Mo  Mo17  1  0.15815826  0.50469611  0.54185819  1
  Mo  Mo18  1  0.50317439  0.83436245  0.68393138  1
  Mo  Mo19  1  0.33118806  0.83436245  0.81606862  1
  Mo  Mo20  1  0.65346215  0.49530389  0.04185819  1
  Mo  Mo21  1  0.84184174  0.34653785  0.04185819  1
  Mo  Mo22  1  0.16563755  0.49682561  0.81606862  1
  Mo  Mo23  1  0.49682561  0.33118806  0.18393138  1
  Mo  Mo24  1  0.16563755  0.66881194  0.68393138  1
  Mo  Mo25  1  0.50317439  0.66881194  0.81606862  1
  S  S26  1  0.33929659  0.36215385  0.81869955  1
  S  S27  1  0.36215385  0.33929659  0.31869955  1
  S  S28  1  0.95758628  0.30940097  0.44261504  1
  S  S29  1  0.36215385  0.02285726  0.18130045  1
  S  S30  1  0.63784615  0.97714274  0.81869955  1
  S  S31  1  0.35181468  0.04241372  0.44261504  1
  S  S32  1  0.63784615  0.66070341  0.68130045  1
  S  S33  1  0.69059903  0.64818532  0.44261504  1
  S  S34  1  0.66666700  0.33333300  0.56813776  1
  S  S35  1  0.35181468  0.30940097  0.05738496  1
  S  S36  1  0.33929659  0.97714274  0.68130045  1
  S  S37  1  0.95758628  0.64818532  0.05738496  1
  S  S38  1  0.64818532  0.69059903  0.94261504  1
  S  S39  1  0.97714274  0.63784615  0.31869955  1
  S  S40  1  0.66070341  0.63784615  0.18130045  1
  S  S41  1  0.69059903  0.04241372  0.05738496  1
  S  S42  1  0.33333300  0.66666700  0.43186224  1
  S  S43  1  0.66666700  0.33333300  0.93186224  1
  S  S44  1  0.02285726  0.66070341  0.81869955  1
  S  S45  1  0.97714274  0.33929659  0.18130045  1
  S  S46  1  0.04241372  0.69059903  0.55738496  1
  S  S47  1  0.04241372  0.35181468  0.94261504  1
  S  S48  1  0.30940097  0.95758628  0.94261504  1
  S  S49  1  0.33333300  0.66666700  0.06813776  1
  S  S50  1  0.02285726  0.36215385  0.68130045  1
  S  S51  1  0.30940097  0.35181468  0.55738496  1
  S  S52  1  0.66070341  0.02285726  0.31869955  1
  S  S53  1  0.64818532  0.95758628  0.55738496  1
