# generated using pymatgen
data_Na2NpH2(CO3)3
_symmetry_space_group_name_H-M   'P 1'
_cell_length_a   6.95184520
_cell_length_b   8.44575482
_cell_length_c   8.76409130
_cell_angle_alpha   76.54707756
_cell_angle_beta   71.04564765
_cell_angle_gamma   68.75864700
_symmetry_Int_Tables_number   1
_chemical_formula_structural   Na2NpH2(CO3)3
_chemical_formula_sum   'Na4 Np2 H4 C6 O18'
_cell_volume   449.73258628
_cell_formula_units_Z   2
loop_
 _symmetry_equiv_pos_site_id
 _symmetry_equiv_pos_as_xyz
  1  'x, y, z'
loop_
 _atom_site_type_symbol
 _atom_site_label
 _atom_site_symmetry_multiplicity
 _atom_site_fract_x
 _atom_site_fract_y
 _atom_site_fract_z
 _atom_site_occupancy
  Na  Na0  1  0.51035770  0.61806042  0.79004342  1
  Na  Na1  1  0.48964230  0.38193958  0.20995658  1
  Na  Na2  1  0.36425108  0.03746506  0.82109749  1
  Na  Na3  1  0.63574892  0.96253494  0.17890251  1
  Np  Np4  1  0.96699490  0.83653001  0.72577980  1
  Np  Np5  1  0.03300510  0.16346999  0.27422020  1
  H  H6  1  0.69492430  0.64761428  0.40949331  1
  H  H7  1  0.30507570  0.35238572  0.59050669  1
  H  H8  1  0.68108975  0.79171790  0.50072597  1
  H  H9  1  0.31891025  0.20828210  0.49927403  1
  C  C10  1  0.29906020  0.77745157  0.15682021  1
  C  C11  1  0.70093980  0.22254843  0.84317979  1
  C  C12  1  0.77693182  0.26972619  0.65576743  1
  C  C13  1  0.22306818  0.73027381  0.34423257  1
  C  C14  1  0.08423874  0.44481245  0.93430331  1
  C  C15  1  0.91576126  0.55518755  0.06569669  1
  O  O16  1  0.88648041  0.13912225  0.57684012  1
  O  O17  1  0.27667981  0.18828889  0.29965522  1
  O  O18  1  0.73048214  0.42237307  0.59482447  1
  O  O19  1  0.79464051  0.13797874  0.24500062  1
  O  O20  1  0.38160462  0.65988917  0.06948851  1
  O  O21  1  0.84909556  0.71505503  0.02262252  1
  O  O22  1  0.20535949  0.86202126  0.75499938  1
  O  O23  1  0.72332019  0.81171111  0.70034478  1
  O  O24  1  0.27278414  0.93774922  0.10604086  1
  O  O25  1  0.11351959  0.86087775  0.42315988  1
  O  O26  1  0.26951786  0.57762693  0.40517553  1
  O  O27  1  0.85747003  0.47541038  0.20563040  1
  O  O28  1  0.72721586  0.06225078  0.89395914  1
  O  O29  1  0.61839538  0.34011083  0.93051149  1
  O  O30  1  0.35935624  0.22833372  0.58896794  1
  O  O31  1  0.64064376  0.77166628  0.41103206  1
  O  O32  1  0.15090444  0.28494497  0.97737748  1
  O  O33  1  0.14252997  0.52458962  0.79436960  1
