# generated using pymatgen
data_Fe12PbO19
_symmetry_space_group_name_H-M   'P 1'
_cell_length_a   6.00795020
_cell_length_b   6.00795068
_cell_length_c   23.35515804
_cell_angle_alpha   90.00000000
_cell_angle_beta   90.00000000
_cell_angle_gamma   119.99999737
_symmetry_Int_Tables_number   1
_chemical_formula_structural   Fe12PbO19
_chemical_formula_sum   'Fe24 Pb2 O38'
_cell_volume   730.07274630
_cell_formula_units_Z   2
loop_
 _symmetry_equiv_pos_site_id
 _symmetry_equiv_pos_as_xyz
  1  'x, y, z'
loop_
 _atom_site_type_symbol
 _atom_site_label
 _atom_site_symmetry_multiplicity
 _atom_site_fract_x
 _atom_site_fract_y
 _atom_site_fract_z
 _atom_site_occupancy
  Fe  Fe0  1  0.33621081  0.16810490  0.39077378  1
  Fe  Fe1  1  0.66666700  0.33333300  0.69091068  1
  Fe  Fe2  1  0.66378919  0.83189510  0.60922622  1
  Fe  Fe3  1  0.83189510  0.16810490  0.10922622  1
  Fe  Fe4  1  0.83189510  0.66378919  0.39077378  1
  Fe  Fe5  1  0.66666700  0.33333300  0.97207086  1
  Fe  Fe6  1  0.16810490  0.83189510  0.60922622  1
  Fe  Fe7  1  0.33333300  0.66666700  0.47207086  1
  Fe  Fe8  1  0.16810490  0.33621081  0.60922622  1
  Fe  Fe9  1  0.33621081  0.16810490  0.10922622  1
  Fe  Fe10  1  0.33333300  0.66666700  0.30908932  1
  Fe  Fe11  1  0.66666700  0.33333300  0.80908932  1
  Fe  Fe12  1  0.16810490  0.33621081  0.89077378  1
  Fe  Fe13  1  0.00000000  0.00000000  0.50000000  1
  Fe  Fe14  1  0.66666700  0.33333300  0.52792914  1
  Fe  Fe15  1  0.33333300  0.66666700  0.02792914  1
  Fe  Fe16  1  0.83189510  0.16810490  0.39077378  1
  Fe  Fe17  1  0.83189510  0.66378919  0.10922622  1
  Fe  Fe18  1  0.66378919  0.83189510  0.89077378  1
  Fe  Fe19  1  0.00000000  0.00000000  0.75000000  1
  Fe  Fe20  1  0.16810490  0.83189510  0.89077378  1
  Fe  Fe21  1  0.33333300  0.66666700  0.19091068  1
  Fe  Fe22  1  0.00000000  0.00000000  0.00000000  1
  Fe  Fe23  1  0.00000000  0.00000000  0.25000000  1
  Pb  Pb24  1  0.66666700  0.33333300  0.25000000  1
  Pb  Pb25  1  0.33333300  0.66666700  0.75000000  1
  O  O26  1  0.84472374  0.68944749  0.55291630  1
  O  O27  1  0.00989211  0.50494556  0.65057446  1
  O  O28  1  0.49505444  0.50494556  0.84942554  1
  O  O29  1  0.84472374  0.15527626  0.55291630  1
  O  O30  1  0.66666700  0.33333300  0.05519578  1
  O  O31  1  0.50494556  0.49505444  0.34942554  1
  O  O32  1  0.63384640  0.81692320  0.25000000  1
  O  O33  1  0.49505444  0.99010789  0.65057446  1
  O  O34  1  0.36615360  0.18307680  0.75000000  1
  O  O35  1  0.31055251  0.15527626  0.94708370  1
  O  O36  1  0.31055251  0.15527626  0.55291630  1
  O  O37  1  0.68944749  0.84472374  0.05291630  1
  O  O38  1  0.15527626  0.31055251  0.05291630  1
  O  O39  1  0.50494556  0.00989211  0.34942554  1
  O  O40  1  0.33333300  0.66666700  0.55519578  1
  O  O41  1  0.18307680  0.36615360  0.25000000  1
  O  O42  1  0.00000000  0.00000000  0.84792246  1
  O  O43  1  0.18307680  0.81692320  0.25000000  1
  O  O44  1  0.00000000  0.00000000  0.34792246  1
  O  O45  1  0.84472374  0.15527626  0.94708370  1
  O  O46  1  0.50494556  0.00989211  0.15057446  1
  O  O47  1  0.00989211  0.50494556  0.84942554  1
  O  O48  1  0.81692320  0.18307680  0.75000000  1
  O  O49  1  0.00000000  0.00000000  0.65207754  1
  O  O50  1  0.66666700  0.33333300  0.44480422  1
  O  O51  1  0.33333300  0.66666700  0.94480422  1
  O  O52  1  0.50494556  0.49505444  0.15057446  1
  O  O53  1  0.49505444  0.50494556  0.65057446  1
  O  O54  1  0.81692320  0.63384640  0.75000000  1
  O  O55  1  0.99010789  0.49505444  0.15057446  1
  O  O56  1  0.68944749  0.84472374  0.44708370  1
  O  O57  1  0.49505444  0.99010789  0.84942554  1
  O  O58  1  0.15527626  0.84472374  0.44708370  1
  O  O59  1  0.15527626  0.31055251  0.44708370  1
  O  O60  1  0.15527626  0.84472374  0.05291630  1
  O  O61  1  0.00000000  0.00000000  0.15207754  1
  O  O62  1  0.99010789  0.49505444  0.34942554  1
  O  O63  1  0.84472374  0.68944749  0.94708370  1
