# generated using pymatgen
data_NpAgSeO5
_symmetry_space_group_name_H-M   'P 1'
_cell_length_a   4.30216270
_cell_length_b   9.78621485
_cell_length_c   11.83387560
_cell_angle_alpha   90.00000000
_cell_angle_beta   94.89970989
_cell_angle_gamma   90.00000000
_symmetry_Int_Tables_number   1
_chemical_formula_structural   NpAgSeO5
_chemical_formula_sum   'Np4 Ag4 Se4 O20'
_cell_volume   496.40784939
_cell_formula_units_Z   4
loop_
 _symmetry_equiv_pos_site_id
 _symmetry_equiv_pos_as_xyz
  1  'x, y, z'
loop_
 _atom_site_type_symbol
 _atom_site_label
 _atom_site_symmetry_multiplicity
 _atom_site_fract_x
 _atom_site_fract_y
 _atom_site_fract_z
 _atom_site_occupancy
  Np  Np0  1  0.24982781  0.15687557  0.25593431  1
  Np  Np1  1  0.74982781  0.34312443  0.75593431  1
  Np  Np2  1  0.25017219  0.65687557  0.24406569  1
  Np  Np3  1  0.75017219  0.84312443  0.74406569  1
  Ag  Ag4  1  0.79734649  0.88944332  0.41339700  1
  Ag  Ag5  1  0.29734649  0.61055668  0.91339700  1
  Ag  Ag6  1  0.70265351  0.38944332  0.08660300  1
  Ag  Ag7  1  0.20265351  0.11055668  0.58660300  1
  Se  Se8  1  0.28313216  0.58787823  0.61235065  1
  Se  Se9  1  0.78313216  0.91212177  0.11235065  1
  Se  Se10  1  0.71686784  0.41212177  0.38764935  1
  Se  Se11  1  0.21686784  0.08787823  0.88764935  1
  O  O12  1  0.27213138  0.95840316  0.78979758  1
  O  O13  1  0.21830370  0.24670939  0.11522744  1
  O  O14  1  0.81638964  0.08827574  0.86108894  1
  O  O15  1  0.22040463  0.56759128  0.10264310  1
  O  O16  1  0.22694217  0.73153458  0.69460356  1
  O  O17  1  0.72786862  0.04159684  0.21020242  1
  O  O18  1  0.31638964  0.41172426  0.36108894  1
  O  O19  1  0.27305783  0.23153458  0.80539644  1
  O  O20  1  0.77959537  0.43240872  0.89735690  1
  O  O21  1  0.78169630  0.75329061  0.88477256  1
  O  O22  1  0.71830370  0.25329061  0.61522744  1
  O  O23  1  0.18361036  0.91172426  0.13891106  1
  O  O24  1  0.72040463  0.93240872  0.60264310  1
  O  O25  1  0.77305783  0.26846542  0.30539644  1
  O  O26  1  0.27959537  0.06759128  0.39735690  1
  O  O27  1  0.72694217  0.76846542  0.19460356  1
  O  O28  1  0.28169630  0.74670939  0.38477256  1
  O  O29  1  0.22786862  0.45840316  0.71020242  1
  O  O30  1  0.77213138  0.54159684  0.28979758  1
  O  O31  1  0.68361036  0.58827574  0.63891106  1
