# generated using pymatgen
data_Na2Si2O5
_symmetry_space_group_name_H-M   'P 1'
_cell_length_a   7.17667282
_cell_length_b   9.47201706
_cell_length_c   9.47121080
_cell_angle_alpha   81.74761818
_cell_angle_beta   67.73475977
_cell_angle_gamma   67.73148420
_symmetry_Int_Tables_number   1
_chemical_formula_structural   Na2Si2O5
_chemical_formula_sum   'Na8 Si8 O20'
_cell_volume   551.38793346
_cell_formula_units_Z   4
loop_
 _symmetry_equiv_pos_site_id
 _symmetry_equiv_pos_as_xyz
  1  'x, y, z'
loop_
 _atom_site_type_symbol
 _atom_site_label
 _atom_site_symmetry_multiplicity
 _atom_site_fract_x
 _atom_site_fract_y
 _atom_site_fract_z
 _atom_site_occupancy
  Na  Na0  1  0.38194982  0.19829591  0.96170445  1
  Na  Na1  1  0.34362230  0.53838375  0.19827898  1
  Na  Na2  1  0.65637770  0.46161625  0.80172102  1
  Na  Na3  1  0.61805018  0.80170409  0.03829555  1
  Na  Na4  1  0.54198908  0.30171516  0.53830726  1
  Na  Na5  1  0.45801092  0.69828484  0.46169274  1
  Na  Na6  1  0.08034629  0.96161682  0.30171397  1
  Na  Na7  1  0.91965371  0.03838318  0.69828603  1
  Si  Si8  1  0.11081587  0.57546797  0.83987025  1
  Si  Si9  1  0.95064277  0.66011347  0.57546861  1
  Si  Si10  1  0.18626955  0.83987241  0.92449228  1
  Si  Si11  1  0.52612027  0.92451023  0.66011553  1
  Si  Si12  1  0.81373045  0.16012759  0.07550772  1
  Si  Si13  1  0.04935723  0.33988653  0.42453139  1
  Si  Si14  1  0.47387973  0.07548977  0.33988447  1
  Si  Si15  1  0.88918413  0.42453203  0.16012975  1
  O  O16  1  0.35778791  0.48217822  0.74644740  1
  O  O17  1  0.00000000  0.50000000  0.00000000  1
  O  O18  1  0.41366183  0.98220659  0.24642457  1
  O  O19  1  0.30709491  0.25101098  0.39672764  1
  O  O20  1  0.66002817  0.25353150  0.98225755  1
  O  O21  1  0.04520362  0.75098339  0.89673622  1
  O  O22  1  0.70383595  0.10328278  0.25104879  1
  O  O23  1  0.05804503  0.39670506  0.24902036  1
  O  O24  1  0.33997183  0.74646850  0.01774245  1
  O  O25  1  0.89580954  0.24645589  0.51783883  1
  O  O26  1  0.29616405  0.89671722  0.74895121  1
  O  O27  1  0.00000000  0.00000000  0.00000000  1
  O  O28  1  0.64221209  0.51782178  0.25355260  1
  O  O29  1  0.10419046  0.75354411  0.48216117  1
  O  O30  1  0.95479638  0.24901661  0.10326378  1
  O  O31  1  0.94195497  0.60329494  0.75097964  1
  O  O32  1  0.58633817  0.01779341  0.75357543  1
  O  O33  1  0.69290509  0.74898902  0.60327236  1
  O  O34  1  0.50000000  0.00000000  0.50000000  1
  O  O35  1  0.00000000  0.50000000  0.50000000  1
