# generated using pymatgen
data_PH8C2NO2
_symmetry_space_group_name_H-M   'P 1'
_cell_length_a   5.92970992
_cell_length_b   6.32896963
_cell_length_c   13.43459581
_cell_angle_alpha   90.00000000
_cell_angle_beta   98.92494131
_cell_angle_gamma   90.00000000
_symmetry_Int_Tables_number   1
_chemical_formula_structural   PH8C2NO2
_chemical_formula_sum   'P4 H32 C8 N4 O8'
_cell_volume   498.08185468
_cell_formula_units_Z   4
loop_
 _symmetry_equiv_pos_site_id
 _symmetry_equiv_pos_as_xyz
  1  'x, y, z'
loop_
 _atom_site_type_symbol
 _atom_site_label
 _atom_site_symmetry_multiplicity
 _atom_site_fract_x
 _atom_site_fract_y
 _atom_site_fract_z
 _atom_site_occupancy
  P  P0  1  0.66650921  0.64397417  0.37598665  1
  P  P1  1  0.33349079  0.14397417  0.12401335  1
  P  P2  1  0.66650921  0.85602583  0.87598665  1
  P  P3  1  0.33349079  0.35602583  0.62401335  1
  H  H4  1  0.77095654  0.54267849  0.97546546  1
  H  H5  1  0.77095654  0.95732151  0.47546546  1
  H  H6  1  0.22904346  0.45732151  0.02453454  1
  H  H7  1  0.05214075  0.82298405  0.76526324  1
  H  H8  1  0.75389705  0.98994431  0.25301588  1
  H  H9  1  0.67053798  0.75089059  0.54897237  1
  H  H10  1  0.24610295  0.01005569  0.74698412  1
  H  H11  1  0.64147148  0.09773900  0.64540115  1
  H  H12  1  0.35852852  0.90226100  0.35459885  1
  H  H13  1  0.73321412  0.25808786  0.80167452  1
  H  H14  1  0.35852852  0.59773900  0.85459885  1
  H  H15  1  0.22904346  0.04267849  0.52453454  1
  H  H16  1  0.04791807  0.23737289  0.98321970  1
  H  H17  1  0.32946202  0.24910941  0.45102763  1
  H  H18  1  0.67053798  0.74910941  0.04897237  1
  H  H19  1  0.32946202  0.25089059  0.95102763  1
  H  H20  1  0.04791807  0.26262711  0.48321970  1
  H  H21  1  0.95208193  0.76262711  0.01678030  1
  H  H22  1  0.28831973  0.67300062  0.42020308  1
  H  H23  1  0.71168027  0.32699938  0.57979692  1
  H  H24  1  0.28831973  0.82699938  0.92020308  1
  H  H25  1  0.05214075  0.67701595  0.26526324  1
  H  H26  1  0.71168027  0.17300062  0.07979692  1
  H  H27  1  0.94785925  0.17701595  0.23473676  1
  H  H28  1  0.94785925  0.32298405  0.73473676  1
  H  H29  1  0.24610295  0.48994431  0.24698412  1
  H  H30  1  0.73321412  0.24191214  0.30167452  1
  H  H31  1  0.95208193  0.73737289  0.51678030  1
  H  H32  1  0.26678588  0.75808786  0.69832548  1
  H  H33  1  0.75389705  0.51005569  0.75301588  1
  H  H34  1  0.26678588  0.74191214  0.19832548  1
  H  H35  1  0.64147148  0.40226100  0.14540115  1
  C  C36  1  0.22495657  0.21344071  0.50976543  1
  C  C37  1  0.36466492  0.77142048  0.85540232  1
  C  C38  1  0.63533508  0.22857952  0.14459768  1
  C  C39  1  0.77504343  0.71344071  0.99023457  1
  C  C40  1  0.77504343  0.78655929  0.49023457  1
  C  C41  1  0.22495657  0.28655929  0.00976543  1
  C  C42  1  0.36466492  0.72857952  0.35540232  1
  C  C43  1  0.63533508  0.27142048  0.64459768  1
  N  N44  1  0.77361877  0.34721901  0.73973027  1
  N  N45  1  0.77361877  0.15278099  0.23973027  1
  N  N46  1  0.22638123  0.84721901  0.76026973  1
  N  N47  1  0.22638123  0.65278099  0.26026973  1
  O  O48  1  0.68131726  0.40651141  0.39411444  1
  O  O49  1  0.22241227  0.22596919  0.21257916  1
  O  O50  1  0.31868274  0.90651141  0.10588556  1
  O  O51  1  0.22241227  0.27403081  0.71257916  1
  O  O52  1  0.31868274  0.59348859  0.60588556  1
  O  O53  1  0.68131726  0.09348859  0.89411444  1
  O  O54  1  0.77758773  0.77403081  0.78742084  1
  O  O55  1  0.77758773  0.72596919  0.28742084  1
