# generated using pymatgen
data_FeSO3
_symmetry_space_group_name_H-M   'P 1'
_cell_length_a   7.93481401
_cell_length_b   7.93481369
_cell_length_c   7.93481383
_cell_angle_alpha   109.45581956
_cell_angle_beta   109.45581878
_cell_angle_gamma   109.45582430
_symmetry_Int_Tables_number   1
_chemical_formula_structural   FeSO3
_chemical_formula_sum   'Fe6 S6 O18'
_cell_volume   384.80057058
_cell_formula_units_Z   6
loop_
 _symmetry_equiv_pos_site_id
 _symmetry_equiv_pos_as_xyz
  1  'x, y, z'
loop_
 _atom_site_type_symbol
 _atom_site_label
 _atom_site_symmetry_multiplicity
 _atom_site_fract_x
 _atom_site_fract_y
 _atom_site_fract_z
 _atom_site_occupancy
  Fe  Fe0  1  0.31090390  0.13294466  0.81181011  1
  Fe  Fe1  1  0.81181011  0.31090390  0.13294466  1
  Fe  Fe2  1  0.13294466  0.81181011  0.31090390  1
  Fe  Fe3  1  0.68909610  0.86705534  0.18818989  1
  Fe  Fe4  1  0.18818989  0.68909610  0.86705534  1
  Fe  Fe5  1  0.86705534  0.18818989  0.68909610  1
  S  S6  1  0.47468401  0.14657054  0.29200710  1
  S  S7  1  0.29200710  0.47468401  0.14657054  1
  S  S8  1  0.14657054  0.29200710  0.47468401  1
  S  S9  1  0.52531599  0.85342946  0.70799290  1
  S  S10  1  0.70799290  0.52531599  0.85342946  1
  S  S11  1  0.85342946  0.70799290  0.52531599  1
  O  O12  1  0.63496167  0.08471584  0.38471005  1
  O  O13  1  0.38471005  0.63496167  0.08471584  1
  O  O14  1  0.08471584  0.38471005  0.63496167  1
  O  O15  1  0.36503833  0.91528416  0.61528995  1
  O  O16  1  0.61528995  0.36503833  0.91528416  1
  O  O17  1  0.91528416  0.61528995  0.36503833  1
  O  O18  1  0.51600308  0.18583187  0.12765329  1
  O  O19  1  0.12765329  0.51600308  0.18583187  1
  O  O20  1  0.18583187  0.12765329  0.51600308  1
  O  O21  1  0.48399692  0.81416813  0.87234671  1
  O  O22  1  0.87234671  0.48399692  0.81416813  1
  O  O23  1  0.81416813  0.87234671  0.48399692  1
  O  O24  1  0.26562712  0.93786627  0.15850964  1
  O  O25  1  0.15850964  0.26562712  0.93786627  1
  O  O26  1  0.93786627  0.15850964  0.26562712  1
  O  O27  1  0.73437288  0.06213373  0.84149036  1
  O  O28  1  0.84149036  0.73437288  0.06213373  1
  O  O29  1  0.06213373  0.84149036  0.73437288  1
