# generated using pymatgen
data_NbSe2SN2ClF6
_symmetry_space_group_name_H-M   'P 1'
_cell_length_a   8.54365698
_cell_length_b   10.67769711
_cell_length_c   12.61182814
_cell_angle_alpha   108.38141984
_cell_angle_beta   90.00000000
_cell_angle_gamma   90.00000000
_symmetry_Int_Tables_number   1
_chemical_formula_structural   NbSe2SN2ClF6
_chemical_formula_sum   'Nb4 Se8 S4 N8 Cl4 F24'
_cell_volume   1091.83179313
_cell_formula_units_Z   4
loop_
 _symmetry_equiv_pos_site_id
 _symmetry_equiv_pos_as_xyz
  1  'x, y, z'
loop_
 _atom_site_type_symbol
 _atom_site_label
 _atom_site_symmetry_multiplicity
 _atom_site_fract_x
 _atom_site_fract_y
 _atom_site_fract_z
 _atom_site_occupancy
  Nb  Nb0  1  0.80889032  0.91293125  0.67789198  1
  Nb  Nb1  1  0.19110968  0.08706875  0.32210802  1
  Nb  Nb2  1  0.30889032  0.58706875  0.82210802  1
  Nb  Nb3  1  0.69110968  0.41293125  0.17789198  1
  Se  Se4  1  0.82316469  0.72102911  0.02265045  1
  Se  Se5  1  0.90419093  0.31680750  0.63597702  1
  Se  Se6  1  0.40419093  0.18319250  0.86402298  1
  Se  Se7  1  0.32316469  0.77897089  0.47734955  1
  Se  Se8  1  0.67683531  0.22102911  0.52265045  1
  Se  Se9  1  0.09580907  0.68319250  0.36402298  1
  Se  Se10  1  0.59580907  0.81680750  0.13597702  1
  Se  Se11  1  0.17683531  0.27897089  0.97734955  1
  S  S12  1  0.77068218  -0.00104058  0.04995364  1
  S  S13  1  0.27068218  0.50104058  0.45004636  1
  S  S14  1  0.72931782  0.49895942  0.54995364  1
  S  S15  1  0.22931782  1.00104058  0.95004636  1
  N  N16  1  0.88171066  0.47089400  0.61098962  1
  N  N17  1  0.37590539  0.62539365  0.49603215  1
  N  N18  1  0.11828934  0.52910600  0.38901038  1
  N  N19  1  0.61828934  0.97089400  0.11098962  1
  N  N20  1  0.12409461  0.12539365  0.99603215  1
  N  N21  1  0.38171066  0.02910600  0.88901038  1
  N  N22  1  0.62409461  0.37460635  0.50396785  1
  N  N23  1  0.87590539  0.87460635  0.00396785  1
  Cl  Cl24  1  0.18770752  0.63949081  0.18696455  1
  Cl  Cl25  1  0.31229248  0.13949081  0.68696455  1
  Cl  Cl26  1  0.68770752  0.86050919  0.31303545  1
  Cl  Cl27  1  0.81229248  0.36050919  0.81303545  1
  F  F28  1  0.34670573  0.45234520  0.89764036  1
  F  F29  1  0.23664440  0.21729239  0.25131342  1
  F  F30  1  0.51058248  0.54620266  0.75166662  1
  F  F31  1  0.98941752  0.04620266  0.25166662  1
  F  F32  1  0.71481117  0.04855700  0.80148522  1
  F  F33  1  0.40561684  0.72197181  0.94716796  1
  F  F34  1  0.28518883  0.95144300  0.19851478  1
  F  F35  1  0.90561684  0.77802819  0.55283204  1
  F  F36  1  0.60917902  0.88083554  0.60012373  1
  F  F37  1  0.84670573  0.04765480  0.60235964  1
  F  F38  1  0.39082098  0.11916446  0.39987627  1
  F  F39  1  0.26335560  0.71729239  0.75131342  1
  F  F40  1  0.65329427  0.54765480  0.10235964  1
  F  F41  1  0.01058248  0.95379734  0.74833338  1
  F  F42  1  0.89082098  0.38083554  0.10012373  1
  F  F43  1  0.21481117  0.45144300  0.69851478  1
  F  F44  1  0.76335560  0.78270761  0.74868658  1
  F  F45  1  0.15329427  0.95234520  0.39764036  1
  F  F46  1  0.48941752  0.45379734  0.24833338  1
  F  F47  1  0.09438316  0.22197181  0.44716796  1
  F  F48  1  0.10917902  0.61916446  0.89987627  1
  F  F49  1  0.73664440  0.28270761  0.24868658  1
  F  F50  1  0.59438316  0.27802819  0.05283204  1
  F  F51  1  0.78518883  0.54855700  0.30148522  1
