# generated using pymatgen
data_CdH8C2NCl3
_symmetry_space_group_name_H-M   'P 1'
_cell_length_a   6.82098079
_cell_length_b   8.89500594
_cell_length_c   13.50355231
_cell_angle_alpha   90.00000000
_cell_angle_beta   90.00000000
_cell_angle_gamma   98.94716136
_symmetry_Int_Tables_number   1
_chemical_formula_structural   CdH8C2NCl3
_chemical_formula_sum   'Cd4 H32 C8 N4 Cl12'
_cell_volume   809.32745295
_cell_formula_units_Z   4
loop_
 _symmetry_equiv_pos_site_id
 _symmetry_equiv_pos_as_xyz
  1  'x, y, z'
loop_
 _atom_site_type_symbol
 _atom_site_label
 _atom_site_symmetry_multiplicity
 _atom_site_fract_x
 _atom_site_fract_y
 _atom_site_fract_z
 _atom_site_occupancy
  Cd  Cd0  1  0.51663095  0.70077495  0.24295029  1
  Cd  Cd1  1  0.01663095  0.70077495  0.25704971  1
  Cd  Cd2  1  0.48336905  0.29922505  0.75704971  1
  Cd  Cd3  1  0.98336905  0.29922505  0.74295029  1
  H  H4  1  0.12180200  0.84542147  0.81172013  1
  H  H5  1  0.51659382  0.17861353  0.06137072  1
  H  H6  1  0.08859183  0.62690795  0.92100690  1
  H  H7  1  0.06556077  0.38021196  0.45978146  1
  H  H8  1  0.09726900  0.30706710  0.33829269  1
  H  H9  1  0.58859183  0.62690795  0.57899310  1
  H  H10  1  0.33243423  0.26235907  0.51752912  1
  H  H11  1  0.56556077  0.38021196  0.04021854  1
  H  H12  1  0.87819800  0.15457853  0.18827987  1
  H  H13  1  0.66756577  0.73764093  0.48247088  1
  H  H14  1  0.43443923  0.61978804  0.95978146  1
  H  H15  1  0.04796400  0.14408929  0.08784371  1
  H  H16  1  0.30206955  0.03695466  0.41654205  1
  H  H17  1  0.90273100  0.69293290  0.66170731  1
  H  H18  1  0.62180200  0.84542147  0.68827987  1
  H  H19  1  0.83243423  0.26235907  0.98247088  1
  H  H20  1  0.95203600  0.85591071  0.91215629  1
  H  H21  1  0.80206955  0.03695466  0.08345795  1
  H  H22  1  0.54796400  0.14408929  0.41215629  1
  H  H23  1  0.16756577  0.73764093  0.01752912  1
  H  H24  1  0.19793045  0.96304534  0.91654205  1
  H  H25  1  0.45203600  0.85591071  0.58784371  1
  H  H26  1  0.37819800  0.15457853  0.31172013  1
  H  H27  1  0.48340618  0.82138647  0.93862928  1
  H  H28  1  0.41140817  0.37309205  0.42100690  1
  H  H29  1  0.69793045  0.96304534  0.58345795  1
  H  H30  1  0.91140817  0.37309205  0.07899310  1
  H  H31  1  0.59726900  0.30706710  0.16170731  1
  H  H32  1  0.01659382  0.17861353  0.43862928  1
  H  H33  1  0.93443923  0.61978804  0.54021854  1
  H  H34  1  0.40273100  0.69293290  0.83829269  1
  H  H35  1  0.98340618  0.82138647  0.56137072  1
  C  C36  1  0.10758335  0.85703648  0.89195577  1
  C  C37  1  0.89099220  0.71428943  0.58225854  1
  C  C38  1  0.89241665  0.14296352  0.10804423  1
  C  C39  1  0.60900780  0.28571057  0.08225854  1
  C  C40  1  0.60758335  0.85703648  0.60804423  1
  C  C41  1  0.10900780  0.28571057  0.41774146  1
  C  C42  1  0.39241665  0.14296352  0.39195577  1
  C  C43  1  0.39099220  0.71428943  0.91774146  1
  N  N44  1  0.31964433  0.27381135  0.44144816  1
  N  N45  1  0.81964433  0.27381135  0.05855184  1
  N  N46  1  0.18035567  0.72618865  0.94144816  1
  N  N47  1  0.68035567  0.72618865  0.55855184  1
  Cl  Cl48  1  0.70863298  0.49415261  0.33128614  1
  Cl  Cl49  1  0.20863298  0.49415261  0.16871386  1
  Cl  Cl50  1  0.69499135  0.10517714  0.83800027  1
  Cl  Cl51  1  0.22123218  0.30219937  0.89906325  1
  Cl  Cl52  1  0.80500865  0.89482286  0.33800027  1
  Cl  Cl53  1  0.77876782  0.69780063  0.10093675  1
  Cl  Cl54  1  0.72123218  0.30219937  0.60093675  1
  Cl  Cl55  1  0.29136702  0.50584739  0.66871386  1
  Cl  Cl56  1  0.27876782  0.69780063  0.39906325  1
  Cl  Cl57  1  0.30500865  0.89482286  0.16199973  1
  Cl  Cl58  1  0.79136702  0.50584739  0.83128614  1
  Cl  Cl59  1  0.19499135  0.10517714  0.66199973  1
