# generated using pymatgen
data_YMg30BO32
_symmetry_space_group_name_H-M   'P 1'
_cell_length_a   8.58779220
_cell_length_b   8.59185702
_cell_length_c   8.59185702
_cell_angle_alpha   90.00000000
_cell_angle_beta   90.00000000
_cell_angle_gamma   90.00000000
_symmetry_Int_Tables_number   1
_chemical_formula_structural   YMg30BO32
_chemical_formula_sum   'Y1 Mg30 B1 O32'
_cell_volume   633.95088077
_cell_formula_units_Z   1
loop_
 _symmetry_equiv_pos_site_id
 _symmetry_equiv_pos_as_xyz
  1  'x, y, z'
loop_
 _atom_site_type_symbol
 _atom_site_label
 _atom_site_symmetry_multiplicity
 _atom_site_fract_x
 _atom_site_fract_y
 _atom_site_fract_z
 _atom_site_occupancy
  Y  Y0  1  0.00000000  -0.00000000  -0.00000000  1
  Mg  Mg1  1  0.00000000  -0.00000000  0.50000000  1
  Mg  Mg2  1  0.00000000  0.50000000  -0.00000000  1
  Mg  Mg3  1  0.50000000  -0.00000000  -0.00000000  1
  Mg  Mg4  1  0.50000000  -0.00000000  0.50000000  1
  Mg  Mg5  1  0.50000000  0.50000000  -0.00000000  1
  Mg  Mg6  1  0.50000000  0.50000000  0.50000000  1
  Mg  Mg7  1  -0.00000000  0.25956400  0.25956400  1
  Mg  Mg8  1  -0.00000000  0.25956400  0.74043600  1
  Mg  Mg9  1  0.00000000  0.74043600  0.25956400  1
  Mg  Mg10  1  -0.00000000  0.74043600  0.74043600  1
  Mg  Mg11  1  0.50000000  0.25171365  0.25171365  1
  Mg  Mg12  1  0.50000000  0.25171365  0.74828635  1
  Mg  Mg13  1  0.50000000  0.74828635  0.25171365  1
  Mg  Mg14  1  0.50000000  0.74828635  0.74828635  1
  Mg  Mg15  1  0.25557092  -0.00000000  0.25745263  1
  Mg  Mg16  1  0.25557092  -0.00000000  0.74254737  1
  Mg  Mg17  1  0.24804274  0.50000000  0.25357801  1
  Mg  Mg18  1  0.24804274  0.50000000  0.74642199  1
  Mg  Mg19  1  0.74442908  -0.00000000  0.25745263  1
  Mg  Mg20  1  0.74442908  -0.00000000  0.74254737  1
  Mg  Mg21  1  0.75195726  0.50000000  0.25357801  1
  Mg  Mg22  1  0.75195726  0.50000000  0.74642199  1
  Mg  Mg23  1  0.25557092  0.25745263  -0.00000000  1
  Mg  Mg24  1  0.24804274  0.25357801  0.50000000  1
  Mg  Mg25  1  0.25557092  0.74254737  -0.00000000  1
  Mg  Mg26  1  0.24804274  0.74642199  0.50000000  1
  Mg  Mg27  1  0.74442908  0.25745263  -0.00000000  1
  Mg  Mg28  1  0.75195726  0.25357801  0.50000000  1
  Mg  Mg29  1  0.74442908  0.74254737  -0.00000000  1
  Mg  Mg30  1  0.75195726  0.74642199  0.50000000  1
  B  B31  1  0.00000000  0.50000000  0.50000000  1
  O  O32  1  0.25947416  -0.00000000  -0.00000000  1
  O  O33  1  0.25327889  -0.00000000  0.50000000  1
  O  O34  1  0.25327889  0.50000000  -0.00000000  1
  O  O35  1  0.26450938  0.50000000  0.50000000  1
  O  O36  1  0.74052584  -0.00000000  -0.00000000  1
  O  O37  1  0.74672111  -0.00000000  0.50000000  1
  O  O38  1  0.74672111  0.50000000  -0.00000000  1
  O  O39  1  0.73549062  0.50000000  0.50000000  1
  O  O40  1  0.24901668  0.24939485  0.24939485  1
  O  O41  1  0.24901668  0.24939485  0.75060515  1
  O  O42  1  0.24901668  0.75060515  0.24939485  1
  O  O43  1  0.24901668  0.75060515  0.75060515  1
  O  O44  1  0.75098332  0.24939485  0.24939485  1
  O  O45  1  0.75098332  0.24939485  0.75060515  1
  O  O46  1  0.75098332  0.75060515  0.24939485  1
  O  O47  1  0.75098332  0.75060515  0.75060515  1
  O  O48  1  -0.00000000  -0.00000000  0.25775320  1
  O  O49  1  -0.00000000  -0.00000000  0.74224680  1
  O  O50  1  0.00000000  0.50000000  0.23605736  1
  O  O51  1  -0.00000000  0.50000000  0.76394264  1
  O  O52  1  0.50000000  -0.00000000  0.25021137  1
  O  O53  1  0.50000000  -0.00000000  0.74978863  1
  O  O54  1  0.50000000  0.50000000  0.24774420  1
  O  O55  1  0.50000000  0.50000000  0.75225580  1
  O  O56  1  -0.00000000  0.25775320  -0.00000000  1
  O  O57  1  0.00000000  0.23605736  0.50000000  1
  O  O58  1  0.00000000  0.74224680  -0.00000000  1
  O  O59  1  -0.00000000  0.76394264  0.50000000  1
  O  O60  1  0.50000000  0.25021137  -0.00000000  1
  O  O61  1  0.50000000  0.24774420  0.50000000  1
  O  O62  1  0.50000000  0.74978863  -0.00000000  1
  O  O63  1  0.50000000  0.75225580  0.50000000  1
