# generated using pymatgen
data_GaSi2As(H3C)8
_symmetry_space_group_name_H-M   'P 1'
_cell_length_a   9.38788757
_cell_length_b   9.78828949
_cell_length_c   10.02629704
_cell_angle_alpha   77.58377905
_cell_angle_beta   81.03355746
_cell_angle_gamma   64.73824994
_symmetry_Int_Tables_number   1
_chemical_formula_structural   GaSi2As(H3C)8
_chemical_formula_sum   'Ga2 Si4 As2 H48 C16'
_cell_volume   811.58747542
_cell_formula_units_Z   2
loop_
 _symmetry_equiv_pos_site_id
 _symmetry_equiv_pos_as_xyz
  1  'x, y, z'
loop_
 _atom_site_type_symbol
 _atom_site_label
 _atom_site_symmetry_multiplicity
 _atom_site_fract_x
 _atom_site_fract_y
 _atom_site_fract_z
 _atom_site_occupancy
  Ga  Ga0  1  0.46816749  0.35477395  0.42717517  1
  Ga  Ga1  1  0.53183251  0.64522605  0.57282483  1
  Si  Si2  1  0.32602880  0.35782835  0.83370450  1
  Si  Si3  1  0.22814022  0.81459213  0.26377411  1
  Si  Si4  1  0.77185978  0.18540787  0.73622589  1
  Si  Si5  1  0.67397120  0.64217165  0.16629550  1
  As  As6  1  0.52530213  0.37998099  0.66145353  1
  As  As7  1  0.47469787  0.62001901  0.33854647  1
  H  H8  1  0.70898229  0.67645185  0.91240530  1
  H  H9  1  0.37534556  0.80776157  0.76068071  1
  H  H10  1  0.82978646  0.33340321  0.87980148  1
  H  H11  1  0.95436195  0.47034286  0.11892563  1
  H  H12  1  0.84034719  0.53849474  0.52442379  1
  H  H13  1  0.80702279  0.82154613  0.10359259  1
  H  H14  1  0.06039853  0.86729164  0.07494340  1
  H  H15  1  0.90692263  0.16796239  0.50045402  1
  H  H16  1  0.26324734  0.03397316  0.32262172  1
  H  H17  1  0.35243652  0.92543308  0.59672113  1
  H  H18  1  0.50745854  0.77325083  0.96559011  1
  H  H19  1  0.17021354  0.66659679  0.12019852  1
  H  H20  1  0.09884643  0.55831802  0.70265900  1
  H  H21  1  0.19297721  0.17845387  0.89640741  1
  H  H22  1  0.22145874  0.38048888  0.32258368  1
  H  H23  1  0.77854126  0.61951112  0.67741632  1
  H  H24  1  0.73744391  0.21810477  0.98382752  1
  H  H25  1  0.87948834  0.90162821  0.79978994  1
  H  H26  1  0.75547620  0.74059398  0.51554719  1
  H  H27  1  0.15965281  0.46150526  0.47557621  1
  H  H28  1  0.06162741  0.69927104  0.42446818  1
  H  H29  1  0.32501657  0.01666462  0.14788926  1
  H  H30  1  0.29101771  0.32354815  0.08759470  1
  H  H31  1  0.93837259  0.30072896  0.57553182  1
  H  H32  1  0.25003769  0.19841621  0.71815111  1
  H  H33  1  0.39310565  0.07992184  0.83700449  1
  H  H34  1  0.76024254  0.18668721  0.34845838  1
  H  H35  1  0.04563805  0.52965714  0.88107437  1
  H  H36  1  0.62465444  0.19223843  0.23931929  1
  H  H37  1  0.74996231  0.80158379  0.28184889  1
  H  H38  1  0.24452380  0.25940602  0.48445281  1
  H  H39  1  0.93960147  0.13270836  0.92505660  1
  H  H40  1  0.40925032  0.42886622  0.02633461  1
  H  H41  1  0.09307737  0.83203761  0.49954598  1
  H  H42  1  0.64756348  0.07456692  0.40327887  1
  H  H43  1  0.60689435  0.92007816  0.16299551  1
  H  H44  1  0.23975746  0.81331279  0.65154162  1
  H  H45  1  0.49254146  0.22674917  0.03440989  1
  H  H46  1  0.04466881  0.10085938  0.62767397  1
  H  H47  1  0.84102621  0.36099631  0.18506025  1
  H  H48  1  0.95533119  0.89914062  0.37232603  1
  H  H49  1  0.26255609  0.78189523  0.01617248  1
  H  H50  1  0.59074968  0.57113378  0.97366539  1
  H  H51  1  0.90115357  0.44168198  0.29734100  1
  H  H52  1  0.73675266  0.96602684  0.67737828  1
  H  H53  1  0.15897379  0.63900369  0.81493975  1
  H  H54  1  0.12051166  0.09837179  0.20021006  1
  H  H55  1  0.67498343  0.98333538  0.85211074  1
  C  C56  1  0.28750385  0.18764761  0.81968815  1
  C  C57  1  0.25048011  0.36666401  0.42815566  1
  C  C58  1  0.35539702  0.81491817  0.65375435  1
  C  C59  1  0.71249615  0.81235239  0.18031185  1
  C  C60  1  0.17696792  0.77844344  0.10352972  1
  C  C61  1  0.85950556  0.46159646  0.19555096  1
  C  C62  1  0.61379946  0.66764304  0.98858791  1
  C  C63  1  0.38620054  0.33235696  0.01141209  1
  C  C64  1  0.64460298  0.18508183  0.34624565  1
  C  C65  1  0.92937445  0.18984359  0.59630793  1
  C  C66  1  0.23587968  0.00846857  0.23058235  1
  C  C67  1  0.14049444  0.53840354  0.80444904  1
  C  C68  1  0.74951989  0.63333599  0.57184434  1
  C  C69  1  0.82303208  0.22155656  0.89647028  1
  C  C70  1  0.76412032  0.99153143  0.76941765  1
  C  C71  1  0.07062555  0.81015641  0.40369207  1
