# generated using pymatgen
data_Cr2B2Ir
_symmetry_space_group_name_H-M   'P 1'
_cell_length_a   2.88976875
_cell_length_b   5.24962445
_cell_length_c   13.46289760
_cell_angle_alpha   90.00000000
_cell_angle_beta   90.00000000
_cell_angle_gamma   105.97606446
_symmetry_Int_Tables_number   1
_chemical_formula_structural   Cr2B2Ir
_chemical_formula_sum   'Cr8 B8 Ir4'
_cell_volume   196.34664664
_cell_formula_units_Z   4
loop_
 _symmetry_equiv_pos_site_id
 _symmetry_equiv_pos_as_xyz
  1  'x, y, z'
loop_
 _atom_site_type_symbol
 _atom_site_label
 _atom_site_symmetry_multiplicity
 _atom_site_fract_x
 _atom_site_fract_y
 _atom_site_fract_z
 _atom_site_occupancy
  Cr  Cr0  1  0.17471703  0.34943406  0.94150784  1
  Cr  Cr1  1  0.99838196  0.99676393  0.75000000  1
  Cr  Cr2  1  0.00161804  0.00323607  0.25000000  1
  Cr  Cr3  1  0.73123630  0.46247259  0.25000000  1
  Cr  Cr4  1  0.26876370  0.53752741  0.75000000  1
  Cr  Cr5  1  0.82528297  0.65056594  0.05849216  1
  Cr  Cr6  1  0.82528297  0.65056594  0.44150784  1
  Cr  Cr7  1  0.17471703  0.34943406  0.55849216  1
  B  B8  1  0.20186878  0.40373756  0.36972009  1
  B  B9  1  0.20186878  0.40373756  0.13027991  1
  B  B10  1  0.79813122  0.59626244  0.63027991  1
  B  B11  1  0.36482492  0.72964984  0.31832662  1
  B  B12  1  0.63517508  0.27035016  0.68167338  1
  B  B13  1  0.36482492  0.72964984  0.18167338  1
  B  B14  1  0.79813122  0.59626244  0.86972009  1
  B  B15  1  0.63517508  0.27035016  0.81832662  1
  Ir  Ir16  1  0.55614639  0.11229279  0.41100364  1
  Ir  Ir17  1  0.55614639  0.11229279  0.08899636  1
  Ir  Ir18  1  0.44385361  0.88770721  0.91100364  1
  Ir  Ir19  1  0.44385361  0.88770721  0.58899636  1
