# generated using pymatgen
data_KIn(WO4)2
_symmetry_space_group_name_H-M   'P 1'
_cell_length_a   5.90397006
_cell_length_b   5.90396998
_cell_length_c   15.14094596
_cell_angle_alpha   90.00000000
_cell_angle_beta   90.00000000
_cell_angle_gamma   120.00000046
_symmetry_Int_Tables_number   1
_chemical_formula_structural   KIn(WO4)2
_chemical_formula_sum   'K2 In2 W4 O16'
_cell_volume   457.05864302
_cell_formula_units_Z   2
loop_
 _symmetry_equiv_pos_site_id
 _symmetry_equiv_pos_as_xyz
  1  'x, y, z'
loop_
 _atom_site_type_symbol
 _atom_site_label
 _atom_site_symmetry_multiplicity
 _atom_site_fract_x
 _atom_site_fract_y
 _atom_site_fract_z
 _atom_site_occupancy
  K  K0  1  0.00000000  0.00000000  0.25000000  1
  K  K1  1  0.00000000  0.00000000  0.75000000  1
  In  In2  1  0.00000000  0.00000000  0.50000000  1
  In  In3  1  0.00000000  0.00000000  0.00000000  1
  W  W4  1  0.33333300  0.66666700  0.12330538  1
  W  W5  1  0.66666700  0.33333300  0.87669462  1
  W  W6  1  0.33333300  0.66666700  0.62330538  1
  W  W7  1  0.66666700  0.33333300  0.37669462  1
  O  O8  1  0.88052187  0.21058893  0.91319947  1
  O  O9  1  0.33333300  0.66666700  0.74039121  1
  O  O10  1  0.66666700  0.33333300  0.75960879  1
  O  O11  1  0.11947813  0.33006706  0.58680053  1
  O  O12  1  0.33006706  0.11947813  0.91319947  1
  O  O13  1  0.66993294  0.78941107  0.58680053  1
  O  O14  1  0.78941107  0.11947813  0.41319947  1
  O  O15  1  0.33333300  0.66666700  0.24039121  1
  O  O16  1  0.21058893  0.33006706  0.08680053  1
  O  O17  1  0.78941107  0.66993294  0.91319947  1
  O  O18  1  0.11947813  0.78941107  0.08680053  1
  O  O19  1  0.66993294  0.88052187  0.08680053  1
  O  O20  1  0.21058893  0.88052187  0.58680053  1
  O  O21  1  0.33006706  0.21058893  0.41319947  1
  O  O22  1  0.66666700  0.33333300  0.25960879  1
  O  O23  1  0.88052187  0.66993294  0.41319947  1
