# generated using pymatgen
data_CdH16C4(Br2N)2
_symmetry_space_group_name_H-M   'P 1'
_cell_length_a   8.38590141
_cell_length_b   12.06449458
_cell_length_c   15.64011469
_cell_angle_alpha   90.00000000
_cell_angle_beta   95.21325596
_cell_angle_gamma   90.00000000
_symmetry_Int_Tables_number   1
_chemical_formula_structural   CdH16C4(Br2N)2
_chemical_formula_sum   'Cd4 H64 C16 Br16 N8'
_cell_volume   1575.79091122
_cell_formula_units_Z   4
loop_
 _symmetry_equiv_pos_site_id
 _symmetry_equiv_pos_as_xyz
  1  'x, y, z'
loop_
 _atom_site_type_symbol
 _atom_site_label
 _atom_site_symmetry_multiplicity
 _atom_site_fract_x
 _atom_site_fract_y
 _atom_site_fract_z
 _atom_site_occupancy
  Cd  Cd0  1  0.71304017  0.20586933  0.95208342  1
  Cd  Cd1  1  0.78695983  0.70586933  0.54791658  1
  Cd  Cd2  1  0.21304017  0.29413067  0.45208342  1
  Cd  Cd3  1  0.28695983  0.79413067  0.04791658  1
  H  H4  1  0.31397171  0.70266638  0.34449899  1
  H  H5  1  0.62014541  0.71877286  0.92984450  1
  H  H6  1  0.30506413  0.78587261  0.48373273  1
  H  H7  1  0.16525132  0.60651151  0.65487991  1
  H  H8  1  0.87985459  0.21877286  0.57015550  1
  H  H9  1  0.65643734  0.02215698  0.11710381  1
  H  H10  1  0.15643734  0.47784302  0.61710381  1
  H  H11  1  0.99222722  0.49245295  0.73181788  1
  H  H12  1  0.83908123  0.45509046  0.20002370  1
  H  H13  1  0.07334582  0.32905436  0.14558885  1
  H  H14  1  0.92541927  0.96227681  0.11911632  1
  H  H15  1  0.84078449  0.05120056  0.49106900  1
  H  H16  1  0.73127382  0.67274381  0.79636467  1
  H  H17  1  0.92341863  0.92565688  0.23026949  1
  H  H18  1  0.66525132  0.89348849  0.15487991  1
  H  H19  1  0.13371786  0.97528807  0.39552055  1
  H  H20  1  0.36628214  0.47528807  0.10447945  1
  H  H21  1  0.19493587  0.28587261  0.01626727  1
  H  H22  1  0.82993512  0.52009915  0.95164787  1
  H  H23  1  0.57458073  0.46227681  0.38088368  1
  H  H24  1  0.07458073  0.03772319  0.88088368  1
  H  H25  1  0.63371786  0.52471193  0.89552055  1
  H  H26  1  0.17006488  0.47990085  0.04835213  1
  H  H27  1  0.16091877  0.54490954  0.79997630  1
  H  H28  1  0.00777278  0.50754705  0.26818212  1
  H  H29  1  0.57658137  0.42565688  0.26973051  1
  H  H30  1  0.65891215  0.09622771  0.26294770  1
  H  H31  1  0.23127382  0.82725619  0.29636467  1
  H  H32  1  0.50777278  0.99245295  0.76818212  1
  H  H33  1  0.66091877  0.95509046  0.29997630  1
  H  H34  1  0.42665418  0.82905436  0.35441115  1
  H  H35  1  0.80506413  0.71412739  0.98373273  1
  H  H36  1  0.84108785  0.59622771  0.23705230  1
  H  H37  1  0.58957162  0.56886673  0.30126131  1
  H  H38  1  0.26872618  0.32725619  0.20363533  1
  H  H39  1  0.76872618  0.17274381  0.70363533  1
  H  H40  1  0.34356266  0.97784302  0.88289619  1
  H  H41  1  0.67006488  0.02009915  0.54835213  1
  H  H42  1  0.91042838  0.06886673  0.19873869  1
  H  H43  1  0.12014541  0.78122714  0.42984450  1
  H  H44  1  0.92665418  0.67094564  0.85441115  1
  H  H45  1  0.69493587  0.21412739  0.51626727  1
  H  H46  1  0.49222722  0.00754705  0.23181788  1
  H  H47  1  0.08957162  0.93113327  0.80126131  1
  H  H48  1  0.37985459  0.28122714  0.07015550  1
  H  H49  1  0.07658137  0.07434312  0.76973051  1
  H  H50  1  0.83474868  0.39348849  0.34512009  1
  H  H51  1  0.15921551  0.94879944  0.50893100  1
  H  H52  1  0.42341863  0.57434312  0.73026949  1
  H  H53  1  0.42541927  0.53772319  0.61911632  1
  H  H54  1  0.32993512  0.97990085  0.45164787  1
  H  H55  1  0.81397171  0.79733362  0.84449899  1
  H  H56  1  0.34078449  0.44879944  0.99106900  1
  H  H57  1  0.15891215  0.40377229  0.76294770  1
  H  H58  1  0.86628214  0.02471193  0.60447945  1
  H  H59  1  0.57334582  0.17094564  0.64558885  1
  H  H60  1  0.84356266  0.52215698  0.38289619  1
  H  H61  1  0.41042838  0.43113327  0.69873869  1
  H  H62  1  0.18602829  0.20266638  0.15550101  1
  H  H63  1  0.34108785  0.90377229  0.73705230  1
  H  H64  1  0.33474868  0.10651151  0.84512009  1
  H  H65  1  0.68602829  0.29733362  0.65550101  1
  H  H66  1  0.33908123  0.04490954  0.70002370  1
  H  H67  1  0.65921551  0.55120056  0.00893100  1
  C  C68  1  0.78737096  0.06061113  0.55202143  1
  C  C69  1  0.69353170  0.20712406  0.64907825  1
  C  C70  1  0.87782084  0.51115327  0.25305376  1
  C  C71  1  0.71262904  0.56061113  0.94797857  1
  C  C72  1  0.21262904  0.93938887  0.44797857  1
  C  C73  1  0.62183541  0.48371930  0.32004743  1
  C  C74  1  0.19353170  0.29287594  0.14907825  1
  C  C75  1  0.87816459  0.98371930  0.17995257  1
  C  C76  1  0.30646830  0.79287594  0.35092175  1
  C  C77  1  0.37782084  0.98884673  0.75305376  1
  C  C78  1  0.62217916  0.01115327  0.24694624  1
  C  C79  1  0.12183541  0.01628070  0.82004743  1
  C  C80  1  0.12217916  0.48884673  0.74694624  1
  C  C81  1  0.80646830  0.70712406  0.85092175  1
  C  C82  1  0.28737096  0.43938887  0.05202143  1
  C  C83  1  0.37816459  0.51628070  0.67995257  1
  Br  Br84  1  0.47818158  0.20575206  0.40687081  1
  Br  Br85  1  0.66272137  0.26648389  0.11111695  1
  Br  Br86  1  0.04126633  0.78082194  0.64327450  1
  Br  Br87  1  0.54126633  0.71917806  0.14327450  1
  Br  Br88  1  0.83727863  0.76648389  0.38888305  1
  Br  Br89  1  0.45873367  0.28082194  0.85672550  1
  Br  Br90  1  0.33727863  0.73351611  0.88888305  1
  Br  Br91  1  0.71472000  0.98866734  0.94154584  1
  Br  Br92  1  0.52181842  0.79424794  0.59312919  1
  Br  Br93  1  0.16272137  0.23351611  0.61111695  1
  Br  Br94  1  0.95873367  0.21917806  0.35672550  1
  Br  Br95  1  0.28528000  0.01133266  0.05845416  1
  Br  Br96  1  0.97818158  0.29424794  0.90687081  1
  Br  Br97  1  0.78528000  0.48866734  0.55845416  1
  Br  Br98  1  0.21472000  0.51133266  0.44154584  1
  Br  Br99  1  0.02181842  0.70575206  0.09312919  1
  N  N100  1  0.73278839  0.68135318  0.93184075  1
  N  N101  1  0.20006379  0.52477281  0.66951675  1
  N  N102  1  0.70006379  0.97522719  0.16951675  1
  N  N103  1  0.23278839  0.81864682  0.43184075  1
  N  N104  1  0.76721161  0.18135318  0.56815925  1
  N  N105  1  0.26721161  0.31864682  0.06815925  1
  N  N106  1  0.79993621  0.47522719  0.33048325  1
  N  N107  1  0.29993621  0.02477281  0.83048325  1
