# generated using pymatgen
data_BiRhO3
_symmetry_space_group_name_H-M   'P 1'
_cell_length_a   5.44007247
_cell_length_b   5.92127992
_cell_length_c   7.81221403
_cell_angle_alpha   90.00000000
_cell_angle_beta   90.00000000
_cell_angle_gamma   90.00000000
_symmetry_Int_Tables_number   1
_chemical_formula_structural   BiRhO3
_chemical_formula_sum   'Bi4 Rh4 O12'
_cell_volume   251.64853734
_cell_formula_units_Z   4
loop_
 _symmetry_equiv_pos_site_id
 _symmetry_equiv_pos_as_xyz
  1  'x, y, z'
loop_
 _atom_site_type_symbol
 _atom_site_label
 _atom_site_symmetry_multiplicity
 _atom_site_fract_x
 _atom_site_fract_y
 _atom_site_fract_z
 _atom_site_occupancy
  Bi  Bi0  1  0.01738955  0.93332258  0.75000000  1
  Bi  Bi1  1  0.48261045  0.43332258  0.75000000  1
  Bi  Bi2  1  0.98261045  0.06667742  0.25000000  1
  Bi  Bi3  1  0.51738955  0.56667742  0.25000000  1
  Rh  Rh4  1  0.00000000  0.50000000  0.50000000  1
  Rh  Rh5  1  0.00000000  0.50000000  0.00000000  1
  Rh  Rh6  1  0.50000000  0.00000000  0.50000000  1
  Rh  Rh7  1  0.50000000  0.00000000  0.00000000  1
  O  O8  1  0.67430993  0.31263037  0.04668664  1
  O  O9  1  0.67430993  0.31263037  0.45331336  1
  O  O10  1  0.32569007  0.68736963  0.95331336  1
  O  O11  1  0.87941364  0.54611230  0.75000000  1
  O  O12  1  0.82569007  0.81263037  0.04668664  1
  O  O13  1  0.82569007  0.81263037  0.45331336  1
  O  O14  1  0.37941364  0.95388770  0.25000000  1
  O  O15  1  0.62058636  0.04611230  0.75000000  1
  O  O16  1  0.32569007  0.68736963  0.54668664  1
  O  O17  1  0.17430993  0.18736963  0.95331336  1
  O  O18  1  0.17430993  0.18736963  0.54668664  1
  O  O19  1  0.12058636  0.45388770  0.25000000  1
