# generated using pymatgen
data_ZnH14C2(N2Cl)4
_symmetry_space_group_name_H-M   'P 1'
_cell_length_a   8.02247281
_cell_length_b   7.79524313
_cell_length_c   24.87536034
_cell_angle_alpha   90.00000000
_cell_angle_beta   90.00000000
_cell_angle_gamma   101.30745453
_symmetry_Int_Tables_number   1
_chemical_formula_structural   ZnH14C2(N2Cl)4
_chemical_formula_sum   'Zn4 H56 C8 N32 Cl16'
_cell_volume   1525.43738679
_cell_formula_units_Z   4
loop_
 _symmetry_equiv_pos_site_id
 _symmetry_equiv_pos_as_xyz
  1  'x, y, z'
loop_
 _atom_site_type_symbol
 _atom_site_label
 _atom_site_symmetry_multiplicity
 _atom_site_fract_x
 _atom_site_fract_y
 _atom_site_fract_z
 _atom_site_occupancy
  Zn  Zn0  1  0.89480710  0.12955110  0.36779698  1
  Zn  Zn1  1  0.10519290  0.87044890  0.63220302  1
  Zn  Zn2  1  0.39480710  0.12955110  0.13220302  1
  Zn  Zn3  1  0.60519290  0.87044890  0.86779698  1
  H  H4  1  0.49329189  0.35632939  0.63563200  1
  H  H5  1  0.77110221  0.35120556  0.48053618  1
  H  H6  1  0.08224687  0.23062581  0.95276871  1
  H  H7  1  0.50670811  0.64367061  0.36436800  1
  H  H8  1  0.92132593  0.69691793  0.83655852  1
  H  H9  1  0.36992274  0.24105522  0.33627014  1
  H  H10  1  0.54774376  0.81801374  0.23187379  1
  H  H11  1  0.43023983  0.36076274  0.25222654  1
  H  H12  1  0.76354297  0.29695432  0.57987196  1
  H  H13  1  0.63007726  0.75894478  0.66372986  1
  H  H14  1  0.27511064  0.18030907  0.45459211  1
  H  H15  1  0.00670811  0.64367061  0.13563200  1
  H  H16  1  0.56976017  0.63923726  0.74777346  1
  H  H17  1  0.86495942  0.60490107  0.43193780  1
  H  H18  1  0.64698289  0.62619339  0.57908338  1
  H  H19  1  0.58224687  0.23062581  0.54723129  1
  H  H20  1  0.63504058  0.39509893  0.93193780  1
  H  H21  1  0.42132593  0.69691793  0.66344148  1
  H  H22  1  0.04774376  0.81801374  0.26812621  1
  H  H23  1  0.93023983  0.36076274  0.24777346  1
  H  H24  1  0.26354297  0.29695432  0.92012804  1
  H  H25  1  0.50490785  0.61352986  0.20066960  1
  H  H26  1  0.99329189  0.35632939  0.86436800  1
  H  H27  1  0.72889779  0.64879444  0.98053618  1
  H  H28  1  0.99509215  0.38647014  0.70066960  1
  H  H29  1  0.18936713  0.19852630  0.54663214  1
  H  H30  1  0.06976017  0.63923726  0.75222654  1
  H  H31  1  0.13007726  0.75894478  0.83627014  1
  H  H32  1  0.36495942  0.60490107  0.06806220  1
  H  H33  1  0.45225624  0.18198626  0.76812621  1
  H  H34  1  0.14698289  0.62619339  0.92091662  1
  H  H35  1  0.68936713  0.19852630  0.95336786  1
  H  H36  1  0.22889779  0.64879444  0.51946382  1
  H  H37  1  0.91775313  0.76937419  0.04723129  1
  H  H38  1  0.13504058  0.39509893  0.56806220  1
  H  H39  1  0.41778215  0.16568071  0.67430716  1
  H  H40  1  0.58221785  0.83431929  0.32569284  1
  H  H41  1  0.22488936  0.81969093  0.95459211  1
  H  H42  1  0.49509215  0.38647014  0.79933040  1
  H  H43  1  0.86992274  0.24105522  0.16372986  1
  H  H44  1  0.95225624  0.18198626  0.73187379  1
  H  H45  1  0.23645703  0.70304568  0.42012804  1
  H  H46  1  0.07867407  0.30308207  0.16344148  1
  H  H47  1  0.85301711  0.37380661  0.07908338  1
  H  H48  1  0.31063287  0.80147270  0.04663214  1
  H  H49  1  0.35301711  0.37380661  0.42091662  1
  H  H50  1  0.77511064  0.18030907  0.04540789  1
  H  H51  1  0.08221785  0.83431929  0.17430716  1
  H  H52  1  0.57867407  0.30308207  0.33655852  1
  H  H53  1  0.00490785  0.61352986  0.29933040  1
  H  H54  1  0.72488936  0.81969093  0.54540789  1
  H  H55  1  0.41775313  0.76937419  0.45276871  1
  H  H56  1  0.81063287  0.80147270  0.45336786  1
  H  H57  1  0.73645703  0.70304568  0.07987196  1
  H  H58  1  0.27110221  0.35120556  0.01946382  1
  H  H59  1  0.91778215  0.16568071  0.82569284  1
  C  C60  1  0.74937909  0.59675342  0.50588869  1
  C  C61  1  0.25062091  0.40324658  0.49411131  1
  C  C62  1  0.24937909  0.59675342  0.99411131  1
  C  C63  1  0.49709383  0.39117713  0.71656582  1
  C  C64  1  0.75062091  0.40324658  0.00588869  1
  C  C65  1  0.00290617  0.60882287  0.21656582  1
  C  C66  1  0.99709383  0.39117713  0.78343418  1
  C  C67  1  0.50290617  0.60882287  0.28343418  1
  N  N68  1  0.74050107  0.42408271  0.51197667  1
  N  N69  1  0.17872305  0.32432477  0.53842090  1
  N  N70  1  0.66943393  0.33878565  0.55860644  1
  N  N71  1  0.96681790  0.34869887  0.16413943  1
  N  N72  1  0.31386381  0.31225791  0.45624289  1
  N  N73  1  0.95761091  0.43390008  0.21356108  1
  N  N74  1  0.53562221  0.70330105  0.32823775  1
  N  N75  1  0.75949893  0.57591729  0.01197667  1
  N  N76  1  0.33056607  0.66121435  0.44139356  1
  N  N77  1  0.46681790  0.34869887  0.33586057  1
  N  N78  1  0.45761091  0.43390008  0.28643892  1
  N  N79  1  0.01424407  0.68604661  0.26484400  1
  N  N80  1  0.51424407  0.68604661  0.23515600  1
  N  N81  1  0.46437779  0.29669895  0.67176225  1
  N  N82  1  0.16943393  0.33878565  0.94139356  1
  N  N83  1  0.24050107  0.42408271  0.98802333  1
  N  N84  1  0.54238909  0.56609992  0.71356108  1
  N  N85  1  0.68613619  0.68774209  0.54375711  1
  N  N86  1  0.03562221  0.70330105  0.17176225  1
  N  N87  1  0.18613619  0.68774209  0.95624289  1
  N  N88  1  0.04238909  0.56609992  0.78643892  1
  N  N89  1  0.82127695  0.67567523  0.46157910  1
  N  N90  1  0.25949893  0.57591729  0.48802333  1
  N  N91  1  0.81386381  0.31225791  0.04375711  1
  N  N92  1  0.67872305  0.32432477  0.96157910  1
  N  N93  1  0.53318210  0.65130113  0.66413943  1
  N  N94  1  0.32127695  0.67567523  0.03842090  1
  N  N95  1  0.83056607  0.66121435  0.05860644  1
  N  N96  1  0.03318210  0.65130113  0.83586057  1
  N  N97  1  0.48575593  0.31395339  0.76484400  1
  N  N98  1  0.96437779  0.29669895  0.82823775  1
  N  N99  1  0.98575593  0.31395339  0.73515600  1
  Cl  Cl100  1  0.79798024  0.94741213  0.93733801  1
  Cl  Cl101  1  0.88520287  0.01360723  0.62601602  1
  Cl  Cl102  1  0.97501102  0.43113981  0.37259109  1
  Cl  Cl103  1  0.25590711  0.08791214  0.21315708  1
  Cl  Cl104  1  0.74409289  0.91208786  0.78684292  1
  Cl  Cl105  1  0.38520287  0.01360723  0.87398398  1
  Cl  Cl106  1  0.61479713  0.98639277  0.12601602  1
  Cl  Cl107  1  0.11479713  0.98639277  0.37398398  1
  Cl  Cl108  1  0.24409289  0.91208786  0.71315708  1
  Cl  Cl109  1  0.02498898  0.56886019  0.62740891  1
  Cl  Cl110  1  0.29798024  0.94741213  0.56266199  1
  Cl  Cl111  1  0.70201976  0.05258787  0.43733801  1
  Cl  Cl112  1  0.52498898  0.56886019  0.87259109  1
  Cl  Cl113  1  0.47501102  0.43113981  0.12740891  1
  Cl  Cl114  1  0.75590711  0.08791214  0.28684292  1
  Cl  Cl115  1  0.20201976  0.05258787  0.06266199  1
