# generated using pymatgen
data_NpNiSn
_symmetry_space_group_name_H-M   'P 1'
_cell_length_a   4.49507659
_cell_length_b   7.18648434
_cell_length_c   7.42084556
_cell_angle_alpha   90.00232740
_cell_angle_beta   89.99964682
_cell_angle_gamma   90.00053515
_symmetry_Int_Tables_number   1
_chemical_formula_structural   NpNiSn
_chemical_formula_sum   'Np4 Ni4 Sn4'
_cell_volume   239.72149230
_cell_formula_units_Z   4
loop_
 _symmetry_equiv_pos_site_id
 _symmetry_equiv_pos_as_xyz
  1  'x, y, z'
loop_
 _atom_site_type_symbol
 _atom_site_label
 _atom_site_symmetry_multiplicity
 _atom_site_fract_x
 _atom_site_fract_y
 _atom_site_fract_z
 _atom_site_occupancy
  Np  Np0  1  0.24999939  0.47647879  0.81506919  1
  Np  Np1  1  0.25000449  0.97643707  0.68491762  1
  Np  Np2  1  0.74999544  0.02351998  0.31503737  1
  Np  Np3  1  0.75000394  0.52350995  0.18491754  1
  Ni  Ni4  1  0.24999893  0.70081993  0.41493081  1
  Ni  Ni5  1  0.74999898  0.79922036  0.91491537  1
  Ni  Ni6  1  0.74999658  0.29923004  0.58507181  1
  Ni  Ni7  1  0.25000156  0.20083365  0.08507496  1
  Sn  Sn8  1  0.25000281  0.82325493  0.08864758  1
  Sn  Sn9  1  0.74999752  0.17676346  0.91140667  1
  Sn  Sn10  1  0.75000027  0.67673621  0.58860603  1
  Sn  Sn11  1  0.25000007  0.32319562  0.41140505  1
