# generated using pymatgen
data_Er6I7
_symmetry_space_group_name_H-M   'P 1'
_cell_length_a   3.95072249
_cell_length_b   11.21498750
_cell_length_c   11.57823519
_cell_angle_alpha   66.32332122
_cell_angle_beta   80.17671601
_cell_angle_gamma   79.85523565
_symmetry_Int_Tables_number   1
_chemical_formula_structural   Er6I7
_chemical_formula_sum   'Er6 I7'
_cell_volume   459.62686244
_cell_formula_units_Z   1
loop_
 _symmetry_equiv_pos_site_id
 _symmetry_equiv_pos_as_xyz
  1  'x, y, z'
loop_
 _atom_site_type_symbol
 _atom_site_label
 _atom_site_symmetry_multiplicity
 _atom_site_fract_x
 _atom_site_fract_y
 _atom_site_fract_z
 _atom_site_occupancy
  Er  Er0  1  0.86769789  0.71142550  0.55317873  1
  Er  Er1  1  0.68771344  1.00051379  0.62405932  1
  Er  Er2  1  0.23664502  0.72079467  0.80591529  1
  Er  Er3  1  0.31228656  -0.00051379  0.37594068  1
  Er  Er4  1  0.76335498  0.27920533  0.19408471  1
  Er  Er5  1  0.13230211  0.28857450  0.44682127  1
  I  I6  1  0.38673907  0.15848371  0.06803815  1
  I  I7  1  0.83452738  0.49640974  0.83453550  1
  I  I8  1  0.16547262  0.50359026  0.16546450  1
  I  I9  1  0.61326093  0.84151629  0.93196185  1
  I  I10  1  0.94651470  0.83680996  0.27016064  1
  I  I11  1  0.50000000  0.50000000  0.50000000  1
  I  I12  1  0.05348530  0.16319004  0.72983936  1
