# generated using pymatgen
data_MnP2O7
_symmetry_space_group_name_H-M   'P 1'
_cell_length_a   6.26599096
_cell_length_b   10.94896292
_cell_length_c   9.66407832
_cell_angle_alpha   61.72391985
_cell_angle_beta   106.35419346
_cell_angle_gamma   94.80264979
_symmetry_Int_Tables_number   1
_chemical_formula_structural   MnP2O7
_chemical_formula_sum   'Mn4 P8 O28'
_cell_volume   559.30724245
_cell_formula_units_Z   4
loop_
 _symmetry_equiv_pos_site_id
 _symmetry_equiv_pos_as_xyz
  1  'x, y, z'
loop_
 _atom_site_type_symbol
 _atom_site_label
 _atom_site_symmetry_multiplicity
 _atom_site_fract_x
 _atom_site_fract_y
 _atom_site_fract_z
 _atom_site_occupancy
  Mn  Mn0  1  0.28580011  0.22815725  0.88651141  1
  Mn  Mn1  1  0.37777276  0.25089439  0.50080060  1
  Mn  Mn2  1  0.62101827  0.75412679  0.48951101  1
  Mn  Mn3  1  0.71409700  0.77615575  0.10400074  1
  P  P4  1  0.10089376  0.70317934  0.43769244  1
  P  P5  1  0.30294716  0.97105882  0.81317245  1
  P  P6  1  0.08306541  0.20629478  0.17531278  1
  P  P7  1  0.41094199  0.46616735  0.69136367  1
  P  P8  1  0.58818234  0.53856587  0.29954731  1
  P  P9  1  0.91663473  0.79811843  0.81485037  1
  P  P10  1  0.69693303  0.03341429  0.17710849  1
  P  P11  1  0.89806524  0.30159049  0.55295486  1
  O  O12  1  0.03659632  0.65717639  0.88342639  1
  O  O13  1  0.07124875  0.92428193  0.73358846  1
  O  O14  1  0.00038083  0.71872149  0.26537598  1
  O  O15  1  0.06213160  0.27821372  0.47648820  1
  O  O16  1  0.25816618  0.04638026  0.90274706  1
  O  O17  1  0.19516227  0.54242448  0.54337199  1
  O  O18  1  0.35007226  0.41892333  0.85309127  1
  O  O19  1  0.43778972  0.83223405  0.93614136  1
  O  O20  1  0.30551957  0.78746307  0.45150680  1
  O  O21  1  0.12609687  0.17607035  0.04561120  1
  O  O22  1  0.43297921  0.31893935  0.70216929  1
  O  O23  1  0.40029181  0.06046667  0.67135537  1
  O  O24  1  0.28747006  0.19234429  0.31219437  1
  O  O25  1  0.39278738  0.44898598  0.33484921  1
  O  O26  1  0.60595901  0.55603518  0.65577680  1
  O  O27  1  0.71164804  0.81293658  0.67790757  1
  O  O28  1  0.59858513  0.94446240  0.31852992  1
  O  O29  1  0.56609292  0.68603210  0.28808284  1
  O  O30  1  0.87482556  0.82725805  0.94566673  1
  O  O31  1  0.69331743  0.21749273  0.53867696  1
  O  O32  1  0.56268827  0.17234374  0.05365614  1
  O  O33  1  0.64955706  0.58524700  0.13811234  1
  O  O34  1  0.80342309  0.46234953  0.44815324  1
  O  O35  1  0.74230158  0.95779429  0.08803211  1
  O  O36  1  0.93659993  0.72723566  0.51351985  1
  O  O37  1  0.99899009  0.28520728  0.72561469  1
  O  O38  1  0.92848706  0.08021030  0.25690500  1
  O  O39  1  0.96271219  0.34737423  0.10537971  1
