# generated using pymatgen
data_BiBr3
_symmetry_space_group_name_H-M   'P 1'
_cell_length_a   7.29069216
_cell_length_b   8.26833009
_cell_length_c   10.24432719
_cell_angle_alpha   90.00000000
_cell_angle_beta   90.00000000
_cell_angle_gamma   108.22143838
_symmetry_Int_Tables_number   1
_chemical_formula_structural   BiBr3
_chemical_formula_sum   'Bi4 Br12'
_cell_volume   586.58016746
_cell_formula_units_Z   4
loop_
 _symmetry_equiv_pos_site_id
 _symmetry_equiv_pos_as_xyz
  1  'x, y, z'
loop_
 _atom_site_type_symbol
 _atom_site_label
 _atom_site_symmetry_multiplicity
 _atom_site_fract_x
 _atom_site_fract_y
 _atom_site_fract_z
 _atom_site_occupancy
  Bi  Bi0  1  0.02934235  0.16494795  0.81586379  1
  Bi  Bi1  1  0.97065765  0.33505205  0.31586379  1
  Bi  Bi2  1  0.97065765  0.83505205  0.18413621  1
  Bi  Bi3  1  0.02934235  0.66494795  0.68413621  1
  Br  Br4  1  0.31652230  0.96105978  0.75082776  1
  Br  Br5  1  0.68347770  0.53894022  0.25082776  1
  Br  Br6  1  0.68347770  0.03894022  0.24917224  1
  Br  Br7  1  0.78748118  0.83185551  0.59198518  1
  Br  Br8  1  0.78748118  0.33185551  0.90801482  1
  Br  Br9  1  0.31652230  0.46105978  0.74917224  1
  Br  Br10  1  0.21251882  0.16814449  0.40801482  1
  Br  Br11  1  0.20335320  0.18892749  0.05934860  1
  Br  Br12  1  0.79664680  0.31107251  0.55934860  1
  Br  Br13  1  0.20335320  0.68892749  0.44065140  1
  Br  Br14  1  0.21251882  0.66814449  0.09198518  1
  Br  Br15  1  0.79664680  0.81107251  0.94065140  1
