# generated using pymatgen
data_La2P3H7O11
_symmetry_space_group_name_H-M   'P 1'
_cell_length_a   8.14945268
_cell_length_b   8.83799363
_cell_length_c   9.68006008
_cell_angle_alpha   117.46821615
_cell_angle_beta   95.92359671
_cell_angle_gamma   107.89057432
_symmetry_Int_Tables_number   1
_chemical_formula_structural   La2P3H7O11
_chemical_formula_sum   'La4 P6 H14 O22'
_cell_volume   563.38816616
_cell_formula_units_Z   2
loop_
 _symmetry_equiv_pos_site_id
 _symmetry_equiv_pos_as_xyz
  1  'x, y, z'
loop_
 _atom_site_type_symbol
 _atom_site_label
 _atom_site_symmetry_multiplicity
 _atom_site_fract_x
 _atom_site_fract_y
 _atom_site_fract_z
 _atom_site_occupancy
  La  La0  1  0.40264268  0.20602033  0.64783213  1
  La  La1  1  0.16251735  0.23898733  0.99762196  1
  La  La2  1  0.83748265  0.76101267  0.00237804  1
  La  La3  1  0.59735732  0.79397967  0.35216787  1
  P  P4  1  0.01615309  0.17245485  0.34493095  1
  P  P5  1  0.98384691  0.82754515  0.65506905  1
  P  P6  1  0.83380066  0.27097229  0.74045112  1
  P  P7  1  0.16619934  0.72902771  0.25954888  1
  P  P8  1  0.60585250  0.39223647  0.09909661  1
  P  P9  1  0.39414750  0.60776353  0.90090339  1
  H  H10  1  0.67237015  0.41179877  0.52555176  1
  H  H11  1  0.47498576  0.35204269  0.43068254  1
  H  H12  1  0.71603946  0.31924689  0.14661447  1
  H  H13  1  0.62800585  0.83630515  0.79308684  1
  H  H14  1  0.94744264  0.31197812  0.40427966  1
  H  H15  1  0.32762985  0.58820123  0.47444824  1
  H  H16  1  0.42257469  0.99625770  0.13170595  1
  H  H17  1  0.52501424  0.64795731  0.56931746  1
  H  H18  1  0.03291944  0.71183014  0.33874081  1
  H  H19  1  0.96708056  0.28816986  0.66125919  1
  H  H20  1  0.57742531  0.00374230  0.86829405  1
  H  H21  1  0.28396054  0.68075311  0.85338553  1
  H  H22  1  0.05255736  0.68802188  0.59572034  1
  H  H23  1  0.37199415  0.16369485  0.20691316  1
  O  O24  1  0.47900963  0.42983879  0.20936654  1
  O  O25  1  0.96061933  0.85962848  0.82199540  1
  O  O26  1  0.21986240  0.56287153  0.21445484  1
  O  O27  1  0.90963860  0.25889652  0.88413534  1
  O  O28  1  0.33505629  0.90763378  0.38617531  1
  O  O29  1  0.49401567  0.24889053  0.92054429  1
  O  O30  1  0.80607030  0.75471973  0.52915165  1
  O  O31  1  0.64164490  0.94071238  0.89743055  1
  O  O32  1  0.44275854  0.69457870  0.53768186  1
  O  O33  1  0.35835510  0.05928762  0.10256945  1
  O  O34  1  0.78013760  0.43712847  0.78554516  1
  O  O35  1  0.55724146  0.30542130  0.46231814  1
  O  O36  1  0.27222324  0.41540775  0.86700534  1
  O  O37  1  0.13189166  0.00866465  0.68670767  1
  O  O38  1  0.72777676  0.58459225  0.13299466  1
  O  O39  1  0.50598433  0.75110947  0.07945571  1
  O  O40  1  0.52099037  0.57016121  0.79063346  1
  O  O41  1  0.09036140  0.74110348  0.11586466  1
  O  O42  1  0.66494371  0.09236622  0.61382469  1
  O  O43  1  0.86810834  0.99133535  0.31329233  1
  O  O44  1  0.03938067  0.14037152  0.17800460  1
  O  O45  1  0.19392970  0.24528027  0.47084835  1
