# generated using pymatgen
data_Ce5(SiN3)3
_symmetry_space_group_name_H-M   'P 1'
_cell_length_a   7.71810468
_cell_length_b   7.71810556
_cell_length_c   15.74858626
_cell_angle_alpha   90.00000000
_cell_angle_beta   90.00000000
_cell_angle_gamma   93.61945711
_symmetry_Int_Tables_number   1
_chemical_formula_structural   Ce5(SiN3)3
_chemical_formula_sum   'Ce20 Si12 N36'
_cell_volume   936.25860153
_cell_formula_units_Z   4
loop_
 _symmetry_equiv_pos_site_id
 _symmetry_equiv_pos_as_xyz
  1  'x, y, z'
loop_
 _atom_site_type_symbol
 _atom_site_label
 _atom_site_symmetry_multiplicity
 _atom_site_fract_x
 _atom_site_fract_y
 _atom_site_fract_z
 _atom_site_occupancy
  Ce  Ce0  1  0.01478072  0.98521928  0.66142768  1
  Ce  Ce1  1  0.99429557  0.00570443  0.88815066  1
  Ce  Ce2  1  0.98521928  0.01478072  0.33857232  1
  Ce  Ce3  1  0.70477368  0.70477368  0.00000000  1
  Ce  Ce4  1  0.95571819  0.46863237  0.62793553  1
  Ce  Ce5  1  0.79522632  0.79522632  0.50000000  1
  Ce  Ce6  1  0.51478072  0.48521928  0.83857232  1
  Ce  Ce7  1  0.50570443  0.49429557  0.38815066  1
  Ce  Ce8  1  0.29522632  0.29522632  0.00000000  1
  Ce  Ce9  1  0.48521928  0.51478072  0.16142768  1
  Ce  Ce10  1  0.54428181  0.03136763  0.12793553  1
  Ce  Ce11  1  0.49429557  0.50570443  0.61184934  1
  Ce  Ce12  1  0.03136763  0.54428181  0.87206447  1
  Ce  Ce13  1  0.46863237  0.95571819  0.37206447  1
  Ce  Ce14  1  0.20477368  0.20477368  0.50000000  1
  Ce  Ce15  1  0.96863237  0.45571819  0.12793553  1
  Ce  Ce16  1  0.00570443  0.99429557  0.11184934  1
  Ce  Ce17  1  0.04428181  0.53136763  0.37206447  1
  Ce  Ce18  1  0.53136763  0.04428181  0.62793553  1
  Ce  Ce19  1  0.45571819  0.96863237  0.87206447  1
  Si  Si20  1  0.72681402  0.27318598  0.27305914  1
  Si  Si21  1  0.27318598  0.72681402  0.72694086  1
  Si  Si22  1  0.76041714  0.23958286  0.98394741  1
  Si  Si23  1  0.71595420  0.78404580  0.75000000  1
  Si  Si24  1  0.23958286  0.76041714  0.01605259  1
  Si  Si25  1  0.26041714  0.73958286  0.51605259  1
  Si  Si26  1  0.73958286  0.26041714  0.48394741  1
  Si  Si27  1  0.77318598  0.22681402  0.77305914  1
  Si  Si28  1  0.21595420  0.28404580  0.75000000  1
  Si  Si29  1  0.78404580  0.71595420  0.25000000  1
  Si  Si30  1  0.28404580  0.21595420  0.25000000  1
  Si  Si31  1  0.22681402  0.77318598  0.22694086  1
  N  N32  1  0.98759784  0.27798116  0.99861446  1
  N  N33  1  0.74345889  0.00691664  0.75840082  1
  N  N34  1  0.63580572  0.36419428  0.05028241  1
  N  N35  1  0.30373873  0.22624766  0.84670731  1
  N  N36  1  0.65605261  0.34394739  0.70285428  1
  N  N37  1  0.27375234  0.19626127  0.65329269  1
  N  N38  1  0.19626127  0.27375234  0.34670731  1
  N  N39  1  0.34394739  0.65605261  0.29714572  1
  N  N40  1  0.72201884  0.01240216  0.99861446  1
  N  N41  1  0.15605261  0.84394739  0.79714572  1
  N  N42  1  0.25654111  0.99308336  0.24159918  1
  N  N43  1  0.72262285  0.27737715  0.87648689  1
  N  N44  1  0.27737715  0.72262285  0.12351311  1
  N  N45  1  0.80373873  0.72624766  0.65329269  1
  N  N46  1  0.00691664  0.74345889  0.24159918  1
  N  N47  1  0.13580572  0.86419428  0.44971759  1
  N  N48  1  0.69626127  0.77375234  0.15329269  1
  N  N49  1  0.50691664  0.24345889  0.25840082  1
  N  N50  1  0.01240216  0.72201884  0.00138554  1
  N  N51  1  0.77737715  0.22262285  0.37648689  1
  N  N52  1  0.49308336  0.75654111  0.74159918  1
  N  N53  1  0.72624766  0.80373873  0.34670731  1
  N  N54  1  0.51240216  0.22201884  0.49861446  1
  N  N55  1  0.75654111  0.49308336  0.25840082  1
  N  N56  1  0.22624766  0.30373873  0.15329269  1
  N  N57  1  0.36419428  0.63580572  0.94971759  1
  N  N58  1  0.24345889  0.50691664  0.74159918  1
  N  N59  1  0.22201884  0.51240216  0.50138554  1
  N  N60  1  0.27798116  0.98759784  0.00138554  1
  N  N61  1  0.77375234  0.69626127  0.84670731  1
  N  N62  1  0.99308336  0.25654111  0.75840082  1
  N  N63  1  0.84394739  0.15605261  0.20285428  1
  N  N64  1  0.77798116  0.48759784  0.49861446  1
  N  N65  1  0.48759784  0.77798116  0.50138554  1
  N  N66  1  0.22262285  0.77737715  0.62351311  1
  N  N67  1  0.86419428  0.13580572  0.55028241  1
