# generated using pymatgen
data_Ba(H2O3)2
_symmetry_space_group_name_H-M   'P 1'
_cell_length_a   6.12170548
_cell_length_b   6.18128052
_cell_length_c   6.63260445
_cell_angle_alpha   84.41303561
_cell_angle_beta   93.03326457
_cell_angle_gamma   85.62836031
_symmetry_Int_Tables_number   1
_chemical_formula_structural   Ba(H2O3)2
_chemical_formula_sum   'Ba2 H8 O12'
_cell_volume   248.59784581
_cell_formula_units_Z   2
loop_
 _symmetry_equiv_pos_site_id
 _symmetry_equiv_pos_as_xyz
  1  'x, y, z'
loop_
 _atom_site_type_symbol
 _atom_site_label
 _atom_site_symmetry_multiplicity
 _atom_site_fract_x
 _atom_site_fract_y
 _atom_site_fract_z
 _atom_site_occupancy
  Ba  Ba0  1  0.83626889  0.81431060  0.74330477  1
  Ba  Ba1  1  0.12481295  0.22156623  0.19061971  1
  H  H2  1  0.09965438  0.67454956  0.27627465  1
  H  H3  1  0.33545816  0.05692688  0.76451676  1
  H  H4  1  0.35292341  0.74604413  0.01095094  1
  H  H5  1  0.49710682  0.07025038  0.47187890  1
  H  H6  1  0.63180039  0.27901936  0.91134998  1
  H  H7  1  0.29346746  0.69184065  0.54932713  1
  H  H8  1  0.94964054  0.36706862  0.62765204  1
  H  H9  1  0.65332990  0.94887509  0.19426609  1
  O  O10  1  0.06242300  0.76918265  0.12513013  1
  O  O11  1  0.75021037  0.00187057  0.32010676  1
  O  O12  1  0.92864049  0.23612438  0.81615272  1
  O  O13  1  0.24139771  0.99788834  0.61262434  1
  O  O14  1  0.21723619  0.64968995  0.00241800  1
  O  O15  1  0.59258565  0.16508032  0.39357648  1
  O  O16  1  0.76039016  0.37351398  0.91229321  1
  O  O17  1  0.39863466  0.80852145  0.58443819  1
  O  O18  1  0.15510720  0.54098607  0.44728946  1
  O  O19  1  0.44140889  0.10695747  0.91098784  1
  O  O20  1  0.93128809  0.47897483  0.49205476  1
  O  O21  1  0.52600969  0.89517650  0.02757615  1
