# generated using pymatgen
data_Ba3Co10O17
_symmetry_space_group_name_H-M   'P 1'
_cell_length_a   12.57595741
_cell_length_b   12.57595757
_cell_length_c   12.57595708
_cell_angle_alpha   26.30368697
_cell_angle_beta   26.30368556
_cell_angle_gamma   26.30368506
_symmetry_Int_Tables_number   1
_chemical_formula_structural   Ba3Co10O17
_chemical_formula_sum   'Ba3 Co10 O17'
_cell_volume   344.16678497
_cell_formula_units_Z   1
loop_
 _symmetry_equiv_pos_site_id
 _symmetry_equiv_pos_as_xyz
  1  'x, y, z'
loop_
 _atom_site_type_symbol
 _atom_site_label
 _atom_site_symmetry_multiplicity
 _atom_site_fract_x
 _atom_site_fract_y
 _atom_site_fract_z
 _atom_site_occupancy
  Ba  Ba0  1  0.60153154  0.60153154  0.60153154  1
  Ba  Ba1  1  0.39846846  0.39846846  0.39846846  1
  Ba  Ba2  1  0.00000000  0.00000000  0.00000000  1
  Co  Co3  1  0.50000000  0.00000000  0.00000000  1
  Co  Co4  1  0.76815547  0.76815547  0.76815547  1
  Co  Co5  1  0.30462967  0.30462967  0.30462967  1
  Co  Co6  1  0.69537033  0.69537033  0.69537033  1
  Co  Co7  1  0.23184453  0.23184453  0.23184453  1
  Co  Co8  1  0.00000000  0.00000000  0.50000000  1
  Co  Co9  1  0.08810798  0.08810798  0.08810798  1
  Co  Co10  1  0.91189202  0.91189202  0.91189202  1
  Co  Co11  1  0.00000000  0.50000000  0.00000000  1
  Co  Co12  1  0.50000000  0.50000000  0.50000000  1
  O  O13  1  0.35256957  0.35256957  0.88327517  1
  O  O14  1  0.14054363  0.14054363  0.14054363  1
  O  O15  1  0.64743043  0.64743043  0.11672483  1
  O  O16  1  0.64743043  0.11672483  0.64743043  1
  O  O17  1  0.88327517  0.35256957  0.35256957  1
  O  O18  1  0.43212383  0.88766901  0.88766901  1
  O  O19  1  0.88766901  0.88766901  0.43212383  1
  O  O20  1  0.50000000  0.50000000  0.00000000  1
  O  O21  1  0.00000000  0.50000000  0.50000000  1
  O  O22  1  0.11233099  0.11233099  0.56787617  1
  O  O23  1  0.56787617  0.11233099  0.11233099  1
  O  O24  1  0.35256957  0.88327517  0.35256957  1
  O  O25  1  0.11672483  0.64743043  0.64743043  1
  O  O26  1  0.88766901  0.43212383  0.88766901  1
  O  O27  1  0.50000000  0.00000000  0.50000000  1
  O  O28  1  0.85945637  0.85945637  0.85945637  1
  O  O29  1  0.11233099  0.56787617  0.11233099  1
