# generated using pymatgen
data_Sr(H8O5)2
_symmetry_space_group_name_H-M   'P 1'
_cell_length_a   6.48935737
_cell_length_b   6.48935737
_cell_length_c   11.71760673
_cell_angle_alpha   90.73381306
_cell_angle_beta   89.26618694
_cell_angle_gamma   86.97486505
_symmetry_Int_Tables_number   1
_chemical_formula_structural   Sr(H8O5)2
_chemical_formula_sum   'Sr2 H32 O20'
_cell_volume   492.67606558
_cell_formula_units_Z   2
loop_
 _symmetry_equiv_pos_site_id
 _symmetry_equiv_pos_as_xyz
  1  'x, y, z'
loop_
 _atom_site_type_symbol
 _atom_site_label
 _atom_site_symmetry_multiplicity
 _atom_site_fract_x
 _atom_site_fract_y
 _atom_site_fract_z
 _atom_site_occupancy
  Sr  Sr0  1  0.00271472  0.97335634  0.25692213  1
  Sr  Sr1  1  0.02664366  0.99728528  0.75692213  1
  H  H2  1  0.07441008  0.41790993  0.36059391  1
  H  H3  1  0.16183001  0.26997091  0.45459904  1
  H  H4  1  0.73402062  0.62010059  0.35039665  1
  H  H5  1  0.85169274  0.70143773  0.45911827  1
  H  H6  1  0.60476316  0.07165341  0.41230838  1
  H  H7  1  0.59701014  0.28761581  0.34820731  1
  H  H8  1  0.37473235  0.95786942  0.35899626  1
  H  H9  1  0.40991431  0.68655986  0.34737698  1
  H  H10  1  0.92834659  0.39523684  0.91230838  1
  H  H11  1  0.71238419  0.40298986  0.84820731  1
  H  H12  1  0.31344014  0.59008569  0.84737698  1
  H  H13  1  0.04213058  0.62526765  0.85899626  1
  H  H14  1  0.37989941  0.26597938  0.85039665  1
  H  H15  1  0.29856227  0.14830726  0.95911827  1
  H  H16  1  0.58209007  0.92558992  0.86059391  1
  H  H17  1  0.73002909  0.83816999  0.95459904  1
  H  H18  1  0.94748691  0.61538035  0.62525874  1
  H  H19  1  0.70708672  0.62537068  0.65509036  1
  H  H20  1  0.26549997  0.36520305  0.64158786  1
  H  H21  1  0.02053387  0.32112189  0.61174652  1
  H  H22  1  0.36360300  0.69254178  0.64486062  1
  H  H23  1  0.29464191  0.81928687  0.53097232  1
  H  H24  1  0.65406891  0.08335880  0.59836315  1
  H  H25  1  0.63139767  0.30252653  0.66192032  1
  H  H26  1  0.30745822  0.63639700  0.14486062  1
  H  H27  1  0.18071313  0.70535809  0.03097232  1
  H  H28  1  0.91664120  0.34593109  0.09836315  1
  H  H29  1  0.69747347  0.36860233  0.16192032  1
  H  H30  1  0.67887811  0.97946613  0.11174652  1
  H  H31  1  0.63479695  0.73450003  0.14158786  1
  H  H32  1  0.38461965  0.05251309  0.12525874  1
  H  H33  1  0.37462932  0.29291328  0.15509036  1
  O  O34  1  0.52650909  0.53473002  0.31939041  1
  O  O35  1  0.46526998  0.47349091  0.81939041  1
  O  O36  1  0.47710996  0.47876202  0.69257616  1
  O  O37  1  0.52123798  0.52289004  0.19257616  1
  O  O38  1  0.13382910  0.27757040  0.37162973  1
  O  O39  1  0.87053168  0.68123950  0.37598848  1
  O  O40  1  0.64833359  0.13738496  0.34249555  1
  O  O41  1  0.30418623  0.83388101  0.37951826  1
  O  O42  1  0.86261504  0.35166641  0.84249555  1
  O  O43  1  0.16611899  0.69581377  0.87951826  1
  O  O44  1  0.31876050  0.12946832  0.87598848  1
  O  O45  1  0.72242960  0.86617090  0.87162973  1
  O  O46  1  0.82177313  0.70398849  0.62117733  1
  O  O47  1  0.16424678  0.26964965  0.60504760  1
  O  O48  1  0.27922346  0.81533610  0.61588138  1
  O  O49  1  0.73765903  0.18600503  0.63484828  1
  O  O50  1  0.18466390  0.72077654  0.11588138  1
  O  O51  1  0.81399497  0.26234097  0.13484828  1
  O  O52  1  0.73035035  0.83575322  0.10504760  1
  O  O53  1  0.29601151  0.17822687  0.12117733  1
