# generated using pymatgen
data_LaFe12O19
_symmetry_space_group_name_H-M   'P 1'
_cell_length_a   5.98872005
_cell_length_b   5.98872018
_cell_length_c   23.11900591
_cell_angle_alpha   90.00000000
_cell_angle_beta   90.00000000
_cell_angle_gamma   119.07593092
_symmetry_Int_Tables_number   1
_chemical_formula_structural   LaFe12O19
_chemical_formula_sum   'La2 Fe24 O38'
_cell_volume   724.66438577
_cell_formula_units_Z   2
loop_
 _symmetry_equiv_pos_site_id
 _symmetry_equiv_pos_as_xyz
  1  'x, y, z'
loop_
 _atom_site_type_symbol
 _atom_site_label
 _atom_site_symmetry_multiplicity
 _atom_site_fract_x
 _atom_site_fract_y
 _atom_site_fract_z
 _atom_site_occupancy
  La  La0  1  0.36238669  0.63761331  0.75000000  1
  La  La1  1  0.63761331  0.36238669  0.25000000  1
  Fe  Fe2  1  0.33535141  0.66464859  0.02790542  1
  Fe  Fe3  1  0.33535141  0.66464859  0.47209458  1
  Fe  Fe4  1  0.67019878  0.32980122  0.81026005  1
  Fe  Fe5  1  0.66464859  0.33535141  0.52790542  1
  Fe  Fe6  1  0.33303717  0.16862265  0.10893211  1
  Fe  Fe7  1  0.00143148  0.99856852  0.75000000  1
  Fe  Fe8  1  0.99856852  0.00143148  0.25000000  1
  Fe  Fe9  1  0.16999815  0.83000185  0.61032262  1
  Fe  Fe10  1  0.83000185  0.16999815  0.11032262  1
  Fe  Fe11  1  0.16862265  0.33303717  0.89106789  1
  Fe  Fe12  1  0.83137735  0.66696283  0.39106789  1
  Fe  Fe13  1  0.66464859  0.33535141  0.97209458  1
  Fe  Fe14  1  0.33303717  0.16862265  0.39106789  1
  Fe  Fe15  1  0.32980122  0.67019878  0.18973995  1
  Fe  Fe16  1  0.16862265  0.33303717  0.60893211  1
  Fe  Fe17  1  0.00000000  0.00000000  0.00000000  1
  Fe  Fe18  1  0.16999815  0.83000185  0.88967738  1
  Fe  Fe19  1  0.66696283  0.83137735  0.60893211  1
  Fe  Fe20  1  0.83137735  0.66696283  0.10893211  1
  Fe  Fe21  1  0.00000000  0.00000000  0.50000000  1
  Fe  Fe22  1  0.67019878  0.32980122  0.68973995  1
  Fe  Fe23  1  0.83000185  0.16999815  0.38967738  1
  Fe  Fe24  1  0.66696283  0.83137735  0.89106789  1
  Fe  Fe25  1  0.32980122  0.67019878  0.31026005  1
  O  O26  1  0.36226928  0.21342148  0.75000000  1
  O  O27  1  0.49537921  0.50462079  0.84715602  1
  O  O28  1  0.85174410  0.69383718  0.94520630  1
  O  O29  1  0.49061395  0.97504154  0.65705378  1
  O  O30  1  0.84615804  0.15384196  0.55582652  1
  O  O31  1  0.02495846  0.50938605  0.65705378  1
  O  O32  1  0.50462079  0.49537921  0.15284398  1
  O  O33  1  0.69383718  0.85174410  0.44520630  1
  O  O34  1  0.81586833  0.18413167  0.75000000  1
  O  O35  1  0.18413167  0.81586833  0.25000000  1
  O  O36  1  0.78657852  0.63773072  0.75000000  1
  O  O37  1  0.99872470  0.00127530  0.15492334  1
  O  O38  1  0.21342148  0.36226928  0.25000000  1
  O  O39  1  0.14825590  0.30616282  0.05479370  1
  O  O40  1  0.50938605  0.02495846  0.34294622  1
  O  O41  1  0.00127530  0.99872470  0.65492334  1
  O  O42  1  0.50462079  0.49537921  0.34715602  1
  O  O43  1  0.30616282  0.14825590  0.94520630  1
  O  O44  1  0.99872470  0.00127530  0.34507666  1
  O  O45  1  0.15384196  0.84615804  0.44417348  1
  O  O46  1  0.66461635  0.33538365  0.05871997  1
  O  O47  1  0.30616282  0.14825590  0.55479370  1
  O  O48  1  0.97504154  0.49061395  0.15705378  1
  O  O49  1  0.00127530  0.99872470  0.84507666  1
  O  O50  1  0.66461635  0.33538365  0.44128003  1
  O  O51  1  0.50938605  0.02495846  0.15705378  1
  O  O52  1  0.63773072  0.78657852  0.25000000  1
  O  O53  1  0.14825590  0.30616282  0.44520630  1
  O  O54  1  0.33538365  0.66461635  0.55871997  1
  O  O55  1  0.97504154  0.49061395  0.34294622  1
  O  O56  1  0.84615804  0.15384196  0.94417348  1
  O  O57  1  0.33538365  0.66461635  0.94128003  1
  O  O58  1  0.85174410  0.69383718  0.55479370  1
  O  O59  1  0.69383718  0.85174410  0.05479370  1
  O  O60  1  0.49061395  0.97504154  0.84294622  1
  O  O61  1  0.15384196  0.84615804  0.05582652  1
  O  O62  1  0.49537921  0.50462079  0.65284398  1
  O  O63  1  0.02495846  0.50938605  0.84294622  1
