# generated using pymatgen
data_H8PtO6
_symmetry_space_group_name_H-M   'P 1'
_cell_length_a   5.61149662
_cell_length_b   5.72181573
_cell_length_c   7.35410652
_cell_angle_alpha   87.23899633
_cell_angle_beta   91.57988831
_cell_angle_gamma   98.49394620
_symmetry_Int_Tables_number   1
_chemical_formula_structural   H8PtO6
_chemical_formula_sum   'H16 Pt2 O12'
_cell_volume   233.21422321
_cell_formula_units_Z   2
loop_
 _symmetry_equiv_pos_site_id
 _symmetry_equiv_pos_as_xyz
  1  'x, y, z'
loop_
 _atom_site_type_symbol
 _atom_site_label
 _atom_site_symmetry_multiplicity
 _atom_site_fract_x
 _atom_site_fract_y
 _atom_site_fract_z
 _atom_site_occupancy
  H  H0  1  0.01496099  0.01741045  0.52995280  1
  H  H1  1  0.15530766  0.14968752  0.72084278  1
  H  H2  1  0.08431290  0.10030234  0.98487816  1
  H  H3  1  0.86711745  0.81114660  0.30099815  1
  H  H4  1  0.86767083  0.80780300  0.98942033  1
  H  H5  1  0.52462120  0.44647865  0.51236159  1
  H  H6  1  0.46027078  0.56997845  0.00329145  1
  H  H7  1  0.39247297  0.74338230  0.42639054  1
  H  H8  1  0.77633852  0.41168487  0.90817867  1
  H  H9  1  0.12003936  0.59553838  0.82210350  1
  H  H10  1  0.57162348  0.85469022  0.70419824  1
  H  H11  1  0.62616507  0.19331767  0.61599366  1
  H  H12  1  0.16135296  0.52797218  0.16111193  1
  H  H13  1  0.87954161  0.38317101  0.15034302  1
  H  H14  1  0.51284595  0.15227404  0.35064882  1
  H  H15  1  0.24337747  0.05735947  0.28271849  1
  Pt  Pt16  1  0.00377138  0.48419579  0.50382628  1
  Pt  Pt17  1  0.51748760  0.01975347  0.00355289  1
  O  O18  1  0.12126484  0.16776309  0.57634336  1
  O  O19  1  0.22449427  0.15800226  0.90740427  1
  O  O20  1  0.89554562  0.79616188  0.43634286  1
  O  O21  1  0.83235468  0.90764159  0.08725844  1
  O  O22  1  0.64583590  0.32098729  0.50087626  1
  O  O23  1  0.34015453  0.68148848  0.00065060  1
  O  O24  1  0.35635632  0.61786889  0.52224099  1
  O  O25  1  0.68373016  0.35981269  0.02339893  1
  O  O26  1  0.95872879  0.56064590  0.76142753  1
  O  O27  1  0.63395010  0.01068621  0.75183360  1
  O  O28  1  0.04362013  0.40828909  0.23317849  1
  O  O29  1  0.41109147  0.02728419  0.27397938  1
