# generated using pymatgen
data_Sr(H8O5)2
_symmetry_space_group_name_H-M   'P 1'
_cell_length_a   6.53544652
_cell_length_b   6.53544652
_cell_length_c   11.40971358
_cell_angle_alpha   85.90940696
_cell_angle_beta   85.90940696
_cell_angle_gamma   84.07266706
_symmetry_Int_Tables_number   1
_chemical_formula_structural   Sr(H8O5)2
_chemical_formula_sum   'Sr2 H32 O20'
_cell_volume   482.48610414
_cell_formula_units_Z   2
loop_
 _symmetry_equiv_pos_site_id
 _symmetry_equiv_pos_as_xyz
  1  'x, y, z'
loop_
 _atom_site_type_symbol
 _atom_site_label
 _atom_site_symmetry_multiplicity
 _atom_site_fract_x
 _atom_site_fract_y
 _atom_site_fract_z
 _atom_site_occupancy
  Sr  Sr0  1  0.02527055  0.00199054  0.25349397  1
  Sr  Sr1  1  0.00199054  0.02527055  0.75349397  1
  H  H2  1  0.25426231  0.38637299  0.33794274  1
  H  H3  1  0.12220158  0.30290516  0.44906642  1
  H  H4  1  0.91290984  0.57791969  0.34775272  1
  H  H5  1  0.86869765  0.68252020  0.46781153  1
  H  H6  1  0.63722415  0.02680308  0.38411047  1
  H  H7  1  0.61451977  0.27954768  0.35793219  1
  H  H8  1  0.40898950  0.96262976  0.34696576  1
  H  H9  1  0.40618197  0.70864613  0.35906527  1
  H  H10  1  0.96262976  0.40898950  0.84696576  1
  H  H11  1  0.70864613  0.40618197  0.85906527  1
  H  H12  1  0.27954768  0.61451977  0.85793219  1
  H  H13  1  0.02680308  0.63722415  0.88411047  1
  H  H14  1  0.38637299  0.25426231  0.83794274  1
  H  H15  1  0.30290516  0.12220158  0.94906642  1
  H  H16  1  0.57791969  0.91290984  0.84775272  1
  H  H17  1  0.68252020  0.86869765  0.96781153  1
  H  H18  1  0.68501122  0.58407525  0.68126745  1
  H  H19  1  0.01774484  0.71116343  0.61036388  1
  H  H20  1  0.02177909  0.45023270  0.61060175  1
  H  H21  1  0.26599396  0.34787047  0.62356276  1
  H  H22  1  0.37588317  0.72296960  0.64811782  1
  H  H23  1  0.30120280  0.85610482  0.53410246  1
  H  H24  1  0.62378999  0.28219439  0.64888774  1
  H  H25  1  0.69086140  0.13910255  0.54575546  1
  H  H26  1  0.28219439  0.62378999  0.14888774  1
  H  H27  1  0.13910255  0.69086140  0.04575546  1
  H  H28  1  0.72296960  0.37588317  0.14811782  1
  H  H29  1  0.85610482  0.30120280  0.03410246  1
  H  H30  1  0.71116343  0.01774484  0.11036388  1
  H  H31  1  0.58407525  0.68501122  0.18126745  1
  H  H32  1  0.34787047  0.26599396  0.12356276  1
  H  H33  1  0.45023270  0.02177909  0.11060175  1
  O  O34  1  0.48038969  0.49687783  0.31999653  1
  O  O35  1  0.49687783  0.48038969  0.81999653  1
  O  O36  1  0.54346606  0.52546638  0.69209317  1
  O  O37  1  0.52546638  0.54346606  0.19209317  1
  O  O38  1  0.12898254  0.31028096  0.36131603  1
  O  O39  1  0.86580548  0.71301821  0.37936808  1
  O  O40  1  0.70757011  0.15084138  0.38524703  1
  O  O41  1  0.33136648  0.85332941  0.38253517  1
  O  O42  1  0.85332941  0.33136648  0.88253517  1
  O  O43  1  0.15084138  0.70757011  0.88524703  1
  O  O44  1  0.31028096  0.12898254  0.86131603  1
  O  O45  1  0.71301821  0.86580548  0.87936808  1
  O  O46  1  0.90002178  0.62839795  0.60915378  1
  O  O47  1  0.13130641  0.30618240  0.60882833  1
  O  O48  1  0.26817858  0.83106137  0.62043990  1
  O  O49  1  0.68354706  0.14100167  0.63242457  1
  O  O50  1  0.14100167  0.68354706  0.13242457  1
  O  O51  1  0.83106137  0.26817858  0.12043990  1
  O  O52  1  0.62839795  0.90002178  0.10915378  1
  O  O53  1  0.30618240  0.13130641  0.10882833  1
