# generated using pymatgen
data_H5IO6
_symmetry_space_group_name_H-M   'P 1'
_cell_length_a   5.52863514
_cell_length_b   18.69340865
_cell_length_c   4.94905304
_cell_angle_alpha   89.23364717
_cell_angle_beta   111.84889903
_cell_angle_gamma   91.62775248
_symmetry_Int_Tables_number   1
_chemical_formula_structural   H5IO6
_chemical_formula_sum   'H20 I4 O24'
_cell_volume   474.54578166
_cell_formula_units_Z   4
loop_
 _symmetry_equiv_pos_site_id
 _symmetry_equiv_pos_as_xyz
  1  'x, y, z'
loop_
 _atom_site_type_symbol
 _atom_site_label
 _atom_site_symmetry_multiplicity
 _atom_site_fract_x
 _atom_site_fract_y
 _atom_site_fract_z
 _atom_site_occupancy
  H  H0  1  0.03755941  0.51590543  0.73346440  1
  H  H1  1  0.75383912  0.95726549  0.13365481  1
  H  H2  1  0.71444619  0.44215055  0.37879373  1
  H  H3  1  0.37087254  0.00217325  0.67586212  1
  H  H4  1  0.86972569  0.52243533  0.15804356  1
  H  H5  1  0.24206314  0.88995210  0.53441579  1
  H  H6  1  0.23973072  0.38482051  0.94830977  1
  H  H7  1  0.63044614  0.03878862  0.34099979  1
  H  H8  1  0.37302608  0.52829504  0.41096596  1
  H  H9  1  0.15195165  0.04313467  0.05938886  1
  H  H10  1  0.11669098  0.72627530  0.32546779  1
  H  H11  1  0.85860811  0.83197076  0.04968203  1
  H  H12  1  0.85434896  0.30532110  0.54907878  1
  H  H13  1  0.38995957  0.19769571  0.07885136  1
  H  H14  1  0.40660941  0.67028941  0.76078977  1
  H  H15  1  0.90085597  0.13667998  0.47146577  1
  H  H16  1  0.89084546  0.73032854  0.82913604  1
  H  H17  1  0.53335304  0.79567287  0.18380689  1
  H  H18  1  0.08898904  0.29091317  0.25540326  1
  H  H19  1  0.64624612  0.22716727  0.74482434  1
  I  I20  1  0.16361326  0.62114068  0.03891064  1
  I  I21  1  0.71971241  0.88703573  0.56366761  1
  I  I22  1  0.76316849  0.37917504  0.93432368  1
  I  I23  1  0.34508674  0.12676654  0.48534187  1
  O  O24  1  0.13892110  0.55992884  0.72273818  1
  O  O25  1  0.65096439  0.96358441  0.26111431  1
  O  O26  1  0.79691391  0.45390946  0.22132182  1
  O  O27  1  0.37830604  0.05214782  0.76356757  1
  O  O28  1  0.87831639  0.57699962  0.09036688  1
  O  O29  1  0.40682721  0.92227736  0.60934432  1
  O  O30  1  0.09375476  0.41908616  0.94751734  1
  O  O31  1  0.62617909  0.09354659  0.38526009  1
  O  O32  1  0.43574746  0.56686342  0.31475570  1
  O  O33  1  0.91363970  0.94622112  0.85441300  1
  O  O34  1  0.60930098  0.43676443  0.61617291  1
  O  O35  1  0.08411567  0.07136916  0.18312211  1
  O  O36  1  0.23485008  0.68602892  0.36674793  1
  O  O37  1  0.75501222  0.80994084  0.85515210  1
  O  O38  1  0.80534578  0.29390390  0.72363322  1
  O  O39  1  0.33212077  0.20888816  0.24164297  1
  O  O40  1  0.44238095  0.67259842  0.97330254  1
  O  O41  1  0.96625186  0.84961155  0.43980564  1
  O  O42  1  0.46651304  0.34027576  0.95748079  1
  O  O43  1  0.06565653  0.16717849  0.55645680  1
  O  O44  1  0.91959022  0.68208678  0.75927652  1
  O  O45  1  0.45306765  0.82497655  0.29005026  1
  O  O46  1  0.95896593  0.32122665  0.28691669  1
  O  O47  1  0.57013302  0.18046050  0.80614671  1
