# generated using pymatgen
data_Mg30MnSiO32
_symmetry_space_group_name_H-M   'P 1'
_cell_length_a   8.55638255
_cell_length_b   8.54181873
_cell_length_c   8.54181873
_cell_angle_alpha   90.00000000
_cell_angle_beta   90.00000000
_cell_angle_gamma   90.00000000
_symmetry_Int_Tables_number   1
_chemical_formula_structural   Mg30MnSiO32
_chemical_formula_sum   'Mg30 Mn1 Si1 O32'
_cell_volume   624.29649257
_cell_formula_units_Z   1
loop_
 _symmetry_equiv_pos_site_id
 _symmetry_equiv_pos_as_xyz
  1  'x, y, z'
loop_
 _atom_site_type_symbol
 _atom_site_label
 _atom_site_symmetry_multiplicity
 _atom_site_fract_x
 _atom_site_fract_y
 _atom_site_fract_z
 _atom_site_occupancy
  Mg  Mg0  1  0.00000000  0.00000000  0.50000000  1
  Mg  Mg1  1  0.00000000  0.50000000  0.00000000  1
  Mg  Mg2  1  0.50000000  0.00000000  0.00000000  1
  Mg  Mg3  1  0.50000000  0.00000000  0.50000000  1
  Mg  Mg4  1  0.50000000  0.50000000  0.00000000  1
  Mg  Mg5  1  0.50000000  0.50000000  0.50000000  1
  Mg  Mg6  1  0.00000000  0.24849887  0.24849887  1
  Mg  Mg7  1  0.00000000  0.24849887  0.75150113  1
  Mg  Mg8  1  0.00000000  0.75150113  0.24849887  1
  Mg  Mg9  1  0.00000000  0.75150113  0.75150113  1
  Mg  Mg10  1  0.50000000  0.24966491  0.24966491  1
  Mg  Mg11  1  0.50000000  0.24966491  0.75033509  1
  Mg  Mg12  1  0.50000000  0.75033509  0.24966491  1
  Mg  Mg13  1  0.50000000  0.75033509  0.75033509  1
  Mg  Mg14  1  0.24943698  0.00000000  0.24816908  1
  Mg  Mg15  1  0.24943698  0.00000000  0.75183092  1
  Mg  Mg16  1  0.25142725  0.50000000  0.24826181  1
  Mg  Mg17  1  0.25142725  0.50000000  0.75173819  1
  Mg  Mg18  1  0.75056302  0.00000000  0.24816908  1
  Mg  Mg19  1  0.75056302  0.00000000  0.75183092  1
  Mg  Mg20  1  0.74857275  0.50000000  0.24826181  1
  Mg  Mg21  1  0.74857275  0.50000000  0.75173819  1
  Mg  Mg22  1  0.24943698  0.24816908  0.00000000  1
  Mg  Mg23  1  0.25142725  0.24826181  0.50000000  1
  Mg  Mg24  1  0.24943698  0.75183092  0.00000000  1
  Mg  Mg25  1  0.25142725  0.75173819  0.50000000  1
  Mg  Mg26  1  0.75056302  0.24816908  0.00000000  1
  Mg  Mg27  1  0.74857275  0.24826181  0.50000000  1
  Mg  Mg28  1  0.75056302  0.75183092  0.00000000  1
  Mg  Mg29  1  0.74857275  0.75173819  0.50000000  1
  Mn  Mn30  1  0.00000000  0.00000000  0.00000000  1
  Si  Si31  1  0.00000000  0.50000000  0.50000000  1
  O  O32  1  0.25473395  0.00000000  0.00000000  1
  O  O33  1  0.25029820  0.00000000  0.50000000  1
  O  O34  1  0.25029820  0.50000000  0.00000000  1
  O  O35  1  0.25948525  0.50000000  0.50000000  1
  O  O36  1  0.74526605  0.00000000  0.00000000  1
  O  O37  1  0.74970180  0.00000000  0.50000000  1
  O  O38  1  0.74970180  0.50000000  0.00000000  1
  O  O39  1  0.74051475  0.50000000  0.50000000  1
  O  O40  1  0.24904278  0.25025124  0.25025124  1
  O  O41  1  0.24904278  0.25025124  0.74974876  1
  O  O42  1  0.24904278  0.74974876  0.25025124  1
  O  O43  1  0.24904278  0.74974876  0.74974876  1
  O  O44  1  0.75095722  0.25025124  0.25025124  1
  O  O45  1  0.75095722  0.25025124  0.74974876  1
  O  O46  1  0.75095722  0.74974876  0.25025124  1
  O  O47  1  0.75095722  0.74974876  0.74974876  1
  O  O48  1  0.00000000  0.00000000  0.24745446  1
  O  O49  1  0.00000000  0.00000000  0.75254554  1
  O  O50  1  0.00000000  0.50000000  0.23956494  1
  O  O51  1  0.00000000  0.50000000  0.76043506  1
  O  O52  1  0.50000000  0.00000000  0.24999715  1
  O  O53  1  0.50000000  0.00000000  0.75000285  1
  O  O54  1  0.50000000  0.50000000  0.24872371  1
  O  O55  1  0.50000000  0.50000000  0.75127629  1
  O  O56  1  0.00000000  0.24745446  0.00000000  1
  O  O57  1  0.00000000  0.23956494  0.50000000  1
  O  O58  1  0.00000000  0.75254554  0.00000000  1
  O  O59  1  0.00000000  0.76043506  0.50000000  1
  O  O60  1  0.50000000  0.24999715  0.00000000  1
  O  O61  1  0.50000000  0.24872371  0.50000000  1
  O  O62  1  0.50000000  0.75000285  0.00000000  1
  O  O63  1  0.50000000  0.75127629  0.50000000  1
