# generated using pymatgen
data_Sr(H8O5)2
_symmetry_space_group_name_H-M   'P 1'
_cell_length_a   6.70989427
_cell_length_b   6.50915550
_cell_length_c   5.97827462
_cell_angle_alpha   90.40495677
_cell_angle_beta   89.59948987
_cell_angle_gamma   90.35528507
_symmetry_Int_Tables_number   1
_chemical_formula_structural   Sr(H8O5)2
_chemical_formula_sum   'Sr1 H16 O10'
_cell_volume   261.08775812
_cell_formula_units_Z   1
loop_
 _symmetry_equiv_pos_site_id
 _symmetry_equiv_pos_as_xyz
  1  'x, y, z'
loop_
 _atom_site_type_symbol
 _atom_site_label
 _atom_site_symmetry_multiplicity
 _atom_site_fract_x
 _atom_site_fract_y
 _atom_site_fract_z
 _atom_site_occupancy
  Sr  Sr0  1  0.01926040  0.98587625  0.98656030  1
  H  H1  1  0.33191720  0.34486491  0.69295510  1
  H  H2  1  0.09333170  0.34871182  0.72463014  1
  H  H3  1  0.67692057  0.66812670  0.69546690  1
  H  H4  1  0.68620378  0.91182417  0.70039476  1
  H  H5  1  0.68737200  0.32319684  0.71234774  1
  H  H6  1  0.82656855  0.20599617  0.55572294  1
  H  H7  1  0.34552148  0.66175841  0.72928025  1
  H  H8  1  0.20359137  0.77944498  0.57945999  1
  H  H9  1  0.67222756  0.67198054  0.27508651  1
  H  H10  1  0.84465179  0.77722925  0.39630720  1
  H  H11  1  0.21611293  0.18717459  0.42952970  1
  H  H12  1  0.35859753  0.30297672  0.27585370  1
  H  H13  1  0.31563378  0.90988679  0.28607645  1
  H  H14  1  0.34226986  0.66435151  0.30559901  1
  H  H15  1  0.67006000  0.32246918  0.29356547  1
  H  H16  1  0.68916581  0.07689631  0.27221062  1
  O  O17  1  0.51654162  0.48762667  0.62452873  1
  O  O18  1  0.51183790  0.49480889  0.37196490  1
  O  O19  1  0.20672030  0.25508528  0.71784581  1
  O  O20  1  0.76981394  0.79078809  0.71994883  1
  O  O21  1  0.80212892  0.22267028  0.71931688  1
  O  O22  1  0.23146139  0.76062848  0.74091869  1
  O  O23  1  0.77922723  0.78048600  0.24975035  1
  O  O24  1  0.26435826  0.18140091  0.27152746  1
  O  O25  1  0.24109079  0.77858776  0.28294600  1
  O  O26  1  0.76748735  0.20385250  0.26376857  1
