# generated using pymatgen
data_Pu(SiPt)2
_symmetry_space_group_name_H-M   'P 1'
_cell_length_a   4.20473749
_cell_length_b   4.19963665
_cell_length_c   9.86390452
_cell_angle_alpha   89.83315005
_cell_angle_beta   89.95228769
_cell_angle_gamma   90.74663685
_symmetry_Int_Tables_number   1
_chemical_formula_structural   Pu(SiPt)2
_chemical_formula_sum   'Pu2 Si4 Pt4'
_cell_volume   174.16487871
_cell_formula_units_Z   2
loop_
 _symmetry_equiv_pos_site_id
 _symmetry_equiv_pos_as_xyz
  1  'x, y, z'
loop_
 _atom_site_type_symbol
 _atom_site_label
 _atom_site_symmetry_multiplicity
 _atom_site_fract_x
 _atom_site_fract_y
 _atom_site_fract_z
 _atom_site_occupancy
  Pu  Pu0  1  0.75020723  0.75019089  0.25473617  1
  Pu  Pu1  1  0.25031353  0.24983783  0.74521213  1
  Si  Si2  1  0.24989176  0.24972749  0.13495195  1
  Si  Si3  1  0.74965763  0.25041504  0.50003072  1
  Si  Si4  1  0.25013229  0.74954807  0.50024352  1
  Si  Si5  1  0.75032180  0.74988152  0.86493482  1
  Pt  Pt6  1  0.75015082  0.24994687  0.99987569  1
  Pt  Pt7  1  0.24973679  0.75017871  0.99988939  1
  Pt  Pt8  1  0.24998580  0.25014401  0.37647835  1
  Pt  Pt9  1  0.74960234  0.75012959  0.62364626  1
