# generated using pymatgen
data_Ba7(Fe3S7)2
_symmetry_space_group_name_H-M   'P 1'
_cell_length_a   8.29790315
_cell_length_b   13.57487642
_cell_length_c   14.95290330
_cell_angle_alpha   63.44277629
_cell_angle_beta   73.89085928
_cell_angle_gamma   72.20365607
_symmetry_Int_Tables_number   1
_chemical_formula_structural   Ba7(Fe3S7)2
_chemical_formula_sum   'Ba14 Fe12 S28'
_cell_volume   1414.78390531
_cell_formula_units_Z   2
loop_
 _symmetry_equiv_pos_site_id
 _symmetry_equiv_pos_as_xyz
  1  'x, y, z'
loop_
 _atom_site_type_symbol
 _atom_site_label
 _atom_site_symmetry_multiplicity
 _atom_site_fract_x
 _atom_site_fract_y
 _atom_site_fract_z
 _atom_site_occupancy
  Ba  Ba0  1  0.63443895  0.38410380  0.26607156  1
  Ba  Ba1  1  0.67734761  0.25000000  0.75000000  1
  Ba  Ba2  1  0.14716940  0.51241952  0.12424696  1
  Ba  Ba3  1  0.85283060  0.48758048  0.87575304  1
  Ba  Ba4  1  0.36556105  0.61589620  0.73392844  1
  Ba  Ba5  1  0.28461431  0.11589620  0.23392844  1
  Ba  Ba6  1  0.77615910  0.94467131  0.07515052  1
  Ba  Ba7  1  0.22384090  0.05532869  0.92484948  1
  Ba  Ba8  1  0.32265239  0.75000000  0.25000000  1
  Ba  Ba9  1  0.78383588  0.98758048  0.37575304  1
  Ba  Ba10  1  0.21616412  0.01241952  0.62424696  1
  Ba  Ba11  1  0.71538569  0.88410380  0.76607156  1
  Ba  Ba12  1  0.20401907  0.44467131  0.57515052  1
  Ba  Ba13  1  0.79598093  0.55532869  0.42484948  1
  Fe  Fe14  1  0.40030755  0.74455753  0.98512099  1
  Fe  Fe15  1  0.09053957  0.81073042  0.91184233  1
  Fe  Fe16  1  0.59969245  0.25544247  0.01487901  1
  Fe  Fe17  1  0.70851541  0.67776401  0.04923932  1
  Fe  Fe18  1  0.18688768  0.31073042  0.41184233  1
  Fe  Fe19  1  0.90946043  0.18926958  0.08815767  1
  Fe  Fe20  1  0.29148459  0.32223599  0.95076068  1
  Fe  Fe21  1  0.12998607  0.75544247  0.51487901  1
  Fe  Fe22  1  0.43551875  0.82223599  0.45076068  1
  Fe  Fe23  1  0.56448125  0.17776401  0.54923932  1
  Fe  Fe24  1  0.81311232  0.68926958  0.58815767  1
  Fe  Fe25  1  0.87001393  0.24455753  0.48512099  1
  S  S26  1  0.45939277  0.14249108  0.99943359  1
  S  S27  1  0.56060507  0.82887567  0.57000704  1
  S  S28  1  0.55241656  0.56391334  0.05039383  1
  S  S29  1  0.23063599  0.48985916  0.33489672  1
  S  S30  1  0.60131745  0.35750892  0.50056641  1
  S  S31  1  0.12880828  0.77461641  0.07415130  1
  S  S32  1  0.94460812  0.98985916  0.83489672  1
  S  S33  1  0.87119172  0.22538359  0.92584870  1
  S  S34  1  0.63238250  0.20582073  0.17904444  1
  S  S35  1  0.97757599  0.72538359  0.42584870  1
  S  S36  1  0.76936401  0.51014084  0.66510328  1
  S  S37  1  0.04051222  0.32887567  0.07000704  1
  S  S38  1  0.01724767  0.29417927  0.32095556  1
  S  S39  1  0.83327627  0.06391334  0.55039383  1
  S  S40  1  0.43237618  0.11734388  0.71042719  1
  S  S41  1  0.36761750  0.79417927  0.82095556  1
  S  S42  1  0.02242401  0.27461641  0.57415130  1
  S  S43  1  0.44758344  0.43608666  0.94960617  1
  S  S44  1  0.73985275  0.61734388  0.21042719  1
  S  S45  1  0.54060723  0.85750892  0.00056641  1
  S  S46  1  0.39868255  0.64249108  0.49943359  1
  S  S47  1  0.26014725  0.38265612  0.78957281  1
  S  S48  1  0.56762382  0.88265612  0.28957281  1
  S  S49  1  0.98275233  0.70582073  0.67904444  1
  S  S50  1  0.05539188  0.01014084  0.16510328  1
  S  S51  1  0.43939493  0.17112433  0.42999296  1
  S  S52  1  0.95948778  0.67112433  0.92999296  1
  S  S53  1  0.16672373  0.93608666  0.44960617  1
