# generated using pymatgen
data_Eu(ErS2)2
_symmetry_space_group_name_H-M   'P 1'
_cell_length_a   7.27790174
_cell_length_b   7.27790204
_cell_length_c   7.27790191
_cell_angle_alpha   109.30173524
_cell_angle_beta   109.81073394
_cell_angle_gamma   109.30173255
_symmetry_Int_Tables_number   1
_chemical_formula_structural   Eu(ErS2)2
_chemical_formula_sum   'Eu2 Er4 S8'
_cell_volume   296.74624115
_cell_formula_units_Z   2
loop_
 _symmetry_equiv_pos_site_id
 _symmetry_equiv_pos_as_xyz
  1  'x, y, z'
loop_
 _atom_site_type_symbol
 _atom_site_label
 _atom_site_symmetry_multiplicity
 _atom_site_fract_x
 _atom_site_fract_y
 _atom_site_fract_z
 _atom_site_occupancy
  Eu  Eu0  1  0.12500000  0.75000000  0.87500000  1
  Eu  Eu1  1  0.37500000  0.25000000  0.62500000  1
  Er  Er2  1  0.25000000  0.62296406  0.37296406  1
  Er  Er3  1  0.75000000  0.87703594  0.12703594  1
  Er  Er4  1  0.62703594  0.37703594  0.25000000  1
  Er  Er5  1  0.87296406  0.12296406  0.75000000  1
  S  S6  1  0.51166030  0.99758457  0.35917172  1
  S  S7  1  0.13841284  0.15248858  0.14082828  1
  S  S8  1  0.36158716  0.50241543  0.01407573  1
  S  S9  1  0.51407573  0.00241543  0.86158716  1
  S  S10  1  0.64082828  0.65248858  0.63841284  1
  S  S11  1  0.98592427  0.84751142  0.48833970  1
  S  S12  1  0.85917172  0.49758457  0.01166030  1
  S  S13  1  0.98833970  0.34751142  0.48592427  1
