# generated using pymatgen
data_KAgCO3
_symmetry_space_group_name_H-M   'P 1'
_cell_length_a   5.98339436
_cell_length_b   5.91303560
_cell_length_c   11.02879588
_cell_angle_alpha   104.48817524
_cell_angle_beta   105.82463375
_cell_angle_gamma   89.85912355
_symmetry_Int_Tables_number   1
_chemical_formula_structural   KAgCO3
_chemical_formula_sum   'K4 Ag4 C4 O12'
_cell_volume   362.56555541
_cell_formula_units_Z   4
loop_
 _symmetry_equiv_pos_site_id
 _symmetry_equiv_pos_as_xyz
  1  'x, y, z'
loop_
 _atom_site_type_symbol
 _atom_site_label
 _atom_site_symmetry_multiplicity
 _atom_site_fract_x
 _atom_site_fract_y
 _atom_site_fract_z
 _atom_site_occupancy
  K  K0  1  0.67857447  0.42693521  0.35727505  1
  K  K1  1  0.31921391  0.56835296  0.64220752  1
  K  K2  1  0.82087444  0.07003035  0.64081172  1
  K  K3  1  0.17681620  0.92896238  0.35948210  1
  Ag  Ag4  1  0.23433898  0.35181517  0.99628971  1
  Ag  Ag5  1  0.75573952  0.14945559  0.00004313  1
  Ag  Ag6  1  0.76139305  0.64973706  0.00246887  1
  Ag  Ag7  1  0.25972765  0.84953626  0.99757833  1
  C  C8  1  0.62349581  0.87606488  0.24903731  1
  C  C9  1  0.37629002  0.12110746  0.75135185  1
  C  C10  1  0.12320305  0.37583344  0.24886243  1
  C  C11  1  0.87535668  0.62147145  0.75056905  1
  O  O12  1  0.81124406  0.56409999  0.62508551  1
  O  O13  1  0.43294997  0.74011392  0.18643323  1
  O  O14  1  0.93115728  0.45421079  0.18745112  1
  O  O15  1  0.75088768  0.95199182  0.18556619  1
  O  O16  1  0.31439204  0.06143294  0.62579888  1
  O  O17  1  0.06534114  0.54119588  0.81289590  1
  O  O18  1  0.18795118  0.43187698  0.37433424  1
  O  O19  1  0.24905061  0.04248831  0.81409281  1
  O  O20  1  0.56420010  0.26074490  0.81447833  1
  O  O21  1  0.75056289  0.76023586  0.81442859  1
  O  O22  1  0.68697920  0.93548729  0.37461563  1
  O  O23  1  0.24887607  0.24028212  0.18408952  1
