# generated using pymatgen
data_Ag3SI
_symmetry_space_group_name_H-M   'P 1'
_cell_length_a   4.91261355
_cell_length_b   10.03580356
_cell_length_c   7.16907304
_cell_angle_alpha   44.41007179
_cell_angle_beta   90.00000000
_cell_angle_gamma   89.53634388
_symmetry_Int_Tables_number   1
_chemical_formula_structural   Ag3SI
_chemical_formula_sum   'Ag6 S2 I2'
_cell_volume   247.32372800
_cell_formula_units_Z   2
loop_
 _symmetry_equiv_pos_site_id
 _symmetry_equiv_pos_as_xyz
  1  'x, y, z'
loop_
 _atom_site_type_symbol
 _atom_site_label
 _atom_site_symmetry_multiplicity
 _atom_site_fract_x
 _atom_site_fract_y
 _atom_site_fract_z
 _atom_site_occupancy
  Ag  Ag0  1  0.38134756  0.74079315  0.52245858  1
  Ag  Ag1  1  0.51698946  0.31629814  0.99275067  1
  Ag  Ag2  1  0.48301054  0.18370186  0.62534695  1
  Ag  Ag3  1  0.61865244  0.75920685  0.00404487  1
  Ag  Ag4  1  0.00602869  0.07356727  0.34947859  1
  Ag  Ag5  1  0.99397131  0.42643273  0.49661313  1
  S  S6  1  0.50865646  0.00435663  0.49500315  1
  S  S7  1  0.49134354  0.49564337  0.50371641  1
  I  I8  1  0.00894622  0.98040055  0.02489327  1
  I  I9  1  0.99105378  0.51959945  0.98569437  1
