# generated using pymatgen
data_Li2NbP4O13
_symmetry_space_group_name_H-M   'P 1'
_cell_length_a   5.24119358
_cell_length_b   8.08707716
_cell_length_c   13.36586559
_cell_angle_alpha   77.53704988
_cell_angle_beta   84.72794797
_cell_angle_gamma   79.75802762
_symmetry_Int_Tables_number   1
_chemical_formula_structural   Li2NbP4O13
_chemical_formula_sum   'Li4 Nb2 P8 O26'
_cell_volume   543.51566790
_cell_formula_units_Z   2
loop_
 _symmetry_equiv_pos_site_id
 _symmetry_equiv_pos_as_xyz
  1  'x, y, z'
loop_
 _atom_site_type_symbol
 _atom_site_label
 _atom_site_symmetry_multiplicity
 _atom_site_fract_x
 _atom_site_fract_y
 _atom_site_fract_z
 _atom_site_occupancy
  Li  Li0  1  0.93043771  0.68009384  0.48703557  1
  Li  Li1  1  0.06956229  0.31990616  0.51296443  1
  Li  Li2  1  0.60462964  0.66625321  0.00581477  1
  Li  Li3  1  0.39537036  0.33374679  0.99418523  1
  Nb  Nb4  1  0.44702534  0.05111199  0.75977680  1
  Nb  Nb5  1  0.55297466  0.94888801  0.24022320  1
  P  P6  1  0.98557217  0.09989414  0.35545409  1
  P  P7  1  0.31913877  0.65622582  0.80374594  1
  P  P8  1  0.65761471  0.42900389  0.67682113  1
  P  P9  1  0.34238529  0.57099611  0.32317887  1
  P  P10  1  0.87885211  0.20556880  0.86808019  1
  P  P11  1  0.01442783  0.90010586  0.64454591  1
  P  P12  1  0.68086123  0.34377418  0.19625406  1
  P  P13  1  0.12114789  0.79443120  0.13191981  1
  O  O14  1  0.82965971  0.95915769  0.34400799  1
  O  O15  1  0.86369000  0.35200296  0.76172552  1
  O  O16  1  0.46641555  0.30518185  0.68131720  1
  O  O17  1  0.76738039  0.28728040  0.95542284  1
  O  O18  1  0.94016084  0.24905145  0.24967775  1
  O  O19  1  0.05983916  0.75094855  0.75032225  1
  O  O20  1  0.27914581  0.03115150  0.34092222  1
  O  O21  1  0.72085419  0.96884850  0.65907778  1
  O  O22  1  0.82408279  0.86347035  0.13340597  1
  O  O23  1  0.13631000  0.64799704  0.23827448  1
  O  O24  1  0.50444044  0.60111418  0.70840353  1
  O  O25  1  0.54780143  0.20985500  0.16385100  1
  O  O26  1  0.73490678  0.49178093  0.11496391  1
  O  O27  1  0.26509322  0.50821907  0.88503609  1
  O  O28  1  0.23261961  0.71271960  0.04457716  1
  O  O29  1  0.73579339  0.06186835  0.85234909  1
  O  O30  1  0.91610516  0.18302465  0.44541986  1
  O  O31  1  0.53358445  0.69481815  0.31868280  1
  O  O32  1  0.17034029  0.04084231  0.65599201  1
  O  O33  1  0.26420661  0.93813165  0.14765091  1
  O  O34  1  0.08389484  0.81697535  0.55458014  1
  O  O35  1  0.80434606  0.47930780  0.57664498  1
  O  O36  1  0.49555956  0.39888582  0.29159647  1
  O  O37  1  0.17591721  0.13652965  0.86659403  1
  O  O38  1  0.45219857  0.79014500  0.83614900  1
  O  O39  1  0.19565394  0.52069220  0.42335502  1
