# generated using pymatgen
data_Ge5(Te4As)2
_symmetry_space_group_name_H-M   'P 1'
_cell_length_a   16.78916232
_cell_length_b   11.09601740
_cell_length_c   7.23708321
_cell_angle_alpha   29.25312593
_cell_angle_beta   54.57815224
_cell_angle_gamma   40.73011448
_symmetry_Int_Tables_number   1
_chemical_formula_structural   Ge5(Te4As)2
_chemical_formula_sum   'Ge5 Te8 As2'
_cell_volume   415.58489156
_cell_formula_units_Z   1
loop_
 _symmetry_equiv_pos_site_id
 _symmetry_equiv_pos_as_xyz
  1  'x, y, z'
loop_
 _atom_site_type_symbol
 _atom_site_label
 _atom_site_symmetry_multiplicity
 _atom_site_fract_x
 _atom_site_fract_y
 _atom_site_fract_z
 _atom_site_occupancy
  Ge  Ge0  1  0.99999987  0.00000043  -0.00000002  1
  Ge  Ge1  1  0.12563946  0.49913811  0.00003510  1
  Ge  Ge2  1  0.25313576  0.99684975  0.99690743  1
  Ge  Ge3  1  0.87435987  0.50086327  0.99996359  1
  Ge  Ge4  1  0.74686446  0.00315018  0.00309237  1
  Te  Te5  1  0.12527824  0.99873951  0.50264992  1
  Te  Te6  1  0.24991116  0.50099321  0.49739135  1
  Te  Te7  1  0.50000024  0.49999952  0.50000013  1
  Te  Te8  1  0.37541824  0.99837993  0.50322644  1
  Te  Te9  1  0.75008865  0.49900635  0.50260913  1
  Te  Te10  1  0.62458217  0.00162044  0.49677324  1
  Te  Te11  1  -0.00000011  0.49999960  0.50000061  1
  Te  Te12  1  0.87472184  0.00126078  0.49734934  1
  As  As13  1  0.37539205  0.49933127  0.00046700  1
  As  As14  1  0.62460810  0.50066766  0.99953434  1
