# generated using pymatgen
data_HIO4
_symmetry_space_group_name_H-M   'P 1'
_cell_length_a   5.10492466
_cell_length_b   11.43220744
_cell_length_c   9.52930012
_cell_angle_alpha   33.53499390
_cell_angle_beta   83.91559694
_cell_angle_gamma   84.93127236
_symmetry_Int_Tables_number   1
_chemical_formula_structural   HIO4
_chemical_formula_sum   'H4 I4 O16'
_cell_volume   305.50410315
_cell_formula_units_Z   4
loop_
 _symmetry_equiv_pos_site_id
 _symmetry_equiv_pos_as_xyz
  1  'x, y, z'
loop_
 _atom_site_type_symbol
 _atom_site_label
 _atom_site_symmetry_multiplicity
 _atom_site_fract_x
 _atom_site_fract_y
 _atom_site_fract_z
 _atom_site_occupancy
  H  H0  1  0.02246444  0.26927496  0.94939794  1
  H  H1  1  0.52246444  0.23072504  0.48794786  1
  H  H2  1  0.47753556  0.76927496  0.51205214  1
  H  H3  1  0.97753556  0.73072504  0.05060206  1
  I  I4  1  0.25302560  0.14244149  0.85321902  1
  I  I5  1  0.24697440  0.64244149  0.86189799  1
  I  I6  1  0.75302560  0.35755851  0.13810201  1
  I  I7  1  0.74697440  0.85755851  0.14678098  1
  O  O8  1  0.04767717  0.40168077  0.20746296  1
  O  O9  1  0.05457222  0.91136103  0.19817826  1
  O  O10  1  0.10431174  0.34161458  0.78717648  1
  O  O11  1  0.11724005  0.83581535  0.79337088  1
  O  O12  1  0.38275995  0.33581535  0.53499842  1
  O  O13  1  0.54767717  0.09831923  0.01082451  1
  O  O14  1  0.39568826  0.84161458  0.52959436  1
  O  O15  1  0.55457222  0.58863897  0.02090033  1
  O  O16  1  0.44542778  0.41136103  0.97909967  1
  O  O17  1  0.60431174  0.15838542  0.47040564  1
  O  O18  1  0.45232283  0.90168077  0.98917549  1
  O  O19  1  0.61724005  0.66418465  0.46500158  1
  O  O20  1  0.88275995  0.16418465  0.20662912  1
  O  O21  1  0.89568826  0.65838542  0.21282352  1
  O  O22  1  0.94542778  0.08863897  0.80182174  1
  O  O23  1  0.95232283  0.59831923  0.79253704  1
