# generated using pymatgen
data_Ag3SI
_symmetry_space_group_name_H-M   'P 1'
_cell_length_a   4.73214823
_cell_length_b   4.31968993
_cell_length_c   18.10155563
_cell_angle_alpha   116.16298830
_cell_angle_beta   121.29231830
_cell_angle_gamma   89.88724468
_symmetry_Int_Tables_number   1
_chemical_formula_structural   Ag3SI
_chemical_formula_sum   'Ag6 S2 I2'
_cell_volume   271.07710535
_cell_formula_units_Z   2
loop_
 _symmetry_equiv_pos_site_id
 _symmetry_equiv_pos_as_xyz
  1  'x, y, z'
loop_
 _atom_site_type_symbol
 _atom_site_label
 _atom_site_symmetry_multiplicity
 _atom_site_fract_x
 _atom_site_fract_y
 _atom_site_fract_z
 _atom_site_occupancy
  Ag  Ag0  1  0.41732783  0.08788057  0.93274353  1
  Ag  Ag1  1  0.70733898  0.04736847  0.82565591  1
  Ag  Ag2  1  0.20333904  0.78828569  0.35966235  1
  Ag  Ag3  1  0.37587643  0.67170749  0.09105419  1
  Ag  Ag4  1  0.67109705  0.19672260  0.32393737  1
  Ag  Ag5  1  0.99644327  0.38890550  0.14645996  1
  S  S6  1  0.98371452  0.06394249  0.23508743  1
  S  S7  1  0.02679988  0.02797330  0.99440773  1
  I  I8  1  0.02297288  0.08235103  0.73477973  1
  I  I9  1  0.94509011  -0.00513715  0.48121180  1
