# generated using pymatgen
data_Ag9Te4Br3
_symmetry_space_group_name_H-M   'P 1'
_cell_length_a   7.59231420
_cell_length_b   8.16800061
_cell_length_c   8.37323584
_cell_angle_alpha   90.54682615
_cell_angle_beta   89.40572595
_cell_angle_gamma   122.67685677
_symmetry_Int_Tables_number   1
_chemical_formula_structural   Ag9Te4Br3
_chemical_formula_sum   'Ag9 Te4 Br3'
_cell_volume   437.04623506
_cell_formula_units_Z   1
loop_
 _symmetry_equiv_pos_site_id
 _symmetry_equiv_pos_as_xyz
  1  'x, y, z'
loop_
 _atom_site_type_symbol
 _atom_site_label
 _atom_site_symmetry_multiplicity
 _atom_site_fract_x
 _atom_site_fract_y
 _atom_site_fract_z
 _atom_site_occupancy
  Ag  Ag0  1  0.06731313  0.85760943  0.08659657  1
  Ag  Ag1  1  0.32776367  0.01730079  0.55841421  1
  Ag  Ag2  1  0.17846658  0.39747478  0.77425057  1
  Ag  Ag3  1  0.65508114  0.02832678  0.35251102  1
  Ag  Ag4  1  0.65569345  0.64684699  0.33444112  1
  Ag  Ag5  1  0.63166606  0.63215228  0.68500262  1
  Ag  Ag6  1  0.62078208  0.30882069  0.84288040  1
  Ag  Ag7  1  0.65645191  0.99606838  0.70951102  1
  Ag  Ag8  1  0.00324499  0.18095828  0.06946372  1
  Te  Te9  1  0.01848246  0.98775388  0.78442454  1
  Te  Te10  1  0.02409183  0.02298213  0.35649374  1
  Te  Te11  1  0.31541439  0.65637399  0.51665269  1
  Te  Te12  1  0.72705967  0.37377123  0.52023200  1
  Br  Br13  1  0.00556995  0.51098881  0.01684078  1
  Br  Br14  1  0.49297690  0.49495957  0.03972301  1
  Br  Br15  1  0.51110880  0.99514499  0.04306198  1
