# generated using pymatgen
data_Sr2La6TiCu3O16
_symmetry_space_group_name_H-M   'P 1'
_cell_length_a   10.86787688
_cell_length_b   5.43987719
_cell_length_c   7.07995232
_cell_angle_alpha   112.42232416
_cell_angle_beta   90.03430005
_cell_angle_gamma   89.99746644
_symmetry_Int_Tables_number   1
_chemical_formula_structural   Sr2La6TiCu3O16
_chemical_formula_sum   'Sr2 La6 Ti1 Cu3 O16'
_cell_volume   386.92145087
_cell_formula_units_Z   1
loop_
 _symmetry_equiv_pos_site_id
 _symmetry_equiv_pos_as_xyz
  1  'x, y, z'
loop_
 _atom_site_type_symbol
 _atom_site_label
 _atom_site_symmetry_multiplicity
 _atom_site_fract_x
 _atom_site_fract_y
 _atom_site_fract_z
 _atom_site_occupancy
  Sr  Sr0  1  0.25080970  0.85553844  0.71129996  1
  Sr  Sr1  1  0.24919030  0.14446156  0.28870004  1
  La  La2  1  0.99324989  0.36019109  0.71849140  1
  La  La3  1  0.50675011  0.63980891  0.28150860  1
  La  La4  1  0.50478446  0.36108637  0.71973579  1
  La  La5  1  0.75063266  0.86169227  0.72203018  1
  La  La6  1  0.74936734  0.13830773  0.27796982  1
  La  La7  1  0.99521554  0.63891363  0.28026421  1
  Ti  Ti8  1  0.25000000  0.50000000  0.00000000  1
  Cu  Cu9  1  0.00083765  0.99977408  0.00016762  1
  Cu  Cu10  1  0.49916235  0.00022592  -0.00016762  1
  Cu  Cu11  1  0.75000000  0.50000000  0.00000000  1
  O  O12  1  0.99426658  0.18728317  0.37333070  1
  O  O13  1  0.12300785  0.25320732  0.99695337  1
  O  O14  1  0.12345353  0.74426467  0.99690603  1
  O  O15  1  0.24680447  0.65885147  0.31707665  1
  O  O16  1  0.25319553  0.34114853  0.68292335  1
  O  O17  1  0.37654647  0.25573533  0.00309397  1
  O  O18  1  0.37699215  0.74679268  0.00304663  1
  O  O19  1  0.50573342  0.81271683  0.62666930  1
  O  O20  1  0.51184033  0.18796786  0.37445294  1
  O  O21  1  0.62467327  0.24747485  0.99788418  1
  O  O22  1  0.62509294  0.75133458  0.99791967  1
  O  O23  1  0.74648682  0.68456017  0.36800541  1
  O  O24  1  0.75351318  0.31543983  0.63199459  1
  O  O25  1  0.87490706  0.24866542  0.00208033  1
  O  O26  1  0.87532673  0.75252515  0.00211582  1
  O  O27  1  0.98815967  0.81203214  0.62554706  1
