# generated using pymatgen
data_OsClF8
_symmetry_space_group_name_H-M   'P 1'
_cell_length_a   10.69837659
_cell_length_b   6.80879269
_cell_length_c   5.71172701
_cell_angle_alpha   89.63646698
_cell_angle_beta   89.57923904
_cell_angle_gamma   51.03407443
_symmetry_Int_Tables_number   1
_chemical_formula_structural   OsClF8
_chemical_formula_sum   'Os2 Cl2 F16'
_cell_volume   323.48509248
_cell_formula_units_Z   2
loop_
 _symmetry_equiv_pos_site_id
 _symmetry_equiv_pos_as_xyz
  1  'x, y, z'
loop_
 _atom_site_type_symbol
 _atom_site_label
 _atom_site_symmetry_multiplicity
 _atom_site_fract_x
 _atom_site_fract_y
 _atom_site_fract_z
 _atom_site_occupancy
  Os  Os0  1  0.49926561  0.49917785  0.46974720  1
  Os  Os1  1  0.00073439  0.50082215  0.53025280  1
  Cl  Cl2  1  0.00012003  0.00063508  0.82571548  1
  Cl  Cl3  1  0.49987997  0.99936492  0.17428452  1
  F  F4  1  0.03387055  0.13739074  0.01672777  1
  F  F5  1  0.03832782  0.18162428  0.52860901  1
  F  F6  1  0.15764308  0.37723411  0.28986877  1
  F  F7  1  0.16360599  0.36859711  0.75934476  1
  F  F8  1  0.53384056  0.13763867  0.98253027  1
  F  F9  1  0.53716154  0.17957144  0.46795584  1
  F  F10  1  0.33639401  0.63140289  0.24065524  1
  F  F11  1  0.34235692  0.62276589  0.71013123  1
  F  F12  1  0.66007300  0.37406972  0.23534114  1
  F  F13  1  0.65901888  0.36825180  0.70520976  1
  F  F14  1  0.46167218  0.81837572  0.47139099  1
  F  F15  1  0.46612945  0.86260926  0.98327223  1
  F  F16  1  0.84098112  0.63174820  0.29479024  1
  F  F17  1  0.83992700  0.62593028  0.76465886  1
  F  F18  1  0.96283846  0.82042856  0.53204416  1
  F  F19  1  0.96615944  0.86236133  0.01746973  1
