# generated using pymatgen
data_Bi34Ir3Br37
_symmetry_space_group_name_H-M   'P 1'
_cell_length_a   13.09892423
_cell_length_b   13.20020930
_cell_length_c   17.39003188
_cell_angle_alpha   89.18944527
_cell_angle_beta   90.11781046
_cell_angle_gamma   118.94272381
_symmetry_Int_Tables_number   1
_chemical_formula_structural   Bi34Ir3Br37
_chemical_formula_sum   'Bi34 Ir3 Br37'
_cell_volume   2631.03415216
_cell_formula_units_Z   1
loop_
 _symmetry_equiv_pos_site_id
 _symmetry_equiv_pos_as_xyz
  1  'x, y, z'
loop_
 _atom_site_type_symbol
 _atom_site_label
 _atom_site_symmetry_multiplicity
 _atom_site_fract_x
 _atom_site_fract_y
 _atom_site_fract_z
 _atom_site_occupancy
  Bi  Bi0  1  0.14046754  0.97796689  0.41868533  1
  Bi  Bi1  1  0.85651679  0.85412731  0.42589618  1
  Bi  Bi2  1  0.88313714  0.01865281  0.57218978  1
  Bi  Bi3  1  0.39140870  0.85692552  0.57545309  1
  Bi  Bi4  1  0.20233211  0.72120723  0.76054293  1
  Bi  Bi5  1  0.80931402  0.46833366  0.91258307  1
  Bi  Bi6  1  0.99373953  0.85000132  0.57520066  1
  Bi  Bi7  1  0.49686233  0.78775701  0.23558415  1
  Bi  Bi8  1  0.94856392  0.81219193  0.09162822  1
  Bi  Bi9  1  0.05180458  0.18846880  0.90878452  1
  Bi  Bi10  1  0.52155332  0.80375186  0.75723711  1
  Bi  Bi11  1  0.67180817  0.44823649  0.75702255  1
  Bi  Bi12  1  0.30613157  0.78875095  0.13690798  1
  Bi  Bi13  1  0.82024600  0.33013651  0.77287376  1
  Bi  Bi14  1  0.15923989  0.12335509  0.56226913  1
  Bi  Bi15  1  0.13466937  0.95209964  0.90473653  1
  Bi  Bi16  1  0.81444351  0.86677875  0.90878591  1
  Bi  Bi17  1  0.80549493  0.29083495  0.23718600  1
  Bi  Bi18  1  0.00436861  0.13118439  0.41448462  1
  Bi  Bi19  1  0.61414212  0.14837503  0.42878851  1
  Bi  Bi20  1  0.71811706  0.51477218  0.23999374  1
  Bi  Bi21  1  0.53672082  0.38890413  0.42604181  1
  Bi  Bi22  1  0.15077727  0.53722207  0.57602502  1
  Bi  Bi23  1  0.46919886  0.61444342  0.57482775  1
  Bi  Bi24  1  0.28285646  0.48076093  0.75829729  1
  Bi  Bi25  1  0.53831961  0.36328046  0.90729481  1
  Bi  Bi26  1  0.63638216  0.19913788  0.89458567  1
  Bi  Bi27  1  0.85507144  0.45995146  0.42555731  1
  Bi  Bi28  1  0.19176400  0.54470711  0.07976546  1
  Bi  Bi29  1  0.48930647  0.19431782  0.24263478  1
  Bi  Bi30  1  0.18541158  0.13252256  0.09060999  1
  Bi  Bi31  1  0.30460182  0.52919514  0.22864281  1
  Bi  Bi32  1  0.86632441  0.05018559  0.09497400  1
  Bi  Bi33  1  0.46714271  0.66980849  0.08246399  1
  Ir  Ir34  1  0.99944433  0.99993509  0.99986118  1
  Ir  Ir35  1  0.66900815  0.33346187  0.33526583  1
  Ir  Ir36  1  0.33553143  0.66890071  0.66664391  1
  Br  Br37  1  0.91182330  0.26453697  0.00854627  1
  Br  Br38  1  0.64793051  0.33660581  0.10890384  1
  Br  Br39  1  0.94538680  0.52376013  0.16696483  1
  Br  Br40  1  0.07392780  0.31746245  0.66526150  1
  Br  Br41  1  0.44477308  0.42842458  0.17336635  1
  Br  Br42  1  0.26289754  0.34575653  0.99413996  1
  Br  Br43  1  0.80377841  0.85435530  0.20492853  1
  Br  Br44  1  0.27789039  0.46181227  0.46863434  1
  Br  Br45  1  0.41836154  0.39920281  0.66340390  1
  Br  Br46  1  0.12639028  0.51827076  0.86603015  1
  Br  Br47  1  0.30577502  0.22633777  0.34155805  1
  Br  Br48  1  0.08086764  0.73223523  0.99128884  1
  Br  Br49  1  0.98520086  0.59096746  0.66373780  1
  Br  Br50  1  0.54454959  0.81827782  0.46610002  1
  Br  Br51  1  0.39231436  0.98821566  0.34661351  1
  Br  Br52  1  0.72669080  0.53550331  0.53357720  1
  Br  Br53  1  0.60461115  0.01384452  0.66090005  1
  Br  Br54  1  0.39418047  0.87735077  0.86246382  1
  Br  Br55  1  0.94166266  0.79218270  0.80282246  1
  Br  Br56  1  0.05292258  0.19775881  0.20188781  1
  Br  Br57  1  0.15300915  0.93736977  0.19800389  1
  Br  Br58  1  0.77237736  0.07729397  0.33955824  1
  Br  Br59  1  0.21171510  0.15763769  0.80306263  1
  Br  Br60  1  0.01360593  0.39646300  0.33932335  1
  Br  Br61  1  0.68664028  0.75287823  0.66754411  1
  Br  Br62  1  0.46264905  0.18967347  0.53640511  1
  Br  Br63  1  0.18198115  0.73605440  0.46982585  1
  Br  Br64  1  0.48010890  0.60225879  0.86521745  1
  Br  Br65  1  0.64360623  0.91066515  0.99894798  1
  Br  Br66  1  0.34779597  0.08035581  0.00311317  1
  Br  Br67  1  0.84368698  0.06248763  0.80575467  1
  Br  Br68  1  0.72860405  0.65607820  0.01192644  1
  Br  Br69  1  0.24141300  0.93206080  0.66840520  1
  Br  Br70  1  0.81559408  0.27093591  0.53486930  1
  Br  Br71  1  0.60129734  0.61378539  0.34301251  1
  Br  Br72  1  0.92174079  0.68839893  0.33647062  1
  Br  Br73  1  0.58781708  0.05359818  0.17354486  1
