# generated using pymatgen
data_TiNb2Zn(PbO3)4
_symmetry_space_group_name_H-M   'P 1'
_cell_length_a   4.05481856
_cell_length_b   4.05481856
_cell_length_c   16.76517533
_cell_angle_alpha   89.82618589
_cell_angle_beta   89.82618589
_cell_angle_gamma   89.52118472
_symmetry_Int_Tables_number   1
_chemical_formula_structural   TiNb2Zn(PbO3)4
_chemical_formula_sum   'Ti1 Nb2 Zn1 Pb4 O12'
_cell_volume   275.63338739
_cell_formula_units_Z   1
loop_
 _symmetry_equiv_pos_site_id
 _symmetry_equiv_pos_as_xyz
  1  'x, y, z'
loop_
 _atom_site_type_symbol
 _atom_site_label
 _atom_site_symmetry_multiplicity
 _atom_site_fract_x
 _atom_site_fract_y
 _atom_site_fract_z
 _atom_site_occupancy
  Ti  Ti0  1  0.47427812  0.47427812  0.87073594  1
  Nb  Nb1  1  0.51038462  0.51038462  0.11763889  1
  Nb  Nb2  1  0.52378069  0.52378069  0.62319030  1
  Zn  Zn3  1  0.50674810  0.50674810  0.37249808  1
  Pb  Pb4  1  0.05573295  0.05573295  0.26832662  1
  Pb  Pb5  1  0.03728238  0.03728238  0.75230462  1
  Pb  Pb6  1  0.00575195  0.00575195  0.46690748  1
  Pb  Pb7  1  0.95165784  0.95165784  0.98315297  1
  O  O8  1  0.50846532  0.50846532  0.98895063  1
  O  O9  1  0.49993241  0.49993241  0.51223813  1
  O  O10  1  0.47707235  0.47707235  0.23116604  1
  O  O11  1  0.48690711  0.48690711  0.75436235  1
  O  O12  1  0.49198838  0.99163150  0.10935165  1
  O  O13  1  0.47889230  0.99974887  0.37321067  1
  O  O14  1  0.50139367  0.00445973  0.87212647  1
  O  O15  1  0.49369610  0.00019664  0.63560019  1
  O  O16  1  0.99163150  0.49198838  0.10935165  1
  O  O17  1  0.99974887  0.47889230  0.37321067  1
  O  O18  1  0.00019664  0.49369610  0.63560019  1
  O  O19  1  0.00445973  0.50139367  0.87212647  1
