# generated using pymatgen
data_Mg30GaBO32
_symmetry_space_group_name_H-M   'P 1'
_cell_length_a   8.53168143
_cell_length_b   8.53041152
_cell_length_c   8.53041152
_cell_angle_alpha   90.00000000
_cell_angle_beta   90.00000000
_cell_angle_gamma   90.00000000
_symmetry_Int_Tables_number   1
_chemical_formula_structural   Mg30GaBO32
_chemical_formula_sum   'Mg30 Ga1 B1 O32'
_cell_volume   620.83271774
_cell_formula_units_Z   1
loop_
 _symmetry_equiv_pos_site_id
 _symmetry_equiv_pos_as_xyz
  1  'x, y, z'
loop_
 _atom_site_type_symbol
 _atom_site_label
 _atom_site_symmetry_multiplicity
 _atom_site_fract_x
 _atom_site_fract_y
 _atom_site_fract_z
 _atom_site_occupancy
  Mg  Mg0  1  -0.00000000  0.00000000  0.50000000  1
  Mg  Mg1  1  -0.00000000  0.50000000  0.00000000  1
  Mg  Mg2  1  0.50000000  0.00000000  0.00000000  1
  Mg  Mg3  1  0.50000000  0.00000000  0.50000000  1
  Mg  Mg4  1  0.50000000  0.50000000  0.00000000  1
  Mg  Mg5  1  0.50000000  0.50000000  0.50000000  1
  Mg  Mg6  1  -0.00000000  0.24507035  0.24507035  1
  Mg  Mg7  1  -0.00000000  0.24507035  0.75492965  1
  Mg  Mg8  1  -0.00000000  0.75492965  0.24507035  1
  Mg  Mg9  1  -0.00000000  0.75492965  0.75492965  1
  Mg  Mg10  1  0.50000000  0.24862633  0.24862633  1
  Mg  Mg11  1  0.50000000  0.24862633  0.75137367  1
  Mg  Mg12  1  0.50000000  0.75137367  0.24862633  1
  Mg  Mg13  1  0.50000000  0.75137367  0.75137367  1
  Mg  Mg14  1  0.24798651  0.00000000  0.24680795  1
  Mg  Mg15  1  0.24798651  0.00000000  0.75319205  1
  Mg  Mg16  1  0.25106338  0.50000000  0.24752781  1
  Mg  Mg17  1  0.25106338  0.50000000  0.75247219  1
  Mg  Mg18  1  0.75201349  0.00000000  0.24680795  1
  Mg  Mg19  1  0.75201349  0.00000000  0.75319205  1
  Mg  Mg20  1  0.74893662  0.50000000  0.24752781  1
  Mg  Mg21  1  0.74893662  0.50000000  0.75247219  1
  Mg  Mg22  1  0.24798651  0.24680795  0.00000000  1
  Mg  Mg23  1  0.25106338  0.24752781  0.50000000  1
  Mg  Mg24  1  0.24798651  0.75319205  0.00000000  1
  Mg  Mg25  1  0.25106338  0.75247219  0.50000000  1
  Mg  Mg26  1  0.75201349  0.24680795  0.00000000  1
  Mg  Mg27  1  0.74893662  0.24752781  0.50000000  1
  Mg  Mg28  1  0.75201349  0.75319205  0.00000000  1
  Mg  Mg29  1  0.74893662  0.75247219  0.50000000  1
  Ga  Ga30  1  -0.00000000  0.50000000  0.50000000  1
  B  B31  1  -0.00000000  0.00000000  0.00000000  1
  O  O32  1  0.26407193  0.00000000  0.00000000  1
  O  O33  1  0.25045820  0.00000000  0.50000000  1
  O  O34  1  0.25045820  0.50000000  0.00000000  1
  O  O35  1  0.24348721  0.50000000  0.50000000  1
  O  O36  1  0.73592807  0.00000000  0.00000000  1
  O  O37  1  0.74954180  0.00000000  0.50000000  1
  O  O38  1  0.74954180  0.50000000  0.00000000  1
  O  O39  1  0.75651279  0.50000000  0.50000000  1
  O  O40  1  0.24910351  0.25037249  0.25037249  1
  O  O41  1  0.24910351  0.25037249  0.74962751  1
  O  O42  1  0.24910351  0.74962751  0.25037249  1
  O  O43  1  0.24910351  0.74962751  0.74962751  1
  O  O44  1  0.75089649  0.25037249  0.25037249  1
  O  O45  1  0.75089649  0.25037249  0.74962751  1
  O  O46  1  0.75089649  0.74962751  0.25037249  1
  O  O47  1  0.75089649  0.74962751  0.74962751  1
  O  O48  1  -0.00000000  0.00000000  0.26629266  1
  O  O49  1  -0.00000000  0.00000000  0.73370734  1
  O  O50  1  -0.00000000  0.50000000  0.26046816  1
  O  O51  1  -0.00000000  0.50000000  0.73953184  1
  O  O52  1  0.50000000  0.00000000  0.25271424  1
  O  O53  1  0.50000000  0.00000000  0.74728576  1
  O  O54  1  0.50000000  0.50000000  0.25253404  1
  O  O55  1  0.50000000  0.50000000  0.74746596  1
  O  O56  1  -0.00000000  0.26629266  0.00000000  1
  O  O57  1  -0.00000000  0.26046816  0.50000000  1
  O  O58  1  -0.00000000  0.73370734  0.00000000  1
  O  O59  1  -0.00000000  0.73953184  0.50000000  1
  O  O60  1  0.50000000  0.25271424  0.00000000  1
  O  O61  1  0.50000000  0.25253404  0.50000000  1
  O  O62  1  0.50000000  0.74728576  0.00000000  1
  O  O63  1  0.50000000  0.74746596  0.50000000  1
