# generated using pymatgen
data_Ho2Se3
_symmetry_space_group_name_H-M   'P 1'
_cell_length_a   22.51547962
_cell_length_b   8.67368364
_cell_length_c   8.67368337
_cell_angle_alpha   90.00000000
_cell_angle_beta   54.70067507
_cell_angle_gamma   54.70067605
_symmetry_Int_Tables_number   1
_chemical_formula_structural   Ho2Se3
_chemical_formula_sum   'Ho16 Se24'
_cell_volume   976.28651609
_cell_formula_units_Z   8
loop_
 _symmetry_equiv_pos_site_id
 _symmetry_equiv_pos_as_xyz
  1  'x, y, z'
loop_
 _atom_site_type_symbol
 _atom_site_label
 _atom_site_symmetry_multiplicity
 _atom_site_fract_x
 _atom_site_fract_y
 _atom_site_fract_z
 _atom_site_occupancy
  Ho  Ho0  1  0.99604615  0.39034664  0.24658864  1
  Ho  Ho1  1  0.99604615  0.12151491  0.76527292  1
  Ho  Ho2  1  0.08098928  0.62851557  0.37851557  1
  Ho  Ho3  1  0.16666700  0.25000000  0.63278749  1
  Ho  Ho4  1  0.25234372  0.87148443  0.12148443  1
  Ho  Ho5  1  0.33728685  0.37848509  0.25341136  1
  Ho  Ho6  1  0.33728685  0.10965336  0.73472708  1
  Ho  Ho7  1  0.16666700  0.75000000  0.86721251  1
  Ho  Ho8  1  0.49604615  0.26527292  0.62151491  1
  Ho  Ho9  1  0.58098928  0.87851557  0.12851557  1
  Ho  Ho10  1  0.66666700  0.36721251  0.25000000  1
  Ho  Ho11  1  0.66666700  0.13278749  0.75000000  1
  Ho  Ho12  1  0.49604615  0.74658864  0.89034664  1
  Ho  Ho13  1  0.75234372  0.62148443  0.37148443  1
  Ho  Ho14  1  0.83728685  0.23472708  0.60965336  1
  Ho  Ho15  1  0.83728685  0.75341136  0.87848509  1
  Se  Se16  1  0.04719121  0.99934353  0.36380494  1
  Se  Se17  1  0.12656358  0.49092701  0.99394294  1
  Se  Se18  1  0.04719121  0.35908183  0.49462042  1
  Se  Se19  1  0.28614179  0.14091817  0.13619506  1
  Se  Se20  1  0.28614179  0.50065647  0.00537958  1
  Se  Se21  1  0.20676942  0.00907299  0.87363467  1
  Se  Se22  1  0.12656358  0.62938126  0.62636533  1
  Se  Se23  1  0.38123273  0.00168242  0.34899516  1
  Se  Se24  1  0.20676942  0.87061874  0.50605706  1
  Se  Se25  1  0.45210127  0.49269235  0.99831758  1
  Se  Se26  1  0.38123273  0.35462039  0.50730765  1
  Se  Se27  1  0.62656358  0.12636533  0.12938126  1
  Se  Se28  1  0.62656358  0.49394294  0.99092701  1
  Se  Se29  1  0.54719121  0.99462042  0.85908183  1
  Se  Se30  1  0.45210127  0.65100484  0.64537961  1
  Se  Se31  1  0.70676942  0.00605706  0.37061874  1
  Se  Se32  1  0.54719121  0.86380494  0.49934353  1
  Se  Se33  1  0.78614179  0.50537958  0.00065647  1
  Se  Se34  1  0.70676942  0.37363467  0.50907299  1
  Se  Se35  1  0.95210127  0.14537961  0.15100484  1
  Se  Se36  1  0.95210127  0.49831758  0.99269235  1
  Se  Se37  1  0.88123273  0.00730765  0.85462039  1
  Se  Se38  1  0.78614179  0.63619506  0.64091817  1
  Se  Se39  1  0.88123273  0.84899516  0.50168242  1
