# generated using pymatgen
data_RbCrI3
_symmetry_space_group_name_H-M   'P 1'
_cell_length_a   7.02522109
_cell_length_b   8.08457641
_cell_length_c   8.08457657
_cell_angle_alpha   60.17367621
_cell_angle_beta   85.40497386
_cell_angle_gamma   85.40497240
_symmetry_Int_Tables_number   1
_chemical_formula_structural   RbCrI3
_chemical_formula_sum   'Rb2 Cr2 I6'
_cell_volume   396.63687054
_cell_formula_units_Z   2
loop_
 _symmetry_equiv_pos_site_id
 _symmetry_equiv_pos_as_xyz
  1  'x, y, z'
loop_
 _atom_site_type_symbol
 _atom_site_label
 _atom_site_symmetry_multiplicity
 _atom_site_fract_x
 _atom_site_fract_y
 _atom_site_fract_z
 _atom_site_occupancy
  Rb  Rb0  1  0.25967791  0.66189162  0.66189162  1
  Rb  Rb1  1  0.74032209  0.33810838  0.33810838  1
  Cr  Cr2  1  0.00000000  0.00000000  0.00000000  1
  Cr  Cr3  1  0.50000000  0.00000000  0.00000000  1
  I  I4  1  0.19052587  0.16615119  0.16615119  1
  I  I5  1  0.27909277  0.15981471  0.67719557  1
  I  I6  1  0.27909277  0.67719557  0.15981471  1
  I  I7  1  0.72090723  0.32280443  0.84018529  1
  I  I8  1  0.72090723  0.84018529  0.32280443  1
  I  I9  1  0.80947413  0.83384881  0.83384881  1
