# generated using pymatgen
data_YbCeS3
_symmetry_space_group_name_H-M   'P 1'
_cell_length_a   3.94090656
_cell_length_b   16.36866729
_cell_length_c   20.96376586
_cell_angle_alpha   90.00000000
_cell_angle_beta   90.00000000
_cell_angle_gamma   90.00000000
_symmetry_Int_Tables_number   1
_chemical_formula_structural   YbCeS3
_chemical_formula_sum   'Yb12 Ce12 S36'
_cell_volume   1352.31778460
_cell_formula_units_Z   12
loop_
 _symmetry_equiv_pos_site_id
 _symmetry_equiv_pos_as_xyz
  1  'x, y, z'
loop_
 _atom_site_type_symbol
 _atom_site_label
 _atom_site_symmetry_multiplicity
 _atom_site_fract_x
 _atom_site_fract_y
 _atom_site_fract_z
 _atom_site_occupancy
  Yb  Yb0  1  0.75000000  0.90523912  0.24564368  1
  Yb  Yb1  1  0.75000000  0.05582233  0.06946409  1
  Yb  Yb2  1  0.25000000  0.44417767  0.56946409  1
  Yb  Yb3  1  0.25000000  0.94417767  0.93053591  1
  Yb  Yb4  1  0.25000000  0.09476088  0.75435632  1
  Yb  Yb5  1  0.75000000  0.40523912  0.25435632  1
  Yb  Yb6  1  0.25000000  0.56523296  0.08026437  1
  Yb  Yb7  1  0.25000000  0.06523296  0.41973563  1
  Yb  Yb8  1  0.25000000  0.59476088  0.74564368  1
  Yb  Yb9  1  0.75000000  0.93476704  0.58026437  1
  Yb  Yb10  1  0.75000000  0.55582233  0.43053591  1
  Yb  Yb11  1  0.75000000  0.43476704  0.91973563  1
  Ce  Ce12  1  0.25000000  0.16256105  0.24848940  1
  Ce  Ce13  1  0.75000000  0.83743895  0.75151060  1
  Ce  Ce14  1  0.75000000  0.33743895  0.74848940  1
  Ce  Ce15  1  0.25000000  0.33167143  0.09061847  1
  Ce  Ce16  1  0.25000000  0.19516224  0.92373021  1
  Ce  Ce17  1  0.25000000  0.83167143  0.40938153  1
  Ce  Ce18  1  0.75000000  0.66832857  0.90938153  1
  Ce  Ce19  1  0.75000000  0.80483776  0.07626979  1
  Ce  Ce20  1  0.25000000  0.69516224  0.57626979  1
  Ce  Ce21  1  0.75000000  0.30483776  0.42373021  1
  Ce  Ce22  1  0.75000000  0.16832857  0.59061847  1
  Ce  Ce23  1  0.25000000  0.66256105  0.25151060  1
  S  S24  1  0.25000000  0.93572886  0.80026913  1
  S  S25  1  0.75000000  0.44558978  0.05419413  1
  S  S26  1  0.75000000  0.15176354  0.34612444  1
  S  S27  1  0.75000000  0.68807305  0.67894919  1
  S  S28  1  0.75000000  0.28547317  0.98299661  1
  S  S29  1  0.25000000  0.34823646  0.84612444  1
  S  S30  1  0.25000000  0.71452683  0.01700339  1
  S  S31  1  0.75000000  0.06867519  0.93768936  1
  S  S32  1  0.75000000  0.94558978  0.44580587  1
  S  S33  1  0.75000000  0.54209066  0.82075672  1
  S  S34  1  0.25000000  0.66809399  0.43900871  1
  S  S35  1  0.25000000  0.73228808  0.82296304  1
  S  S36  1  0.75000000  0.06427114  0.19973087  1
  S  S37  1  0.25000000  0.23228808  0.67703696  1
  S  S38  1  0.75000000  0.56867519  0.56231064  1
  S  S39  1  0.75000000  0.33190601  0.56099129  1
  S  S40  1  0.25000000  0.84823646  0.65387556  1
  S  S41  1  0.25000000  0.95790934  0.32075672  1
  S  S42  1  0.25000000  0.31192695  0.32105081  1
  S  S43  1  0.75000000  0.26771192  0.17703696  1
  S  S44  1  0.75000000  0.76771192  0.32296304  1
  S  S45  1  0.25000000  0.05441022  0.55419413  1
  S  S46  1  0.75000000  0.78547317  0.51700339  1
  S  S47  1  0.25000000  0.81192695  0.17894919  1
  S  S48  1  0.75000000  0.04209066  0.67924328  1
  S  S49  1  0.25000000  0.93132481  0.06231064  1
  S  S50  1  0.25000000  0.16809399  0.06099129  1
  S  S51  1  0.75000000  0.65176354  0.15387556  1
  S  S52  1  0.75000000  0.18807305  0.82105081  1
  S  S53  1  0.25000000  0.21452683  0.48299661  1
  S  S54  1  0.25000000  0.45790934  0.17924328  1
  S  S55  1  0.25000000  0.43132481  0.43768936  1
  S  S56  1  0.25000000  0.43572886  0.69973087  1
  S  S57  1  0.75000000  0.56427114  0.30026913  1
  S  S58  1  0.25000000  0.55441022  0.94580587  1
  S  S59  1  0.75000000  0.83190601  0.93900871  1
