# generated using pymatgen
data_Cu14I19
_symmetry_space_group_name_H-M   'P 1'
_cell_length_a   4.22313228
_cell_length_b   4.22313251
_cell_length_c   81.47618928
_cell_angle_alpha   60.85915008
_cell_angle_beta   60.85914809
_cell_angle_gamma   60.30550279
_symmetry_Int_Tables_number   1
_chemical_formula_structural   Cu14I19
_chemical_formula_sum   'Cu14 I19'
_cell_volume   1043.09164981
_cell_formula_units_Z   1
loop_
 _symmetry_equiv_pos_site_id
 _symmetry_equiv_pos_as_xyz
  1  'x, y, z'
loop_
 _atom_site_type_symbol
 _atom_site_label
 _atom_site_symmetry_multiplicity
 _atom_site_fract_x
 _atom_site_fract_y
 _atom_site_fract_z
 _atom_site_occupancy
  Cu  Cu0  1  0.24980098  0.24980098  0.11851729  1
  Cu  Cu1  1  0.25276494  0.25276494  0.27591258  1
  Cu  Cu2  1  0.27500292  0.27500292  0.38123839  1
  Cu  Cu3  1  0.26784220  0.26784220  0.43520156  1
  Cu  Cu4  1  0.26769577  0.26769577  0.48799536  1
  Cu  Cu5  1  0.26773834  0.26773834  0.54065393  1
  Cu  Cu6  1  0.26778685  0.26778685  0.59326396  1
  Cu  Cu7  1  0.26791738  0.26791737  0.64588143  1
  Cu  Cu8  1  0.26739588  0.26739588  0.69857056  1
  Cu  Cu9  1  0.26685711  0.26685711  0.75125316  1
  Cu  Cu10  1  0.26697361  0.26697361  0.80389930  1
  Cu  Cu11  1  0.26747686  0.26747686  0.85649526  1
  Cu  Cu12  1  0.26539558  0.26539558  0.90939737  1
  Cu  Cu13  1  0.25555439  0.25555439  0.96366873  1
  I  I14  1  0.00411196  0.00411196  0.00069408  1
  I  I15  1  0.00186615  0.00186615  0.05232867  1
  I  I16  1  0.01164450  0.01164450  0.10303888  1
  I  I17  1  0.01471197  0.01471197  0.26043155  1
  I  I18  1  0.01817255  0.01817255  0.15539480  1
  I  I19  1  0.00732287  0.00732287  0.20928972  1
  I  I20  1  0.02130103  0.02130103  0.31283639  1
  I  I21  1  0.01715991  0.01715991  0.36907609  1
  I  I22  1  0.01637576  0.01637576  0.42197208  1
  I  I23  1  0.01773739  0.01773739  0.52714233  1
  I  I24  1  0.01691467  0.01691467  0.47463414  1
  I  I25  1  0.01835356  0.01835356  0.57967995  1
  I  I26  1  0.01876038  0.01876038  0.63224267  1
  I  I27  1  0.01866381  0.01866381  0.68485865  1
  I  I28  1  0.01837229  0.01837229  0.79013075  1
  I  I29  1  0.01832851  0.01832851  0.73750406  1
  I  I30  1  0.01980397  0.01980397  0.89514922  1
  I  I31  1  0.01930674  0.01930674  0.84266726  1
  I  I32  1  0.01888918  0.01888918  0.94771682  1
