# generated using pymatgen
data_Co17Se20
_symmetry_space_group_name_H-M   'P 1'
_cell_length_a   31.53941905
_cell_length_b   23.74262718
_cell_length_c   18.13331218
_cell_angle_alpha   30.82354198
_cell_angle_beta   22.06256575
_cell_angle_gamma   14.29774489
_symmetry_Int_Tables_number   1
_chemical_formula_structural   Co17Se20
_chemical_formula_sum   'Co34 Se40'
_cell_volume   1140.86235853
_cell_formula_units_Z   2
loop_
 _symmetry_equiv_pos_site_id
 _symmetry_equiv_pos_as_xyz
  1  'x, y, z'
loop_
 _atom_site_type_symbol
 _atom_site_label
 _atom_site_symmetry_multiplicity
 _atom_site_fract_x
 _atom_site_fract_y
 _atom_site_fract_z
 _atom_site_occupancy
  Co  Co0  1  0.10755564  0.98719104  0.50122038  1
  Co  Co1  1  0.10531372  0.50049572  0.99099436  1
  Co  Co2  1  0.06784479  0.22107340  0.49832047  1
  Co  Co3  1  0.30105371  0.99935006  0.49853959  1
  Co  Co4  1  0.02274427  0.77028566  0.01572908  1
  Co  Co5  1  0.29892971  0.50119751  0.00052560  1
  Co  Co6  1  0.26603914  0.22319353  0.49996328  1
  Co  Co7  1  0.49894629  0.00064994  0.50146041  1
  Co  Co8  1  0.21813227  0.77258397  0.02036355  1
  Co  Co9  1  0.19874906  0.50097876  0.50098078  1
  Co  Co10  1  0.50107029  0.49880249  0.99947440  1
  Co  Co11  1  0.17894466  0.22710086  0.98421929  1
  Co  Co12  1  0.46106285  0.22502297  0.50663826  1
  Co  Co13  1  0.14253070  0.76363630  0.50451813  1
  Co  Co14  1  0.69244436  0.01280896  0.49877962  1
  Co  Co15  1  0.42880812  0.76602197  0.00969425  1
  Co  Co16  1  0.69468628  0.49950428  0.00900564  1
  Co  Co17  1  0.37119188  0.23397803  0.99030575  1
  Co  Co18  1  0.65746930  0.23636370  0.49548187  1
  Co  Co19  1  0.33893715  0.77497703  0.49336174  1
  Co  Co20  1  0.90000000  0.00000000  0.50000000  1
  Co  Co21  1  0.62105534  0.77289914  0.01578071  1
  Co  Co22  1  0.60125094  0.49902124  0.49901922  1
  Co  Co23  1  0.90000000  0.50000000  0.00000000  1
  Co  Co24  1  0.58186773  0.22741603  0.97963645  1
  Co  Co25  1  0.86069816  0.22445880  0.50886647  1
  Co  Co26  1  0.53396086  0.77680647  0.50003672  1
  Co  Co27  1  0.82735990  0.76828826  0.00857951  1
  Co  Co28  1  0.80073015  0.49981931  0.49887571  1
  Co  Co29  1  0.77725573  0.22971434  0.98427092  1
  Co  Co30  1  0.73215521  0.77892660  0.50167953  1
  Co  Co31  1  0.99926985  0.50018069  0.50112429  1
  Co  Co32  1  0.97264010  0.23171174  0.99142049  1
  Co  Co33  1  0.93930184  0.77554120  0.49113353  1
  Se  Se34  1  0.02031297  0.04477011  0.33432985  1
  Se  Se35  1  0.21740633  0.05015761  0.32973029  1
  Se  Se36  1  0.16512279  0.46923252  0.16981354  1
  Se  Se37  1  0.12761525  0.04114768  0.83389809  1
  Se  Se38  1  0.41772267  0.04970986  0.33157883  1
  Se  Se39  1  0.12618248  0.54149516  0.33230212  1
  Se  Se40  1  0.07114932  0.46118408  0.66871879  1
  Se  Se41  1  0.37018937  0.46587233  0.16487968  1
  Se  Se42  1  0.32828253  0.04132351  0.83190749  1
  Se  Se43  1  0.61664055  0.05021821  0.33240066  1
  Se  Se44  1  0.07171273  0.95812126  0.16899623  1
  Se  Se45  1  0.03163978  0.53162945  0.83408377  1
  Se  Se46  1  0.33013316  0.53771714  0.32986792  1
  Se  Se47  1  0.25868567  0.47149586  0.67277880  1
  Se  Se48  1  0.56413096  0.47076096  0.16761984  1
  Se  Se49  1  0.52892293  0.04263990  0.83035185  1
  Se  Se50  1  0.81086926  0.05832024  0.33336843  1
  Se  Se51  1  0.27107707  0.95736010  0.16964815  1
  Se  Se52  1  0.23586904  0.52923904  0.83238016  1
  Se  Se53  1  0.54131433  0.52850414  0.32722120  1
  Se  Se54  1  0.46986684  0.46228286  0.67013208  1
  Se  Se55  1  0.76836022  0.46837055  0.16591623  1
  Se  Se56  1  0.72828727  0.04187874  0.83100377  1
  Se  Se57  1  0.18335945  0.94978179  0.66759934  1
  Se  Se58  1  0.47171747  0.95867649  0.16809251  1
  Se  Se59  1  0.42981063  0.53412767  0.83512032  1
  Se  Se60  1  0.72885068  0.53881592  0.33128121  1
  Se  Se61  1  0.67381752  0.45850484  0.66769788  1
  Se  Se62  1  0.96632987  0.46991200  0.16596662  1
  Se  Se63  1  0.93006151  0.03882348  0.83191680  1
  Se  Se64  1  0.38227733  0.95029014  0.66842117  1
  Se  Se65  1  0.67238475  0.95885232  0.16610191  1
  Se  Se66  1  0.63487721  0.53076748  0.83018646  1
  Se  Se67  1  0.93107893  0.53721725  0.32896381  1
  Se  Se68  1  0.86892107  0.46278275  0.67103619  1
  Se  Se69  1  0.58259367  0.94984239  0.67026971  1
  Se  Se70  1  0.86993849  0.96117652  0.16808320  1
  Se  Se71  1  0.83367013  0.53008800  0.83403338  1
  Se  Se72  1  0.77968703  0.95522989  0.66567015  1
  Se  Se73  1  0.98913074  0.94167976  0.66663157  1
