# generated using pymatgen
data_AgH2SNO3
_symmetry_space_group_name_H-M   'P 1'
_cell_length_a   7.96327910
_cell_length_b   8.21835326
_cell_length_c   11.87004499
_cell_angle_alpha   90.00000000
_cell_angle_beta   90.00000000
_cell_angle_gamma   90.00000000
_symmetry_Int_Tables_number   1
_chemical_formula_structural   AgH2SNO3
_chemical_formula_sum   'Ag8 H16 S8 N8 O24'
_cell_volume   776.83557810
_cell_formula_units_Z   8
loop_
 _symmetry_equiv_pos_site_id
 _symmetry_equiv_pos_as_xyz
  1  'x, y, z'
loop_
 _atom_site_type_symbol
 _atom_site_label
 _atom_site_symmetry_multiplicity
 _atom_site_fract_x
 _atom_site_fract_y
 _atom_site_fract_z
 _atom_site_occupancy
  Ag  Ag0  1  0.61609628  0.25046652  0.10319237  1
  Ag  Ag1  1  0.11609628  0.74953348  0.39680763  1
  Ag  Ag2  1  0.38390372  0.24953348  0.60319237  1
  Ag  Ag3  1  0.88390372  0.75046652  0.89680763  1
  Ag  Ag4  1  0.38390372  0.74953348  0.89680763  1
  Ag  Ag5  1  0.88390372  0.25046652  0.60319237  1
  Ag  Ag6  1  0.61609628  0.75046652  0.39680763  1
  Ag  Ag7  1  0.11609628  0.24953348  0.10319237  1
  H  H8  1  0.49324435  0.13680235  0.89387671  1
  H  H9  1  0.99324435  0.86319765  0.60612329  1
  H  H10  1  0.50675565  0.36319765  0.39387671  1
  H  H11  1  0.00675565  0.63680235  0.10612329  1
  H  H12  1  0.50675565  0.86319765  0.10612329  1
  H  H13  1  0.00675565  0.13680235  0.39387671  1
  H  H14  1  0.49324435  0.63680235  0.60612329  1
  H  H15  1  0.99324435  0.36319765  0.89387671  1
  H  H16  1  0.70438419  0.11708510  0.88765759  1
  H  H17  1  0.20438419  0.88291490  0.61234241  1
  H  H18  1  0.29561581  0.38291490  0.38765759  1
  H  H19  1  0.79561581  0.61708510  0.11234241  1
  H  H20  1  0.29561581  0.88291490  0.11234241  1
  H  H21  1  0.79561581  0.11708510  0.38765759  1
  H  H22  1  0.70438419  0.61708510  0.61234241  1
  H  H23  1  0.20438419  0.38291490  0.88765759  1
  S  S24  1  0.88032118  0.36896557  0.33665678  1
  S  S25  1  0.38032118  0.63103443  0.16334322  1
  S  S26  1  0.11967882  0.13103443  0.83665678  1
  S  S27  1  0.61967882  0.86896557  0.66334322  1
  S  S28  1  0.11967882  0.63103443  0.66334322  1
  S  S29  1  0.61967882  0.36896557  0.83665678  1
  S  S30  1  0.88032118  0.86896557  0.16334322  1
  S  S31  1  0.38032118  0.13103443  0.33665678  1
  N  N32  1  0.60692730  0.19277667  0.91079481  1
  N  N33  1  0.10692730  0.80722333  0.58920519  1
  N  N34  1  0.39307270  0.30722333  0.41079481  1
  N  N35  1  0.89307270  0.69277667  0.08920519  1
  N  N36  1  0.39307270  0.80722333  0.08920519  1
  N  N37  1  0.89307270  0.19277667  0.41079481  1
  N  N38  1  0.60692730  0.69277667  0.58920519  1
  N  N39  1  0.10692730  0.30722333  0.91079481  1
  O  O40  1  0.86537627  0.32879266  0.21500135  1
  O  O41  1  0.36537627  0.67120734  0.28499865  1
  O  O42  1  0.13462373  0.17120734  0.71500135  1
  O  O43  1  0.63462373  0.82879266  0.78499865  1
  O  O44  1  0.13462373  0.67120734  0.78499865  1
  O  O45  1  0.63462373  0.32879266  0.71500135  1
  O  O46  1  0.86537627  0.82879266  0.28499865  1
  O  O47  1  0.36537627  0.17120734  0.21500135  1
  O  O48  1  0.72782247  0.44719396  0.37994100  1
  O  O49  1  0.22782247  0.55280604  0.12005900  1
  O  O50  1  0.27217753  0.05280604  0.87994100  1
  O  O51  1  0.77217753  0.94719396  0.62005900  1
  O  O52  1  0.27217753  0.55280604  0.62005900  1
  O  O53  1  0.77217753  0.44719396  0.87994100  1
  O  O54  1  0.72782247  0.94719396  0.12005900  1
  O  O55  1  0.22782247  0.05280604  0.37994100  1
  O  O56  1  0.53784942  0.54807240  0.13696465  1
  O  O57  1  0.03784942  0.45192760  0.36303535  1
  O  O58  1  0.46215058  0.95192760  0.63696465  1
  O  O59  1  0.96215058  0.04807240  0.86303535  1
  O  O60  1  0.46215058  0.45192760  0.86303535  1
  O  O61  1  0.96215058  0.54807240  0.63696465  1
  O  O62  1  0.53784942  0.04807240  0.36303535  1
  O  O63  1  0.03784942  0.95192760  0.13696465  1
