# generated using pymatgen
data_NaH3C2O5
_symmetry_space_group_name_H-M   'P 1'
_cell_length_a   5.75199796
_cell_length_b   6.97561639
_cell_length_c   6.69324404
_cell_angle_alpha   75.67534455
_cell_angle_beta   85.10103581
_cell_angle_gamma   71.77397071
_symmetry_Int_Tables_number   1
_chemical_formula_structural   NaH3C2O5
_chemical_formula_sum   'Na2 H6 C4 O10'
_cell_volume   247.14427690
_cell_formula_units_Z   2
loop_
 _symmetry_equiv_pos_site_id
 _symmetry_equiv_pos_as_xyz
  1  'x, y, z'
loop_
 _atom_site_type_symbol
 _atom_site_label
 _atom_site_symmetry_multiplicity
 _atom_site_fract_x
 _atom_site_fract_y
 _atom_site_fract_z
 _atom_site_occupancy
  Na  Na0  1  0.75555496  0.74804935  0.97107965  1
  Na  Na1  1  0.24444504  0.25195065  0.02892035  1
  H  H2  1  0.23268225  0.68552736  0.77927707  1
  H  H3  1  0.76731775  0.31447264  0.22072293  1
  H  H4  1  0.25127893  0.70445143  0.00802016  1
  H  H5  1  0.74872107  0.29554857  0.99197984  1
  H  H6  1  0.98580500  0.75532939  0.39367589  1
  H  H7  1  0.01419500  0.24467061  0.60632411  1
  C  C8  1  0.40024121  0.77678683  0.35819070  1
  C  C9  1  0.59975879  0.22321317  0.64180930  1
  C  C10  1  0.64194678  0.76063249  0.45986062  1
  C  C11  1  0.35805322  0.23936751  0.54013938  1
  O  O12  1  0.38935857  0.82897318  0.16329538  1
  O  O13  1  0.61064143  0.17102682  0.83670462  1
  O  O14  1  0.17834410  0.64183578  0.92262050  1
  O  O15  1  0.82165590  0.35816422  0.07737950  1
  O  O16  1  0.82468061  0.76371854  0.32615707  1
  O  O17  1  0.17531939  0.23628146  0.67384293  1
  O  O18  1  0.65334760  0.74924620  0.64536534  1
  O  O19  1  0.34665240  0.25075380  0.35463466  1
  O  O20  1  0.23359458  0.73768927  0.48306191  1
  O  O21  1  0.76640542  0.26231073  0.51693809  1
