# generated using pymatgen
data_LiCr(PO3)5
_symmetry_space_group_name_H-M   'P 1'
_cell_length_a   12.42480009
_cell_length_b   9.69934146
_cell_length_c   5.26269020
_cell_angle_alpha   90.00000000
_cell_angle_beta   94.27640329
_cell_angle_gamma   90.00000000
_symmetry_Int_Tables_number   1
_chemical_formula_structural   LiCr(PO3)5
_chemical_formula_sum   'Li2 Cr2 P10 O30'
_cell_volume   632.45360127
_cell_formula_units_Z   2
loop_
 _symmetry_equiv_pos_site_id
 _symmetry_equiv_pos_as_xyz
  1  'x, y, z'
loop_
 _atom_site_type_symbol
 _atom_site_label
 _atom_site_symmetry_multiplicity
 _atom_site_fract_x
 _atom_site_fract_y
 _atom_site_fract_z
 _atom_site_occupancy
  Li  Li0  1  0.56732187  0.39245430  0.61802977  1
  Li  Li1  1  0.06732187  0.60754570  0.11802977  1
  Cr  Cr2  1  0.49561271  0.99653653  0.50688369  1
  Cr  Cr3  1  0.99561271  0.00346347  0.00688369  1
  P  P4  1  0.41157419  0.17592856  0.00709009  1
  P  P5  1  0.58074345  0.82202313  0.00913470  1
  P  P6  1  0.14347985  0.47217177  0.61023188  1
  P  P7  1  0.08074345  0.17797687  0.50913470  1
  P  P8  1  0.64347985  0.52782823  0.11023188  1
  P  P9  1  0.24576747  0.01679573  0.25733382  1
  P  P10  1  0.35990115  0.46961147  0.88501529  1
  P  P11  1  0.85990115  0.53038853  0.38501529  1
  P  P12  1  0.91157419  0.82407144  0.50709009  1
  P  P13  1  0.74576747  0.98320427  0.75733382  1
  O  O14  1  0.25274772  0.40657782  0.74180828  1
  O  O15  1  0.65149918  0.05920727  0.62413940  1
  O  O16  1  0.29220455  0.11887126  0.04737554  1
  O  O17  1  0.99974240  0.13069801  0.29930956  1
  O  O18  1  0.05674340  0.15226678  0.78158361  1
  O  O19  1  0.83970603  0.06026090  0.88770951  1
  O  O20  1  0.33970603  0.93973910  0.38770951  1
  O  O21  1  0.43812503  0.15185229  0.73440677  1
  O  O22  1  0.33978973  0.58915212  0.05548859  1
  O  O23  1  0.70008031  0.88157929  0.96628748  1
  O  O24  1  0.66251506  0.41752753  0.91845849  1
  O  O25  1  0.59946348  0.66298091  0.95802807  1
  O  O26  1  0.15149918  0.94079273  0.12413940  1
  O  O27  1  0.57278148  0.48967377  0.31582705  1
  O  O28  1  0.39605598  0.33610283  0.05610764  1
  O  O29  1  0.89605598  0.66389717  0.55610764  1
  O  O30  1  0.93812503  0.84814771  0.23440677  1
  O  O31  1  0.20008031  0.11842071  0.46628748  1
  O  O32  1  0.55674340  0.84773322  0.28158361  1
  O  O33  1  0.79220455  0.88112874  0.54737554  1
  O  O34  1  0.93894809  0.50512721  0.18930240  1
  O  O35  1  0.09946348  0.33701909  0.45802807  1
  O  O36  1  0.49249086  0.12831426  0.21747640  1
  O  O37  1  0.49974240  0.86930199  0.79930956  1
  O  O38  1  0.07278148  0.51032623  0.81582705  1
  O  O39  1  0.75274772  0.59342218  0.24180828  1
  O  O40  1  0.16251506  0.58247247  0.41845849  1
  O  O41  1  0.43894809  0.49487279  0.68930240  1
  O  O42  1  0.83978973  0.41084788  0.55548859  1
  O  O43  1  0.99249086  0.87168574  0.71747640  1
