# generated using pymatgen
data_NiH16C4S4(N4Cl)2
_symmetry_space_group_name_H-M   'P 1'
_cell_length_a   8.21268197
_cell_length_b   8.21268197
_cell_length_c   8.21268197
_cell_angle_alpha   107.62749432
_cell_angle_beta   107.62749432
_cell_angle_gamma   113.22515956
_symmetry_Int_Tables_number   1
_chemical_formula_structural   NiH16C4S4(N4Cl)2
_chemical_formula_sum   'Ni1 H16 C4 S4 N8 Cl2'
_cell_volume   425.03323692
_cell_formula_units_Z   1
loop_
 _symmetry_equiv_pos_site_id
 _symmetry_equiv_pos_as_xyz
  1  'x, y, z'
loop_
 _atom_site_type_symbol
 _atom_site_label
 _atom_site_symmetry_multiplicity
 _atom_site_fract_x
 _atom_site_fract_y
 _atom_site_fract_z
 _atom_site_occupancy
  Ni  Ni0  1  0.00043223  0.00043223  0.00000000  1
  H  H1  1  0.88622769  0.54563469  0.35164379  1
  H  H2  1  0.19399090  0.53458391  0.64835621  1
  H  H3  1  0.53458391  0.88622769  0.34059300  1
  H  H4  1  0.54563469  0.19399090  0.65940700  1
  H  H5  1  0.62117331  0.39356542  0.21623604  1
  H  H6  1  0.17732938  0.40493727  0.78376396  1
  H  H7  1  0.40493727  0.62117331  0.22760789  1
  H  H8  1  0.39356542  0.17732938  0.77239211  1
  H  H9  1  0.45935842  0.03954302  0.01992077  1
  H  H10  1  0.01962225  0.43943765  0.98007923  1
  H  H11  1  0.43943765  0.45935842  0.41981540  1
  H  H12  1  0.03954302  0.01962225  0.58018460  1
  H  H13  1  0.61354144  0.94474269  0.99312596  1
  H  H14  1  0.95161673  0.62041547  0.00687404  1
  H  H15  1  0.62041547  0.61354144  0.66879875  1
  H  H16  1  0.94474269  0.95161673  0.33120125  1
  C  C17  1  0.76944630  0.24671650  0.17515219  1
  C  C18  1  0.07156431  0.59429411  0.82484781  1
  C  C19  1  0.59429411  0.76944630  0.52272980  1
  C  C20  1  0.24671650  0.07156431  0.47727020  1
  S  S21  1  0.00199828  0.28040715  0.22039228  1
  S  S22  1  0.06001487  0.78160600  0.77960772  1
  S  S23  1  0.78160600  0.00199828  0.72159113  1
  S  S24  1  0.28040715  0.06001487  0.27840887  1
  N  N25  1  0.75783054  0.40571820  0.26127985  1
  N  N26  1  0.14443835  0.49655069  0.73872015  1
  N  N27  1  0.49655069  0.75783054  0.35211234  1
  N  N28  1  0.40571820  0.14443835  0.64788766  1
  N  N29  1  0.60040927  0.06478739  0.05415644  1
  N  N30  1  0.01063095  0.54625283  0.94584356  1
  N  N31  1  0.54625283  0.60040927  0.53562188  1
  N  N32  1  0.06478739  0.01063095  0.46437812  1
  Cl  Cl33  1  0.73350035  0.73350035  0.00000000  1
  Cl  Cl34  1  0.28128141  0.28128141  0.00000000  1
