# generated using pymatgen
data_Co3(P2O7)2
_symmetry_space_group_name_H-M   'P 1'
_cell_length_a   5.29399860
_cell_length_b   6.36449347
_cell_length_c   16.24425399
_cell_angle_alpha   81.26169813
_cell_angle_beta   80.73698142
_cell_angle_gamma   73.23920946
_symmetry_Int_Tables_number   1
_chemical_formula_structural   Co3(P2O7)2
_chemical_formula_sum   'Co6 P8 O28'
_cell_volume   514.00820572
_cell_formula_units_Z   2
loop_
 _symmetry_equiv_pos_site_id
 _symmetry_equiv_pos_as_xyz
  1  'x, y, z'
loop_
 _atom_site_type_symbol
 _atom_site_label
 _atom_site_symmetry_multiplicity
 _atom_site_fract_x
 _atom_site_fract_y
 _atom_site_fract_z
 _atom_site_occupancy
  Co  Co0  1  0.79197064  0.72551064  0.40565264  1
  Co  Co1  1  0.20802936  0.27448936  0.59434736  1
  Co  Co2  1  0.04435808  0.62173540  0.81858327  1
  Co  Co3  1  0.23018414  0.96313329  0.33003420  1
  Co  Co4  1  0.95564192  0.37826460  0.18141673  1
  Co  Co5  1  0.76981586  0.03686671  0.66996580  1
  P  P6  1  0.82297248  0.89207162  0.21045323  1
  P  P7  1  0.29893926  0.77895802  0.54395461  1
  P  P8  1  0.36921502  0.42612644  0.31891259  1
  P  P9  1  0.43621788  0.76705818  0.92199410  1
  P  P10  1  0.56378212  0.23294182  0.07800590  1
  P  P11  1  0.17702752  0.10792838  0.78954677  1
  P  P12  1  0.70106074  0.22104198  0.45604539  1
  P  P13  1  0.63078498  0.57387356  0.68108741  1
  O  O14  1  0.18074165  0.65301029  0.33906885  1
  O  O15  1  0.88514004  0.01416790  0.41700466  1
  O  O16  1  0.35617982  0.13825990  0.70546642  1
  O  O17  1  0.73457671  0.66458048  0.90680697  1
  O  O18  1  0.41048582  0.84002081  0.45276438  1
  O  O19  1  0.27194680  0.62200364  0.90001780  1
  O  O20  1  0.16796584  0.59227704  0.55447657  1
  O  O21  1  0.21863486  0.28716855  0.28668540  1
  O  O22  1  0.98028198  0.67143309  0.17922926  1
  O  O23  1  0.72805320  0.37799636  0.09998220  1
  O  O24  1  0.26542329  0.33541952  0.09319303  1
  O  O25  1  0.43427635  0.29639471  0.41065962  1
  O  O26  1  0.38062833  0.98739303  0.85408177  1
  O  O27  1  0.81925835  0.34698971  0.66093115  1
  O  O28  1  0.61937167  0.01260697  0.14591823  1
  O  O29  1  0.58951418  0.15997919  0.54723562  1
  O  O30  1  0.01971802  0.32856691  0.82077074  1
  O  O31  1  0.65923716  0.16690531  0.99080760  1
  O  O32  1  0.11485996  0.98583210  0.58299534  1
  O  O33  1  0.83203416  0.40772296  0.44552343  1
  O  O34  1  0.00385746  0.03923498  0.21760844  1
  O  O35  1  0.62864924  0.43787940  0.26782477  1
  O  O36  1  0.34076284  0.83309469  0.00919240  1
  O  O37  1  0.37135076  0.56212060  0.73217523  1
  O  O38  1  0.56572365  0.70360529  0.58934038  1
  O  O39  1  0.64382018  0.86174010  0.29453358  1
  O  O40  1  0.99614254  0.96076502  0.78239156  1
  O  O41  1  0.78136514  0.71283145  0.71331460  1
