# generated using pymatgen
data_Co5(P2O7)4
_symmetry_space_group_name_H-M   'P 1'
_cell_length_a   12.62326674
_cell_length_b   9.36554490
_cell_length_c   10.68158935
_cell_angle_alpha   64.30428352
_cell_angle_beta   86.11688636
_cell_angle_gamma   73.84074878
_symmetry_Int_Tables_number   1
_chemical_formula_structural   Co5(P2O7)4
_chemical_formula_sum   'Co10 P16 O56'
_cell_volume   1090.93189721
_cell_formula_units_Z   2
loop_
 _symmetry_equiv_pos_site_id
 _symmetry_equiv_pos_as_xyz
  1  'x, y, z'
loop_
 _atom_site_type_symbol
 _atom_site_label
 _atom_site_symmetry_multiplicity
 _atom_site_fract_x
 _atom_site_fract_y
 _atom_site_fract_z
 _atom_site_occupancy
  Co  Co0  1  0.80795565  0.50912974  0.74637496  1
  Co  Co1  1  0.86997628  0.90522659  0.71578129  1
  Co  Co2  1  0.14753526  0.10022914  0.28590695  1
  Co  Co3  1  0.63002372  0.09477341  0.28421871  1
  Co  Co4  1  0.35246474  0.89977086  0.71409305  1
  Co  Co5  1  0.99084275  0.19140059  0.00810609  1
  Co  Co6  1  0.69204435  0.49087026  0.25362504  1
  Co  Co7  1  0.31527247  0.49103716  0.75063737  1
  Co  Co8  1  0.18472753  0.50896284  0.24936263  1
  Co  Co9  1  0.50915725  0.80859941  0.99189391  1
  P  P10  1  0.55544013  0.56277253  0.80573341  1
  P  P11  1  0.20552071  0.30732847  0.04007209  1
  P  P12  1  0.84893660  0.81533303  0.45707798  1
  P  P13  1  0.65106340  0.18466697  0.54292202  1
  P  P14  1  0.05833744  0.54620622  0.81044980  1
  P  P15  1  0.96193217  0.19797036  0.71539775  1
  P  P16  1  0.29447929  0.69267153  0.95992791  1
  P  P17  1  0.78695320  0.70464286  0.94917607  1
  P  P18  1  0.46073189  0.15633688  0.71396653  1
  P  P19  1  0.14903024  0.20905292  0.53748520  1
  P  P20  1  0.03926811  0.84366312  0.28603347  1
  P  P21  1  0.71304680  0.29535714  0.05082393  1
  P  P22  1  0.35096976  0.79094708  0.46251480  1
  P  P23  1  0.94455987  0.43722747  0.19426659  1
  P  P24  1  0.53806783  0.80202964  0.28460225  1
  P  P25  1  0.44166256  0.45379378  0.18955020  1
  O  O26  1  0.67886911  0.13824545  0.09040274  1
  O  O27  1  0.64688257  0.66927576  0.30170903  1
  O  O28  1  0.99950361  0.72570179  0.77177541  1
  O  O29  1  0.68299389  0.68701019  0.03433456  1
  O  O30  1  0.30400752  0.64816714  0.54891031  1
  O  O31  1  0.50049639  0.27429821  0.22822459  1
  O  O32  1  0.30408871  0.32697661  0.95398686  1
  O  O33  1  0.52103614  0.55778977  0.17838655  1
  O  O34  1  0.39276961  0.52525704  0.03259485  1
  O  O35  1  0.94995671  0.06137533  0.68270949  1
  O  O36  1  0.99271513  0.27027575  0.18468819  1
  O  O37  1  0.52028103  0.02646992  0.85578321  1
  O  O38  1  0.13417837  0.70772652  0.27839748  1
  O  O39  1  0.04015012  0.28760277  0.60213508  1
  O  O40  1  0.07102201  0.93156998  0.36323789  1
  O  O41  1  0.21987305  0.07242650  0.66853062  1
  O  O42  1  0.82113089  0.86175455  0.90959726  1
  O  O43  1  0.36582163  0.29227348  0.72160252  1
  O  O44  1  0.10723039  0.47474296  0.96740515  1
  O  O45  1  0.28012695  0.92757350  0.33146938  1
  O  O46  1  0.54494856  0.25145318  0.61539667  1
  O  O47  1  0.85311743  0.33072424  0.69829097  1
  O  O48  1  0.88802387  0.55348704  0.03916535  1
  O  O49  1  0.50728487  0.72972425  0.81531181  1
  O  O50  1  0.38741342  0.86525818  0.54839692  1
  O  O51  1  0.85047449  0.43734681  0.29177302  1
  O  O52  1  0.11258658  0.13474182  0.45160308  1
  O  O53  1  0.55004329  0.93862467  0.31729051  1
  O  O54  1  0.97896386  0.44221023  0.82161345  1
  O  O55  1  0.62365614  0.09135712  0.46774749  1
  O  O56  1  0.28089059  0.71043882  0.80993171  1
  O  O57  1  0.21910941  0.28956118  0.19006829  1
  O  O58  1  0.72054601  0.31329384  0.18720074  1
  O  O59  1  0.19599248  0.35183286  0.45108969  1
  O  O60  1  0.19591129  0.67302339  0.04601314  1
  O  O61  1  0.87634386  0.90864288  0.53225251  1
  O  O62  1  0.46796807  0.49441195  0.77867295  1
  O  O63  1  0.01843038  0.12620337  0.86334988  1
  O  O64  1  0.34431390  0.83723568  0.93919297  1
  O  O65  1  0.95505144  0.74854682  0.38460333  1
  O  O66  1  0.48156962  0.87379663  0.13665012  1
  O  O67  1  0.77945399  0.68670616  0.81279926  1
  O  O68  1  0.81612389  0.66364204  0.55460036  1
  O  O69  1  0.42897799  0.06843002  0.63676211  1
  O  O70  1  0.73265925  0.06640772  0.66747301  1
  O  O71  1  0.76734075  0.93359228  0.33252699  1
  O  O72  1  0.03203193  0.50558805  0.22132705  1
  O  O73  1  0.81700611  0.31298981  0.96566544  1
  O  O74  1  0.45984988  0.71239723  0.39786492  1
  O  O75  1  0.15568610  0.16276432  0.06080703  1
  O  O76  1  0.34208725  0.47656437  0.27561026  1
  O  O77  1  0.68387611  0.33635796  0.44539964  1
  O  O78  1  0.61197613  0.44651296  0.96083465  1
  O  O79  1  0.15791275  0.52343563  0.72438974  1
  O  O80  1  0.97971897  0.97353008  0.14421679  1
  O  O81  1  0.64952551  0.56265319  0.70822698  1
