# generated using pymatgen
data_Co2Bi11O20
_symmetry_space_group_name_H-M   'P 1'
_cell_length_a   8.84131105
_cell_length_b   8.98149271
_cell_length_c   8.74216105
_cell_angle_alpha   110.75772822
_cell_angle_beta   108.70136422
_cell_angle_gamma   109.10268730
_symmetry_Int_Tables_number   1
_chemical_formula_structural   Co2Bi11O20
_chemical_formula_sum   'Co2 Bi11 O20'
_cell_volume   533.27021322
_cell_formula_units_Z   1
loop_
 _symmetry_equiv_pos_site_id
 _symmetry_equiv_pos_as_xyz
  1  'x, y, z'
loop_
 _atom_site_type_symbol
 _atom_site_label
 _atom_site_symmetry_multiplicity
 _atom_site_fract_x
 _atom_site_fract_y
 _atom_site_fract_z
 _atom_site_occupancy
  Co  Co0  1  0.23809944  0.90530464  0.71075469  1
  Co  Co1  1  0.01066031  0.98181696  0.98577806  1
  Bi  Bi2  1  0.14450249  0.34064129  0.83924870  1
  Bi  Bi3  1  0.16489318  0.51583589  0.33413363  1
  Bi  Bi4  1  0.33375116  0.84768629  0.14219548  1
  Bi  Bi5  1  0.50578986  0.68437625  0.82054300  1
  Bi  Bi6  1  0.30014355  0.16841827  0.48797158  1
  Bi  Bi7  1  0.66446221  0.80721898  0.51067575  1
  Bi  Bi8  1  0.48332230  0.28544559  0.14515726  1
  Bi  Bi9  1  0.70860969  0.20316519  0.85379191  1
  Bi  Bi10  1  0.80860496  0.51451775  0.66349741  1
  Bi  Bi11  1  0.85702118  0.69578059  0.20026325  1
  Bi  Bi12  1  0.83271351  0.13848935  0.32691231  1
  O  O13  1  0.09994596  0.74074335  0.40793972  1
  O  O14  1  0.02403449  0.94053930  0.76989400  1
  O  O15  1  0.23590673  0.61406518  0.88443486  1
  O  O16  1  0.26213945  0.38913666  0.61774014  1
  O  O17  1  0.36550421  0.76577820  0.65063003  1
  O  O18  1  0.37433443  0.64379707  0.28172833  1
  O  O19  1  0.20752258  0.18822925  0.20115911  1
  O  O20  1  0.35756639  0.12649532  0.74372502  1
  O  O21  1  0.60094715  0.60912069  0.60749222  1
  O  O22  1  0.65001587  0.39322604  0.76774231  1
  O  O23  1  0.61755418  0.87698057  0.22726622  1
  O  O24  1  0.72077193  0.61999194  0.35307956  1
  O  O25  1  0.38775846  0.98523415  0.98395929  1
  O  O26  1  0.61313622  0.25608594  0.37537864  1
  O  O27  1  0.99884271  0.00360779  0.38582002  1
  O  O28  1  0.87994887  0.23919455  0.61945262  1
  O  O29  1  0.73984700  0.35074557  0.12041592  1
  O  O30  1  0.80211156  0.98750367  0.96594306  1
  O  O31  1  0.00376648  0.78482171  0.00593041  1
  O  O32  1  0.00577149  0.39600602  0.00934549  1
