# generated using pymatgen
data_TcPbO3
_symmetry_space_group_name_H-M   'P 1'
_cell_length_a   7.39457004
_cell_length_b   7.39565822
_cell_length_c   7.39893124
_cell_angle_alpha   60.01450770
_cell_angle_beta   60.00946208
_cell_angle_gamma   60.00094879
_symmetry_Int_Tables_number   1
_chemical_formula_structural   TcPbO3
_chemical_formula_sum   'Tc4 Pb4 O12'
_cell_volume   286.17093044
_cell_formula_units_Z   4
loop_
 _symmetry_equiv_pos_site_id
 _symmetry_equiv_pos_as_xyz
  1  'x, y, z'
loop_
 _atom_site_type_symbol
 _atom_site_label
 _atom_site_symmetry_multiplicity
 _atom_site_fract_x
 _atom_site_fract_y
 _atom_site_fract_z
 _atom_site_occupancy
  Tc  Tc0  1  0.00008288  0.50008253  0.99989399  1
  Tc  Tc1  1  0.49994585  0.00002699  0.99991796  1
  Tc  Tc2  1  -0.00005629  0.99995928  0.50008379  1
  Tc  Tc3  1  0.00014679  0.99999868  -0.00007733  1
  Pb  Pb4  1  0.50091058  0.99976313  0.49936205  1
  Pb  Pb5  1  0.99975465  0.49942264  0.50039297  1
  Pb  Pb6  1  0.50004198  0.49983446  0.49970623  1
  Pb  Pb7  1  0.50021647  0.49977045  0.00043792  1
  O  O8  1  0.93076581  0.31943560  0.31944521  1
  O  O9  1  0.32014876  0.93054602  0.93048141  1
  O  O10  1  0.06910521  0.68082277  0.68065690  1
  O  O11  1  0.31910354  0.93096305  0.31930109  1
  O  O12  1  0.93017942  0.93068618  0.32036047  1
  O  O13  1  0.31911752  0.31978968  0.93063947  1
  O  O14  1  0.93043498  0.32047128  0.93041040  1
  O  O15  1  0.68069081  0.68027757  0.06942058  1
  O  O16  1  0.67978429  0.06951688  0.06980566  1
  O  O17  1  0.06938059  0.06970087  0.67974702  1
  O  O18  1  0.68080389  0.06923215  0.68047948  1
  O  O19  1  0.06944226  0.67969981  0.06953472  1
