# generated using pymatgen
data_Al9Fe2Si4HO24
_symmetry_space_group_name_H-M   'P 1'
_cell_length_a   9.26884582
_cell_length_b   9.26884582
_cell_length_c   5.78210245
_cell_angle_alpha   89.56265170
_cell_angle_beta   90.43734830
_cell_angle_gamma   49.76749718
_symmetry_Int_Tables_number   1
_chemical_formula_structural   Al9Fe2Si4HO24
_chemical_formula_sum   'Al9 Fe2 Si4 H1 O24'
_cell_volume   379.17064636
_cell_formula_units_Z   1
loop_
 _symmetry_equiv_pos_site_id
 _symmetry_equiv_pos_as_xyz
  1  'x, y, z'
loop_
 _atom_site_type_symbol
 _atom_site_label
 _atom_site_symmetry_multiplicity
 _atom_site_fract_x
 _atom_site_fract_y
 _atom_site_fract_z
 _atom_site_occupancy
  Al  Al0  1  0.32798708  0.32798708  0.00000000  1
  Al  Al1  1  0.67201292  0.67201292  0.00000000  1
  Al  Al2  1  0.32545721  0.32545721  0.50000000  1
  Al  Al3  1  0.67454279  0.67454279  0.50000000  1
  Al  Al4  1  0.14438695  0.68168361  0.73530795  1
  Al  Al5  1  0.31831639  0.85561305  0.73530795  1
  Al  Al6  1  0.85561305  0.31831639  0.26469205  1
  Al  Al7  1  0.68168361  0.14438695  0.26469205  1
  Al  Al8  1  0.00000000  0.00000000  0.00000000  1
  Fe  Fe9  1  0.63871622  0.36128378  0.73428985  1
  Fe  Fe10  1  0.36128378  0.63871622  0.26571015  1
  Si  Si11  1  0.03240315  0.30336302  0.76093030  1
  Si  Si12  1  0.69663698  0.96759685  0.76093030  1
  Si  Si13  1  0.96759685  0.69663698  0.23906970  1
  Si  Si14  1  0.30336302  0.03240315  0.23906970  1
  H  H15  1  0.00000000  0.00000000  0.50000000  1
  O  O16  1  0.76958660  0.23041340  0.04560209  1
  O  O17  1  0.23041340  0.76958660  0.95439791  1
  O  O18  1  0.82116771  0.17883229  0.47245268  1
  O  O19  1  0.17883229  0.82116771  0.52754732  1
  O  O20  1  0.90125064  0.42197205  0.98663627  1
  O  O21  1  0.57802795  0.09874936  0.98663627  1
  O  O22  1  0.09874936  0.57802795  0.01336373  1
  O  O23  1  0.42197205  0.90125064  0.01336373  1
  O  O24  1  0.41329564  0.90702775  0.47840164  1
  O  O25  1  0.09297225  0.58670436  0.47840164  1
  O  O26  1  0.58670436  0.09297225  0.52159836  1
  O  O27  1  0.90702775  0.41329564  0.52159836  1
  O  O28  1  0.08927437  0.09492299  0.77961809  1
  O  O29  1  0.90507701  0.91072563  0.77961809  1
  O  O30  1  0.91072563  0.90507701  0.22038191  1
  O  O31  1  0.09492299  0.08927437  0.22038191  1
  O  O32  1  0.22861564  0.27387229  0.75091394  1
  O  O33  1  0.72612771  0.77138436  0.75091394  1
  O  O34  1  0.77138436  0.72612771  0.24908606  1
  O  O35  1  0.27387229  0.22861564  0.24908606  1
  O  O36  1  0.37473666  0.43037983  0.74251407  1
  O  O37  1  0.56962017  0.62526334  0.74251407  1
  O  O38  1  0.62526334  0.56962017  0.25748593  1
  O  O39  1  0.43037983  0.37473666  0.25748593  1
