# generated using pymatgen
data_Ba4La6Mn5In5O30
_symmetry_space_group_name_H-M   'P 1'
_cell_length_a   5.74043321
_cell_length_b   5.77712217
_cell_length_c   28.91083023
_cell_angle_alpha   59.72108506
_cell_angle_beta   60.22799419
_cell_angle_gamma   60.22941625
_symmetry_Int_Tables_number   1
_chemical_formula_structural   Ba4La6Mn5In5O30
_chemical_formula_sum   'Ba4 La6 Mn5 In5 O30'
_cell_volume   678.83529690
_cell_formula_units_Z   1
loop_
 _symmetry_equiv_pos_site_id
 _symmetry_equiv_pos_as_xyz
  1  'x, y, z'
loop_
 _atom_site_type_symbol
 _atom_site_label
 _atom_site_symmetry_multiplicity
 _atom_site_fract_x
 _atom_site_fract_y
 _atom_site_fract_z
 _atom_site_occupancy
  Ba  Ba0  1  0.24706387  0.74313149  0.15268906  1
  Ba  Ba1  1  0.73846901  0.23896169  0.05677672  1
  Ba  Ba2  1  0.75278379  0.25953559  0.24702449  1
  Ba  Ba3  1  0.76124280  0.26004834  0.44351068  1
  La  La4  1  0.27519043  0.75681815  0.33822316  1
  La  La5  1  0.26973445  0.73804982  0.54448899  1
  La  La6  1  0.24085449  0.73394515  0.75697316  1
  La  La7  1  0.76920988  0.27981203  0.63628657  1
  La  La8  1  0.22686322  0.71324191  0.96651749  1
  La  La9  1  0.72747531  0.25449050  0.85811744  1
  Mn  Mn10  1  0.99329593  0.49094113  0.10468120  1
  Mn  Mn11  1  0.48205052  0.00594032  0.00588823  1
  Mn  Mn12  1  0.99877622  0.51397203  0.29792305  1
  Mn  Mn13  1  0.50552921  0.99593368  0.19881347  1
  Mn  Mn14  1  0.00912020  0.51262708  0.49386651  1
  In  In15  1  0.50457080  0.00477006  0.39721663  1
  In  In16  1  0.99698197  0.50406061  0.70039925  1
  In  In17  1  0.50947433  0.99694873  0.59684151  1
  In  In18  1  0.99451715  0.48082207  0.90605612  1
  In  In19  1  0.49478071  0.00262222  0.80162568  1
  O  O20  1  0.24647278  0.21815701  0.05753362  1
  O  O21  1  0.24271799  0.25710051  0.15207377  1
  O  O22  1  0.25568517  0.73568566  0.04688585  1
  O  O23  1  0.23181243  0.23357760  0.26061912  1
  O  O24  1  0.22462743  0.31646961  0.34743977  1
  O  O25  1  0.25670748  0.75807792  0.25000838  1
  O  O26  1  0.73686722  0.25779885  0.15196536  1
  O  O27  1  0.77279269  0.73633842  0.04684035  1
  O  O28  1  0.24461875  0.18062847  0.46602187  1
  O  O29  1  0.75472691  0.74791527  0.14864022  1
  O  O30  1  0.20793619  0.31298415  0.55163653  1
  O  O31  1  0.27461848  0.71109772  0.43928498  1
  O  O32  1  0.72169575  0.31691536  0.34753525  1
  O  O33  1  0.73689161  0.75788983  0.25007490  1
  O  O34  1  0.25923718  0.13037368  0.67029291  1
  O  O35  1  0.76360979  0.78529428  0.33824079  1
  O  O36  1  0.15748172  0.32843252  0.76858117  1
  O  O37  1  0.32656687  0.67737559  0.63066979  1
  O  O38  1  0.72053494  0.31340896  0.55160385  1
  O  O39  1  0.81790164  0.71152099  0.43929066  1
  O  O40  1  0.24562857  0.10553286  0.88051480  1
  O  O41  1  0.77970541  0.78862713  0.53050409  1
  O  O42  1  0.23551916  0.27926076  0.96131036  1
  O  O43  1  0.30842805  0.67674285  0.84026565  1
  O  O44  1  0.67102071  0.32865148  0.76857306  1
  O  O45  1  0.84263541  0.67750611  0.63069116  1
  O  O46  1  0.74523348  0.89488060  0.72281555  1
  O  O47  1  0.67790059  0.27986113  0.96122101  1
  O  O48  1  0.81370626  0.67715451  0.84024518  1
  O  O49  1  0.72873505  0.81806758  0.94470063  1
