# generated using pymatgen
data_Na4ZnP6(HO2)12
_symmetry_space_group_name_H-M   'P 1'
_cell_length_a   9.54838352
_cell_length_b   9.31164244
_cell_length_c   7.35600447
_cell_angle_alpha   71.92320664
_cell_angle_beta   105.11900733
_cell_angle_gamma   114.39888395
_symmetry_Int_Tables_number   1
_chemical_formula_structural   Na4ZnP6(HO2)12
_chemical_formula_sum   'Na4 Zn1 P6 H12 O24'
_cell_volume   559.53564884
_cell_formula_units_Z   1
loop_
 _symmetry_equiv_pos_site_id
 _symmetry_equiv_pos_as_xyz
  1  'x, y, z'
loop_
 _atom_site_type_symbol
 _atom_site_label
 _atom_site_symmetry_multiplicity
 _atom_site_fract_x
 _atom_site_fract_y
 _atom_site_fract_z
 _atom_site_occupancy
  Na  Na0  1  0.91170999  0.67123768  0.13776231  1
  Na  Na1  1  0.08829001  0.32876232  0.86223769  1
  Na  Na2  1  0.03634048  0.28325763  0.36569193  1
  Na  Na3  1  0.96365952  0.71674237  0.63430807  1
  Zn  Zn4  1  0.50000000  0.50000000  0.00000000  1
  P  P5  1  0.29020486  0.63068106  0.14626982  1
  P  P6  1  0.70979514  0.36931894  0.85373018  1
  P  P7  1  0.62824464  0.74438765  0.30557664  1
  P  P8  1  0.37175536  0.25561235  0.69442336  1
  P  P9  1  0.76381978  0.06969844  0.04196389  1
  P  P10  1  0.23618022  0.93030156  0.95803611  1
  H  H11  1  0.98856033  0.03374425  0.72888938  1
  H  H12  1  0.01143967  0.96625575  0.27111062  1
  H  H13  1  0.85174592  0.08851678  0.70740895  1
  H  H14  1  0.14825408  0.91148322  0.29259105  1
  H  H15  1  0.60364906  0.70885878  0.67369408  1
  H  H16  1  0.39635094  0.29114122  0.32630592  1
  H  H17  1  0.46062655  0.74902566  0.68257276  1
  H  H18  1  0.53937345  0.25097434  0.31742724  1
  H  H19  1  0.24664578  0.63720205  0.68269921  1
  H  H20  1  0.75335422  0.36279795  0.31730079  1
  H  H21  1  0.83487576  0.39675561  0.52356959  1
  H  H22  1  0.16512424  0.60324439  0.47643041  1
  O  O23  1  0.44210038  0.68502642  0.30528538  1
  O  O24  1  0.55789962  0.31497358  0.69471462  1
  O  O25  1  0.30795950  0.79247304  0.97491319  1
  O  O26  1  0.69204050  0.20752696  0.02508681  1
  O  O27  1  0.15100089  0.58066662  0.24120736  1
  O  O28  1  0.84899911  0.41933338  0.75879264  1
  O  O29  1  0.29751964  0.50920182  0.05544905  1
  O  O30  1  0.70248036  0.49079818  0.94455095  1
  O  O31  1  0.66839283  0.93594164  0.21104716  1
  O  O32  1  0.33160717  0.06405836  0.78895284  1
  O  O33  1  0.65957829  0.66419457  0.18001194  1
  O  O34  1  0.34042171  0.33580543  0.81998806  1
  O  O35  1  0.70185391  0.72499866  0.51349446  1
  O  O36  1  0.29814609  0.27500134  0.48650554  1
  O  O37  1  0.93386129  0.13489902  0.12600983  1
  O  O38  1  0.06613871  0.86510098  0.87399017  1
  O  O39  1  0.28276892  0.98359785  0.14285420  1
  O  O40  1  0.71723108  0.01640215  0.85714580  1
  O  O41  1  0.04829560  0.87680528  0.34172143  1
  O  O42  1  0.95170440  0.12319472  0.65827857  1
  O  O43  1  0.52859418  0.69117796  0.75929789  1
  O  O44  1  0.47140582  0.30882204  0.24070211  1
  O  O45  1  0.85415556  0.40370465  0.39411834  1
  O  O46  1  0.14584444  0.59629535  0.60588166  1
