# generated using pymatgen
data_Fe3O4
_symmetry_space_group_name_H-M   'P 1'
_cell_length_a   2.94267138
_cell_length_b   5.09881552
_cell_length_c   9.99026161
_cell_angle_alpha   90.10936498
_cell_angle_beta   90.23296315
_cell_angle_gamma   73.27709387
_symmetry_Int_Tables_number   1
_chemical_formula_structural   Fe3O4
_chemical_formula_sum   'Fe6 O8'
_cell_volume   143.55459907
_cell_formula_units_Z   2
loop_
 _symmetry_equiv_pos_site_id
 _symmetry_equiv_pos_as_xyz
  1  'x, y, z'
loop_
 _atom_site_type_symbol
 _atom_site_label
 _atom_site_symmetry_multiplicity
 _atom_site_fract_x
 _atom_site_fract_y
 _atom_site_fract_z
 _atom_site_occupancy
  Fe  Fe0  1  0.87062579  0.25469908  0.57329965  1
  Fe  Fe1  1  0.13122845  0.72793954  0.42391126  1
  Fe  Fe2  1  0.86383767  0.27242724  0.92476815  1
  Fe  Fe3  1  0.12882243  0.74983809  0.07519996  1
  Fe  Fe4  1  0.61795036  0.76484916  0.73978154  1
  Fe  Fe5  1  0.38411896  0.23823842  0.23945647  1
  O  O6  1  0.96440272  0.07240229  0.75335150  1
  O  O7  1  0.04104788  0.92289995  0.25425641  1
  O  O8  1  0.76925490  0.46980021  0.10998661  1
  O  O9  1  0.22478017  0.55047382  0.88605122  1
  O  O10  1  0.77060592  0.44658902  0.38549607  1
  O  O11  1  0.23455448  0.52824549  0.61382667  1
  O  O12  1  0.50661601  0.98169912  0.50968864  1
  O  O13  1  0.49215425  0.01989857  0.01092586  1
