# generated using pymatgen
data_CoPH3O4
_symmetry_space_group_name_H-M   'P 1'
_cell_length_a   9.05007984
_cell_length_b   7.97227637
_cell_length_c   10.21663693
_cell_angle_alpha   90.00000000
_cell_angle_beta   90.00000000
_cell_angle_gamma   90.00000000
_symmetry_Int_Tables_number   1
_chemical_formula_structural   CoPH3O4
_chemical_formula_sum   'Co8 P8 H24 O32'
_cell_volume   737.12767422
_cell_formula_units_Z   8
loop_
 _symmetry_equiv_pos_site_id
 _symmetry_equiv_pos_as_xyz
  1  'x, y, z'
loop_
 _atom_site_type_symbol
 _atom_site_label
 _atom_site_symmetry_multiplicity
 _atom_site_fract_x
 _atom_site_fract_y
 _atom_site_fract_z
 _atom_site_occupancy
  Co  Co0  1  0.59244339  0.87812761  0.07856027  1
  Co  Co1  1  0.40755661  0.12187239  0.57856027  1
  Co  Co2  1  0.90755661  0.87812761  0.57856027  1
  Co  Co3  1  0.09244339  0.12187239  0.07856027  1
  Co  Co4  1  0.40576579  0.12599523  0.93692164  1
  Co  Co5  1  0.59423421  0.87400477  0.43692164  1
  Co  Co6  1  0.09423421  0.12599523  0.43692164  1
  Co  Co7  1  0.90576579  0.87400477  0.93692164  1
  P  P8  1  0.74619539  0.23610253  0.97617230  1
  P  P9  1  0.25380461  0.76389747  0.47617230  1
  P  P10  1  0.75380461  0.23610253  0.47617230  1
  P  P11  1  0.24619539  0.76389747  0.97617230  1
  P  P12  1  0.59327305  0.86598815  0.75603618  1
  P  P13  1  0.40672695  0.13401185  0.25603618  1
  P  P14  1  0.90672695  0.86598815  0.25603618  1
  P  P15  1  0.09327305  0.13401185  0.75603618  1
  H  H16  1  0.72075400  0.26346342  0.84197839  1
  H  H17  1  0.27924600  0.73653658  0.34197839  1
  H  H18  1  0.77924600  0.26346342  0.34197839  1
  H  H19  1  0.22075400  0.73653658  0.84197839  1
  H  H20  1  0.49174764  0.73349835  0.75405116  1
  H  H21  1  0.50825236  0.26650165  0.25405116  1
  H  H22  1  0.00825236  0.73349835  0.25405116  1
  H  H23  1  0.99174764  0.26650165  0.75405116  1
  H  H24  1  0.62491286  0.53644388  0.09443784  1
  H  H25  1  0.37508714  0.46355612  0.59443784  1
  H  H26  1  0.87508714  0.53644388  0.59443784  1
  H  H27  1  0.12491286  0.46355612  0.09443784  1
  H  H28  1  0.45189472  0.59269957  0.10291554  1
  H  H29  1  0.54810528  0.40730043  0.60291554  1
  H  H30  1  0.04810528  0.59269957  0.60291554  1
  H  H31  1  0.95189472  0.40730043  0.10291554  1
  H  H32  1  0.36058228  0.44928494  0.93592262  1
  H  H33  1  0.63941772  0.55071506  0.43592262  1
  H  H34  1  0.13941772  0.44928494  0.43592262  1
  H  H35  1  0.86058228  0.55071506  0.93592262  1
  H  H36  1  0.56290403  0.60711593  0.29881987  1
  H  H37  1  0.43709597  0.39288407  0.79881987  1
  H  H38  1  0.93709597  0.60711593  0.79881987  1
  H  H39  1  0.06290403  0.39288407  0.29881987  1
  O  O40  1  0.55401091  0.61886153  0.13346380  1
  O  O41  1  0.44598909  0.38113847  0.63346380  1
  O  O42  1  0.94598909  0.61886153  0.63346380  1
  O  O43  1  0.05401091  0.38113847  0.13346380  1
  O  O44  1  0.43655452  0.37653459  0.89559058  1
  O  O45  1  0.56344548  0.62346541  0.39559058  1
  O  O46  1  0.06344548  0.37653459  0.39559058  1
  O  O47  1  0.93655452  0.62346541  0.89559058  1
  O  O48  1  0.61213745  0.13657317  0.02949186  1
  O  O49  1  0.38786255  0.86342683  0.52949186  1
  O  O50  1  0.88786255  0.13657317  0.52949186  1
  O  O51  1  0.11213745  0.86342683  0.02949186  1
  O  O52  1  0.76930772  0.40664883  0.04280936  1
  O  O53  1  0.23069228  0.59335117  0.54280936  1
  O  O54  1  0.73069228  0.40664883  0.54280936  1
  O  O55  1  0.26930772  0.59335117  0.04280936  1
  O  O56  1  0.38880100  0.87155887  0.98280417  1
  O  O57  1  0.61119900  0.12844113  0.48280417  1
  O  O58  1  0.11119900  0.87155887  0.48280417  1
  O  O59  1  0.88880100  0.12844113  0.98280417  1
  O  O60  1  0.68555109  0.84567110  0.88221303  1
  O  O61  1  0.31444891  0.15432890  0.38221303  1
  O  O62  1  0.81444891  0.84567110  0.38221303  1
  O  O63  1  0.18555109  0.15432890  0.88221303  1
  O  O64  1  0.81050548  0.84262470  0.13232389  1
  O  O65  1  0.18949452  0.15737530  0.63232389  1
  O  O66  1  0.68949452  0.84262470  0.63232389  1
  O  O67  1  0.31050548  0.15737530  0.13232389  1
  O  O68  1  0.49527370  0.96658043  0.25474747  1
  O  O69  1  0.50472630  0.03341957  0.75474747  1
  O  O70  1  0.00472630  0.96658043  0.75474747  1
  O  O71  1  0.99527370  0.03341957  0.25474747  1
