# generated using pymatgen
data_Ti9Fe11O30
_symmetry_space_group_name_H-M   'P 1'
_cell_length_a   5.58126180
_cell_length_b   5.55996965
_cell_length_c   27.69864361
_cell_angle_alpha   55.44823925
_cell_angle_beta   55.11304610
_cell_angle_gamma   55.16993754
_symmetry_Int_Tables_number   1
_chemical_formula_structural   Ti9Fe11O30
_chemical_formula_sum   'Ti9 Fe11 O30'
_cell_volume   540.57867096
_cell_formula_units_Z   1
loop_
 _symmetry_equiv_pos_site_id
 _symmetry_equiv_pos_as_xyz
  1  'x, y, z'
loop_
 _atom_site_type_symbol
 _atom_site_label
 _atom_site_symmetry_multiplicity
 _atom_site_fract_x
 _atom_site_fract_y
 _atom_site_fract_z
 _atom_site_occupancy
  Ti  Ti0  1  0.13586399  0.17375717  0.02659131  1
  Ti  Ti1  1  0.14518112  0.14173900  0.22852228  1
  Ti  Ti2  1  0.65916162  0.65036673  0.12413348  1
  Ti  Ti3  1  0.35352738  0.34706254  0.47288308  1
  Ti  Ti4  1  0.62903014  0.65088497  0.33174173  1
  Ti  Ti5  1  0.34673661  0.35472683  0.67124263  1
  Ti  Ti6  1  0.64719886  0.64591542  0.52859742  1
  Ti  Ti7  1  0.14656302  0.14200956  0.83161917  1
  Ti  Ti8  1  0.35455880  0.34194500  0.87081201  1
  Fe  Fe9  1  0.34513621  0.36732659  0.07112233  1
  Fe  Fe10  1  0.35700929  0.35501687  0.26946023  1
  Fe  Fe11  1  0.14199661  0.14648656  0.42819366  1
  Fe  Fe12  1  0.86024544  0.84635155  0.17269759  1
  Fe  Fe13  1  0.13645860  0.14923897  0.62985254  1
  Fe  Fe14  1  0.85482721  0.86063152  0.36996992  1
  Fe  Fe15  1  0.85385268  0.85029804  0.57294236  1
  Fe  Fe16  1  0.64962493  0.64608063  0.72812812  1
  Fe  Fe17  1  0.86403050  0.85357815  0.76997242  1
  Fe  Fe18  1  0.64317342  0.63904974  0.92967041  1
  Fe  Fe19  1  0.85505799  0.84411149  0.96890808  1
  O  O20  1  0.02293662  0.79465554  0.08791911  1
  O  O21  1  0.41170535  0.05255854  0.15635705  1
  O  O22  1  0.77617881  0.43310034  0.00930576  1
  O  O23  1  0.29583971  0.53411725  0.18673000  1
  O  O24  1  0.54927772  0.91733045  0.05493980  1
  O  O25  1  0.06822955  0.76411006  0.28364182  1
  O  O26  1  0.92050625  0.27883387  0.10980024  1
  O  O27  1  0.45618889  0.04995316  0.34697161  1
  O  O28  1  0.77175278  0.41483149  0.21253381  1
  O  O29  1  0.27139362  0.55874704  0.38477662  1
  O  O30  1  0.53595342  0.93361594  0.25608079  1
  O  O31  1  0.06291511  0.71584741  0.49208434  1
  O  O32  1  0.93953566  0.29497239  0.30647951  1
  O  O33  1  0.45537074  0.06371176  0.54385023  1
  O  O34  1  0.71710489  0.45127905  0.41111440  1
  O  O35  1  0.28377920  0.55338420  0.58694465  1
  O  O36  1  0.54781487  0.93857664  0.45597170  1
  O  O37  1  0.05453153  0.72042384  0.69252083  1
  O  O38  1  0.94253862  0.28347435  0.50671732  1
  O  O39  1  0.41807897  0.07503138  0.75127897  1
  O  O40  1  0.71933222  0.44550963  0.61406755  1
  O  O41  1  0.26978889  0.53495243  0.79158402  1
  O  O42  1  0.54489512  0.95486905  0.65314799  1
  O  O43  1  0.09020453  0.74911713  0.88251644  1
  O  O44  1  0.95156207  0.26888102  0.70877353  1
  O  O45  1  0.42667919  0.07928927  0.94952951  1
  O  O46  1  0.75099301  0.40772115  0.81844964  1
  O  O47  1  0.25061019  0.52535570  0.99205784  1
  O  O48  1  0.54180545  0.95773772  0.84976437  1
  O  O49  1  0.97326261  0.24143484  0.90702979  1
