# generated using pymatgen
data_SrMg30BiO32
_symmetry_space_group_name_H-M   'P 1'
_cell_length_a   8.70086062
_cell_length_b   8.70086062
_cell_length_c   8.79667906
_cell_angle_alpha   90.00000000
_cell_angle_beta   90.00000000
_cell_angle_gamma   90.00000000
_symmetry_Int_Tables_number   1
_chemical_formula_structural   SrMg30BiO32
_chemical_formula_sum   'Sr1 Mg30 Bi1 O32'
_cell_volume   665.95237297
_cell_formula_units_Z   1
loop_
 _symmetry_equiv_pos_site_id
 _symmetry_equiv_pos_as_xyz
  1  'x, y, z'
loop_
 _atom_site_type_symbol
 _atom_site_label
 _atom_site_symmetry_multiplicity
 _atom_site_fract_x
 _atom_site_fract_y
 _atom_site_fract_z
 _atom_site_occupancy
  Sr  Sr0  1  0.00000000  -0.00000000  -0.00000000  1
  Mg  Mg1  1  0.00000000  0.50000000  -0.00000000  1
  Mg  Mg2  1  0.00000000  0.50000000  0.50000000  1
  Mg  Mg3  1  0.50000000  -0.00000000  -0.00000000  1
  Mg  Mg4  1  0.50000000  -0.00000000  0.50000000  1
  Mg  Mg5  1  0.50000000  0.50000000  -0.00000000  1
  Mg  Mg6  1  0.50000000  0.50000000  0.50000000  1
  Mg  Mg7  1  0.00000000  0.26207268  0.24771378  1
  Mg  Mg8  1  0.00000000  0.26207268  0.75228622  1
  Mg  Mg9  1  0.00000000  0.73792732  0.24771378  1
  Mg  Mg10  1  0.00000000  0.73792732  0.75228622  1
  Mg  Mg11  1  0.50000000  0.25119324  0.24964572  1
  Mg  Mg12  1  0.50000000  0.25119324  0.75035428  1
  Mg  Mg13  1  0.50000000  0.74880676  0.24964572  1
  Mg  Mg14  1  0.50000000  0.74880676  0.75035428  1
  Mg  Mg15  1  0.26207268  -0.00000000  0.24771378  1
  Mg  Mg16  1  0.26207268  -0.00000000  0.75228622  1
  Mg  Mg17  1  0.25119324  0.50000000  0.24964572  1
  Mg  Mg18  1  0.25119324  0.50000000  0.75035428  1
  Mg  Mg19  1  0.73792732  -0.00000000  0.24771378  1
  Mg  Mg20  1  0.73792732  -0.00000000  0.75228622  1
  Mg  Mg21  1  0.74880676  0.50000000  0.24964572  1
  Mg  Mg22  1  0.74880676  0.50000000  0.75035428  1
  Mg  Mg23  1  0.25578138  0.25578138  -0.00000000  1
  Mg  Mg24  1  0.25691543  0.25691543  0.50000000  1
  Mg  Mg25  1  0.25578138  0.74421862  -0.00000000  1
  Mg  Mg26  1  0.25691543  0.74308457  0.50000000  1
  Mg  Mg27  1  0.74421862  0.25578138  0.00000000  1
  Mg  Mg28  1  0.74308457  0.25691543  0.50000000  1
  Mg  Mg29  1  0.74421862  0.74421862  -0.00000000  1
  Mg  Mg30  1  0.74308457  0.74308457  0.50000000  1
  Bi  Bi31  1  0.00000000  -0.00000000  0.50000000  1
  O  O32  1  0.27121350  -0.00000000  0.00000000  1
  O  O33  1  0.27042803  -0.00000000  0.50000000  1
  O  O34  1  0.25344860  0.50000000  0.00000000  1
  O  O35  1  0.25303576  0.50000000  0.50000000  1
  O  O36  1  0.72878650  -0.00000000  -0.00000000  1
  O  O37  1  0.72957197  -0.00000000  0.50000000  1
  O  O38  1  0.74655140  0.50000000  -0.00000000  1
  O  O39  1  0.74696424  0.50000000  0.50000000  1
  O  O40  1  0.24843703  0.24843703  0.25048733  1
  O  O41  1  0.24843703  0.24843703  0.74951267  1
  O  O42  1  0.24843703  0.75156297  0.25048733  1
  O  O43  1  0.24843703  0.75156297  0.74951267  1
  O  O44  1  0.75156297  0.24843703  0.25048733  1
  O  O45  1  0.75156297  0.24843703  0.74951267  1
  O  O46  1  0.75156297  0.75156297  0.25048733  1
  O  O47  1  0.75156297  0.75156297  0.74951267  1
  O  O48  1  0.00000000  -0.00000000  0.25076675  1
  O  O49  1  0.00000000  -0.00000000  0.74923325  1
  O  O50  1  0.00000000  0.50000000  0.25087602  1
  O  O51  1  0.00000000  0.50000000  0.74912398  1
  O  O52  1  0.50000000  -0.00000000  0.25087602  1
  O  O53  1  0.50000000  -0.00000000  0.74912398  1
  O  O54  1  0.50000000  0.50000000  0.25053522  1
  O  O55  1  0.50000000  0.50000000  0.74946478  1
  O  O56  1  0.00000000  0.27121350  0.00000000  1
  O  O57  1  0.00000000  0.27042803  0.50000000  1
  O  O58  1  0.00000000  0.72878650  0.00000000  1
  O  O59  1  0.00000000  0.72957197  0.50000000  1
  O  O60  1  0.50000000  0.25344860  -0.00000000  1
  O  O61  1  0.50000000  0.25303576  0.50000000  1
  O  O62  1  0.50000000  0.74655140  0.00000000  1
  O  O63  1  0.50000000  0.74696424  0.50000000  1
