# generated using pymatgen
data_K3ZrHS(OF)5
_symmetry_space_group_name_H-M   'P 1'
_cell_length_a   10.27589327
_cell_length_b   10.27589327
_cell_length_c   13.31109194
_cell_angle_alpha   90.00000000
_cell_angle_beta   90.00000000
_cell_angle_gamma   45.58460440
_symmetry_Int_Tables_number   1
_chemical_formula_structural   K3ZrHS(OF)5
_chemical_formula_sum   'K12 Zr4 H4 S4 O20 F20'
_cell_volume   1003.97794186
_cell_formula_units_Z   4
loop_
 _symmetry_equiv_pos_site_id
 _symmetry_equiv_pos_as_xyz
  1  'x, y, z'
loop_
 _atom_site_type_symbol
 _atom_site_label
 _atom_site_symmetry_multiplicity
 _atom_site_fract_x
 _atom_site_fract_y
 _atom_site_fract_z
 _atom_site_occupancy
  K  K0  1  0.16992010  0.67792570  0.70891501  1
  K  K1  1  0.67792570  0.16992010  0.70891501  1
  K  K2  1  0.83007990  0.32207430  0.20891501  1
  K  K3  1  0.32207430  0.83007990  0.20891501  1
  K  K4  1  0.09532565  0.09532565  0.49424426  1
  K  K5  1  0.90467435  0.90467435  0.99424426  1
  K  K6  1  0.03181298  0.53184699  0.22826564  1
  K  K7  1  0.53184699  0.03181298  0.22826564  1
  K  K8  1  0.96818702  0.46815301  0.72826564  1
  K  K9  1  0.46815301  0.96818702  0.72826564  1
  K  K10  1  0.57624839  0.57624839  0.92029791  1
  K  K11  1  0.42375161  0.42375161  0.42029791  1
  Zr  Zr12  1  0.84066401  0.84066401  0.50415855  1
  Zr  Zr13  1  0.15933599  0.15933599  0.00415855  1
  Zr  Zr14  1  0.65455252  0.65455252  0.41189648  1
  Zr  Zr15  1  0.34544748  0.34544748  0.91189648  1
  H  H16  1  0.17383553  0.37012982  0.54734552  1
  H  H17  1  0.37012982  0.17383553  0.54734552  1
  H  H18  1  0.82616447  0.62987018  0.04734552  1
  H  H19  1  0.62987018  0.82616447  0.04734552  1
  S  S20  1  0.92870973  0.92870973  0.31936756  1
  S  S21  1  0.07129027  0.07129027  0.81936756  1
  S  S22  1  0.57156560  0.57156560  0.60125536  1
  S  S23  1  0.42843440  0.42843440  0.10125536  1
  O  O24  1  0.04816996  0.75068421  0.37799321  1
  O  O25  1  0.75068421  0.04816996  0.37799321  1
  O  O26  1  0.95183004  0.24931579  0.87799321  1
  O  O27  1  0.24931579  0.95183004  0.87799321  1
  O  O28  1  0.99361493  0.99361493  0.82206856  1
  O  O29  1  0.00638507  0.00638507  0.32206856  1
  O  O30  1  0.90092174  0.90092174  0.21608863  1
  O  O31  1  0.09907826  0.09907826  0.71608863  1
  O  O32  1  0.74576723  0.44854671  0.53994361  1
  O  O33  1  0.44854671  0.74576723  0.53994361  1
  O  O34  1  0.25423277  0.55145329  0.03994361  1
  O  O35  1  0.55145329  0.25423277  0.03994361  1
  O  O36  1  0.49372022  0.49372022  0.60660156  1
  O  O37  1  0.50627978  0.50627978  0.10660156  1
  O  O38  1  0.60406931  0.60406931  0.70210659  1
  O  O39  1  0.39593069  0.39593069  0.20210659  1
  O  O40  1  0.76080554  0.76080554  0.05304314  1
  O  O41  1  0.23919446  0.23919446  0.55304314  1
  O  O42  1  0.72429588  0.72429588  0.89150505  1
  O  O43  1  0.27570412  0.27570412  0.39150505  1
  F  F44  1  0.77142328  0.77142328  0.37297551  1
  F  F45  1  0.22857672  0.22857672  0.87297551  1
  F  F46  1  0.72629679  0.72629679  0.53967485  1
  F  F47  1  0.27370321  0.27370321  0.03967485  1
  F  F48  1  0.82693236  0.82693236  0.66174616  1
  F  F49  1  0.17306764  0.17306764  0.16174616  1
  F  F50  1  0.94178440  0.94178440  0.55857929  1
  F  F51  1  0.05821560  0.05821560  0.05857929  1
  F  F52  1  0.66752080  0.66752080  0.25233045  1
  F  F53  1  0.33247920  0.33247920  0.75233045  1
  F  F54  1  0.55280545  0.55280545  0.35769948  1
  F  F55  1  0.44719455  0.44719455  0.85769948  1
  F  F56  1  0.91634709  0.42632691  0.03610088  1
  F  F57  1  0.42632691  0.91634709  0.03610088  1
  F  F58  1  0.08365291  0.57367309  0.53610088  1
  F  F59  1  0.57367309  0.08365291  0.53610088  1
  F  F60  1  0.08240496  0.58203225  0.87896644  1
  F  F61  1  0.58203225  0.08240496  0.87896644  1
  F  F62  1  0.91759504  0.41796775  0.37896644  1
  F  F63  1  0.41796775  0.91759504  0.37896644  1
