# generated using pymatgen
data_CaZn2(H5O4)2
_symmetry_space_group_name_H-M   'P 1'
_cell_length_a   7.88798155
_cell_length_b   9.97550261
_cell_length_c   6.92500411
_cell_angle_alpha   90.00000000
_cell_angle_beta   130.91006872
_cell_angle_gamma   90.00000000
_symmetry_Int_Tables_number   1
_chemical_formula_structural   CaZn2(H5O4)2
_chemical_formula_sum   'Ca2 Zn4 H20 O16'
_cell_volume   411.80555150
_cell_formula_units_Z   2
loop_
 _symmetry_equiv_pos_site_id
 _symmetry_equiv_pos_as_xyz
  1  'x, y, z'
loop_
 _atom_site_type_symbol
 _atom_site_label
 _atom_site_symmetry_multiplicity
 _atom_site_fract_x
 _atom_site_fract_y
 _atom_site_fract_z
 _atom_site_occupancy
  Ca  Ca0  1  0.00000000  0.50000000  0.50000000  1
  Ca  Ca1  1  0.00000000  -0.00000000  0.00000000  1
  Zn  Zn2  1  0.46729134  0.25120006  0.65320962  1
  Zn  Zn3  1  0.53270866  0.75120006  0.84679038  1
  Zn  Zn4  1  0.53270866  0.74879994  0.34679038  1
  Zn  Zn5  1  0.46729134  0.24879994  0.15320962  1
  H  H6  1  0.57378451  0.46160245  0.32860414  1
  H  H7  1  0.42621549  0.96160245  0.17139586  1
  H  H8  1  0.42621549  0.53839755  0.67139586  1
  H  H9  1  0.57378451  0.03839755  0.82860414  1
  H  H10  1  0.33929353  0.56774443  0.36427157  1
  H  H11  1  0.66070647  0.06774443  0.13572843  1
  H  H12  1  0.66070647  0.43225557  0.63572843  1
  H  H13  1  0.33929353  0.93225557  0.86427157  1
  H  H14  1  0.81838075  0.40325408  0.98838904  1
  H  H15  1  0.18161925  0.90325408  0.51161096  1
  H  H16  1  0.18161925  0.59674592  0.01161096  1
  H  H17  1  0.81838075  0.09674592  0.48838904  1
  H  H18  1  0.17930763  0.28515260  0.20445378  1
  H  H19  1  0.82069237  0.78515260  0.29554622  1
  H  H20  1  0.82069237  0.71484740  0.79554622  1
  H  H21  1  0.17930763  0.21484740  0.70445378  1
  H  H22  1  0.91389155  0.28049975  0.18157824  1
  H  H23  1  0.08610845  0.78049975  0.31842176  1
  H  H24  1  0.08610845  0.71950025  0.81842176  1
  H  H25  1  0.91389155  0.21950025  0.68157824  1
  O  O26  1  0.28893052  0.21102872  0.27179199  1
  O  O27  1  0.71106948  0.71102872  0.22820801  1
  O  O28  1  0.71106948  0.78897128  0.72820801  1
  O  O29  1  0.28893052  0.28897128  0.77179199  1
  O  O30  1  0.37599084  0.57440490  0.25300485  1
  O  O31  1  0.62400916  0.07440490  0.24699515  1
  O  O32  1  0.62400916  0.42559510  0.74699515  1
  O  O33  1  0.37599084  0.92559510  0.75300485  1
  O  O34  1  0.68593669  0.38944408  0.38310089  1
  O  O35  1  0.31406331  0.88944408  0.11689911  1
  O  O36  1  0.31406331  0.61055592  0.61689911  1
  O  O37  1  0.68593669  0.11055592  0.88310089  1
  O  O38  1  0.96205658  0.37120978  0.18428132  1
  O  O39  1  0.03794342  0.87120978  0.31571868  1
  O  O40  1  0.03794342  0.62879022  0.81571868  1
  O  O41  1  0.96205658  0.12879022  0.68428132  1
