# generated using pymatgen
data_Ca2Mn2Si4H6O17
_symmetry_space_group_name_H-M   'P 1'
_cell_length_a   12.03166948
_cell_length_b   5.45535743
_cell_length_c   5.45535743
_cell_angle_alpha   67.18127404
_cell_angle_beta   93.45045125
_cell_angle_gamma   93.45045125
_symmetry_Int_Tables_number   1
_chemical_formula_structural   Ca2Mn2Si4H6O17
_chemical_formula_sum   'Ca2 Mn2 Si4 H6 O17'
_cell_volume   329.18692357
_cell_formula_units_Z   1
loop_
 _symmetry_equiv_pos_site_id
 _symmetry_equiv_pos_as_xyz
  1  'x, y, z'
loop_
 _atom_site_type_symbol
 _atom_site_label
 _atom_site_symmetry_multiplicity
 _atom_site_fract_x
 _atom_site_fract_y
 _atom_site_fract_z
 _atom_site_occupancy
  Ca  Ca0  1  0.73382472  0.30634547  0.29795878  1
  Ca  Ca1  1  0.26617528  0.70204122  0.69365453  1
  Mn  Mn2  1  0.00023609  0.00652687  0.49481932  1
  Mn  Mn3  1  0.99976391  0.50518068  0.99347313  1
  Si  Si4  1  0.85145468  0.96860490  0.95939764  1
  Si  Si5  1  0.14854532  0.04060236  0.03139510  1
  Si  Si6  1  0.60408923  0.91460109  0.88604757  1
  Si  Si7  1  0.39591077  0.11395243  0.08539891  1
  H  H8  1  0.50701216  0.52160565  0.04950983  1
  H  H9  1  0.49298784  0.95049017  0.47839435  1
  H  H10  1  0.67477713  0.68813409  0.56091783  1
  H  H11  1  0.32522287  0.43908217  0.31186591  1
  H  H12  1  0.80192697  0.59940100  0.60574742  1
  H  H13  1  0.19807303  0.39425258  0.40059900  1
  O  O14  1  0.92091250  0.13612990  0.12690170  1
  O  O15  1  0.07908750  0.87309830  0.86387010  1
  O  O16  1  0.72056147  0.00971890  0.01364981  1
  O  O17  1  0.27943853  0.98635019  0.99028110  1
  O  O18  1  0.87360909  0.10508526  0.64214271  1
  O  O19  1  0.12639091  0.35785729  0.89491474  1
  O  O20  1  0.12706418  0.90901737  0.34942405  1
  O  O21  1  0.87293582  0.65057595  0.09098263  1
  O  O22  1  0.50000000  0.06672578  0.93327422  1
  O  O23  1  0.61379143  0.97761784  0.57365338  1
  O  O24  1  0.38620857  0.42634662  0.02238216  1
  O  O25  1  0.41185433  0.93516073  0.40807424  1
  O  O26  1  0.58814567  0.59192576  0.06483927  1
  O  O27  1  0.94286302  0.65064861  0.63715346  1
  O  O28  1  0.05713698  0.36284654  0.34935139  1
  O  O29  1  0.72310565  0.54110422  0.57802993  1
  O  O30  1  0.27689435  0.42197007  0.45889578  1
