# generated using pymatgen
data_Tm2TiO5
_symmetry_space_group_name_H-M   'P 1'
_cell_length_a   4.05339925
_cell_length_b   5.80540575
_cell_length_c   10.42510867
_cell_angle_alpha   90.00000000
_cell_angle_beta   90.00000000
_cell_angle_gamma   69.56737563
_symmetry_Int_Tables_number   1
_chemical_formula_structural   Tm2TiO5
_chemical_formula_sum   'Tm4 Ti2 O10'
_cell_volume   229.88507588
_cell_formula_units_Z   2
loop_
 _symmetry_equiv_pos_site_id
 _symmetry_equiv_pos_as_xyz
  1  'x, y, z'
loop_
 _atom_site_type_symbol
 _atom_site_label
 _atom_site_symmetry_multiplicity
 _atom_site_fract_x
 _atom_site_fract_y
 _atom_site_fract_z
 _atom_site_occupancy
  Tm  Tm0  1  0.14278118  0.71443764  0.93111491  1
  Tm  Tm1  1  0.14278118  0.71443764  0.56888509  1
  Tm  Tm2  1  0.85721882  0.28556236  0.06888509  1
  Tm  Tm3  1  0.85721882  0.28556236  0.43111491  1
  Ti  Ti4  1  0.17356150  0.65287601  0.25000000  1
  Ti  Ti5  1  0.82643850  0.34712399  0.75000000  1
  O  O6  1  0.05110492  0.89778916  0.37688437  1
  O  O7  1  0.05110492  0.89778916  0.12311563  1
  O  O8  1  0.70761080  0.58477840  0.91028285  1
  O  O9  1  0.70761080  0.58477840  0.58971715  1
  O  O10  1  0.27071892  0.45856315  0.75000000  1
  O  O11  1  0.72928108  0.54143685  0.25000000  1
  O  O12  1  0.29238920  0.41522160  0.08971715  1
  O  O13  1  0.29238920  0.41522160  0.41028285  1
  O  O14  1  0.94889508  0.10221084  0.62311563  1
  O  O15  1  0.94889508  0.10221084  0.87688437  1
