# generated using pymatgen
data_LiSnPO4
_symmetry_space_group_name_H-M   'P 1'
_cell_length_a   10.87027108
_cell_length_b   4.86877943
_cell_length_c   7.16946467
_cell_angle_alpha   90.00000000
_cell_angle_beta   90.00000000
_cell_angle_gamma   90.00000000
_symmetry_Int_Tables_number   1
_chemical_formula_structural   LiSnPO4
_chemical_formula_sum   'Li4 Sn4 P4 O16'
_cell_volume   379.44357519
_cell_formula_units_Z   4
loop_
 _symmetry_equiv_pos_site_id
 _symmetry_equiv_pos_as_xyz
  1  'x, y, z'
loop_
 _atom_site_type_symbol
 _atom_site_label
 _atom_site_symmetry_multiplicity
 _atom_site_fract_x
 _atom_site_fract_y
 _atom_site_fract_z
 _atom_site_occupancy
  Li  Li0  1  0.24148265  0.47094569  0.74425931  1
  Li  Li1  1  0.25851735  0.52905431  0.24425931  1
  Li  Li2  1  0.74148265  0.02905431  0.25574069  1
  Li  Li3  1  0.75851735  0.97094569  0.75574069  1
  Sn  Sn4  1  0.04121019  0.94536750  0.00501545  1
  Sn  Sn5  1  0.45878981  0.05463250  0.50501545  1
  Sn  Sn6  1  0.54121019  0.55463250  0.99498455  1
  Sn  Sn7  1  0.95878981  0.44536750  0.49498455  1
  P  P8  1  0.16743493  0.87430352  0.51197045  1
  P  P9  1  0.33256507  0.12569648  0.01197045  1
  P  P10  1  0.66743493  0.62569648  0.48802955  1
  P  P11  1  0.83256507  0.37430352  0.98802955  1
  O  O12  1  0.09524910  0.74573355  0.68140341  1
  O  O13  1  0.09639395  0.76713886  0.33475072  1
  O  O14  1  0.17994240  0.18721937  0.52249699  1
  O  O15  1  0.20190162  0.26791312  0.00779005  1
  O  O16  1  0.29809838  0.73208688  0.50779005  1
  O  O17  1  0.32005760  0.81278063  0.02249699  1
  O  O18  1  0.40360605  0.23286114  0.83475072  1
  O  O19  1  0.40475090  0.25426645  0.18140341  1
  O  O20  1  0.59524910  0.75426645  0.31859659  1
  O  O21  1  0.59639395  0.73286114  0.66524928  1
  O  O22  1  0.67994240  0.31278063  0.47750301  1
  O  O23  1  0.70190162  0.23208688  0.99220995  1
  O  O24  1  0.79809838  0.76791312  0.49220995  1
  O  O25  1  0.82005760  0.68721937  0.97750301  1
  O  O26  1  0.90360605  0.26713886  0.16524928  1
  O  O27  1  0.90475090  0.24573355  0.81859659  1
