# generated using pymatgen
data_IClO
_symmetry_space_group_name_H-M   'P 1'
_cell_length_a   9.44364063
_cell_length_b   9.44364035
_cell_length_c   9.44364113
_cell_angle_alpha   114.43557712
_cell_angle_beta   114.43557254
_cell_angle_gamma   114.43557308
_symmetry_Int_Tables_number   1
_chemical_formula_structural   IClO
_chemical_formula_sum   'I6 Cl6 O6'
_cell_volume   494.72374640
_cell_formula_units_Z   6
loop_
 _symmetry_equiv_pos_site_id
 _symmetry_equiv_pos_as_xyz
  1  'x, y, z'
loop_
 _atom_site_type_symbol
 _atom_site_label
 _atom_site_symmetry_multiplicity
 _atom_site_fract_x
 _atom_site_fract_y
 _atom_site_fract_z
 _atom_site_occupancy
  I  I0  1  0.24708976  0.72419299  0.58383036  1
  I  I1  1  0.27580701  0.41616964  0.75291024  1
  I  I2  1  0.41616964  0.75291024  0.27580701  1
  I  I3  1  0.58383036  0.24708976  0.72419299  1
  I  I4  1  0.72419299  0.58383036  0.24708976  1
  I  I5  1  0.75291024  0.27580701  0.41616964  1
  Cl  Cl6  1  0.08017455  0.12601259  0.37548010  1
  Cl  Cl7  1  0.62451990  0.91982545  0.87398741  1
  Cl  Cl8  1  0.12601259  0.37548010  0.08017455  1
  Cl  Cl9  1  0.87398741  0.62451990  0.91982545  1
  Cl  Cl10  1  0.37548010  0.08017455  0.12601259  1
  Cl  Cl11  1  0.91982545  0.87398741  0.62451990  1
  O  O12  1  0.13384604  0.51429386  0.68784749  1
  O  O13  1  0.31215251  0.86615396  0.48570614  1
  O  O14  1  0.48570614  0.31215251  0.86615396  1
  O  O15  1  0.51429386  0.68784749  0.13384604  1
  O  O16  1  0.68784749  0.13384604  0.51429386  1
  O  O17  1  0.86615396  0.48570614  0.31215251  1
