# generated using pymatgen
data_CsMg30GaO32
_symmetry_space_group_name_H-M   'P 1'
_cell_length_a   8.67895161
_cell_length_b   8.66476053
_cell_length_c   8.66476053
_cell_angle_alpha   90.00000000
_cell_angle_beta   90.00000000
_cell_angle_gamma   90.00000000
_symmetry_Int_Tables_number   1
_chemical_formula_structural   CsMg30GaO32
_chemical_formula_sum   'Cs1 Mg30 Ga1 O32'
_cell_volume   651.59898026
_cell_formula_units_Z   1
loop_
 _symmetry_equiv_pos_site_id
 _symmetry_equiv_pos_as_xyz
  1  'x, y, z'
loop_
 _atom_site_type_symbol
 _atom_site_label
 _atom_site_symmetry_multiplicity
 _atom_site_fract_x
 _atom_site_fract_y
 _atom_site_fract_z
 _atom_site_occupancy
  Cs  Cs0  1  0.00000000  0.00000000  0.00000000  1
  Mg  Mg1  1  0.00000000  0.00000000  0.50000000  1
  Mg  Mg2  1  0.00000000  0.50000000  0.00000000  1
  Mg  Mg3  1  0.50000000  0.00000000  0.00000000  1
  Mg  Mg4  1  0.50000000  0.00000000  0.50000000  1
  Mg  Mg5  1  0.50000000  0.50000000  0.00000000  1
  Mg  Mg6  1  0.50000000  0.50000000  0.50000000  1
  Mg  Mg7  1  0.00000000  0.25185114  0.25185114  1
  Mg  Mg8  1  0.00000000  0.25185114  0.74814886  1
  Mg  Mg9  1  0.00000000  0.74814886  0.25185114  1
  Mg  Mg10  1  0.00000000  0.74814886  0.74814886  1
  Mg  Mg11  1  0.50000000  0.24908640  0.24908640  1
  Mg  Mg12  1  0.50000000  0.24908640  0.75091360  1
  Mg  Mg13  1  0.50000000  0.75091360  0.24908640  1
  Mg  Mg14  1  0.50000000  0.75091360  0.75091360  1
  Mg  Mg15  1  0.25483582  0.00000000  0.25320163  1
  Mg  Mg16  1  0.25483582  0.00000000  0.74679837  1
  Mg  Mg17  1  0.25177489  0.50000000  0.24798119  1
  Mg  Mg18  1  0.25177489  0.50000000  0.75201881  1
  Mg  Mg19  1  0.74516418  0.00000000  0.25320163  1
  Mg  Mg20  1  0.74516418  0.00000000  0.74679837  1
  Mg  Mg21  1  0.74822511  0.50000000  0.24798119  1
  Mg  Mg22  1  0.74822511  0.50000000  0.75201881  1
  Mg  Mg23  1  0.25483582  0.25320163  -0.00000000  1
  Mg  Mg24  1  0.25177489  0.24798119  0.50000000  1
  Mg  Mg25  1  0.25483582  0.74679837  -0.00000000  1
  Mg  Mg26  1  0.25177489  0.75201881  0.50000000  1
  Mg  Mg27  1  0.74516418  0.25320163  0.00000000  1
  Mg  Mg28  1  0.74822511  0.24798119  0.50000000  1
  Mg  Mg29  1  0.74516418  0.74679837  -0.00000000  1
  Mg  Mg30  1  0.74822511  0.75201881  0.50000000  1
  Ga  Ga31  1  0.00000000  0.50000000  0.50000000  1
  O  O32  1  0.28496912  0.00000000  -0.00000000  1
  O  O33  1  0.25553438  0.00000000  0.50000000  1
  O  O34  1  0.25553438  0.50000000  0.00000000  1
  O  O35  1  0.24414894  0.50000000  0.50000000  1
  O  O36  1  0.71503088  0.00000000  0.00000000  1
  O  O37  1  0.74446562  0.00000000  0.50000000  1
  O  O38  1  0.74446562  0.50000000  -0.00000000  1
  O  O39  1  0.75585106  0.50000000  0.50000000  1
  O  O40  1  0.24874458  0.25009671  0.25009671  1
  O  O41  1  0.24874458  0.25009671  0.74990329  1
  O  O42  1  0.24874458  0.74990329  0.25009671  1
  O  O43  1  0.24874458  0.74990329  0.74990329  1
  O  O44  1  0.75125542  0.25009671  0.25009671  1
  O  O45  1  0.75125542  0.25009671  0.74990329  1
  O  O46  1  0.75125542  0.74990329  0.25009671  1
  O  O47  1  0.75125542  0.74990329  0.74990329  1
  O  O48  1  0.00000000  0.00000000  0.28592719  1
  O  O49  1  0.00000000  0.00000000  0.71407281  1
  O  O50  1  0.00000000  0.50000000  0.26534316  1
  O  O51  1  0.00000000  0.50000000  0.73465684  1
  O  O52  1  0.50000000  0.00000000  0.25757402  1
  O  O53  1  0.50000000  0.00000000  0.74242598  1
  O  O54  1  0.50000000  0.50000000  0.25364185  1
  O  O55  1  0.50000000  0.50000000  0.74635815  1
  O  O56  1  0.00000000  0.28592719  0.00000000  1
  O  O57  1  0.00000000  0.26534316  0.50000000  1
  O  O58  1  0.00000000  0.71407281  -0.00000000  1
  O  O59  1  0.00000000  0.73465684  0.50000000  1
  O  O60  1  0.50000000  0.25757402  0.00000000  1
  O  O61  1  0.50000000  0.25364185  0.50000000  1
  O  O62  1  0.50000000  0.74242598  -0.00000000  1
  O  O63  1  0.50000000  0.74635815  0.50000000  1
