# generated using pymatgen
data_BaYBr5
_symmetry_space_group_name_H-M   'P 1'
_cell_length_a   10.63141206
_cell_length_b   10.63141206
_cell_length_c   7.25277656
_cell_angle_alpha   89.04764815
_cell_angle_beta   90.95235185
_cell_angle_gamma   32.47850631
_symmetry_Int_Tables_number   1
_chemical_formula_structural   BaYBr5
_chemical_formula_sum   'Ba2 Y2 Br10'
_cell_volume   439.41861815
_cell_formula_units_Z   2
loop_
 _symmetry_equiv_pos_site_id
 _symmetry_equiv_pos_as_xyz
  1  'x, y, z'
loop_
 _atom_site_type_symbol
 _atom_site_label
 _atom_site_symmetry_multiplicity
 _atom_site_fract_x
 _atom_site_fract_y
 _atom_site_fract_z
 _atom_site_occupancy
  Ba  Ba0  1  0.67201541  0.67201541  0.75000000  1
  Ba  Ba1  1  0.32798459  0.32798459  0.25000000  1
  Y  Y2  1  0.92330867  0.92330867  0.75000000  1
  Y  Y3  1  0.07669133  0.07669133  0.25000000  1
  Br  Br4  1  0.27474557  0.78868864  0.59643443  1
  Br  Br5  1  0.21131136  0.72525443  0.09643443  1
  Br  Br6  1  0.19507075  0.18147045  0.99818149  1
  Br  Br7  1  0.37138450  0.37138450  0.75000000  1
  Br  Br8  1  0.18147045  0.19507075  0.50181851  1
  Br  Br9  1  0.81852855  0.80492925  0.49818149  1
  Br  Br10  1  0.62861550  0.62861550  0.25000000  1
  Br  Br11  1  0.80492925  0.81852855  0.00181851  1
  Br  Br12  1  0.78868864  0.27474557  0.90356557  1
  Br  Br13  1  0.72525443  0.21131136  0.40356557  1
