# generated using pymatgen
data_LuTiO3
_symmetry_space_group_name_H-M   'P 1'
_cell_length_a   5.26457258
_cell_length_b   5.64799696
_cell_length_c   7.62027059
_cell_angle_alpha   90.00061427
_cell_angle_beta   90.00063313
_cell_angle_gamma   90.00122293
_symmetry_Int_Tables_number   1
_chemical_formula_structural   LuTiO3
_chemical_formula_sum   'Lu4 Ti4 O12'
_cell_volume   226.58333501
_cell_formula_units_Z   4
loop_
 _symmetry_equiv_pos_site_id
 _symmetry_equiv_pos_as_xyz
  1  'x, y, z'
loop_
 _atom_site_type_symbol
 _atom_site_label
 _atom_site_symmetry_multiplicity
 _atom_site_fract_x
 _atom_site_fract_y
 _atom_site_fract_z
 _atom_site_occupancy
  Lu  Lu0  1  0.97777120  0.42662867  0.75000438  1
  Lu  Lu1  1  0.52223673  0.92661989  0.75000397  1
  Lu  Lu2  1  0.47776539  0.07337348  0.24999680  1
  Lu  Lu3  1  0.02223061  0.57337372  0.24999232  1
  Ti  Ti4  1  0.99999789  0.00000333  -0.00000099  1
  Ti  Ti5  1  -0.00000078  -0.00000044  0.50000154  1
  Ti  Ti6  1  0.49999974  0.50000220  0.00000058  1
  Ti  Ti7  1  0.50000095  0.49999925  0.49999934  1
  O  O8  1  0.13474643  0.05704958  0.75000242  1
  O  O9  1  0.18337727  0.30824634  0.06314615  1
  O  O10  1  0.18337108  0.30825623  0.43684761  1
  O  O11  1  0.31662456  0.80827064  0.43684286  1
  O  O12  1  0.31663749  0.80827274  0.06314954  1
  O  O13  1  0.36524142  0.55704370  0.75000815  1
  O  O14  1  0.63475864  0.44294321  0.24999587  1
  O  O15  1  0.68336919  0.19173751  0.93685064  1
  O  O16  1  0.68336924  0.19173907  0.56315051  1
  O  O17  1  0.81662892  0.69173880  0.56315109  1
  O  O18  1  0.81663017  0.69174579  0.93686265  1
  O  O19  1  0.86524387  0.94295629  0.24999457  1
