# generated using pymatgen
data_Zr3N2O3
_symmetry_space_group_name_H-M   'P 1'
_cell_length_a   4.01016232
_cell_length_b   5.77735651
_cell_length_c   10.89214286
_cell_angle_alpha   90.00000000
_cell_angle_beta   90.00000000
_cell_angle_gamma   69.69248468
_symmetry_Int_Tables_number   1
_chemical_formula_structural   Zr3N2O3
_chemical_formula_sum   'Zr6 N4 O6'
_cell_volume   236.66540817
_cell_formula_units_Z   2
loop_
 _symmetry_equiv_pos_site_id
 _symmetry_equiv_pos_as_xyz
  1  'x, y, z'
loop_
 _atom_site_type_symbol
 _atom_site_label
 _atom_site_symmetry_multiplicity
 _atom_site_fract_x
 _atom_site_fract_y
 _atom_site_fract_z
 _atom_site_occupancy
  Zr  Zr0  1  0.13612593  0.72774714  0.93981448  1
  Zr  Zr1  1  0.13553780  0.72892341  0.55380636  1
  Zr  Zr2  1  0.18621978  0.62755943  0.24889834  1
  Zr  Zr3  1  0.81378022  0.37244057  0.74889834  1
  Zr  Zr4  1  0.86446220  0.27107659  0.05380636  1
  Zr  Zr5  1  0.86387407  0.27225286  0.43981448  1
  N  N6  1  0.04699864  0.90600372  0.38519693  1
  N  N7  1  0.70532633  0.58934634  0.57562473  1
  N  N8  1  0.29467367  0.41065366  0.07562473  1
  N  N9  1  0.95300136  0.09399628  0.88519693  1
  O  O10  1  0.04484076  0.91031848  0.11702216  1
  O  O11  1  0.69275624  0.61448851  0.91967087  1
  O  O12  1  0.75645569  0.48708962  0.25996714  1
  O  O13  1  0.24354431  0.51291038  0.75996714  1
  O  O14  1  0.30724376  0.38551149  0.41967087  1
  O  O15  1  0.95515924  0.08968152  0.61702216  1
