# generated using pymatgen
data_BiRu2O7
_symmetry_space_group_name_H-M   'P 1'
_cell_length_a   7.27071325
_cell_length_b   7.22321630
_cell_length_c   7.22321630
_cell_angle_alpha   59.98728608
_cell_angle_beta   59.79162587
_cell_angle_gamma   59.79162587
_symmetry_Int_Tables_number   1
_chemical_formula_structural   BiRu2O7
_chemical_formula_sum   'Bi2 Ru4 O14'
_cell_volume   267.36634000
_cell_formula_units_Z   2
loop_
 _symmetry_equiv_pos_site_id
 _symmetry_equiv_pos_as_xyz
  1  'x, y, z'
loop_
 _atom_site_type_symbol
 _atom_site_label
 _atom_site_symmetry_multiplicity
 _atom_site_fract_x
 _atom_site_fract_y
 _atom_site_fract_z
 _atom_site_occupancy
  Bi  Bi0  1  0.48053896  0.50005081  0.00004126  1
  Bi  Bi1  1  0.51946104  0.99995874  0.49994919  1
  Ru  Ru2  1  0.00000000  0.00518937  0.99481063  1
  Ru  Ru3  1  0.50000000  0.99478418  0.00521582  1
  Ru  Ru4  1  0.99842251  0.49996996  0.00003620  1
  Ru  Ru5  1  0.00157749  0.99996380  0.50003004  1
  O  O6  1  0.67406203  0.07586701  0.07585962  1
  O  O7  1  0.94947748  0.30054190  0.30049289  1
  O  O8  1  0.67189082  0.06269699  0.67805439  1
  O  O9  1  0.08729978  0.67814133  0.06282361  1
  O  O10  1  0.08208008  0.05782602  0.68328878  1
  O  O11  1  0.67682045  0.68327298  0.05763701  1
  O  O12  1  0.38693085  0.36295863  0.36305743  1
  O  O13  1  0.32317955  0.94236299  0.31672702  1
  O  O14  1  0.32810918  0.32194561  0.93730301  1
  O  O15  1  0.91791992  0.31671122  0.94217398  1
  O  O16  1  0.61306915  0.63694257  0.63704137  1
  O  O17  1  0.91270022  0.93717639  0.32185867  1
  O  O18  1  0.05052252  0.69950711  0.69945810  1
  O  O19  1  0.32593797  0.92414038  0.92413299  1
