# generated using pymatgen
data_Li3Ti4O8
_symmetry_space_group_name_H-M   'P 1'
_cell_length_a   5.12622331
_cell_length_b   9.93246051
_cell_length_c   2.94573330
_cell_angle_alpha   90.00000000
_cell_angle_beta   90.00000000
_cell_angle_gamma   92.43715359
_symmetry_Int_Tables_number   1
_chemical_formula_structural   Li3Ti4O8
_chemical_formula_sum   'Li3 Ti4 O8'
_cell_volume   149.84932150
_cell_formula_units_Z   1
loop_
 _symmetry_equiv_pos_site_id
 _symmetry_equiv_pos_as_xyz
  1  'x, y, z'
loop_
 _atom_site_type_symbol
 _atom_site_label
 _atom_site_symmetry_multiplicity
 _atom_site_fract_x
 _atom_site_fract_y
 _atom_site_fract_z
 _atom_site_occupancy
  Li  Li0  1  0.41389890  0.08582315  0.75000000  1
  Li  Li1  1  0.57358094  0.90372916  0.25000000  1
  Li  Li2  1  0.92930745  0.45663913  0.25000000  1
  Ti  Ti3  1  0.05915072  0.85533235  0.75000000  1
  Ti  Ti4  1  0.45247065  0.36546072  0.75000000  1
  Ti  Ti5  1  0.53960352  0.63382049  0.25000000  1
  Ti  Ti6  1  0.93965686  0.13756305  0.25000000  1
  O  O7  1  0.16005778  0.22630519  0.75000000  1
  O  O8  1  0.22307864  0.98330694  0.25000000  1
  O  O9  1  0.29060550  0.47407266  0.25000000  1
  O  O10  1  0.36441188  0.74462032  0.75000000  1
  O  O11  1  0.66197663  0.27133155  0.25000000  1
  O  O12  1  0.71935005  0.52570731  0.75000000  1
  O  O13  1  0.76782665  0.01620706  0.75000000  1
  O  O14  1  0.84462282  0.77128093  0.25000000  1
