# generated using pymatgen
data_TmTiO3
_symmetry_space_group_name_H-M   'P 1'
_cell_length_a   5.28648488
_cell_length_b   7.65019918
_cell_length_c   5.67375964
_cell_angle_alpha   89.99830454
_cell_angle_beta   90.00033920
_cell_angle_gamma   89.98984824
_symmetry_Int_Tables_number   1
_chemical_formula_structural   TmTiO3
_chemical_formula_sum   'Tm4 Ti4 O12'
_cell_volume   229.46194144
_cell_formula_units_Z   4
loop_
 _symmetry_equiv_pos_site_id
 _symmetry_equiv_pos_as_xyz
  1  'x, y, z'
loop_
 _atom_site_type_symbol
 _atom_site_label
 _atom_site_symmetry_multiplicity
 _atom_site_fract_x
 _atom_site_fract_y
 _atom_site_fract_z
 _atom_site_occupancy
  Tm  Tm0  1  0.02395257  0.75719236  0.07414208  1
  Tm  Tm1  1  0.47605373  0.75719227  0.57415304  1
  Tm  Tm2  1  0.52394621  0.25717464  0.42584622  1
  Tm  Tm3  1  0.97604723  0.25717476  0.92585707  1
  Ti  Ti4  1  0.99973531  0.50771649  0.49930413  1
  Ti  Ti5  1  0.50026519  0.50771569  0.99930533  1
  Ti  Ti6  1  0.49973738  0.00771830  0.00069516  1
  Ti  Ti7  1  0.00026344  0.00771636  0.50069419  1
  O  O8  1  0.13131395  0.25813283  0.55266410  1
  O  O9  1  0.18749851  0.57085666  0.80422243  1
  O  O10  1  0.18616099  0.94637469  0.80690947  1
  O  O11  1  0.31247558  0.57085165  0.30425792  1
  O  O12  1  0.31389321  0.94637184  0.30685594  1
  O  O13  1  0.36869906  0.25810824  0.05265541  1
  O  O14  1  0.63130033  0.75813400  0.94734265  1
  O  O15  1  0.68748381  0.07085765  0.69578399  1
  O  O16  1  0.68614911  0.44637564  0.69310210  1
  O  O17  1  0.81245834  0.07085266  0.19573421  1
  O  O18  1  0.81388148  0.44637220  0.19313810  1
  O  O19  1  0.86868456  0.75811106  0.44733648  1
