# generated using pymatgen
data_BaNa2O2
_symmetry_space_group_name_H-M   'P 1'
_cell_length_a   3.80499607
_cell_length_b   6.87010302
_cell_length_c   7.87331960
_cell_angle_alpha   90.00000000
_cell_angle_beta   90.00000000
_cell_angle_gamma   106.07671461
_symmetry_Int_Tables_number   1
_chemical_formula_structural   BaNa2O2
_chemical_formula_sum   'Ba2 Na4 O4'
_cell_volume   197.76517595
_cell_formula_units_Z   2
loop_
 _symmetry_equiv_pos_site_id
 _symmetry_equiv_pos_as_xyz
  1  'x, y, z'
loop_
 _atom_site_type_symbol
 _atom_site_label
 _atom_site_symmetry_multiplicity
 _atom_site_fract_x
 _atom_site_fract_y
 _atom_site_fract_z
 _atom_site_occupancy
  Ba  Ba0  1  0.19289179  0.38578258  0.06649973  1
  Ba  Ba1  1  0.80710821  0.61421742  0.56649973  1
  Na  Na2  1  0.05636121  0.11272143  0.61006158  1
  Na  Na3  1  0.42417978  0.84836057  0.85678573  1
  Na  Na4  1  0.94363879  0.88727857  0.11006158  1
  Na  Na5  1  0.57582022  0.15163943  0.35678573  1
  O  O6  1  0.18838832  0.37677765  0.41139803  1
  O  O7  1  0.45555097  0.91110193  0.57014493  1
  O  O8  1  0.54444903  0.08889807  0.07014493  1
  O  O9  1  0.81161168  0.62322235  0.91139803  1
