# generated using pymatgen
data_BaYF5
_symmetry_space_group_name_H-M   'P 1'
_cell_length_a   5.62452618
_cell_length_b   9.80562261
_cell_length_c   8.34394728
_cell_angle_alpha   90.00000000
_cell_angle_beta   87.16872282
_cell_angle_gamma   90.00000000
_symmetry_Int_Tables_number   1
_chemical_formula_structural   BaYF5
_chemical_formula_sum   'Ba4 Y4 F20'
_cell_volume   459.62348495
_cell_formula_units_Z   4
loop_
 _symmetry_equiv_pos_site_id
 _symmetry_equiv_pos_as_xyz
  1  'x, y, z'
loop_
 _atom_site_type_symbol
 _atom_site_label
 _atom_site_symmetry_multiplicity
 _atom_site_fract_x
 _atom_site_fract_y
 _atom_site_fract_z
 _atom_site_occupancy
  Ba  Ba0  1  0.00069315  0.56841308  0.74319494  1
  Ba  Ba1  1  0.49813039  0.30051722  0.00585735  1
  Ba  Ba2  1  0.50186961  0.80051722  0.99414265  1
  Ba  Ba3  1  0.99930685  0.06841308  0.25680506  1
  Y  Y4  1  0.00452118  0.06175068  0.73803342  1
  Y  Y5  1  0.46778652  0.31768324  0.54084552  1
  Y  Y6  1  0.53221348  0.81768324  0.45915448  1
  Y  Y7  1  0.99547882  0.56175068  0.26196658  1
  F  F8  1  0.85620682  0.68829300  0.49033366  1
  F  F9  1  0.18903985  0.59615847  0.01971127  1
  F  F10  1  0.09972066  0.34537001  0.18109154  1
  F  F11  1  0.22903046  0.48271938  0.47397543  1
  F  F12  1  0.17415447  0.28948135  0.78078161  1
  F  F13  1  0.23993573  0.93966106  0.56856198  1
  F  F14  1  0.31765768  0.69706389  0.29591788  1
  F  F15  1  0.42452925  0.72066621  0.69009033  1
  F  F16  1  0.43690901  0.95580638  0.25338231  1
  F  F17  1  0.28245740  0.03491604  0.91958130  1
  F  F18  1  0.71754260  0.53491604  0.08041870  1
  F  F19  1  0.56309099  0.45580638  0.74661769  1
  F  F20  1  0.57547075  0.22066621  0.30990967  1
  F  F21  1  0.68234232  0.19706389  0.70408212  1
  F  F22  1  0.76006427  0.43966106  0.43143802  1
  F  F23  1  0.82584553  0.78948135  0.21921839  1
  F  F24  1  0.77096954  0.98271938  0.52602457  1
  F  F25  1  0.90027934  0.84537001  0.81890846  1
  F  F26  1  0.81096015  0.09615847  0.98028873  1
  F  F27  1  0.14379318  0.18829300  0.50966634  1
