# generated using pymatgen
data_Li5FeS4
_symmetry_space_group_name_H-M   'P 1'
_cell_length_a   7.94245630
_cell_length_b   7.83056882
_cell_length_c   5.87095913
_cell_angle_alpha   90.00000000
_cell_angle_beta   90.00000000
_cell_angle_gamma   90.00000000
_symmetry_Int_Tables_number   1
_chemical_formula_structural   Li5FeS4
_chemical_formula_sum   'Li10 Fe2 S8'
_cell_volume   365.13814244
_cell_formula_units_Z   2
loop_
 _symmetry_equiv_pos_site_id
 _symmetry_equiv_pos_as_xyz
  1  'x, y, z'
loop_
 _atom_site_type_symbol
 _atom_site_label
 _atom_site_symmetry_multiplicity
 _atom_site_fract_x
 _atom_site_fract_y
 _atom_site_fract_z
 _atom_site_occupancy
  Li  Li0  1  0.03763638  0.00748088  0.74666483  1
  Li  Li1  1  0.03763638  0.49251912  0.74666483  1
  Li  Li2  1  0.25000000  0.75000000  0.20378698  1
  Li  Li3  1  0.46236362  0.00748088  0.74666483  1
  Li  Li4  1  0.46236362  0.49251912  0.74666483  1
  Li  Li5  1  0.53763638  0.99251912  0.25333517  1
  Li  Li6  1  0.53763638  0.50748088  0.25333517  1
  Li  Li7  1  0.75000000  0.25000000  0.79621302  1
  Li  Li8  1  0.96236362  0.99251912  0.25333517  1
  Li  Li9  1  0.96236362  0.50748088  0.25333517  1
  Fe  Fe10  1  0.25000000  0.25000000  0.22855522  1
  Fe  Fe11  1  0.75000000  0.75000000  0.77144478  1
  S  S12  1  0.01074006  0.25000000  0.01595479  1
  S  S13  1  0.25000000  0.00589336  0.44291294  1
  S  S14  1  0.25000000  0.49410664  0.44291294  1
  S  S15  1  0.48925994  0.25000000  0.01595479  1
  S  S16  1  0.51074006  0.75000000  0.98404521  1
  S  S17  1  0.75000000  0.99410664  0.55708706  1
  S  S18  1  0.75000000  0.50589336  0.55708706  1
  S  S19  1  0.98925994  0.75000000  0.98404521  1
