# generated using pymatgen
data_LuAlO3
_symmetry_space_group_name_H-M   'P 1'
_cell_length_a   3.38960763
_cell_length_b   3.38957833
_cell_length_c   11.46932685
_cell_angle_alpha   90.00091444
_cell_angle_beta   89.99948559
_cell_angle_gamma   120.00045880
_symmetry_Int_Tables_number   1
_chemical_formula_structural   LuAlO3
_chemical_formula_sum   'Lu2 Al2 O6'
_cell_volume   114.11997193
_cell_formula_units_Z   2
loop_
 _symmetry_equiv_pos_site_id
 _symmetry_equiv_pos_as_xyz
  1  'x, y, z'
loop_
 _atom_site_type_symbol
 _atom_site_label
 _atom_site_symmetry_multiplicity
 _atom_site_fract_x
 _atom_site_fract_y
 _atom_site_fract_z
 _atom_site_occupancy
  Lu  Lu0  1  0.99999168  0.00002615  -0.00000342  1
  Lu  Lu1  1  0.00000605  0.00003425  0.50000158  1
  Al  Al2  1  0.33333478  0.66667673  0.25000463  1
  Al  Al3  1  0.66666032  0.33333344  0.74999571  1
  O  O4  1  0.33332600  0.66668482  0.08986296  1
  O  O5  1  0.33333821  0.66670543  0.41013730  1
  O  O6  1  0.00000799  0.00001449  0.25000390  1
  O  O7  1  -0.00000210  0.00000805  0.74999907  1
  O  O8  1  0.66667168  0.33335799  0.91013559  1
  O  O9  1  0.66666538  0.33335867  0.58986268  1
