# generated using pymatgen
data_SrCaI4
_symmetry_space_group_name_H-M   'P 1'
_cell_length_a   9.53986752
_cell_length_b   7.71386197
_cell_length_c   18.10111021
_cell_angle_alpha   90.00000000
_cell_angle_beta   120.01874757
_cell_angle_gamma   90.00000000
_symmetry_Int_Tables_number   1
_chemical_formula_structural   SrCaI4
_chemical_formula_sum   'Sr4 Ca4 I16'
_cell_volume   1153.36820945
_cell_formula_units_Z   4
loop_
 _symmetry_equiv_pos_site_id
 _symmetry_equiv_pos_as_xyz
  1  'x, y, z'
loop_
 _atom_site_type_symbol
 _atom_site_label
 _atom_site_symmetry_multiplicity
 _atom_site_fract_x
 _atom_site_fract_y
 _atom_site_fract_z
 _atom_site_occupancy
  Sr  Sr0  1  0.24873469  0.60753654  0.62922648  1
  Sr  Sr1  1  0.24873469  0.89246346  0.12922648  1
  Sr  Sr2  1  0.75126531  0.10753654  0.87077352  1
  Sr  Sr3  1  0.75126531  0.39246346  0.37077352  1
  Ca  Ca4  1  0.24483519  0.92469240  0.87061169  1
  Ca  Ca5  1  0.24483519  0.57530760  0.37061169  1
  Ca  Ca6  1  0.75516481  0.42469240  0.62938831  1
  Ca  Ca7  1  0.75516481  0.07530760  0.12938831  1
  I  I8  1  0.98985701  0.75913820  0.68654738  1
  I  I9  1  0.98985701  0.74086180  0.18654738  1
  I  I10  1  0.99880043  0.27314144  0.57158632  1
  I  I11  1  0.99880043  0.22685856  0.07158632  1
  I  I12  1  0.49241550  0.77425712  0.81797606  1
  I  I13  1  0.49095847  0.73180586  0.55576048  1
  I  I14  1  0.49241550  0.72574288  0.31797606  1
  I  I15  1  0.50904153  0.23180586  0.94423952  1
  I  I16  1  0.49095847  0.76819414  0.05576048  1
  I  I17  1  0.50758450  0.27425712  0.68202394  1
  I  I18  1  0.50904153  0.26819414  0.44423952  1
  I  I19  1  0.50758450  0.22574288  0.18202394  1
  I  I20  1  0.00119957  0.77314144  0.92841368  1
  I  I21  1  0.00119957  0.72685856  0.42841368  1
  I  I22  1  0.01014299  0.25913820  0.81345262  1
  I  I23  1  0.01014299  0.24086180  0.31345262  1
