# generated using pymatgen
data_LiTi(Si2O5)2
_symmetry_space_group_name_H-M   'P 1'
_cell_length_a   11.47429491
_cell_length_b   5.26673819
_cell_length_c   8.01722492
_cell_angle_alpha   90.00000000
_cell_angle_beta   70.29500683
_cell_angle_gamma   90.00000000
_symmetry_Int_Tables_number   1
_chemical_formula_structural   LiTi(Si2O5)2
_chemical_formula_sum   'Li2 Ti2 Si8 O20'
_cell_volume   456.12616880
_cell_formula_units_Z   2
loop_
 _symmetry_equiv_pos_site_id
 _symmetry_equiv_pos_as_xyz
  1  'x, y, z'
loop_
 _atom_site_type_symbol
 _atom_site_label
 _atom_site_symmetry_multiplicity
 _atom_site_fract_x
 _atom_site_fract_y
 _atom_site_fract_z
 _atom_site_occupancy
  Li  Li0  1  0.25000000  0.25444090  0.75000000  1
  Li  Li1  1  0.75000000  0.74555910  0.25000000  1
  Ti  Ti2  1  0.25000000  0.75233583  0.75000000  1
  Ti  Ti3  1  0.75000000  0.24766417  0.25000000  1
  Si  Si4  1  0.00000631  0.46382709  0.70081674  1
  Si  Si5  1  0.15113762  0.03811112  0.14759620  1
  Si  Si6  1  0.34886238  0.03811112  0.35240380  1
  Si  Si7  1  0.49999369  0.46382709  0.79918326  1
  Si  Si8  1  0.50000631  0.53617291  0.20081674  1
  Si  Si9  1  0.65113762  0.96188888  0.64759620  1
  Si  Si10  1  0.84886238  0.96188888  0.85240380  1
  Si  Si11  1  -0.00000631  0.53617291  0.29918326  1
  O  O12  1  0.00000000  0.50000000  0.50000000  1
  O  O13  1  0.13831778  0.50742941  0.71024554  1
  O  O14  1  0.21799644  -0.00021558  0.93532698  1
  O  O15  1  0.04201688  0.82603099  0.22924383  1
  O  O16  1  0.09661200  0.32809987  0.17444409  1
  O  O17  1  0.28200356  -0.00021558  0.56467302  1
  O  O18  1  0.36168222  0.50742941  0.78975446  1
  O  O19  1  0.25000000  0.00340006  0.25000000  1
  O  O20  1  0.40338800  0.32809987  0.32555591  1
  O  O21  1  0.54201688  0.17396901  0.72924383  1
  O  O22  1  0.45798312  0.82603099  0.27075617  1
  O  O23  1  0.59661200  0.67190013  0.67444409  1
  O  O24  1  0.50000000  0.50000000  0.00000000  1
  O  O25  1  0.75000000  0.99659994  0.75000000  1
  O  O26  1  0.63831778  0.49257059  0.21024554  1
  O  O27  1  0.71799644  0.00021558  0.43532698  1
  O  O28  1  0.90338800  0.67190013  0.82555591  1
  O  O29  1  0.95798312  0.17396901  0.77075617  1
  O  O30  1  0.78200356  0.00021558  0.06467302  1
  O  O31  1  0.86168222  0.49257059  0.28975446  1
