# generated using pymatgen
data_LiSb(PO3)4
_symmetry_space_group_name_H-M   'P 1'
_cell_length_a   7.48510627
_cell_length_b   9.02324609
_cell_length_c   9.31734656
_cell_angle_alpha   115.73821480
_cell_angle_beta   113.68298941
_cell_angle_gamma   65.49529348
_symmetry_Int_Tables_number   1
_chemical_formula_structural   LiSb(PO3)4
_chemical_formula_sum   'Li2 Sb2 P8 O24'
_cell_volume   496.59951528
_cell_formula_units_Z   2
loop_
 _symmetry_equiv_pos_site_id
 _symmetry_equiv_pos_as_xyz
  1  'x, y, z'
loop_
 _atom_site_type_symbol
 _atom_site_label
 _atom_site_symmetry_multiplicity
 _atom_site_fract_x
 _atom_site_fract_y
 _atom_site_fract_z
 _atom_site_occupancy
  Li  Li0  1  0.00000000  0.50000000  0.50000000  1
  Li  Li1  1  0.00000000  0.00000000  0.00000000  1
  Sb  Sb2  1  0.72415865  0.75000000  0.75000000  1
  Sb  Sb3  1  0.27584135  0.25000000  0.25000000  1
  P  P4  1  0.68475746  0.88426339  0.16084912  1
  P  P5  1  0.31831505  0.79249772  0.09760957  1
  P  P6  1  0.01320321  0.70750228  0.40239043  1
  P  P7  1  0.40817173  0.61573661  0.33915088  1
  P  P8  1  0.59182827  0.38426339  0.66084912  1
  P  P9  1  0.98679679  0.29249772  0.59760957  1
  P  P10  1  0.68168495  0.20750228  0.90239043  1
  P  P11  1  0.31524254  0.11573661  0.83915088  1
  O  O12  1  0.25031458  0.97071303  0.21668478  1
  O  O13  1  0.80276302  0.82677100  0.03771500  1
  O  O14  1  0.83351588  0.85670564  0.33225631  1
  O  O15  1  0.54703723  0.75874544  0.09167818  1
  O  O16  1  0.43668634  0.92670047  0.79142175  1
  O  O17  1  0.21410449  0.74125456  0.40832182  1
  O  O18  1  0.35796521  0.64329436  0.16774369  1
  O  O19  1  0.00847983  0.74062828  0.57212522  1
  O  O20  1  0.59181902  0.67322900  0.46228500  1
  O  O21  1  0.17698288  0.75937172  0.92787478  1
  O  O22  1  0.00434283  0.52928697  0.28331522  1
  O  O23  1  0.57196405  0.57329953  0.70857825  1
  O  O24  1  0.42803595  0.42670047  0.29142175  1
  O  O25  1  0.99565717  0.47071303  0.71668478  1
  O  O26  1  0.82301712  0.24062828  0.07212522  1
  O  O27  1  0.40818098  0.32677100  0.53771500  1
  O  O28  1  0.99152017  0.25937172  0.42787478  1
  O  O29  1  0.64203479  0.35670564  0.83225631  1
  O  O30  1  0.78589551  0.25874544  0.59167818  1
  O  O31  1  0.56331366  0.07329953  0.20857825  1
  O  O32  1  0.45296277  0.24125456  0.90832182  1
  O  O33  1  0.16648412  0.14329436  0.66774369  1
  O  O34  1  0.19723698  0.17322900  0.96228500  1
  O  O35  1  0.74968542  0.02928697  0.78331522  1
