# generated using pymatgen
data_Sr2CaI6
_symmetry_space_group_name_H-M   'P 1'
_cell_length_a   7.65183654
_cell_length_b   13.26549464
_cell_length_c   8.77113877
_cell_angle_alpha   100.90729401
_cell_angle_beta   90.06139497
_cell_angle_gamma   73.25110991
_symmetry_Int_Tables_number   1
_chemical_formula_structural   Sr2CaI6
_chemical_formula_sum   'Sr4 Ca2 I12'
_cell_volume   835.79228888
_cell_formula_units_Z   2
loop_
 _symmetry_equiv_pos_site_id
 _symmetry_equiv_pos_as_xyz
  1  'x, y, z'
loop_
 _atom_site_type_symbol
 _atom_site_label
 _atom_site_symmetry_multiplicity
 _atom_site_fract_x
 _atom_site_fract_y
 _atom_site_fract_z
 _atom_site_occupancy
  Sr  Sr0  1  0.38864953  0.66563031  0.86223248  1
  Sr  Sr1  1  0.94257120  0.66671842  0.36232640  1
  Sr  Sr2  1  0.05478206  0.33392074  0.63695249  1
  Sr  Sr3  1  0.61155718  0.33357681  0.13704657  1
  Ca  Ca4  1  0.67012155  0.99942336  0.75198999  1
  Ca  Ca5  1  0.32667854  0.99978776  0.25110293  1
  I  I6  1  0.59742025  0.84713364  0.96924875  1
  I  I7  1  0.55132553  0.84652197  0.46871801  1
  I  I8  1  0.06213516  0.81756929  0.66995746  1
  I  I9  1  0.11816259  0.81631898  0.16873496  1
  I  I10  1  0.73030212  0.54712552  0.59424112  1
  I  I11  1  0.71783429  0.54781773  0.09533873  1
  I  I12  1  0.27851972  0.45261155  0.90537698  1
  I  I13  1  0.26339381  0.45064195  0.40160662  1
  I  I14  1  0.88207126  0.18228992  0.83075386  1
  I  I15  1  0.93423758  0.18183501  0.33098185  1
  I  I16  1  0.44539931  0.15252128  0.53482234  1
  I  I17  1  0.40047731  0.15297274  0.03442844  1
