# generated using pymatgen
data_Li2Cu(PO3)4
_symmetry_space_group_name_H-M   'P 1'
_cell_length_a   8.19751859
_cell_length_b   11.03348211
_cell_length_c   13.30721605
_cell_angle_alpha   90.00000000
_cell_angle_beta   66.19030434
_cell_angle_gamma   90.00000000
_symmetry_Int_Tables_number   1
_chemical_formula_structural   Li2Cu(PO3)4
_chemical_formula_sum   'Li8 Cu4 P16 O48'
_cell_volume   1101.16333532
_cell_formula_units_Z   4
loop_
 _symmetry_equiv_pos_site_id
 _symmetry_equiv_pos_as_xyz
  1  'x, y, z'
loop_
 _atom_site_type_symbol
 _atom_site_label
 _atom_site_symmetry_multiplicity
 _atom_site_fract_x
 _atom_site_fract_y
 _atom_site_fract_z
 _atom_site_occupancy
  Li  Li0  1  0.16559175  0.10857549  0.26657958  1
  Li  Li1  1  0.33440825  0.60857549  0.23342042  1
  Li  Li2  1  0.18923082  0.97259517  0.43127388  1
  Li  Li3  1  0.31076918  0.47259517  0.06872612  1
  Li  Li4  1  0.68923082  0.52740483  0.93127388  1
  Li  Li5  1  0.81076918  0.02740483  0.56872612  1
  Li  Li6  1  0.66559175  0.39142451  0.76657958  1
  Li  Li7  1  0.83440825  0.89142451  0.73342042  1
  Cu  Cu8  1  0.26605765  0.26102644  0.68105911  1
  Cu  Cu9  1  0.23394235  0.76102644  0.81894089  1
  Cu  Cu10  1  0.76605765  0.23897356  0.18105911  1
  Cu  Cu11  1  0.73394235  0.73897356  0.31894089  1
  P  P12  1  0.99171838  0.74761189  0.07014460  1
  P  P13  1  0.07660653  0.37580412  0.29008745  1
  P  P14  1  0.37474491  0.76438425  0.02243418  1
  P  P15  1  0.12525509  0.26438425  0.47756582  1
  P  P16  1  0.00828162  0.25238811  0.92985540  1
  P  P17  1  0.42339347  0.87580412  0.20991255  1
  P  P18  1  0.20801021  0.04185863  0.82232263  1
  P  P19  1  0.29198979  0.54185863  0.67767737  1
  P  P20  1  0.50828162  0.24761189  0.42985540  1
  P  P21  1  0.49171838  0.75238811  0.57014460  1
  P  P22  1  0.70801021  0.45814137  0.32232263  1
  P  P23  1  0.79198979  0.95814137  0.17767737  1
  P  P24  1  0.57660653  0.12419588  0.79008745  1
  P  P25  1  0.87474491  0.73561575  0.52243418  1
  P  P26  1  0.62525509  0.23561575  0.97756582  1
  P  P27  1  0.92339347  0.62419588  0.70991255  1
  O  O28  1  0.16507640  0.80110016  0.08335652  1
  O  O29  1  0.05224110  0.36455760  0.41656197  1
  O  O30  1  0.23652869  0.45256391  0.22396001  1
  O  O31  1  0.09997423  0.13666685  0.44053662  1
  O  O32  1  0.05177709  0.29052027  0.59696957  1
  O  O33  1  0.40002577  0.63666685  0.05946338  1
  O  O34  1  0.93828018  0.74630475  0.75421434  1
  O  O35  1  0.08925976  0.53749762  0.69303927  1
  O  O36  1  0.26347131  0.95256391  0.27603999  1
  O  O37  1  0.11280530  0.32822979  0.83022425  1
  O  O38  1  0.04490878  0.68860428  0.95949784  1
  O  O39  1  0.44775890  0.86455760  0.08343803  1
  O  O40  1  0.33492360  0.30110016  0.41664348  1
  O  O41  1  0.12766495  0.91890966  0.85794801  1
  O  O42  1  0.11998068  0.13101683  0.92681858  1
  O  O43  1  0.18819276  0.09608855  0.72375008  1
  O  O44  1  0.31180724  0.59608855  0.77624992  1
  O  O45  1  0.55177709  0.20947973  0.09696957  1
  O  O46  1  0.38001932  0.63101683  0.57318142  1
  O  O47  1  0.37233505  0.41890966  0.64205199  1
  O  O48  1  0.43828018  0.75369525  0.25421434  1
  O  O49  1  0.58925976  0.96250238  0.19303927  1
  O  O50  1  0.45509122  0.18860428  0.54050216  1
  O  O51  1  0.38719470  0.82822979  0.66977575  1
  O  O52  1  0.61280530  0.17177021  0.33022425  1
  O  O53  1  0.54490878  0.81139572  0.45949784  1
  O  O54  1  0.41074024  0.03749762  0.80696073  1
  O  O55  1  0.56171982  0.24630475  0.74578566  1
  O  O56  1  0.62766495  0.58109034  0.35794801  1
  O  O57  1  0.61998068  0.36898317  0.42681858  1
  O  O58  1  0.44822291  0.79052027  0.90303043  1
  O  O59  1  0.68819276  0.40391145  0.22375008  1
  O  O60  1  0.81180724  0.90391145  0.27624992  1
  O  O61  1  0.88001932  0.86898317  0.07318142  1
  O  O62  1  0.87233505  0.08109034  0.14205199  1
  O  O63  1  0.66507640  0.69889984  0.58335652  1
  O  O64  1  0.55224110  0.13544240  0.91656197  1
  O  O65  1  0.95509122  0.31139572  0.04050216  1
  O  O66  1  0.88719470  0.67177021  0.16977575  1
  O  O67  1  0.73652869  0.04743609  0.72396001  1
  O  O68  1  0.91074024  0.46250238  0.30696073  1
  O  O69  1  0.06171982  0.25369525  0.24578566  1
  O  O70  1  0.59997423  0.36333315  0.94053662  1
  O  O71  1  0.94822291  0.70947973  0.40303043  1
  O  O72  1  0.90002577  0.86333315  0.55946338  1
  O  O73  1  0.76347131  0.54743609  0.77603999  1
  O  O74  1  0.94775890  0.63544240  0.58343803  1
  O  O75  1  0.83492360  0.19889984  0.91664348  1
