# generated using pymatgen
data_Mg2Bi
_symmetry_space_group_name_H-M   'P 1'
_cell_length_a   12.07033705
_cell_length_b   3.36748926
_cell_length_c   7.84707018
_cell_angle_alpha   90.00000000
_cell_angle_beta   100.66616238
_cell_angle_gamma   90.00000000
_symmetry_Int_Tables_number   1
_chemical_formula_structural   Mg2Bi
_chemical_formula_sum   'Mg8 Bi4'
_cell_volume   313.44688193
_cell_formula_units_Z   4
loop_
 _symmetry_equiv_pos_site_id
 _symmetry_equiv_pos_as_xyz
  1  'x, y, z'
loop_
 _atom_site_type_symbol
 _atom_site_label
 _atom_site_symmetry_multiplicity
 _atom_site_fract_x
 _atom_site_fract_y
 _atom_site_fract_z
 _atom_site_occupancy
  Mg  Mg0  1  0.00114590  -0.00000000  0.99921639  1
  Mg  Mg1  1  0.15972116  0.50000000  0.32743712  1
  Mg  Mg2  1  0.33779803  0.00000000  0.67149596  1
  Mg  Mg3  1  0.22283597  0.50000000  0.94497012  1
  Mg  Mg4  1  0.50114590  0.50000000  0.99921639  1
  Mg  Mg5  1  0.65972116  0.00000000  0.32743712  1
  Mg  Mg6  1  0.83779803  0.50000000  0.67149596  1
  Mg  Mg7  1  0.72283597  0.00000000  0.94497012  1
  Bi  Bi8  1  0.37162910  -0.00000000  0.25528081  1
  Bi  Bi9  1  0.07353684  0.00000000  0.63493261  1
  Bi  Bi10  1  0.87162910  0.50000000  0.25528081  1
  Bi  Bi11  1  0.57353684  0.50000000  0.63493261  1
