# generated using pymatgen
data_Li2SnP2O7
_symmetry_space_group_name_H-M   'P 1'
_cell_length_a   7.95116118
_cell_length_b   14.44792417
_cell_length_c   5.53638677
_cell_angle_alpha   90.00000000
_cell_angle_beta   91.51308482
_cell_angle_gamma   90.00000000
_symmetry_Int_Tables_number   1
_chemical_formula_structural   Li2SnP2O7
_chemical_formula_sum   'Li8 Sn4 P8 O28'
_cell_volume   635.78602424
_cell_formula_units_Z   4
loop_
 _symmetry_equiv_pos_site_id
 _symmetry_equiv_pos_as_xyz
  1  'x, y, z'
loop_
 _atom_site_type_symbol
 _atom_site_label
 _atom_site_symmetry_multiplicity
 _atom_site_fract_x
 _atom_site_fract_y
 _atom_site_fract_z
 _atom_site_occupancy
  Li  Li0  1  0.14992224  0.90789930  0.20423451  1
  Li  Li1  1  0.18348552  0.31617244  0.70117110  1
  Li  Li2  1  0.31651448  0.81617244  0.79882890  1
  Li  Li3  1  0.35007776  0.40789930  0.29576549  1
  Li  Li4  1  0.64992224  0.59210070  0.70423451  1
  Li  Li5  1  0.68348552  0.18382756  0.20117110  1
  Li  Li6  1  0.81651448  0.68382756  0.29882890  1
  Li  Li7  1  0.85007776  0.09210070  0.79576549  1
  Sn  Sn8  1  0.27059458  0.65710490  0.30238434  1
  Sn  Sn9  1  0.22940542  0.15710490  0.19761566  1
  Sn  Sn10  1  0.77059458  0.84289510  0.80238434  1
  Sn  Sn11  1  0.72940542  0.34289510  0.69761566  1
  P  P12  1  0.02787957  0.67381655  0.77301620  1
  P  P13  1  0.22012533  0.02259664  0.70932066  1
  P  P14  1  0.27987467  0.52259664  0.79067934  1
  P  P15  1  0.47212043  0.17381655  0.72698380  1
  P  P16  1  0.52787957  0.82618345  0.27301620  1
  P  P17  1  0.72012533  0.47740336  0.20932066  1
  P  P18  1  0.77987467  0.97740336  0.29067934  1
  P  P19  1  0.97212043  0.32618345  0.22698380  1
  O  O20  1  0.08413833  0.56710755  0.77536008  1
  O  O21  1  0.02994610  0.70552517  0.50417964  1
  O  O22  1  0.15046064  0.73134150  0.93146067  1
  O  O23  1  0.15206484  0.32040912  0.12892049  1
  O  O24  1  0.10731958  0.09933375  0.81318610  1
  O  O25  1  0.18831043  0.00536390  0.44027851  1
  O  O26  1  0.23119081  0.93712258  0.86877149  1
  O  O27  1  0.26880919  0.43712258  0.63122851  1
  O  O28  1  0.31168957  0.50536390  0.05972149  1
  O  O29  1  0.39268042  0.59933375  0.68681390  1
  O  O30  1  0.34953936  0.23134150  0.56853933  1
  O  O31  1  0.34793516  0.82040912  0.37107951  1
  O  O32  1  0.47005390  0.20552517  0.99582036  1
  O  O33  1  0.41586167  0.06710755  0.72463992  1
  O  O34  1  0.58413833  0.93289245  0.27536008  1
  O  O35  1  0.52994610  0.79447483  0.00417964  1
  O  O36  1  0.65206484  0.17959088  0.62892049  1
  O  O37  1  0.65046064  0.76865850  0.43146067  1
  O  O38  1  0.60731958  0.40066625  0.31318610  1
  O  O39  1  0.68831043  0.49463610  0.94027851  1
  O  O40  1  0.73119081  0.56287742  0.36877149  1
  O  O41  1  0.76880919  0.06287742  0.13122851  1
  O  O42  1  0.81168957  0.99463610  0.55972149  1
  O  O43  1  0.89268042  0.90066625  0.18681390  1
  O  O44  1  0.84793516  0.67959088  0.87107951  1
  O  O45  1  0.84953936  0.26865850  0.06853933  1
  O  O46  1  0.97005390  0.29447483  0.49582036  1
  O  O47  1  0.91586167  0.43289245  0.22463992  1
