# generated using pymatgen
data_LiBi(PO3)4
_symmetry_space_group_name_H-M   'P 1'
_cell_length_a   6.98219965
_cell_length_b   7.55813023
_cell_length_c   9.23790789
_cell_angle_alpha   90.00000000
_cell_angle_beta   90.00000000
_cell_angle_gamma   85.81811058
_symmetry_Int_Tables_number   1
_chemical_formula_structural   LiBi(PO3)4
_chemical_formula_sum   'Li2 Bi2 P8 O24'
_cell_volume   486.20838466
_cell_formula_units_Z   2
loop_
 _symmetry_equiv_pos_site_id
 _symmetry_equiv_pos_as_xyz
  1  'x, y, z'
loop_
 _atom_site_type_symbol
 _atom_site_label
 _atom_site_symmetry_multiplicity
 _atom_site_fract_x
 _atom_site_fract_y
 _atom_site_fract_z
 _atom_site_occupancy
  Li  Li0  1  0.21772474  0.21473525  0.02191366  1
  Li  Li1  1  0.78227526  0.78526475  0.52191366  1
  Bi  Bi2  1  0.24397732  0.73164626  0.36402335  1
  Bi  Bi3  1  0.75602268  0.26835374  0.86402335  1
  P  P4  1  0.99277958  0.42054400  0.36072217  1
  P  P5  1  0.09783052  0.12094979  0.56181227  1
  P  P6  1  0.39473257  0.59282621  0.73018736  1
  P  P7  1  0.45146855  0.08878430  0.39069989  1
  P  P8  1  0.54853145  0.91121570  0.89069989  1
  P  P9  1  0.60526743  0.40717379  0.23018736  1
  P  P10  1  0.90216948  0.87905021  0.06181227  1
  P  P11  1  0.00722042  0.57945600  0.86072217  1
  O  O12  1  0.02375750  0.76489334  0.94029056  1
  O  O13  1  0.06771620  0.92812247  0.53037974  1
  O  O14  1  0.04985791  0.42242021  0.96061549  1
  O  O15  1  0.03853085  0.19178522  0.70797271  1
  O  O16  1  0.16481695  0.59938223  0.73953934  1
  O  O17  1  0.18314583  0.43099405  0.28450332  1
  O  O18  1  0.31707549  0.16292793  0.52848741  1
  O  O19  1  0.31781346  0.03006586  0.27291232  1
  O  O20  1  0.46927743  0.41068837  0.77796625  1
  O  O21  1  0.44320032  0.73702430  0.85066786  1
  O  O22  1  0.40432610  0.05003937  0.94487343  1
  O  O23  1  0.43532471  0.65480748  0.57914385  1
  O  O24  1  0.56467529  0.34519252  0.07914385  1
  O  O25  1  0.59567390  0.94996063  0.44487343  1
  O  O26  1  0.55679968  0.26297570  0.35066786  1
  O  O27  1  0.53072257  0.58931163  0.27796625  1
  O  O28  1  0.68218654  0.96993414  0.77291232  1
  O  O29  1  0.68292451  0.83707207  0.02848741  1
  O  O30  1  0.81685417  0.56900595  0.78450332  1
  O  O31  1  0.83518305  0.40061777  0.23953934  1
  O  O32  1  0.96146915  0.80821478  0.20797271  1
  O  O33  1  0.95014209  0.57757979  0.46061549  1
  O  O34  1  0.93228380  0.07187753  0.03037974  1
  O  O35  1  0.97624250  0.23510666  0.44029056  1
