# generated using pymatgen
data_Li2Ti3O6
_symmetry_space_group_name_H-M   'P 1'
_cell_length_a   5.27457097
_cell_length_b   5.09515403
_cell_length_c   5.10236682
_cell_angle_alpha   59.95315339
_cell_angle_beta   71.41577954
_cell_angle_gamma   80.81779446
_symmetry_Int_Tables_number   1
_chemical_formula_structural   Li2Ti3O6
_chemical_formula_sum   'Li2 Ti3 O6'
_cell_volume   112.50816065
_cell_formula_units_Z   1
loop_
 _symmetry_equiv_pos_site_id
 _symmetry_equiv_pos_as_xyz
  1  'x, y, z'
loop_
 _atom_site_type_symbol
 _atom_site_label
 _atom_site_symmetry_multiplicity
 _atom_site_fract_x
 _atom_site_fract_y
 _atom_site_fract_z
 _atom_site_occupancy
  Li  Li0  1  0.50000000  0.33474665  0.83262667  1
  Li  Li1  1  0.50000000  0.66525335  0.16737333  1
  Ti  Ti2  1  0.00000000  0.67494751  0.66252675  1
  Ti  Ti3  1  1.00000000  0.32505249  0.33747325  1
  Ti  Ti4  1  0.00000000  0.00000000  0.00000000  1
  O  O5  1  0.77343616  1.00000000  0.75168137  1
  O  O6  1  0.77877498  0.65729954  0.40711018  1
  O  O7  1  0.77877498  0.34270046  0.06440973  1
  O  O8  1  0.22122502  0.65729954  0.93559027  1
  O  O9  1  0.22122502  0.34270046  0.59288982  1
  O  O10  1  0.22656384  0.00000000  0.24831863  1
