# generated using pymatgen
data_SrCd2H16(Cl3O4)2
_symmetry_space_group_name_H-M   'P 1'
_cell_length_a   8.06584426
_cell_length_b   9.90355954
_cell_length_c   12.03725735
_cell_angle_alpha   106.95825198
_cell_angle_beta   100.27166010
_cell_angle_gamma   88.49023361
_symmetry_Int_Tables_number   1
_chemical_formula_structural   SrCd2H16(Cl3O4)2
_chemical_formula_sum   'Sr2 Cd4 H32 Cl12 O16'
_cell_volume   904.65600626
_cell_formula_units_Z   2
loop_
 _symmetry_equiv_pos_site_id
 _symmetry_equiv_pos_as_xyz
  1  'x, y, z'
loop_
 _atom_site_type_symbol
 _atom_site_label
 _atom_site_symmetry_multiplicity
 _atom_site_fract_x
 _atom_site_fract_y
 _atom_site_fract_z
 _atom_site_occupancy
  Sr  Sr0  1  0.47303862  0.66444816  0.91541364  1
  Sr  Sr1  1  0.52696138  0.33555184  0.08458636  1
  Cd  Cd2  1  0.39059898  0.18331196  0.57012833  1
  Cd  Cd3  1  0.60940102  0.81668804  0.42987167  1
  Cd  Cd4  1  0.89545886  0.18680331  0.57487536  1
  Cd  Cd5  1  0.10454114  0.81319669  0.42512464  1
  H  H6  1  0.82168779  0.43930077  0.00745784  1
  H  H7  1  0.17831221  0.56069923  0.99254216  1
  H  H8  1  0.68200862  0.40824457  0.89445065  1
  H  H9  1  0.31799138  0.59175543  0.10554935  1
  H  H10  1  0.35112209  0.85335439  0.14659916  1
  H  H11  1  0.64887791  0.14664561  0.85340084  1
  H  H12  1  0.19100839  0.84836270  0.05271178  1
  H  H13  1  0.80899161  0.15163730  0.94728822  1
  H  H14  1  0.78597431  0.79657716  0.12018178  1
  H  H15  1  0.21402569  0.20342284  0.87981822  1
  H  H16  1  0.81329070  0.88585124  0.03724407  1
  H  H17  1  0.18670930  0.11414876  0.96275593  1
  H  H18  1  0.78021933  0.60173969  0.77586991  1
  H  H19  1  0.21978067  0.39826031  0.22413009  1
  H  H20  1  0.62810180  0.54889692  0.67444648  1
  H  H21  1  0.37189820  0.45110308  0.32555352  1
  H  H22  1  0.18658359  0.52321808  0.67762274  1
  H  H23  1  0.81341641  0.47678192  0.32237726  1
  H  H24  1  0.25542222  0.66974741  0.68216590  1
  H  H25  1  0.74457778  0.33025259  0.31783410  1
  H  H26  1  0.52136344  0.85281999  0.75163207  1
  H  H27  1  0.47863656  0.14718001  0.24836793  1
  H  H28  1  0.37983990  0.94260116  0.80645063  1
  H  H29  1  0.62016010  0.05739884  0.19354937  1
  H  H30  1  0.08212317  0.37554721  0.03923709  1
  H  H31  1  0.91787683  0.62445279  0.96076291  1
  H  H32  1  0.99914307  0.46226886  0.14430493  1
  H  H33  1  0.00085693  0.53773114  0.85569507  1
  H  H34  1  0.96132336  0.16645671  0.19367650  1
  H  H35  1  0.03867664  0.83354329  0.80632350  1
  H  H36  1  0.14567712  0.13867779  0.18731336  1
  H  H37  1  0.85432288  0.86132221  0.81268664  1
  Cl  Cl38  1  0.35050737  0.98109829  0.36472101  1
  Cl  Cl39  1  0.64949263  0.01890171  0.63527899  1
  Cl  Cl40  1  0.83203447  0.98911464  0.37599129  1
  Cl  Cl41  1  0.16796553  0.01088536  0.62400871  1
  Cl  Cl42  1  0.12453776  0.32380674  0.51468512  1
  Cl  Cl43  1  0.87546224  0.67619326  0.48531488  1
  Cl  Cl44  1  0.42962659  0.33514897  0.78993186  1
  Cl  Cl45  1  0.57037341  0.66485103  0.21006814  1
  Cl  Cl46  1  0.62433163  0.32902918  0.51932080  1
  Cl  Cl47  1  0.37566837  0.67097082  0.48067920  1
  Cl  Cl48  1  0.96241854  0.31759886  0.79126574  1
  Cl  Cl49  1  0.03758146  0.68240114  0.20873426  1
  O  O50  1  0.71252072  0.47495118  0.97471695  1
  O  O51  1  0.28747928  0.52504882  0.02528305  1
  O  O52  1  0.31351283  0.84373158  0.06233333  1
  O  O53  1  0.68648717  0.15626842  0.93766667  1
  O  O54  1  0.73068001  0.82497325  0.05122971  1
  O  O55  1  0.26931999  0.17502675  0.94877029  1
  O  O56  1  0.66173629  0.62008903  0.75156890  1
  O  O57  1  0.33826371  0.37991097  0.24843110  1
  O  O58  1  0.22553738  0.61663969  0.73256672  1
  O  O59  1  0.77446262  0.38336031  0.26743328  1
  O  O60  1  0.44666303  0.85921769  0.80830267  1
  O  O61  1  0.55333697  0.14078231  0.19169733  1
  O  O62  1  0.99441343  0.36869774  0.08423853  1
  O  O63  1  0.00558657  0.63130226  0.91576147  1
  O  O64  1  0.03417992  0.09421657  0.15560334  1
  O  O65  1  0.96582008  0.90578343  0.84439666  1
