# generated using pymatgen
data_LiBiP2O7
_symmetry_space_group_name_H-M   'P 1'
_cell_length_a   8.90941650
_cell_length_b   5.61448275
_cell_length_c   12.32385050
_cell_angle_alpha   90.00000000
_cell_angle_beta   98.40486911
_cell_angle_gamma   90.00000000
_symmetry_Int_Tables_number   1
_chemical_formula_structural   LiBiP2O7
_chemical_formula_sum   'Li4 Bi4 P8 O28'
_cell_volume   609.83991594
_cell_formula_units_Z   4
loop_
 _symmetry_equiv_pos_site_id
 _symmetry_equiv_pos_as_xyz
  1  'x, y, z'
loop_
 _atom_site_type_symbol
 _atom_site_label
 _atom_site_symmetry_multiplicity
 _atom_site_fract_x
 _atom_site_fract_y
 _atom_site_fract_z
 _atom_site_occupancy
  Li  Li0  1  0.23484785  0.21768391  0.98893266  1
  Li  Li1  1  0.26515215  0.71768391  0.51106734  1
  Li  Li2  1  0.73484785  0.28231609  0.48893266  1
  Li  Li3  1  0.76515215  0.78231609  0.01106734  1
  Bi  Bi4  1  0.14618554  0.30223298  0.66557603  1
  Bi  Bi5  1  0.35381446  0.80223298  0.83442397  1
  Bi  Bi6  1  0.64618554  0.19776702  0.16557603  1
  Bi  Bi7  1  0.85381446  0.69776702  0.33442397  1
  P  P8  1  0.01619808  0.74847750  0.84281432  1
  P  P9  1  0.06265699  0.20127842  0.39022387  1
  P  P10  1  0.48380192  0.24847750  0.65718568  1
  P  P11  1  0.56265699  0.29872158  0.89022387  1
  P  P12  1  0.43734301  0.70127842  0.10977613  1
  P  P13  1  0.51619808  0.75152250  0.34281432  1
  P  P14  1  0.93734301  0.79872158  0.60977613  1
  P  P15  1  0.98380192  0.25152250  0.15718568  1
  O  O16  1  0.11390821  0.97823409  0.83081211  1
  O  O17  1  0.13483450  0.53975033  0.84016963  1
  O  O18  1  0.10372551  0.70940610  0.61436312  1
  O  O19  1  0.07611772  0.93053595  0.40241344  1
  O  O20  1  0.10496528  0.27791270  0.27145624  1
  O  O21  1  0.17168923  0.33621545  0.47693477  1
  O  O22  1  0.07437901  0.25493587  0.06600990  1
  O  O23  1  0.39627449  0.20940610  0.88563688  1
  O  O24  1  0.36516550  0.03975033  0.65983037  1
  O  O25  1  0.38609179  0.47823409  0.66918789  1
  O  O26  1  0.42562099  0.75493587  0.43399010  1
  O  O27  1  0.57611772  0.56946405  0.90241344  1
  O  O28  1  0.32831077  0.83621545  0.02306523  1
  O  O29  1  0.39503472  0.77791270  0.22854376  1
  O  O30  1  0.60496528  0.22208730  0.77145624  1
  O  O31  1  0.67168923  0.16378455  0.97693477  1
  O  O32  1  0.42388228  0.43053595  0.09758656  1
  O  O33  1  0.57437901  0.24506413  0.56600990  1
  O  O34  1  0.61390821  0.52176591  0.33081211  1
  O  O35  1  0.63483450  0.96024967  0.34016963  1
  O  O36  1  0.60372551  0.79059390  0.11436312  1
  O  O37  1  0.92562099  0.74506413  0.93399010  1
  O  O38  1  0.82831077  0.66378455  0.52306523  1
  O  O39  1  0.89503472  0.72208730  0.72854376  1
  O  O40  1  0.92388228  0.06946405  0.59758656  1
  O  O41  1  0.89627449  0.29059390  0.38563688  1
  O  O42  1  0.86516550  0.46024967  0.15983037  1
  O  O43  1  0.88609179  0.02176591  0.16918789  1
