# generated using pymatgen
data_Yb(Bi3O5)4
_symmetry_space_group_name_H-M   'P 1'
_cell_length_a   8.90579958
_cell_length_b   8.90571696
_cell_length_c   8.90588087
_cell_angle_alpha   109.45619259
_cell_angle_beta   109.48361267
_cell_angle_gamma   109.46006568
_symmetry_Int_Tables_number   1
_chemical_formula_structural   Yb(Bi3O5)4
_chemical_formula_sum   'Yb1 Bi12 O20'
_cell_volume   543.83940139
_cell_formula_units_Z   1
loop_
 _symmetry_equiv_pos_site_id
 _symmetry_equiv_pos_as_xyz
  1  'x, y, z'
loop_
 _atom_site_type_symbol
 _atom_site_label
 _atom_site_symmetry_multiplicity
 _atom_site_fract_x
 _atom_site_fract_y
 _atom_site_fract_z
 _atom_site_occupancy
  Yb  Yb0  1  0.99980733  0.99972841  0.99972991  1
  Bi  Bi1  1  0.82625989  0.14438539  0.31458332  1
  Bi  Bi2  1  0.85566578  0.68193713  0.17032039  1
  Bi  Bi3  1  0.48857149  0.31834855  0.17388448  1
  Bi  Bi4  1  0.31823668  0.17387818  0.48850801  1
  Bi  Bi5  1  0.68189826  0.17040023  0.85576764  1
  Bi  Bi6  1  0.82975226  0.51141491  0.68532870  1
  Bi  Bi7  1  0.17380159  0.48846055  0.31821909  1
  Bi  Bi8  1  0.68530185  0.82971447  0.51138544  1
  Bi  Bi9  1  0.31463703  0.82617695  0.14440157  1
  Bi  Bi10  1  0.14445926  0.31461190  0.82622642  1
  Bi  Bi11  1  0.51137734  0.68524840  0.82978496  1
  Bi  Bi12  1  0.17035041  0.85570417  0.68192316  1
  O  O13  1  0.67300978  0.99990161  0.99987745  1
  O  O14  1  0.75130678  0.37609124  0.11057044  1
  O  O15  1  0.25965687  0.99984336  0.99974915  1
  O  O16  1  0.62487325  0.24899228  0.35951335  1
  O  O17  1  0.88963478  0.26563335  0.64078675  1
  O  O18  1  0.99973174  0.25965043  0.99981187  1
  O  O19  1  0.99993310  0.99987069  0.25970032  1
  O  O20  1  0.73446513  0.62406053  0.37506872  1
  O  O21  1  0.32681166  0.32676364  0.32676486  1
  O  O22  1  0.35944282  0.62484508  0.24898538  1
  O  O23  1  0.64077863  0.88961357  0.26556090  1
  O  O24  1  0.37607611  0.11056002  0.75135801  1
  O  O25  1  0.62412162  0.37512187  0.73459796  1
  O  O26  1  0.99999319  0.67304757  0.00005467  1
  O  O27  1  0.99993587  -0.00000172  0.67289843  1
  O  O28  1  0.24891150  0.35940956  0.62482764  1
  O  O29  1  0.74007452  0.74001998  0.73994668  1
  O  O30  1  0.37499446  0.73448122  0.62409896  1
  O  O31  1  0.11053800  0.75136286  0.37612025  1
  O  O32  1  0.26559103  0.64072362  0.88964511  1
