# generated using pymatgen
data_LiSb(PO3)4
_symmetry_space_group_name_H-M   'P 1'
_cell_length_a   7.02380275
_cell_length_b   7.52704395
_cell_length_c   9.05751681
_cell_angle_alpha   90.00000000
_cell_angle_beta   90.00000000
_cell_angle_gamma   85.91345787
_symmetry_Int_Tables_number   1
_chemical_formula_structural   LiSb(PO3)4
_chemical_formula_sum   'Li2 Sb2 P8 O24'
_cell_volume   477.63960334
_cell_formula_units_Z   2
loop_
 _symmetry_equiv_pos_site_id
 _symmetry_equiv_pos_as_xyz
  1  'x, y, z'
loop_
 _atom_site_type_symbol
 _atom_site_label
 _atom_site_symmetry_multiplicity
 _atom_site_fract_x
 _atom_site_fract_y
 _atom_site_fract_z
 _atom_site_occupancy
  Li  Li0  1  0.20487484  0.19640160  0.01846461  1
  Li  Li1  1  0.79512516  0.80359840  0.51846461  1
  Sb  Sb2  1  0.25120737  0.71931792  0.37282223  1
  Sb  Sb3  1  0.74879263  0.28068208  0.87282223  1
  P  P4  1  0.00349579  0.42085117  0.36537505  1
  P  P5  1  0.10783858  0.11703545  0.56521278  1
  P  P6  1  0.38585858  0.59068866  0.73413180  1
  P  P7  1  0.44875027  0.08662074  0.38115817  1
  P  P8  1  0.55124973  0.91337926  0.88115817  1
  P  P9  1  0.61414142  0.40931134  0.23413180  1
  P  P10  1  0.89216142  0.88296455  0.06521278  1
  P  P11  1  0.99650421  0.57914883  0.86537505  1
  O  O12  1  0.01759352  0.76476095  0.94360285  1
  O  O13  1  0.07651960  0.92390504  0.52729363  1
  O  O14  1  0.02528047  0.41846004  0.96767294  1
  O  O15  1  0.05251158  0.18408778  0.71465220  1
  O  O16  1  0.15938794  0.58898731  0.74646407  1
  O  O17  1  0.19153730  0.43167431  0.28490675  1
  O  O18  1  0.32362954  0.16059947  0.52637446  1
  O  O19  1  0.31353523  0.04773107  0.25839122  1
  O  O20  1  0.47016957  0.41165118  0.78344715  1
  O  O21  1  0.43322242  0.74014053  0.85004144  1
  O  O22  1  0.41473780  0.06106828  0.93117238  1
  O  O23  1  0.41628369  0.64688979  0.57552525  1
  O  O24  1  0.58371631  0.35311021  0.07552525  1
  O  O25  1  0.58526220  0.93893172  0.43117238  1
  O  O26  1  0.56677758  0.25985947  0.35004144  1
  O  O27  1  0.52983043  0.58834882  0.28344715  1
  O  O28  1  0.68646477  0.95226893  0.75839122  1
  O  O29  1  0.67637046  0.83940053  0.02637446  1
  O  O30  1  0.80846270  0.56832569  0.78490675  1
  O  O31  1  0.84061206  0.41101269  0.24646407  1
  O  O32  1  0.94748842  0.81591222  0.21465220  1
  O  O33  1  0.97471953  0.58153996  0.46767294  1
  O  O34  1  0.92348040  0.07609496  0.02729363  1
  O  O35  1  0.98240748  0.23523905  0.44360285  1
