# generated using pymatgen
data_LiSb4P7O24
_symmetry_space_group_name_H-M   'P 1'
_cell_length_a   11.00679511
_cell_length_b   11.03401731
_cell_length_c   11.79109901
_cell_angle_alpha   113.33833861
_cell_angle_beta   108.94369216
_cell_angle_gamma   104.25126742
_symmetry_Int_Tables_number   1
_chemical_formula_structural   LiSb4P7O24
_chemical_formula_sum   'Li2 Sb8 P14 O48'
_cell_volume   1121.87018254
_cell_formula_units_Z   2
loop_
 _symmetry_equiv_pos_site_id
 _symmetry_equiv_pos_as_xyz
  1  'x, y, z'
loop_
 _atom_site_type_symbol
 _atom_site_label
 _atom_site_symmetry_multiplicity
 _atom_site_fract_x
 _atom_site_fract_y
 _atom_site_fract_z
 _atom_site_occupancy
  Li  Li0  1  0.03961423  0.36067820  0.62770742  1
  Li  Li1  1  0.96038577  0.63932180  0.37229258  1
  Sb  Sb2  1  0.24566300  0.84093791  0.74675790  1
  Sb  Sb3  1  0.08285524  0.71313990  0.06999534  1
  Sb  Sb4  1  0.36632307  0.22997852  0.88971649  1
  Sb  Sb5  1  0.41930992  0.59402530  0.40202109  1
  Sb  Sb6  1  0.58069008  0.40597470  0.59797891  1
  Sb  Sb7  1  0.63367693  0.77002148  0.11028351  1
  Sb  Sb8  1  0.91714476  0.28686010  0.93000466  1
  Sb  Sb9  1  0.75433700  0.15906209  0.25324210  1
  P  P10  1  0.97825989  0.97010547  0.76382304  1
  P  P11  1  0.22382632  0.80789868  0.42612461  1
  P  P12  1  0.06661986  0.32728382  0.27848367  1
  P  P13  1  0.50405091  0.72136845  0.76472954  1
  P  P14  1  0.25920523  0.12206290  0.51501266  1
  P  P15  1  0.38431595  0.95778652  0.12407591  1
  P  P16  1  0.31040131  0.52758495  0.05038765  1
  P  P17  1  0.68959869  0.47241505  0.94961235  1
  P  P18  1  0.61568405  0.04221348  0.87592409  1
  P  P19  1  0.74079477  0.87793710  0.48498734  1
  P  P20  1  0.49594909  0.27863155  0.23527046  1
  P  P21  1  0.93338014  0.67271618  0.72151633  1
  P  P22  1  0.77617368  0.19210132  0.57387539  1
  P  P23  1  0.02174011  0.02989453  0.23617696  1
  O  O24  1  0.01585285  0.68357772  0.85928813  1
  O  O25  1  0.02243859  0.66775870  0.64229845  1
  O  O26  1  0.31421404  0.90341068  0.96793876  1
  O  O27  1  0.05033089  0.91716526  0.13937521  1
  O  O28  1  0.14599596  0.78040957  0.50794280  1
  O  O29  1  0.10719245  0.72519934  0.27273787  1
  O  O30  1  0.26799674  0.36893200  0.93275882  1
  O  O31  1  0.13240077  0.00643638  0.79900242  1
  O  O32  1  0.29191789  0.98114034  0.48255142  1
  O  O33  1  0.34715277  0.69870236  0.71911913  1
  O  O34  1  0.09791876  0.06085389  0.39386434  1
  O  O35  1  0.09198151  0.17833537  0.24163531  1
  O  O36  1  0.21447420  0.45211975  0.37252461  1
  O  O37  1  0.25416752  0.18411507  0.65168263  1
  O  O38  1  0.17299077  0.55014621  0.01312719  1
  O  O39  1  0.35111334  0.77181560  0.45046620  1
  O  O40  1  0.29185816  0.86793606  0.16295343  1
  O  O41  1  0.57007426  0.72501084  0.90209889  1
  O  O42  1  0.59849450  0.87689583  0.78937911  1
  O  O43  1  0.35893818  0.22209156  0.49534332  1
  O  O44  1  0.51344108  0.60794048  0.64534467  1
  O  O45  1  0.46417191  0.03105873  0.81676000  1
  O  O46  1  0.57468440  0.36609459  0.95707225  1
  O  O47  1  0.36963243  0.54495170  0.19668123  1
  O  O48  1  0.63036757  0.45504830  0.80331877  1
  O  O49  1  0.42531560  0.63390541  0.04292775  1
  O  O50  1  0.53582809  0.96894127  0.18324000  1
  O  O51  1  0.48655892  0.39205952  0.35465533  1
  O  O52  1  0.64106182  0.77790844  0.50465668  1
  O  O53  1  0.40150550  0.12310417  0.21062089  1
  O  O54  1  0.42992574  0.27498916  0.09790111  1
  O  O55  1  0.70814184  0.13206394  0.83704657  1
  O  O56  1  0.64888666  0.22818440  0.54953380  1
  O  O57  1  0.82700923  0.44985379  0.98687281  1
  O  O58  1  0.74583248  0.81588493  0.34831737  1
  O  O59  1  0.78552580  0.54788025  0.62747539  1
  O  O60  1  0.90801849  0.82166463  0.75836469  1
  O  O61  1  0.90208124  0.93914611  0.60613566  1
  O  O62  1  0.65284723  0.30129764  0.28088087  1
  O  O63  1  0.70808211  0.01885966  0.51744858  1
  O  O64  1  0.86759923  0.99356362  0.20099758  1
  O  O65  1  0.73200326  0.63106800  0.06724118  1
  O  O66  1  0.89280755  0.27480066  0.72726213  1
  O  O67  1  0.85400404  0.21959043  0.49205720  1
  O  O68  1  0.94966911  0.08283474  0.86062479  1
  O  O69  1  0.68578596  0.09658932  0.03206124  1
  O  O70  1  0.97756141  0.33224130  0.35770155  1
  O  O71  1  0.98414715  0.31642228  0.14071187  1
