# generated using pymatgen
data_Li2BiF5
_symmetry_space_group_name_H-M   'P 1'
_cell_length_a   4.75132578
_cell_length_b   5.64820120
_cell_length_c   5.64496365
_cell_angle_alpha   100.24671387
_cell_angle_beta   114.94021949
_cell_angle_gamma   65.05686625
_symmetry_Int_Tables_number   1
_chemical_formula_structural   Li2BiF5
_chemical_formula_sum   'Li2 Bi1 F5'
_cell_volume   124.55159269
_cell_formula_units_Z   1
loop_
 _symmetry_equiv_pos_site_id
 _symmetry_equiv_pos_as_xyz
  1  'x, y, z'
loop_
 _atom_site_type_symbol
 _atom_site_label
 _atom_site_symmetry_multiplicity
 _atom_site_fract_x
 _atom_site_fract_y
 _atom_site_fract_z
 _atom_site_occupancy
  Li  Li0  1  0.24938040  0.50043506  0.50018117  1
  Li  Li1  1  0.74977086  0.49952931  0.49976772  1
  Bi  Bi2  1  0.00212981  0.99995862  0.99999128  1
  F  F3  1  0.94621576  0.74304432  0.63753482  1
  F  F4  1  0.30894704  0.63814476  0.25741255  1
  F  F5  1  0.69039010  0.36188390  0.74262796  1
  F  F6  1  0.05314660  0.25700361  0.36227630  1
  F  F7  1  0.50000643  0.00001142  0.00020719  1
