# generated using pymatgen
data_Yb(BO2)3
_symmetry_space_group_name_H-M   'P 1'
_cell_length_a   6.38008424
_cell_length_b   6.38008424
_cell_length_c   6.29807430
_cell_angle_alpha   62.63537592
_cell_angle_beta   62.63537592
_cell_angle_gamma   79.79958451
_symmetry_Int_Tables_number   1
_chemical_formula_structural   Yb(BO2)3
_chemical_formula_sum   'Yb2 B6 O12'
_cell_volume   202.01115179
_cell_formula_units_Z   2
loop_
 _symmetry_equiv_pos_site_id
 _symmetry_equiv_pos_as_xyz
  1  'x, y, z'
loop_
 _atom_site_type_symbol
 _atom_site_label
 _atom_site_symmetry_multiplicity
 _atom_site_fract_x
 _atom_site_fract_y
 _atom_site_fract_z
 _atom_site_occupancy
  Yb  Yb0  1  0.70413961  0.79586039  0.25000000  1
  Yb  Yb1  1  0.29586039  0.20413961  0.75000000  1
  B  B2  1  0.28048123  0.21951877  0.25000000  1
  B  B3  1  0.70812006  0.34070910  0.08630425  1
  B  B4  1  0.15929090  0.79187994  0.41369575  1
  B  B5  1  0.84070910  0.20812006  0.58630425  1
  B  B6  1  0.29187994  0.65929090  0.91369575  1
  B  B7  1  0.71951877  0.78048123  0.75000000  1
  O  O8  1  0.28668010  0.41575737  0.00703925  1
  O  O9  1  0.28273426  0.00723447  0.21016848  1
  O  O10  1  0.10888101  0.78339919  0.00015130  1
  O  O11  1  0.49276553  0.21726574  0.28983152  1
  O  O12  1  0.08424263  0.21331990  0.49296075  1
  O  O13  1  0.28339919  0.60888101  0.50015130  1
  O  O14  1  0.71660081  0.39111899  0.49984870  1
  O  O15  1  0.91575737  0.78668010  0.50703925  1
  O  O16  1  0.50723447  0.78273426  0.71016848  1
  O  O17  1  0.89111899  0.21660081  0.99984870  1
  O  O18  1  0.71726574  0.99276553  0.78983152  1
  O  O19  1  0.71331990  0.58424263  0.99296075  1
