# generated using pymatgen
data_LiSb(PO3)4
_symmetry_space_group_name_H-M   'P 1'
_cell_length_a   7.16813382
_cell_length_b   12.01209404
_cell_length_c   7.16813382
_cell_angle_alpha   72.94530702
_cell_angle_beta   66.38984591
_cell_angle_gamma   107.05469298
_symmetry_Int_Tables_number   1
_chemical_formula_structural   LiSb(PO3)4
_chemical_formula_sum   'Li2 Sb2 P8 O24'
_cell_volume   477.55182113
_cell_formula_units_Z   2
loop_
 _symmetry_equiv_pos_site_id
 _symmetry_equiv_pos_as_xyz
  1  'x, y, z'
loop_
 _atom_site_type_symbol
 _atom_site_label
 _atom_site_symmetry_multiplicity
 _atom_site_fract_x
 _atom_site_fract_y
 _atom_site_fract_z
 _atom_site_occupancy
  Li  Li0  1  0.92919219  0.75000000  0.92919219  1
  Li  Li1  1  0.07080781  0.25000000  0.07080781  1
  Sb  Sb2  1  0.64275224  0.75000000  0.64275224  1
  Sb  Sb3  1  0.35724776  0.25000000  0.35724776  1
  P  P4  1  0.29188402  0.01106659  0.83577638  1
  P  P5  1  0.16422362  0.51106659  0.70811598  1
  P  P6  1  0.23004554  0.94216000  0.31761757  1
  P  P7  1  0.31761757  0.55784000  0.23004554  1
  P  P8  1  0.68238243  0.44216000  0.76995446  1
  P  P9  1  0.76995446  0.05784000  0.68238243  1
  P  P10  1  0.83577638  0.48893341  0.29188402  1
  P  P11  1  0.70811598  0.98893341  0.16422362  1
  O  O12  1  0.20863166  0.90091931  0.78549663  1
  O  O13  1  0.20205376  0.61814488  0.77759509  1
  O  O14  1  0.00495395  0.82183846  0.52076102  1
  O  O15  1  0.21450337  0.40091931  0.79136834  1
  O  O16  1  0.73256658  0.92484271  0.69534640  1
  O  O17  1  0.22240491  0.11814488  0.79794624  1
  O  O18  1  0.08962876  0.55820964  0.25070770  1
  O  O19  1  0.42550389  0.90858932  0.32363864  1
  O  O20  1  0.32363864  0.59141068  0.42550389  1
  O  O21  1  0.25070770  0.94179036  0.08962876  1
  O  O22  1  0.47923898  0.32183846  0.99504605  1
  O  O23  1  0.69534640  0.57515729  0.73256658  1
  O  O24  1  0.30465360  0.42484271  0.26743342  1
  O  O25  1  0.52076102  0.67816154  0.00495395  1
  O  O26  1  0.74929230  0.05820964  0.91037124  1
  O  O27  1  0.67636136  0.40858932  0.57449611  1
  O  O28  1  0.57449611  0.09141068  0.67636136  1
  O  O29  1  0.91037124  0.44179036  0.74929230  1
  O  O30  1  0.77759509  0.88185512  0.20205376  1
  O  O31  1  0.26743342  0.07515729  0.30465360  1
  O  O32  1  0.78549663  0.59908069  0.20863166  1
  O  O33  1  0.99504605  0.17816154  0.47923898  1
  O  O34  1  0.79794624  0.38185512  0.22240491  1
  O  O35  1  0.79136834  0.09908069  0.21450337  1
