# generated using pymatgen
data_Li2VNi(PO4)2
_symmetry_space_group_name_H-M   'P 1'
_cell_length_a   10.35393696
_cell_length_b   6.03529847
_cell_length_c   4.75579604
_cell_angle_alpha   90.00000000
_cell_angle_beta   90.05054540
_cell_angle_gamma   90.00000000
_symmetry_Int_Tables_number   1
_chemical_formula_structural   Li2VNi(PO4)2
_chemical_formula_sum   'Li4 V2 Ni2 P4 O16'
_cell_volume   297.18529814
_cell_formula_units_Z   2
loop_
 _symmetry_equiv_pos_site_id
 _symmetry_equiv_pos_as_xyz
  1  'x, y, z'
loop_
 _atom_site_type_symbol
 _atom_site_label
 _atom_site_symmetry_multiplicity
 _atom_site_fract_x
 _atom_site_fract_y
 _atom_site_fract_z
 _atom_site_occupancy
  Li  Li0  1  0.00000000  0.00000000  0.00000000  1
  Li  Li1  1  0.00000000  0.50000000  0.00000000  1
  Li  Li2  1  0.50000000  0.00000000  0.50000000  1
  Li  Li3  1  0.50000000  0.50000000  0.50000000  1
  V  V4  1  0.22622794  0.75000000  0.48345484  1
  V  V5  1  0.77377206  0.25000000  0.51654516  1
  Ni  Ni6  1  0.27667071  0.25000000  0.98415569  1
  Ni  Ni7  1  0.72332929  0.75000000  0.01584431  1
  P  P8  1  0.09562299  0.25000000  0.41081406  1
  P  P9  1  0.40947883  0.75000000  0.92039980  1
  P  P10  1  0.59052117  0.25000000  0.07960020  1
  P  P11  1  0.90437701  0.75000000  0.58918594  1
  O  O12  1  0.04472435  0.75000000  0.70536305  1
  O  O13  1  0.10290829  0.25000000  0.73460683  1
  O  O14  1  0.16541384  0.04720701  0.26779010  1
  O  O15  1  0.16541384  0.45279299  0.26779010  1
  O  O16  1  0.33829984  0.54384945  0.78518479  1
  O  O17  1  0.33829984  0.95615055  0.78518479  1
  O  O18  1  0.40750200  0.75000000  0.24354968  1
  O  O19  1  0.45110464  0.25000000  0.20297355  1
  O  O20  1  0.54889536  0.75000000  0.79702645  1
  O  O21  1  0.59249800  0.25000000  0.75645032  1
  O  O22  1  0.66170016  0.04384945  0.21481521  1
  O  O23  1  0.66170016  0.45615055  0.21481521  1
  O  O24  1  0.83458616  0.54720701  0.73220990  1
  O  O25  1  0.83458616  0.95279299  0.73220990  1
  O  O26  1  0.89709171  0.75000000  0.26539317  1
  O  O27  1  0.95527565  0.25000000  0.29463695  1
