# generated using pymatgen
data_Li2MnP2O7
_symmetry_space_group_name_H-M   'P 1'
_cell_length_a   7.35005637
_cell_length_b   7.35005637
_cell_length_c   11.63824679
_cell_angle_alpha   89.06021879
_cell_angle_beta   90.93978121
_cell_angle_gamma   59.92937077
_symmetry_Int_Tables_number   1
_chemical_formula_structural   Li2MnP2O7
_chemical_formula_sum   'Li8 Mn4 P8 O28'
_cell_volume   543.82067790
_cell_formula_units_Z   4
loop_
 _symmetry_equiv_pos_site_id
 _symmetry_equiv_pos_as_xyz
  1  'x, y, z'
loop_
 _atom_site_type_symbol
 _atom_site_label
 _atom_site_symmetry_multiplicity
 _atom_site_fract_x
 _atom_site_fract_y
 _atom_site_fract_z
 _atom_site_occupancy
  Li  Li0  1  0.25364583  0.30824642  0.99128216  1
  Li  Li1  1  0.69175358  0.74635417  0.49128216  1
  Li  Li2  1  0.27119473  0.27119473  0.75000000  1
  Li  Li3  1  0.71072817  0.71072817  0.75000000  1
  Li  Li4  1  0.28927183  0.28927183  0.25000000  1
  Li  Li5  1  0.72880527  0.72880527  0.25000000  1
  Li  Li6  1  0.30824642  0.25364583  0.50871784  1
  Li  Li7  1  0.74635417  0.69175358  0.00871784  1
  Mn  Mn8  1  0.32593494  0.67759234  0.88075215  1
  Mn  Mn9  1  0.32240766  0.67406506  0.38075215  1
  Mn  Mn10  1  0.67759234  0.32593494  0.61924785  1
  Mn  Mn11  1  0.67406506  0.32240766  0.11924785  1
  P  P12  1  0.27108059  0.92851258  0.62170318  1
  P  P13  1  0.07148742  0.72891941  0.12170318  1
  P  P14  1  0.09373178  0.66469763  0.63517050  1
  P  P15  1  0.33530237  0.90626822  0.13517050  1
  P  P16  1  0.66469763  0.09373178  0.86482950  1
  P  P17  1  0.90626822  0.33530237  0.36482950  1
  P  P18  1  0.92851258  0.27108059  0.87829682  1
  P  P19  1  0.72891941  0.07148742  0.37829682  1
  O  O20  1  0.06162893  0.90257713  0.62331384  1
  O  O21  1  0.09742287  0.93837107  0.12331384  1
  O  O22  1  0.38250893  0.84615794  0.50713492  1
  O  O23  1  0.15384206  0.61749107  0.00713492  1
  O  O24  1  0.17984510  0.57710734  0.75741865  1
  O  O25  1  0.42289266  0.82015490  0.25741865  1
  O  O26  1  0.41095687  0.78996409  0.72446992  1
  O  O27  1  0.21003591  0.58904313  0.22446992  1
  O  O28  1  0.26245141  0.53812134  0.54483440  1
  O  O29  1  0.46187866  0.73754859  0.04483440  1
  O  O30  1  0.68924330  0.87853276  0.88318520  1
  O  O31  1  0.12146724  0.31075670  0.38318520  1
  O  O32  1  0.16249125  0.18611880  0.87188912  1
  O  O33  1  0.81388120  0.83750875  0.37188912  1
  O  O34  1  0.18611880  0.16249125  0.62811088  1
  O  O35  1  0.83750875  0.81388120  0.12811088  1
  O  O36  1  0.87853276  0.68924330  0.61681480  1
  O  O37  1  0.31075670  0.12146724  0.11681480  1
  O  O38  1  0.53812134  0.26245141  0.95516560  1
  O  O39  1  0.73754859  0.46187866  0.45516560  1
  O  O40  1  0.78996409  0.41095687  0.77553008  1
  O  O41  1  0.58904313  0.21003591  0.27553008  1
  O  O42  1  0.57710734  0.17984510  0.74258135  1
  O  O43  1  0.82015490  0.42289266  0.24258135  1
  O  O44  1  0.84615794  0.38250893  0.99286508  1
  O  O45  1  0.61749107  0.15384206  0.49286508  1
  O  O46  1  0.90257713  0.06162893  0.87668616  1
  O  O47  1  0.93837107  0.09742287  0.37668616  1
