# generated using pymatgen
data_Li2VP2O7
_symmetry_space_group_name_H-M   'P 1'
_cell_length_a   7.97515405
_cell_length_b   13.71476324
_cell_length_c   5.16057856
_cell_angle_alpha   90.00000000
_cell_angle_beta   91.67785217
_cell_angle_gamma   90.00000000
_symmetry_Int_Tables_number   1
_chemical_formula_structural   Li2VP2O7
_chemical_formula_sum   'Li8 V4 P8 O28'
_cell_volume   564.20839820
_cell_formula_units_Z   4
loop_
 _symmetry_equiv_pos_site_id
 _symmetry_equiv_pos_as_xyz
  1  'x, y, z'
loop_
 _atom_site_type_symbol
 _atom_site_label
 _atom_site_symmetry_multiplicity
 _atom_site_fract_x
 _atom_site_fract_y
 _atom_site_fract_z
 _atom_site_occupancy
  Li  Li0  1  0.13815725  0.89655400  0.18236756  1
  Li  Li1  1  0.16680524  0.30409897  0.73499710  1
  Li  Li2  1  0.33319476  0.80409897  0.76500290  1
  Li  Li3  1  0.36184275  0.39655400  0.31763244  1
  Li  Li4  1  0.63815725  0.60344600  0.68236756  1
  Li  Li5  1  0.66680524  0.19590103  0.23499710  1
  Li  Li6  1  0.83319476  0.69590103  0.26500290  1
  Li  Li7  1  0.86184275  0.10344600  0.81763244  1
  V  V8  1  0.26587764  0.65996478  0.29251712  1
  V  V9  1  0.23412236  0.15996478  0.20748288  1
  V  V10  1  0.76587764  0.84003522  0.79251712  1
  V  V11  1  0.73412236  0.34003522  0.70748288  1
  P  P12  1  0.03132924  0.67747919  0.77127390  1
  P  P13  1  0.22530197  0.02637515  0.70215125  1
  P  P14  1  0.27469803  0.52637515  0.79784875  1
  P  P15  1  0.46867076  0.17747919  0.72872610  1
  P  P16  1  0.53132924  0.82252081  0.27127390  1
  P  P17  1  0.72530197  0.47362485  0.20215125  1
  P  P18  1  0.77469803  0.97362485  0.29784875  1
  P  P19  1  0.96867076  0.32252081  0.22872610  1
  O  O20  1  0.07570303  0.56268842  0.77574126  1
  O  O21  1  0.04487391  0.71117895  0.48830993  1
  O  O22  1  0.15971496  0.72860090  0.95357855  1
  O  O23  1  0.14806893  0.31044192  0.13062836  1
  O  O24  1  0.12321752  0.10289496  0.85161307  1
  O  O25  1  0.18279207  0.02789419  0.40863052  1
  O  O26  1  0.22380849  0.92691214  0.82822856  1
  O  O27  1  0.27619151  0.42691214  0.67177144  1
  O  O28  1  0.31720793  0.52789419  0.09136948  1
  O  O29  1  0.37678248  0.60289496  0.64838693  1
  O  O30  1  0.34028504  0.22860090  0.54642145  1
  O  O31  1  0.35193107  0.81044192  0.36937164  1
  O  O32  1  0.45512609  0.21117895  0.01169007  1
  O  O33  1  0.42429697  0.06268842  0.72425874  1
  O  O34  1  0.57570303  0.93731158  0.27574126  1
  O  O35  1  0.54487391  0.78882105  0.98830993  1
  O  O36  1  0.64806893  0.18955808  0.63062836  1
  O  O37  1  0.65971496  0.77139910  0.45357855  1
  O  O38  1  0.62321752  0.39710504  0.35161307  1
  O  O39  1  0.68279207  0.47210581  0.90863052  1
  O  O40  1  0.72380849  0.57308786  0.32822856  1
  O  O41  1  0.77619151  0.07308786  0.17177144  1
  O  O42  1  0.81720793  0.97210581  0.59136948  1
  O  O43  1  0.87678248  0.89710504  0.14838693  1
  O  O44  1  0.85193107  0.68955808  0.86937164  1
  O  O45  1  0.84028504  0.27139910  0.04642145  1
  O  O46  1  0.95512609  0.28882105  0.51169007  1
  O  O47  1  0.92429697  0.43731158  0.22425874  1
