# generated using pymatgen
data_Li7Mn2P7O24
_symmetry_space_group_name_H-M   'P 1'
_cell_length_a   14.86060163
_cell_length_b   5.00097909
_cell_length_c   12.61555296
_cell_angle_alpha   90.00000000
_cell_angle_beta   98.59460731
_cell_angle_gamma   90.00000000
_symmetry_Int_Tables_number   1
_chemical_formula_structural   Li7Mn2P7O24
_chemical_formula_sum   'Li14 Mn4 P14 O48'
_cell_volume   927.02874581
_cell_formula_units_Z   2
loop_
 _symmetry_equiv_pos_site_id
 _symmetry_equiv_pos_as_xyz
  1  'x, y, z'
loop_
 _atom_site_type_symbol
 _atom_site_label
 _atom_site_symmetry_multiplicity
 _atom_site_fract_x
 _atom_site_fract_y
 _atom_site_fract_z
 _atom_site_occupancy
  Li  Li0  1  0.05548072  0.74741851  0.51936341  1
  Li  Li1  1  0.13903722  0.82511068  0.89407723  1
  Li  Li2  1  0.05548072  0.25258149  0.01936341  1
  Li  Li3  1  0.13903722  0.17488932  0.39407723  1
  Li  Li4  1  0.40211804  0.18686768  0.56651138  1
  Li  Li5  1  0.40211804  0.81313232  0.06651138  1
  Li  Li6  1  0.50000000  0.70850696  0.75000000  1
  Li  Li7  1  0.50000000  0.29149304  0.25000000  1
  Li  Li8  1  0.59788196  0.18686768  0.93348862  1
  Li  Li9  1  0.59788196  0.81313232  0.43348862  1
  Li  Li10  1  0.86096278  0.82511068  0.60592277  1
  Li  Li11  1  0.94451928  0.74741851  0.98063659  1
  Li  Li12  1  0.86096278  0.17488932  0.10592277  1
  Li  Li13  1  0.94451928  0.25258149  0.48063659  1
  Mn  Mn14  1  0.28097748  0.64385228  0.70570894  1
  Mn  Mn15  1  0.28097748  0.35614772  0.20570894  1
  Mn  Mn16  1  0.71902252  0.64385228  0.79429106  1
  Mn  Mn17  1  0.71902252  0.35614772  0.29429106  1
  P  P18  1  0.00000000  0.46437252  0.75000000  1
  P  P19  1  0.00000000  0.53562748  0.25000000  1
  P  P20  1  0.13674750  0.14373394  0.65827386  1
  P  P21  1  0.13674750  0.85626606  0.15827386  1
  P  P22  1  0.27013941  0.37717243  0.95145978  1
  P  P23  1  0.27013941  0.62282757  0.45145978  1
  P  P24  1  0.39392901  0.14422298  0.81176968  1
  P  P25  1  0.39392901  0.85577702  0.31176968  1
  P  P26  1  0.60607099  0.14422298  0.68823032  1
  P  P27  1  0.60607099  0.85577702  0.18823032  1
  P  P28  1  0.72986059  0.37717243  0.54854022  1
  P  P29  1  0.72986059  0.62282757  0.04854022  1
  P  P30  1  0.86325250  0.14373394  0.84172614  1
  P  P31  1  0.86325250  0.85626606  0.34172614  1
  O  O32  1  0.01869502  0.61314389  0.85484627  1
  O  O33  1  0.01869502  0.38685611  0.35484627  1
  O  O34  1  0.08291604  0.25473172  0.75168783  1
  O  O35  1  0.07283108  0.14329254  0.55275967  1
  O  O36  1  0.08291604  0.74526828  0.25168783  1
  O  O37  1  0.07283108  0.85670746  0.05275967  1
  O  O38  1  0.16711438  0.86461388  0.70025475  1
  O  O39  1  0.18667513  0.23751417  0.98043296  1
  O  O40  1  0.21833027  0.32722819  0.65622337  1
  O  O41  1  0.16711438  0.13538612  0.20025475  1
  O  O42  1  0.18667513  0.76248583  0.48043296  1
  O  O43  1  0.24937791  0.60654370  0.87106322  1
  O  O44  1  0.21833027  0.67277181  0.15622337  1
  O  O45  1  0.24937791  0.39345630  0.37106322  1
  O  O46  1  0.31863396  0.13748074  0.88930546  1
  O  O47  1  0.31863396  0.86251926  0.38930546  1
  O  O48  1  0.35908503  0.95036663  0.71730638  1
  O  O49  1  0.34204553  0.54496099  0.54743364  1
  O  O50  1  0.39871845  0.42973431  0.76578586  1
  O  O51  1  0.35908503  0.04963337  0.21730638  1
  O  O52  1  0.34204553  0.45503901  0.04743364  1
  O  O53  1  0.39871845  0.57026569  0.26578586  1
  O  O54  1  0.48220393  0.04091331  0.87204555  1
  O  O55  1  0.48220393  0.95908669  0.37204555  1
  O  O56  1  0.51779607  0.04091331  0.62795445  1
  O  O57  1  0.51779607  0.95908669  0.12795445  1
  O  O58  1  0.60128155  0.42973431  0.73421414  1
  O  O59  1  0.65795447  0.54496099  0.95256636  1
  O  O60  1  0.64091497  0.95036663  0.78269362  1
  O  O61  1  0.60128155  0.57026569  0.23421414  1
  O  O62  1  0.65795447  0.45503901  0.45256636  1
  O  O63  1  0.64091497  0.04963337  0.28269362  1
  O  O64  1  0.68136604  0.13748074  0.61069454  1
  O  O65  1  0.68136604  0.86251926  0.11069454  1
  O  O66  1  0.75062209  0.60654370  0.62893678  1
  O  O67  1  0.78166973  0.32722819  0.84377663  1
  O  O68  1  0.75062209  0.39345630  0.12893678  1
  O  O69  1  0.81332487  0.23751417  0.51956704  1
  O  O70  1  0.83288562  0.86461388  0.79974525  1
  O  O71  1  0.78166973  0.67277181  0.34377663  1
  O  O72  1  0.81332487  0.76248583  0.01956704  1
  O  O73  1  0.83288562  0.13538612  0.29974525  1
  O  O74  1  0.92716892  0.14329254  0.94724033  1
  O  O75  1  0.91708396  0.25473172  0.74831217  1
  O  O76  1  0.92716892  0.85670746  0.44724033  1
  O  O77  1  0.91708396  0.74526828  0.24831217  1
  O  O78  1  0.98130498  0.61314389  0.64515373  1
  O  O79  1  0.98130498  0.38685611  0.14515373  1
