# generated using pymatgen
data_LiFePO4
_symmetry_space_group_name_H-M   'P 1'
_cell_length_a   9.35505393
_cell_length_b   5.60837128
_cell_length_c   6.34858393
_cell_angle_alpha   102.56147601
_cell_angle_beta   105.38854048
_cell_angle_gamma   80.79063657
_symmetry_Int_Tables_number   1
_chemical_formula_structural   LiFePO4
_chemical_formula_sum   'Li4 Fe4 P4 O16'
_cell_volume   311.60110185
_cell_formula_units_Z   4
loop_
 _symmetry_equiv_pos_site_id
 _symmetry_equiv_pos_as_xyz
  1  'x, y, z'
loop_
 _atom_site_type_symbol
 _atom_site_label
 _atom_site_symmetry_multiplicity
 _atom_site_fract_x
 _atom_site_fract_y
 _atom_site_fract_z
 _atom_site_occupancy
  Li  Li0  1  0.10771587  0.32892876  0.36493332  1
  Li  Li1  1  0.25142490  0.83019768  0.48619638  1
  Li  Li2  1  0.74857510  0.16980232  0.51380362  1
  Li  Li3  1  0.89228413  0.67107124  0.63506668  1
  Fe  Fe4  1  0.21316887  0.67816984  0.94992191  1
  Fe  Fe5  1  0.41227100  0.22000142  0.16202104  1
  Fe  Fe6  1  0.58772900  0.77999858  0.83797896  1
  Fe  Fe7  1  0.78683113  0.32183016  0.05007809  1
  P  P8  1  0.07717394  0.18956028  0.82196787  1
  P  P9  1  0.45156642  0.31204752  0.69765231  1
  P  P10  1  0.54843358  0.68795248  0.30234769  1
  P  P11  1  0.92282606  0.81043972  0.17803213  1
  O  O12  1  0.09762117  0.38843578  0.69606026  1
  O  O13  1  0.12896168  0.92303322  0.71522633  1
  O  O14  1  0.09066000  0.79693500  0.18539749  1
  O  O15  1  0.17340102  0.24907756  0.06487948  1
  O  O16  1  0.43594331  0.12580766  0.83758263  1
  O  O17  1  0.38730343  0.58240592  0.77979252  1
  O  O18  1  0.36571118  0.22131960  0.45869195  1
  O  O19  1  0.37944646  0.66803546  0.27358867  1
  O  O20  1  0.62055354  0.33196454  0.72641133  1
  O  O21  1  0.63428882  0.77868040  0.54130805  1
  O  O22  1  0.61269657  0.41759408  0.22020748  1
  O  O23  1  0.56405669  0.87419234  0.16241737  1
  O  O24  1  0.82659898  0.75092244  0.93512052  1
  O  O25  1  0.90934000  0.20306500  0.81460251  1
  O  O26  1  0.87103832  0.07696678  0.28477367  1
  O  O27  1  0.90237883  0.61156422  0.30393974  1
