# generated using pymatgen
data_LiCrPO4
_symmetry_space_group_name_H-M   'P 1'
_cell_length_a   9.98859981
_cell_length_b   7.24224806
_cell_length_c   4.98795759
_cell_angle_alpha   89.99879885
_cell_angle_beta   89.99321071
_cell_angle_gamma   89.99513228
_symmetry_Int_Tables_number   1
_chemical_formula_structural   LiCrPO4
_chemical_formula_sum   'Li4 Cr4 P4 O16'
_cell_volume   360.82843677
_cell_formula_units_Z   4
loop_
 _symmetry_equiv_pos_site_id
 _symmetry_equiv_pos_as_xyz
  1  'x, y, z'
loop_
 _atom_site_type_symbol
 _atom_site_label
 _atom_site_symmetry_multiplicity
 _atom_site_fract_x
 _atom_site_fract_y
 _atom_site_fract_z
 _atom_site_occupancy
  Li  Li0  1  0.15319797  0.21385009  0.69774472  1
  Li  Li1  1  0.34680911  0.71383078  0.19772826  1
  Li  Li2  1  0.65321850  0.21386533  0.80225010  1
  Li  Li3  1  0.84677999  0.71380080  0.30225882  1
  Cr  Cr4  1  0.14242392  0.71418267  0.71408021  1
  Cr  Cr5  1  0.35758048  0.21416985  0.21414914  1
  Cr  Cr6  1  0.64242724  0.71419125  0.78596945  1
  Cr  Cr7  1  0.85760605  0.21415568  0.28581902  1
  P  P8  1  0.09398170  0.96320074  0.18987480  1
  P  P9  1  0.40597579  0.46351744  0.68990321  1
  P  P10  1  0.59399172  0.96322889  0.31016044  1
  P  P11  1  0.90602936  0.46352668  0.81006944  1
  O  O12  1  0.05857860  0.45685335  0.74386926  1
  O  O13  1  0.12018426  0.97349713  0.88152788  1
  O  O14  1  0.15475386  0.13930968  0.31927357  1
  O  O15  1  0.15666787  0.78098453  0.29428822  1
  O  O16  1  0.34326879  0.28081184  0.79432798  1
  O  O17  1  0.34521997  0.63913602  0.81917061  1
  O  O18  1  0.37982930  0.47345704  0.38149245  1
  O  O19  1  0.44145452  0.95685418  0.24389807  1
  O  O20  1  0.55850690  0.45685569  0.75613921  1
  O  O21  1  0.62015250  0.97349749  0.61850313  1
  O  O22  1  0.65478049  0.13930447  0.18072507  1
  O  O23  1  0.65664520  0.78098470  0.20575002  1
  O  O24  1  0.84334184  0.28083863  0.70559325  1
  O  O25  1  0.84530174  0.63916508  0.68084480  1
  O  O26  1  0.87983870  0.47343043  0.11845856  1
  O  O27  1  0.94145365  0.95679954  0.25613030  1
