# generated using pymatgen
data_Li2CoP2O7
_symmetry_space_group_name_H-M   'P 1'
_cell_length_a   6.11550752
_cell_length_b   8.06199847
_cell_length_c   8.06199847
_cell_angle_alpha   73.57579180
_cell_angle_beta   112.28908350
_cell_angle_gamma   67.71091650
_symmetry_Int_Tables_number   1
_chemical_formula_structural   Li2CoP2O7
_chemical_formula_sum   'Li4 Co2 P4 O14'
_cell_volume   295.04865154
_cell_formula_units_Z   2
loop_
 _symmetry_equiv_pos_site_id
 _symmetry_equiv_pos_as_xyz
  1  'x, y, z'
loop_
 _atom_site_type_symbol
 _atom_site_label
 _atom_site_symmetry_multiplicity
 _atom_site_fract_x
 _atom_site_fract_y
 _atom_site_fract_z
 _atom_site_occupancy
  Li  Li0  1  0.00000000  0.23114758  0.23114758  1
  Li  Li1  1  0.50000000  0.26885242  0.26885242  1
  Li  Li2  1  0.50000000  0.73114758  0.73114758  1
  Li  Li3  1  0.00000000  0.76885242  0.76885242  1
  Co  Co4  1  0.00000000  0.00000000  0.00000000  1
  Co  Co5  1  0.50000000  0.50000000  0.50000000  1
  P  P6  1  0.59273527  0.63838492  0.13838492  1
  P  P7  1  0.40726473  0.13838492  0.63838492  1
  P  P8  1  0.59273527  0.86161508  0.36161508  1
  P  P9  1  0.40726473  0.36161508  0.86161508  1
  O  O10  1  0.27732148  0.03391233  0.19221067  1
  O  O11  1  0.72267852  0.19221067  0.03391233  1
  O  O12  1  0.23897075  0.05338697  0.55338697  1
  O  O13  1  0.76102925  0.55338697  0.05338697  1
  O  O14  1  0.61902314  0.46608767  0.30778933  1
  O  O15  1  0.38097686  0.30778933  0.46608767  1
  O  O16  1  0.28125531  0.25000000  0.75000000  1
  O  O17  1  0.71874469  0.75000000  0.25000000  1
  O  O18  1  0.61902314  0.69221067  0.53391233  1
  O  O19  1  0.38097686  0.53391233  0.69221067  1
  O  O20  1  0.23897075  0.44661303  0.94661303  1
  O  O21  1  0.76102925  0.94661303  0.44661303  1
  O  O22  1  0.72267852  0.96608767  0.80778933  1
  O  O23  1  0.27732148  0.80778933  0.96608767  1
