# generated using pymatgen
data_Li4Ti2V3Sn3O16
_symmetry_space_group_name_H-M   'P 1'
_cell_length_a   6.17194820
_cell_length_b   6.10616589
_cell_length_c   9.68195154
_cell_angle_alpha   90.00323714
_cell_angle_beta   89.47903857
_cell_angle_gamma   119.64490986
_symmetry_Int_Tables_number   1
_chemical_formula_structural   Li4Ti2V3Sn3O16
_chemical_formula_sum   'Li4 Ti2 V3 Sn3 O16'
_cell_volume   317.10540937
_cell_formula_units_Z   1
loop_
 _symmetry_equiv_pos_site_id
 _symmetry_equiv_pos_as_xyz
  1  'x, y, z'
loop_
 _atom_site_type_symbol
 _atom_site_label
 _atom_site_symmetry_multiplicity
 _atom_site_fract_x
 _atom_site_fract_y
 _atom_site_fract_z
 _atom_site_occupancy
  Li  Li0  1  0.34551493  0.67278370  0.89264290  1
  Li  Li1  1  0.98140496  0.99069415  0.98871992  1
  Li  Li2  1  0.98937867  0.99474549  0.50113103  1
  Li  Li3  1  0.66621250  0.33309822  0.39714634  1
  Ti  Ti4  1  0.35629157  0.67815397  0.50165097  1
  Ti  Ti5  1  0.68850089  0.34424526  0.97763775  1
  V  V6  1  0.65732881  0.82867771  0.21396542  1
  V  V7  1  0.83440424  0.65166482  0.71315683  1
  V  V8  1  0.83439664  0.18273666  0.71315441  1
  Sn  Sn9  1  0.16746690  0.82948752  0.21457050  1
  Sn  Sn10  1  0.16747254  0.33802620  0.21456600  1
  Sn  Sn11  1  0.34023095  0.17012854  0.71385490  1
  O  O12  1  0.17721263  0.83143221  0.59117859  1
  O  O13  1  0.03153928  0.51581274  0.34394335  1
  O  O14  1  0.33283710  0.66641427  0.09767112  1
  O  O15  1  0.99267513  0.99638902  0.31604147  1
  O  O16  1  0.99644307  0.99824474  0.80369775  1
  O  O17  1  0.17720386  0.34580037  0.59116866  1
  O  O18  1  0.48074951  0.95581818  0.34272225  1
  O  O19  1  0.48077671  0.52497478  0.34269953  1
  O  O20  1  0.32078288  0.16038404  0.09397227  1
  O  O21  1  0.65730553  0.82865936  0.59468834  1
  O  O22  1  0.52375455  0.47771896  0.85053023  1
  O  O23  1  0.52377633  0.04605918  0.85052064  1
  O  O24  1  0.66238709  0.33116787  0.59987350  1
  O  O25  1  0.82577524  0.66555592  0.09722484  1
  O  O26  1  0.96244111  0.48119073  0.85247345  1
  O  O27  1  0.82573537  0.16023739  0.09723605  1
