# generated using pymatgen
data_Li7Si2(NiO4)3
_symmetry_space_group_name_H-M   'P 1'
_cell_length_a   4.85658757
_cell_length_b   4.88386353
_cell_length_c   9.70767638
_cell_angle_alpha   94.98683458
_cell_angle_beta   100.06876479
_cell_angle_gamma   60.18456815
_symmetry_Int_Tables_number   1
_chemical_formula_structural   Li7Si2(NiO4)3
_chemical_formula_sum   'Li7 Si2 Ni3 O12'
_cell_volume   196.70011281
_cell_formula_units_Z   1
loop_
 _symmetry_equiv_pos_site_id
 _symmetry_equiv_pos_as_xyz
  1  'x, y, z'
loop_
 _atom_site_type_symbol
 _atom_site_label
 _atom_site_symmetry_multiplicity
 _atom_site_fract_x
 _atom_site_fract_y
 _atom_site_fract_z
 _atom_site_occupancy
  Li  Li0  1  0.67399037  0.66666700  0.99744549  1
  Li  Li1  1  0.91666700  0.66666700  0.75000000  1
  Li  Li2  1  0.83678918  0.34125373  0.50327147  1
  Li  Li3  1  0.32195810  0.34125373  0.99672853  1
  Li  Li4  1  0.15934263  0.66666700  0.50255451  1
  Li  Li5  1  0.51137590  0.99208027  0.50327147  1
  Li  Li6  1  0.99654482  0.99208027  0.99672853  1
  Si  Si7  1  0.58333965  0.33331969  0.75000000  1
  Si  Si8  1  0.24999335  0.00001331  0.75000000  1
  Ni  Ni9  1  0.41666700  0.66666700  0.25000000  1
  Ni  Ni10  1  0.75005159  -0.00010417  0.25000000  1
  Ni  Ni11  1  0.08328141  0.33343717  0.25000000  1
  O  O12  1  0.79914445  0.66666700  0.36863694  1
  O  O13  1  0.73287142  0.32428259  0.13694397  1
  O  O14  1  0.95205149  0.29392405  0.85410147  1
  O  O15  1  0.50886465  0.66666700  0.64560197  1
  O  O16  1  0.88128151  0.03940895  0.64589853  1
  O  O17  1  0.44284699  0.32428259  0.36305603  1
  O  O18  1  0.32446835  0.66666700  0.85439803  1
  O  O19  1  0.03418955  0.66666700  0.13136306  1
  O  O20  1  0.57930953  0.03940895  0.85410147  1
  O  O21  1  0.39048701  0.00905041  0.13694397  1
  O  O22  1  0.25402347  0.29392405  0.64589853  1
  O  O23  1  0.10046258  0.00905041  0.36305603  1
