# generated using pymatgen
data_LiCrPO4
_symmetry_space_group_name_H-M   'P 1'
_cell_length_a   7.54898930
_cell_length_b   4.94110834
_cell_length_c   18.36662955
_cell_angle_alpha   90.00000000
_cell_angle_beta   87.04564506
_cell_angle_gamma   90.00000000
_symmetry_Int_Tables_number   1
_chemical_formula_structural   LiCrPO4
_chemical_formula_sum   'Li8 Cr8 P8 O32'
_cell_volume   684.17161646
_cell_formula_units_Z   8
loop_
 _symmetry_equiv_pos_site_id
 _symmetry_equiv_pos_as_xyz
  1  'x, y, z'
loop_
 _atom_site_type_symbol
 _atom_site_label
 _atom_site_symmetry_multiplicity
 _atom_site_fract_x
 _atom_site_fract_y
 _atom_site_fract_z
 _atom_site_occupancy
  Li  Li0  1  0.01944068  0.75856490  0.59402477  1
  Li  Li1  1  0.01944068  0.74143510  0.09402477  1
  Li  Li2  1  0.49942817  0.33819703  0.82729272  1
  Li  Li3  1  0.49942817  0.16180297  0.32729272  1
  Li  Li4  1  0.50057183  0.83819703  0.67270728  1
  Li  Li5  1  0.50057183  0.66180297  0.17270728  1
  Li  Li6  1  0.98055932  0.25856490  0.90597523  1
  Li  Li7  1  0.98055932  0.24143510  0.40597523  1
  Cr  Cr8  1  0.18217115  0.77998303  0.77490142  1
  Cr  Cr9  1  0.18217115  0.72001697  0.27490142  1
  Cr  Cr10  1  0.36163571  0.23729104  0.51083748  1
  Cr  Cr11  1  0.36163571  0.26270896  0.01083748  1
  Cr  Cr12  1  0.63836429  0.73729104  0.98916252  1
  Cr  Cr13  1  0.63836429  0.76270896  0.48916252  1
  Cr  Cr14  1  0.81782885  0.27998303  0.72509858  1
  Cr  Cr15  1  0.81782885  0.22001697  0.22509858  1
  P  P16  1  0.24228714  0.34568881  0.67899360  1
  P  P17  1  0.24228714  0.15431119  0.17899360  1
  P  P18  1  0.24332957  0.70467557  0.93594723  1
  P  P19  1  0.24332957  0.79532443  0.43594723  1
  P  P20  1  0.75667043  0.20467557  0.56405277  1
  P  P21  1  0.75667043  0.29532443  0.06405277  1
  P  P22  1  0.75771286  0.84568881  0.82100640  1
  P  P23  1  0.75771286  0.65431119  0.32100640  1
  O  O24  1  0.05638833  0.45920325  0.70482203  1
  O  O25  1  0.05638833  0.04079675  0.20482203  1
  O  O26  1  0.16475677  0.61945516  0.01033105  1
  O  O27  1  0.14253309  0.57997336  0.87248535  1
  O  O28  1  0.27149713  0.43779256  0.59946211  1
  O  O29  1  0.26111405  0.03619953  0.68869183  1
  O  O30  1  0.16475677  0.88054484  0.51033105  1
  O  O31  1  0.14253309  0.92002664  0.37248535  1
  O  O32  1  0.27149713  0.06220744  0.09946211  1
  O  O33  1  0.26111405  0.46380047  0.18869183  1
  O  O34  1  0.25923741  0.01665095  0.92740027  1
  O  O35  1  0.25923741  0.48334905  0.42740027  1
  O  O36  1  0.37587911  0.49941613  0.72844773  1
  O  O37  1  0.37587911  0.00058387  0.22844773  1
  O  O38  1  0.43534409  0.55972374  0.92963552  1
  O  O39  1  0.43534409  0.94027626  0.42963552  1
  O  O40  1  0.56465591  0.05972374  0.57036448  1
  O  O41  1  0.56465591  0.44027626  0.07036448  1
  O  O42  1  0.62412089  -0.00058387  0.77155227  1
  O  O43  1  0.62412089  0.50058387  0.27155227  1
  O  O44  1  0.74076259  0.51665095  0.57259973  1
  O  O45  1  0.74076259  0.98334905  0.07259973  1
  O  O46  1  0.73888595  0.53619953  0.81130817  1
  O  O47  1  0.72850287  0.93779256  0.90053789  1
  O  O48  1  0.85746691  0.07997336  0.62751465  1
  O  O49  1  0.83524323  0.11945516  0.48966895  1
  O  O50  1  0.73888595  0.96380047  0.31130817  1
  O  O51  1  0.72850287  0.56220744  0.40053789  1
  O  O52  1  0.85746691  0.42002664  0.12751465  1
  O  O53  1  0.83524323  0.38054484  0.98966895  1
  O  O54  1  0.94361167  0.95920325  0.79517797  1
  O  O55  1  0.94361167  0.54079675  0.29517797  1
