# generated using pymatgen
data_Li2VP3O10
_symmetry_space_group_name_H-M   'P 1'
_cell_length_a   12.14638361
_cell_length_b   7.99568954
_cell_length_c   9.95958645
_cell_angle_alpha   90.00000000
_cell_angle_beta   96.52705055
_cell_angle_gamma   90.00000000
_symmetry_Int_Tables_number   1
_chemical_formula_structural   Li2VP3O10
_chemical_formula_sum   'Li8 V4 P12 O40'
_cell_volume   960.99270775
_cell_formula_units_Z   4
loop_
 _symmetry_equiv_pos_site_id
 _symmetry_equiv_pos_as_xyz
  1  'x, y, z'
loop_
 _atom_site_type_symbol
 _atom_site_label
 _atom_site_symmetry_multiplicity
 _atom_site_fract_x
 _atom_site_fract_y
 _atom_site_fract_z
 _atom_site_occupancy
  Li  Li0  1  0.15025454  0.45141261  0.37829126  1
  Li  Li1  1  0.15025454  0.04858739  0.87829126  1
  Li  Li2  1  0.44393122  0.11064442  0.91155275  1
  Li  Li3  1  0.44393122  0.38935558  0.41155275  1
  Li  Li4  1  0.55606878  0.61064442  0.58844725  1
  Li  Li5  1  0.55606878  0.88935558  0.08844725  1
  Li  Li6  1  0.84974546  0.95141261  0.12170874  1
  Li  Li7  1  0.84974546  0.54858739  0.62170874  1
  V  V8  1  0.16945688  0.85453318  0.62951263  1
  V  V9  1  0.16945688  0.64546682  0.12951263  1
  V  V10  1  0.83054312  0.35453318  0.87048737  1
  V  V11  1  0.83054312  0.14546682  0.37048737  1
  P  P12  1  0.06125424  0.57378460  0.81092279  1
  P  P13  1  0.06125424  0.92621540  0.31092279  1
  P  P14  1  0.26944862  0.42351015  0.91688048  1
  P  P15  1  0.26944862  0.07648985  0.41688048  1
  P  P16  1  0.33182537  0.78458726  0.92807884  1
  P  P17  1  0.33182537  0.71541274  0.42807884  1
  P  P18  1  0.66817463  0.28458726  0.57192116  1
  P  P19  1  0.66817463  0.21541274  0.07192116  1
  P  P20  1  0.73055138  0.92351015  0.58311952  1
  P  P21  1  0.73055138  0.57648985  0.08311952  1
  P  P22  1  0.93874576  0.07378460  0.68907721  1
  P  P23  1  0.93874576  0.42621540  0.18907721  1
  O  O24  1  0.08209775  0.67385487  0.94045827  1
  O  O25  1  0.05585940  0.00081867  0.71342858  1
  O  O26  1  0.08113181  0.66123316  0.67904262  1
  O  O27  1  0.08209775  0.82614513  0.44045827  1
  O  O28  1  0.05585940  0.49918133  0.21342858  1
  O  O29  1  0.08113181  0.83876684  0.17904262  1
  O  O30  1  0.15071776  0.41891660  0.82199227  1
  O  O31  1  0.15071776  0.08108340  0.32199227  1
  O  O32  1  0.25041037  0.88034482  0.82609009  1
  O  O33  1  0.24512458  0.05942851  0.56296243  1
  O  O34  1  0.29233650  0.71935471  0.56957425  1
  O  O35  1  0.25041037  0.61965518  0.32609009  1
  O  O36  1  0.24512458  0.44057149  0.06296243  1
  O  O37  1  0.29233650  0.78064529  0.06957425  1
  O  O38  1  0.33338852  0.58910624  0.87380513  1
  O  O39  1  0.32854017  0.26955567  0.88016292  1
  O  O40  1  0.33338852  0.91089376  0.37380513  1
  O  O41  1  0.32854017  0.23044433  0.38016292  1
  O  O42  1  0.44754407  0.85655415  0.93309716  1
  O  O43  1  0.44754407  0.64344585  0.43309716  1
  O  O44  1  0.55245593  0.35655415  0.56690284  1
  O  O45  1  0.55245593  0.14344585  0.06690284  1
  O  O46  1  0.67145983  0.76955567  0.61983708  1
  O  O47  1  0.66661148  0.08910624  0.62619487  1
  O  O48  1  0.67145983  0.73044433  0.11983708  1
  O  O49  1  0.66661148  0.41089376  0.12619487  1
  O  O50  1  0.70766350  0.21935471  0.93042575  1
  O  O51  1  0.75487542  0.55942851  0.93703757  1
  O  O52  1  0.74958963  0.38034482  0.67390991  1
  O  O53  1  0.70766350  0.28064529  0.43042575  1
  O  O54  1  0.75487542  0.94057149  0.43703757  1
  O  O55  1  0.74958963  0.11965518  0.17390991  1
  O  O56  1  0.84928224  0.91891660  0.67800773  1
  O  O57  1  0.84928224  0.58108340  0.17800773  1
  O  O58  1  0.91886819  0.16123316  0.82095738  1
  O  O59  1  0.94414060  0.50081867  0.78657142  1
  O  O60  1  0.91790225  0.17385487  0.55954173  1
  O  O61  1  0.91886819  0.33876684  0.32095738  1
  O  O62  1  0.94414060  0.99918133  0.28657142  1
  O  O63  1  0.91790225  0.32614513  0.05954173  1
