# generated using pymatgen
data_Li5V5O12
_symmetry_space_group_name_H-M   'P 1'
_cell_length_a   5.05749938
_cell_length_b   9.20175659
_cell_length_c   9.46256671
_cell_angle_alpha   95.48799254
_cell_angle_beta   93.74236923
_cell_angle_gamma   84.95902537
_symmetry_Int_Tables_number   1
_chemical_formula_structural   Li5V5O12
_chemical_formula_sum   'Li10 V10 O24'
_cell_volume   435.93507727
_cell_formula_units_Z   2
loop_
 _symmetry_equiv_pos_site_id
 _symmetry_equiv_pos_as_xyz
  1  'x, y, z'
loop_
 _atom_site_type_symbol
 _atom_site_label
 _atom_site_symmetry_multiplicity
 _atom_site_fract_x
 _atom_site_fract_y
 _atom_site_fract_z
 _atom_site_occupancy
  Li  Li0  1  0.74638788  0.92730245  0.00545880  1
  Li  Li1  1  0.77555733  0.57210519  0.00038505  1
  Li  Li2  1  0.60508614  0.46630006  0.24694515  1
  Li  Li3  1  0.67025479  0.13513705  0.26879304  1
  Li  Li4  1  0.52272857  0.32170509  0.50143963  1
  Li  Li5  1  0.46867403  0.65988399  0.48759244  1
  Li  Li6  1  0.26535859  0.07789635  0.00859071  1
  Li  Li7  1  0.10948897  0.95860231  0.24855399  1
  Li  Li8  1  0.11629457  0.60132745  0.22879633  1
  Li  Li9  1  0.01486325  0.83077877  0.49187476  1
  V  V10  1  0.99662095  0.48734980  0.49569140  1
  V  V11  1  0.84817255  0.71564137  0.74566414  1
  V  V12  1  0.89872892  0.03559760  0.74295753  1
  V  V13  1  0.73121738  0.25870164  0.01776523  1
  V  V14  1  0.64415245  0.78561444  0.25453533  1
  V  V15  1  0.47064650  0.00694952  0.48760703  1
  V  V16  1  0.38295594  0.53996675  0.75130484  1
  V  V17  1  0.25263922  0.75440273  0.00804802  1
  V  V18  1  0.35808887  0.22282070  0.76151403  1
  V  V19  1  0.13706952  0.29221251  0.24978651  1
  O  O20  1  0.94493644  0.77207692  0.12554891  1
  O  O21  1  0.91975449  0.41363101  0.11717286  1
  O  O22  1  0.95958197  0.12754897  0.13525710  1
  O  O23  1  0.80260637  0.64216321  0.36409768  1
  O  O24  1  0.83733562  0.34010236  0.39528444  1
  O  O25  1  0.77300003  0.95512477  0.36294796  1
  O  O26  1  0.71787475  0.87226286  0.63580585  1
  O  O27  1  0.69669687  0.55215253  0.63186893  1
  O  O28  1  0.63371332  0.15717860  0.62735052  1
  O  O29  1  0.42776847  0.90850104  0.11327647  1
  O  O30  1  0.55359939  0.70995179  0.86710941  1
  O  O31  1  0.44738026  0.63082653  0.13012306  1
  O  O32  1  0.54024200  0.37549215  0.86601132  1
  O  O33  1  0.60412403  0.09100597  0.88120678  1
  O  O34  1  0.46013398  0.26192583  0.12770275  1
  O  O35  1  0.34555550  0.83248138  0.38819798  1
  O  O36  1  0.33196198  0.14349787  0.37765480  1
  O  O37  1  0.28816392  0.46275016  0.36877414  1
  O  O38  1  0.22401814  0.37408362  0.63405439  1
  O  O39  1  0.14689340  0.66072293  0.60868162  1
  O  O40  1  0.17940352  0.03220540  0.63193332  1
  O  O41  1  0.03050280  0.88578969  0.86999425  1
  O  O42  1  0.07824364  0.60480200  0.87521704  1
  O  O43  1  0.06635469  0.20181866  0.86142447  1
