# generated using pymatgen
data_Li3Cr5O10
_symmetry_space_group_name_H-M   'P 1'
_cell_length_a   5.13014863
_cell_length_b   5.96981463
_cell_length_c   6.64090514
_cell_angle_alpha   103.58929940
_cell_angle_beta   97.60112121
_cell_angle_gamma   106.68062740
_symmetry_Int_Tables_number   1
_chemical_formula_structural   Li3Cr5O10
_chemical_formula_sum   'Li3 Cr5 O10'
_cell_volume   184.96425009
_cell_formula_units_Z   1
loop_
 _symmetry_equiv_pos_site_id
 _symmetry_equiv_pos_as_xyz
  1  'x, y, z'
loop_
 _atom_site_type_symbol
 _atom_site_label
 _atom_site_symmetry_multiplicity
 _atom_site_fract_x
 _atom_site_fract_y
 _atom_site_fract_z
 _atom_site_occupancy
  Li  Li0  1  0.60322037  0.20148813  0.20180078  1
  Li  Li1  1  0.19677963  0.39851187  0.39819922  1
  Li  Li2  1  0.40000000  0.80000000  0.80000000  1
  Cr  Cr3  1  0.79876492  0.09635327  0.60609382  1
  Cr  Cr4  1  0.40000000  0.30000000  0.80000000  1
  Cr  Cr5  1  0.60274096  0.70116260  0.20386399  1
  Cr  Cr6  1  0.00123508  0.50364673  0.99390618  1
  Cr  Cr7  1  0.19725904  0.89883740  0.39613601  1
  O  O8  1  0.69030874  0.17278860  0.88759890  1
  O  O9  1  0.89168162  0.02980014  0.32134795  1
  O  O10  1  0.48881030  0.22344611  0.51139007  1
  O  O11  1  0.67874731  0.61707147  0.91649195  1
  O  O12  1  0.10969126  0.42721140  0.71240110  1
  O  O13  1  0.90831838  0.57019986  0.27865205  1
  O  O14  1  0.31118970  0.37655389  0.08860993  1
  O  O15  1  0.49487356  0.77120814  0.48553248  1
  O  O16  1  0.12125269  0.98292853  0.68350805  1
  O  O17  1  0.30512644  0.82879186  0.11446752  1
