# generated using pymatgen
data_Li3Sb2(PO4)3
_symmetry_space_group_name_H-M   'P 1'
_cell_length_a   8.81355734
_cell_length_b   9.32443556
_cell_length_c   12.77463947
_cell_angle_alpha   90.00000000
_cell_angle_beta   90.73007112
_cell_angle_gamma   90.00000000
_symmetry_Int_Tables_number   1
_chemical_formula_structural   Li3Sb2(PO4)3
_chemical_formula_sum   'Li12 Sb8 P12 O48'
_cell_volume   1049.75313656
_cell_formula_units_Z   4
loop_
 _symmetry_equiv_pos_site_id
 _symmetry_equiv_pos_as_xyz
  1  'x, y, z'
loop_
 _atom_site_type_symbol
 _atom_site_label
 _atom_site_symmetry_multiplicity
 _atom_site_fract_x
 _atom_site_fract_y
 _atom_site_fract_z
 _atom_site_occupancy
  Li  Li0  1  0.06206403  0.51120152  0.65098465  1
  Li  Li1  1  0.08656039  0.08751433  0.31415024  1
  Li  Li2  1  0.17922188  0.77833403  0.81734149  1
  Li  Li3  1  0.32077812  0.27833403  0.68265851  1
  Li  Li4  1  0.41343961  0.58751433  0.18584976  1
  Li  Li5  1  0.43793597  0.01120152  0.84901535  1
  Li  Li6  1  0.56206403  0.98879848  0.15098465  1
  Li  Li7  1  0.58656039  0.41248567  0.81415024  1
  Li  Li8  1  0.67922188  0.72166597  0.31734149  1
  Li  Li9  1  0.82077812  0.22166597  0.18265851  1
  Li  Li10  1  0.91343961  0.91248567  0.68584976  1
  Li  Li11  1  0.93793597  0.48879848  0.34901535  1
  Sb  Sb12  1  0.22890531  0.02702269  0.09741694  1
  Sb  Sb13  1  0.23919343  0.45538762  0.90397149  1
  Sb  Sb14  1  0.26080657  0.95538762  0.59602851  1
  Sb  Sb15  1  0.27109469  0.52702269  0.40258306  1
  Sb  Sb16  1  0.72890531  0.47297731  0.59741694  1
  Sb  Sb17  1  0.73919343  0.04461238  0.40397149  1
  Sb  Sb18  1  0.76080657  0.54461238  0.09602851  1
  Sb  Sb19  1  0.77109469  0.97297731  0.90258306  1
  P  P20  1  0.05511557  0.25824557  0.50929099  1
  P  P21  1  0.10927735  0.37944488  0.16864284  1
  P  P22  1  0.12179022  0.10322026  0.84031494  1
  P  P23  1  0.37820978  0.60322026  0.65968506  1
  P  P24  1  0.39072265  0.87944488  0.33135716  1
  P  P25  1  0.44488443  0.75824557  0.99070901  1
  P  P26  1  0.55511557  0.24175443  0.00929099  1
  P  P27  1  0.60927735  0.12055512  0.66864284  1
  P  P28  1  0.62179022  0.39677974  0.34031494  1
  P  P29  1  0.87820978  0.89677974  0.15968506  1
  P  P30  1  0.89072265  0.62055512  0.83135716  1
  P  P31  1  0.94488443  0.74175443  0.49070901  1
  O  O32  1  0.02957040  0.86327027  0.55130123  1
  O  O33  1  0.02984412  0.87861262  0.10171021  1
  O  O34  1  0.03960728  0.66571816  0.40714401  1
  O  O35  1  0.05556770  0.57086530  0.79992170  1
  O  O36  1  0.09922156  0.36741843  0.41993943  1
  O  O37  1  0.10587387  0.99435174  0.74714081  1
  O  O38  1  0.11715544  0.22035750  0.20007260  1
  O  O39  1  0.12658354  0.39520016  0.04870076  1
  O  O40  1  0.18215574  0.25090136  0.80169907  1
  O  O41  1  0.20283231  0.19615055  0.55979638  1
  O  O42  1  0.22944650  0.47413931  0.22676164  1
  O  O43  1  0.24420984  0.03474657  0.91513257  1
  O  O44  1  0.25579016  0.53474657  0.58486743  1
  O  O45  1  0.27055350  0.97413931  0.27323836  1
  O  O46  1  0.29716769  0.69615055  0.94020362  1
  O  O47  1  0.31784426  0.75090136  0.69830093  1
  O  O48  1  0.37341646  0.89520016  0.45129924  1
  O  O49  1  0.38284456  0.72035750  0.29992740  1
  O  O50  1  0.39412613  0.49435174  0.75285919  1
  O  O51  1  0.40077844  0.86741843  0.08006057  1
  O  O52  1  0.44443230  0.07086530  0.70007830  1
  O  O53  1  0.46039272  0.16571816  0.09285599  1
  O  O54  1  0.47015588  0.37861262  0.39828979  1
  O  O55  1  0.47042960  0.36327027  0.94869877  1
  O  O56  1  0.52957040  0.63672973  0.05130123  1
  O  O57  1  0.52984412  0.62138738  0.60171021  1
  O  O58  1  0.53960728  0.83428184  0.90714401  1
  O  O59  1  0.55556770  0.92913470  0.29992170  1
  O  O60  1  0.59922156  0.13258157  0.91993943  1
  O  O61  1  0.60587387  0.50564826  0.24714081  1
  O  O62  1  0.61715544  0.27964250  0.70007260  1
  O  O63  1  0.62658354  0.10479984  0.54870076  1
  O  O64  1  0.68215574  0.24909864  0.30169907  1
  O  O65  1  0.70283231  0.30384945  0.05979638  1
  O  O66  1  0.72944650  0.02586069  0.72676164  1
  O  O67  1  0.74420984  0.46525343  0.41513257  1
  O  O68  1  0.75579016  0.96525343  0.08486743  1
  O  O69  1  0.77055350  0.52586069  0.77323836  1
  O  O70  1  0.79716769  0.80384945  0.44020362  1
  O  O71  1  0.81784426  0.74909864  0.19830093  1
  O  O72  1  0.87341646  0.60479984  0.95129924  1
  O  O73  1  0.88284456  0.77964250  0.79992740  1
  O  O74  1  0.89412613  0.00564826  0.25285919  1
  O  O75  1  0.90077844  0.63258157  0.58006057  1
  O  O76  1  0.94443230  0.42913470  0.20007830  1
  O  O77  1  0.96039272  0.33428184  0.59285599  1
  O  O78  1  0.97015588  0.12138738  0.89828979  1
  O  O79  1  0.97042960  0.13672973  0.44869877  1
