# generated using pymatgen
data_V(CO3)2
_symmetry_space_group_name_H-M   'P 1'
_cell_length_a   8.46886018
_cell_length_b   8.46885988
_cell_length_c   8.46886049
_cell_angle_alpha   107.43020117
_cell_angle_beta   107.43019943
_cell_angle_gamma   113.63524004
_symmetry_Int_Tables_number   1
_chemical_formula_structural   V(CO3)2
_chemical_formula_sum   'V4 C8 O24'
_cell_volume   465.71048984
_cell_formula_units_Z   4
loop_
 _symmetry_equiv_pos_site_id
 _symmetry_equiv_pos_as_xyz
  1  'x, y, z'
loop_
 _atom_site_type_symbol
 _atom_site_label
 _atom_site_symmetry_multiplicity
 _atom_site_fract_x
 _atom_site_fract_y
 _atom_site_fract_z
 _atom_site_occupancy
  V  V0  1  0.15470017  0.62500000  0.02970017  1
  V  V1  1  0.37500000  0.40470017  0.52970017  1
  V  V2  1  0.59529983  0.12500000  0.97029983  1
  V  V3  1  0.87500000  0.84529983  0.47029983  1
  C  C4  1  0.15753377  0.81862191  0.76574453  1
  C  C5  1  0.18137809  0.94712262  0.33891186  1
  C  C6  1  0.14179024  0.30287738  0.73425547  1
  C  C7  1  0.05287738  0.39179024  0.23425547  1
  C  C8  1  0.60820976  0.84246623  0.66108814  1
  C  C9  1  0.59246623  0.85820976  0.16108814  1
  C  C10  1  0.69712262  0.43137809  0.83891186  1
  C  C11  1  0.56862191  0.40753377  0.26574453  1
  O  O12  1  0.04505868  0.82830698  0.35759345  1
  O  O13  1  0.16876664  0.72158187  0.85643855  1
  O  O14  1  0.08181108  0.36498896  0.84749741  1
  O  O15  1  0.31253477  0.95494132  0.78324830  1
  O  O16  1  0.23250745  0.88501104  0.21682212  1
  O  O17  1  0.06232709  0.11514332  0.64356145  1
  O  O18  1  0.11498896  0.33181108  0.34749741  1
  O  O19  1  0.27928647  0.42169302  0.71675170  1
  O  O20  1  0.17169302  0.52928647  0.21675170  1
  O  O21  1  0.47071353  0.68746523  0.64240655  1
  O  O22  1  0.27841813  0.13485668  0.44718477  1
  O  O23  1  0.43746523  0.72071353  0.14240655  1
  O  O24  1  0.68767291  0.83123336  0.55281523  1
  O  O25  1  0.58123336  0.93767291  0.05281523  1
  O  O26  1  0.47158187  0.41876664  0.35643855  1
  O  O27  1  0.57830698  0.29505868  0.85759345  1
  O  O28  1  0.63501104  0.48250745  0.71682212  1
  O  O29  1  0.76568533  0.91818892  0.28317788  1
  O  O30  1  0.88485668  0.52841813  0.94718477  1
  O  O31  1  0.51749255  0.23431467  0.15250259  1
  O  O32  1  0.70494132  0.56253477  0.28324830  1
  O  O33  1  0.66818892  0.01568533  0.78317788  1
  O  O34  1  0.98431467  0.76749255  0.65250259  1
  O  O35  1  0.86514332  0.31232709  0.14356145  1
