# generated using pymatgen
data_Li2Cr(Si2O5)2
_symmetry_space_group_name_H-M   'P 1'
_cell_length_a   11.15650173
_cell_length_b   7.71906617
_cell_length_c   11.22045610
_cell_angle_alpha   90.00000000
_cell_angle_beta   111.34924724
_cell_angle_gamma   90.00000000
_symmetry_Int_Tables_number   1
_chemical_formula_structural   Li2Cr(Si2O5)2
_chemical_formula_sum   'Li8 Cr4 Si16 O40'
_cell_volume   899.97323687
_cell_formula_units_Z   4
loop_
 _symmetry_equiv_pos_site_id
 _symmetry_equiv_pos_as_xyz
  1  'x, y, z'
loop_
 _atom_site_type_symbol
 _atom_site_label
 _atom_site_symmetry_multiplicity
 _atom_site_fract_x
 _atom_site_fract_y
 _atom_site_fract_z
 _atom_site_occupancy
  Li  Li0  1  0.08842774  0.25000000  0.39407944  1
  Li  Li1  1  0.02459367  0.25000000  0.10290902  1
  Li  Li2  1  0.36205783  0.25000000  0.86813234  1
  Li  Li3  1  0.38103396  0.25000000  0.45966954  1
  Li  Li4  1  0.61896604  0.75000000  0.54033046  1
  Li  Li5  1  0.63794217  0.75000000  0.13186766  1
  Li  Li6  1  0.97540633  0.75000000  0.89709098  1
  Li  Li7  1  0.91157226  0.75000000  0.60592056  1
  Cr  Cr8  1  0.21104169  0.01703715  0.27946328  1
  Cr  Cr9  1  0.21104169  0.48296285  0.27946328  1
  Cr  Cr10  1  0.78895831  0.51703715  0.72053672  1
  Cr  Cr11  1  0.78895831  0.98296285  0.72053672  1
  Si  Si12  1  0.09003249  0.45130217  0.74139662  1
  Si  Si13  1  0.09003249  0.04869783  0.74139662  1
  Si  Si14  1  0.26062312  0.95405836  0.58947212  1
  Si  Si15  1  0.26062312  0.54594164  0.58947212  1
  Si  Si16  1  0.24194047  0.55010759  0.01026928  1
  Si  Si17  1  0.24194047  0.94989241  0.01026928  1
  Si  Si18  1  0.52959992  0.55227212  0.77547330  1
  Si  Si19  1  0.52959992  0.94772788  0.77547330  1
  Si  Si20  1  0.47040008  0.05227212  0.22452670  1
  Si  Si21  1  0.47040008  0.44772788  0.22452670  1
  Si  Si22  1  0.75805953  0.05010759  0.98973072  1
  Si  Si23  1  0.75805953  0.44989241  0.98973072  1
  Si  Si24  1  0.73937688  0.04594164  0.41052788  1
  Si  Si25  1  0.73937688  0.45405836  0.41052788  1
  Si  Si26  1  0.90996751  0.54869783  0.25860338  1
  Si  Si27  1  0.90996751  0.95130217  0.25860338  1
  O  O28  1  0.04701822  0.25000000  0.70103594  1
  O  O29  1  0.22124519  0.05723542  0.87512914  1
  O  O30  1  0.22124519  0.44276458  0.87512914  1
  O  O31  1  0.19056720  0.75000000  0.96661545  1
  O  O32  1  0.13219990  0.53582962  0.62824921  1
  O  O33  1  0.13219990  0.96417038  0.62824921  1
  O  O34  1  0.02302015  0.06576109  0.24383670  1
  O  O35  1  0.02302015  0.43423891  0.24383670  1
  O  O36  1  0.28781353  0.75000000  0.56592010  1
  O  O37  1  0.24281667  0.07025693  0.46586947  1
  O  O38  1  0.24281667  0.42974307  0.46586947  1
  O  O39  1  0.16485872  0.03724552  0.08983083  1
  O  O40  1  0.16485872  0.46275448  0.08983083  1
  O  O41  1  0.38176606  0.47019603  0.71597378  1
  O  O42  1  0.38176606  0.02980397  0.71597378  1
  O  O43  1  0.51912672  0.75000000  0.82523025  1
  O  O44  1  0.60062248  0.05764459  0.90997464  1
  O  O45  1  0.60062248  0.44235541  0.90997464  1
  O  O46  1  0.40134973  0.04028296  0.32699652  1
  O  O47  1  0.40134973  0.45971704  0.32699652  1
  O  O48  1  0.59865027  0.54028296  0.67300348  1
  O  O49  1  0.59865027  0.95971704  0.67300348  1
  O  O50  1  0.39937752  0.55764459  0.09002536  1
  O  O51  1  0.39937752  0.94235541  0.09002536  1
  O  O52  1  0.48087328  0.25000000  0.17476975  1
  O  O53  1  0.61823394  0.52980397  0.28402622  1
  O  O54  1  0.61823394  0.97019603  0.28402622  1
  O  O55  1  0.83514128  0.96275448  0.91016917  1
  O  O56  1  0.83514128  0.53724552  0.91016917  1
  O  O57  1  0.75718333  0.57025693  0.53413053  1
  O  O58  1  0.75718333  0.92974307  0.53413053  1
  O  O59  1  0.71218647  0.25000000  0.43407990  1
  O  O60  1  0.97697985  0.56576109  0.75616330  1
  O  O61  1  0.97697985  0.93423891  0.75616330  1
  O  O62  1  0.86780010  0.03582962  0.37175079  1
  O  O63  1  0.86780010  0.46417038  0.37175079  1
  O  O64  1  0.80943280  0.25000000  0.03338455  1
  O  O65  1  0.77875481  0.55723542  0.12487086  1
  O  O66  1  0.77875481  0.94276458  0.12487086  1
  O  O67  1  0.95298178  0.75000000  0.29896406  1
