# generated using pymatgen
data_LiCo2C2O7
_symmetry_space_group_name_H-M   'P 1'
_cell_length_a   9.68430635
_cell_length_b   6.31060382
_cell_length_c   9.95513775
_cell_angle_alpha   90.00000000
_cell_angle_beta   106.78245082
_cell_angle_gamma   90.00000000
_symmetry_Int_Tables_number   1
_chemical_formula_structural   LiCo2C2O7
_chemical_formula_sum   'Li4 Co8 C8 O28'
_cell_volume   582.48366717
_cell_formula_units_Z   4
loop_
 _symmetry_equiv_pos_site_id
 _symmetry_equiv_pos_as_xyz
  1  'x, y, z'
loop_
 _atom_site_type_symbol
 _atom_site_label
 _atom_site_symmetry_multiplicity
 _atom_site_fract_x
 _atom_site_fract_y
 _atom_site_fract_z
 _atom_site_occupancy
  Li  Li0  1  0.50711319  0.59906774  0.77250324  1
  Li  Li1  1  0.49288681  0.09906774  0.72749676  1
  Li  Li2  1  0.50711319  0.90093226  0.27250324  1
  Li  Li3  1  0.49288681  0.40093226  0.22749676  1
  Co  Co4  1  0.98032780  0.59934111  0.72841022  1
  Co  Co5  1  0.98032780  0.90065889  0.22841022  1
  Co  Co6  1  0.20241338  0.34064953  0.63862672  1
  Co  Co7  1  0.20241338  0.15935047  0.13862672  1
  Co  Co8  1  0.79758662  0.84064953  0.86137328  1
  Co  Co9  1  0.79758662  0.65935047  0.36137328  1
  Co  Co10  1  0.01967220  0.09934111  0.77158978  1
  Co  Co11  1  0.01967220  0.40065889  0.27158978  1
  C  C12  1  0.22411436  0.83469308  0.67311208  1
  C  C13  1  0.32398739  0.24546917  0.93740065  1
  C  C14  1  0.22411436  0.66530692  0.17311208  1
  C  C15  1  0.32398739  0.25453083  0.43740065  1
  C  C16  1  0.67601261  0.74546917  0.56259935  1
  C  C17  1  0.77588564  0.33469308  0.82688792  1
  C  C18  1  0.67601261  0.75453083  0.06259935  1
  C  C19  1  0.77588564  0.16530692  0.32688792  1
  O  O20  1  0.99655607  0.83625936  0.83657744  1
  O  O21  1  0.18662442  0.21021252  0.93254134  1
  O  O22  1  0.99655607  0.66374064  0.33657744  1
  O  O23  1  0.15207080  0.01175926  0.66547332  1
  O  O24  1  0.15320080  0.65499285  0.67143484  1
  O  O25  1  0.35562313  0.30281227  0.82559192  1
  O  O26  1  0.18662442  0.28978748  0.43254134  1
  O  O27  1  0.35475312  0.83059492  0.67757579  1
  O  O28  1  0.15207080  0.48824074  0.16547332  1
  O  O29  1  0.15320080  0.84500715  0.17143484  1
  O  O30  1  0.58441485  0.77801980  0.94288707  1
  O  O31  1  0.41558515  0.27801980  0.55711293  1
  O  O32  1  0.35562313  0.19718773  0.32559192  1
  O  O33  1  0.35475312  0.66940508  0.17757579  1
  O  O34  1  0.64524688  0.33059492  0.82242421  1
  O  O35  1  0.64437687  0.80281227  0.67440808  1
  O  O36  1  0.58441485  0.72198020  0.44288707  1
  O  O37  1  0.41558515  0.22198020  0.05711293  1
  O  O38  1  0.84679920  0.15499285  0.82856516  1
  O  O39  1  0.84792920  0.51175926  0.83452668  1
  O  O40  1  0.64524688  0.16940508  0.32242421  1
  O  O41  1  0.81337558  0.71021252  0.56745866  1
  O  O42  1  0.64437687  0.69718773  0.17440808  1
  O  O43  1  0.84679920  0.34500715  0.32856516  1
  O  O44  1  0.84792920  0.98824074  0.33452668  1
  O  O45  1  0.00344393  0.33625936  0.66342256  1
  O  O46  1  0.81337558  0.78978748  0.06745866  1
  O  O47  1  0.00344393  0.16374064  0.16342256  1
