# generated using pymatgen
data_V(CO3)2
_symmetry_space_group_name_H-M   'P 1'
_cell_length_a   4.62585553
_cell_length_b   6.15939970
_cell_length_c   7.52239512
_cell_angle_alpha   90.00000000
_cell_angle_beta   87.61046252
_cell_angle_gamma   90.00000000
_symmetry_Int_Tables_number   1
_chemical_formula_structural   V(CO3)2
_chemical_formula_sum   'V2 C4 O12'
_cell_volume   214.14542160
_cell_formula_units_Z   2
loop_
 _symmetry_equiv_pos_site_id
 _symmetry_equiv_pos_as_xyz
  1  'x, y, z'
loop_
 _atom_site_type_symbol
 _atom_site_label
 _atom_site_symmetry_multiplicity
 _atom_site_fract_x
 _atom_site_fract_y
 _atom_site_fract_z
 _atom_site_occupancy
  V  V0  1  0.00000000  0.50000000  0.50000000  1
  V  V1  1  0.50000000  0.00000000  0.00000000  1
  C  C2  1  0.00881908  0.14170690  0.76080938  1
  C  C3  1  0.50881908  0.35829310  0.26080938  1
  C  C4  1  0.49118092  0.64170690  0.73919062  1
  C  C5  1  0.99118092  0.85829310  0.23919062  1
  O  O6  1  0.09644220  0.22410320  0.61066576  1
  O  O7  1  0.19096268  0.13796164  0.88873257  1
  O  O8  1  0.25406268  0.43426514  0.28422856  1
  O  O9  1  0.24593732  0.93426514  0.21577144  1
  O  O10  1  0.30903732  0.63796164  0.61126743  1
  O  O11  1  0.40355780  0.72410320  0.88933424  1
  O  O12  1  0.59644220  0.27589680  0.11066576  1
  O  O13  1  0.69096268  0.36203836  0.38873257  1
  O  O14  1  0.75406268  0.06573486  0.78422856  1
  O  O15  1  0.74593732  0.56573486  0.71577144  1
  O  O16  1  0.80903732  0.86203836  0.11126743  1
  O  O17  1  0.90355780  0.77589680  0.38933424  1
