# generated using pymatgen
data_Li2Fe2C2O7
_symmetry_space_group_name_H-M   'P 1'
_cell_length_a   10.66623364
_cell_length_b   6.04777932
_cell_length_c   9.61250279
_cell_angle_alpha   90.00000000
_cell_angle_beta   116.41010783
_cell_angle_gamma   90.00000000
_symmetry_Int_Tables_number   1
_chemical_formula_structural   Li2Fe2C2O7
_chemical_formula_sum   'Li8 Fe8 C8 O28'
_cell_volume   555.35890844
_cell_formula_units_Z   4
loop_
 _symmetry_equiv_pos_site_id
 _symmetry_equiv_pos_as_xyz
  1  'x, y, z'
loop_
 _atom_site_type_symbol
 _atom_site_label
 _atom_site_symmetry_multiplicity
 _atom_site_fract_x
 _atom_site_fract_y
 _atom_site_fract_z
 _atom_site_occupancy
  Li  Li0  1  0.35642504  0.69773955  0.93356922  1
  Li  Li1  1  0.50602178  0.04223794  0.74636542  1
  Li  Li2  1  0.49397822  0.54223794  0.75363458  1
  Li  Li3  1  0.35642504  0.80226045  0.43356922  1
  Li  Li4  1  0.64357496  0.19773955  0.56643078  1
  Li  Li5  1  0.50602178  0.45776206  0.24636542  1
  Li  Li6  1  0.49397822  0.95776206  0.25363458  1
  Li  Li7  1  0.64357496  0.30226045  0.06643078  1
  Fe  Fe8  1  0.97400859  0.60249759  0.76398400  1
  Fe  Fe9  1  0.97400859  0.89750241  0.26398400  1
  Fe  Fe10  1  0.15824545  0.39988629  0.58810049  1
  Fe  Fe11  1  0.15824545  0.10011371  0.08810049  1
  Fe  Fe12  1  0.84175455  0.89988629  0.91189951  1
  Fe  Fe13  1  0.84175455  0.60011371  0.41189951  1
  Fe  Fe14  1  0.02599141  0.10249759  0.73601600  1
  Fe  Fe15  1  0.02599141  0.39750241  0.23601600  1
  C  C16  1  0.36064604  0.23110462  0.93940602  1
  C  C17  1  0.22600836  0.86383520  0.64624121  1
  C  C18  1  0.36064604  0.26889538  0.43940602  1
  C  C19  1  0.22600836  0.63616480  0.14624121  1
  C  C20  1  0.77399164  0.36383520  0.85375879  1
  C  C21  1  0.63935396  0.73110462  0.56059398  1
  C  C22  1  0.77399164  0.13616480  0.35375879  1
  C  C23  1  0.63935396  0.76889538  0.06059398  1
  O  O24  1  0.01795952  0.88273459  0.88021668  1
  O  O25  1  0.23975659  0.16353244  0.92707970  1
  O  O26  1  0.20315523  0.70507042  0.72494264  1
  O  O27  1  0.01795952  0.61726541  0.38021668  1
  O  O28  1  0.14372648  0.03321658  0.60530125  1
  O  O29  1  0.36987126  0.31549653  0.82042832  1
  O  O30  1  0.23975659  0.33646756  0.42707970  1
  O  O31  1  0.33066347  0.84500078  0.61349529  1
  O  O32  1  0.20315523  0.79492958  0.22494264  1
  O  O33  1  0.14372648  0.46678342  0.10530125  1
  O  O34  1  0.47025096  0.29007024  0.57231706  1
  O  O35  1  0.52974904  0.79007024  0.92768294  1
  O  O36  1  0.36987126  0.18450347  0.32042832  1
  O  O37  1  0.33066347  0.65499922  0.11349529  1
  O  O38  1  0.66933653  0.34500078  0.88650471  1
  O  O39  1  0.63012874  0.81549653  0.67957168  1
  O  O40  1  0.47025096  0.20992976  0.07231706  1
  O  O41  1  0.52974904  0.70992976  0.42768294  1
  O  O42  1  0.85627352  0.53321658  0.89469875  1
  O  O43  1  0.79684477  0.20507042  0.77505736  1
  O  O44  1  0.66933653  0.15499922  0.38650471  1
  O  O45  1  0.76024341  0.66353244  0.57292030  1
  O  O46  1  0.63012874  0.68450347  0.17957168  1
  O  O47  1  0.85627352  0.96678342  0.39469875  1
  O  O48  1  0.98204048  0.38273459  0.61978332  1
  O  O49  1  0.79684477  0.29492958  0.27505736  1
  O  O50  1  0.76024341  0.83646756  0.07292030  1
  O  O51  1  0.98204048  0.11726541  0.11978332  1
