# generated using pymatgen
data_Li13Mn8O24
_symmetry_space_group_name_H-M   'P 1'
_cell_length_a   4.97642013
_cell_length_b   8.65708287
_cell_length_c   10.18668803
_cell_angle_alpha   107.01722505
_cell_angle_beta   99.72075902
_cell_angle_gamma   89.65343062
_symmetry_Int_Tables_number   1
_chemical_formula_structural   Li13Mn8O24
_chemical_formula_sum   'Li13 Mn8 O24'
_cell_volume   413.17795735
_cell_formula_units_Z   1
loop_
 _symmetry_equiv_pos_site_id
 _symmetry_equiv_pos_as_xyz
  1  'x, y, z'
loop_
 _atom_site_type_symbol
 _atom_site_label
 _atom_site_symmetry_multiplicity
 _atom_site_fract_x
 _atom_site_fract_y
 _atom_site_fract_z
 _atom_site_occupancy
  Li  Li0  1  0.98889919  0.67422207  0.24864449  1
  Li  Li1  1  0.97841209  0.67231357  0.75349049  1
  Li  Li2  1  0.75000000  0.75000000  0.50000000  1
  Li  Li3  1  0.52158791  0.82768643  0.24650951  1
  Li  Li4  1  0.49718322  0.49567614  0.24670188  1
  Li  Li5  1  0.47525744  0.17389828  0.25035592  1
  Li  Li6  1  0.51110081  0.82577793  0.75135551  1
  Li  Li7  1  0.50273711  0.50139006  0.74900734  1
  Li  Li8  1  0.48087743  0.17149344  0.74807222  1
  Li  Li9  1  0.01912257  0.32850656  0.25192778  1
  Li  Li10  1  0.99726289  0.99860994  0.25099266  1
  Li  Li11  1  0.02474256  0.32610172  0.74964408  1
  Li  Li12  1  0.00281678  0.00432386  0.75329812  1
  Mn  Mn13  1  0.75126124  0.41572676  0.99968668  1
  Mn  Mn14  1  0.74873876  0.08427324  0.00031332  1
  Mn  Mn15  1  0.75311165  0.41364860  0.49991346  1
  Mn  Mn16  1  0.74688835  0.08635140  0.50008654  1
  Mn  Mn17  1  0.25019857  0.91648541  0.00022060  1
  Mn  Mn18  1  0.24980143  0.58351459  0.99977940  1
  Mn  Mn19  1  0.25012048  0.91862995  0.49997637  1
  Mn  Mn20  1  0.24987952  0.58137005  0.50002363  1
  O  O21  1  0.88994790  0.89085255  0.38515997  1
  O  O22  1  0.89254931  0.53160469  0.38804018  1
  O  O23  1  0.84017917  0.21058336  0.38535090  1
  O  O24  1  0.66181659  0.28948858  0.11446594  1
  O  O25  1  0.89639107  0.89683093  0.88339925  1
  O  O26  1  0.89732131  0.52439258  0.88500190  1
  O  O27  1  0.60267869  0.97560742  0.11499810  1
  O  O28  1  0.60360893  0.60316907  0.11660075  1
  O  O29  1  0.83818341  0.21051142  0.88553406  1
  O  O30  1  0.65982083  0.28941664  0.61464910  1
  O  O31  1  0.60745069  0.96839531  0.61195982  1
  O  O32  1  0.61005210  0.60914745  0.61484003  1
  O  O33  1  0.39664547  0.39527432  0.38335425  1
  O  O34  1  0.39487919  0.02628363  0.38581586  1
  O  O35  1  0.35471759  0.71204834  0.38896371  1
  O  O36  1  0.16063841  0.78898273  0.11446103  1
  O  O37  1  0.39727431  0.39700566  0.88266428  1
  O  O38  1  0.39621312  0.02456082  0.88571049  1
  O  O39  1  0.10378688  0.47543918  0.11428951  1
  O  O40  1  0.10272569  0.10299434  0.11733572  1
  O  O41  1  0.33936159  0.71101727  0.88553897  1
  O  O42  1  0.14528241  0.78795166  0.61103629  1
  O  O43  1  0.10512081  0.47371637  0.61418414  1
  O  O44  1  0.10335453  0.10472568  0.61664575  1
