# generated using pymatgen
data_Li4Fe7(PO4)6
_symmetry_space_group_name_H-M   'P 1'
_cell_length_a   8.96418809
_cell_length_b   8.96418809
_cell_length_c   6.57041680
_cell_angle_alpha   80.42937117
_cell_angle_beta   99.57062883
_cell_angle_gamma   74.42957407
_symmetry_Int_Tables_number   1
_chemical_formula_structural   Li4Fe7(PO4)6
_chemical_formula_sum   'Li4 Fe7 P6 O24'
_cell_volume   489.00516649
_cell_formula_units_Z   1
loop_
 _symmetry_equiv_pos_site_id
 _symmetry_equiv_pos_as_xyz
  1  'x, y, z'
loop_
 _atom_site_type_symbol
 _atom_site_label
 _atom_site_symmetry_multiplicity
 _atom_site_fract_x
 _atom_site_fract_y
 _atom_site_fract_z
 _atom_site_occupancy
  Li  Li0  1  0.99707403  0.00292597  0.49738445  1
  Li  Li1  1  0.37004531  0.62995469  0.58106839  1
  Li  Li2  1  0.66920878  0.56160050  0.49685387  1
  Li  Li3  1  0.43839950  0.33079122  0.49685387  1
  Fe  Fe4  1  0.64291452  0.99760730  0.18109136  1
  Fe  Fe5  1  0.00239270  0.35708548  0.18109136  1
  Fe  Fe6  1  0.00167413  0.99832587  0.99785063  1
  Fe  Fe7  1  0.33580190  0.32707210  0.00217801  1
  Fe  Fe8  1  0.67292790  0.66419810  0.00217801  1
  Fe  Fe9  1  0.36273302  0.99197771  0.82269406  1
  Fe  Fe10  1  0.00802229  0.63726798  0.82269406  1
  P  P11  1  0.72323769  0.90176802  0.69883993  1
  P  P12  1  0.09823198  0.27676231  0.69883993  1
  P  P13  1  0.32994254  0.67005746  0.09420933  1
  P  P14  1  0.67685203  0.32314797  0.91619345  1
  P  P15  1  0.28449293  0.07989774  0.30445942  1
  P  P16  1  0.92010226  0.71550707  0.30445942  1
  O  O17  1  0.34878202  0.96207931  0.51900689  1
  O  O18  1  0.03792069  0.65121798  0.51900689  1
  O  O19  1  0.05061328  0.37309576  0.86962957  1
  O  O20  1  0.62690424  0.94938672  0.86962957  1
  O  O21  1  0.19732248  0.80267752  0.12930236  1
  O  O22  1  0.25705188  0.56849131  0.95483109  1
  O  O23  1  0.43150869  0.74294812  0.95483109  1
  O  O24  1  0.90252486  0.89388271  0.75579718  1
  O  O25  1  0.10611729  0.09747514  0.75579718  1
  O  O26  1  0.73124121  0.72137507  0.71125875  1
  O  O27  1  0.27862493  0.26875879  0.71125875  1
  O  O28  1  0.43565001  0.56434999  0.30769179  1
  O  O29  1  0.56391318  0.43608682  0.71010748  1
  O  O30  1  0.29118506  0.25522003  0.29944458  1
  O  O31  1  0.74477997  0.70881494  0.29944458  1
  O  O32  1  0.10177840  0.10234334  0.24037806  1
  O  O33  1  0.89765666  0.89822160  0.24037806  1
  O  O34  1  0.80637504  0.19362496  0.86983983  1
  O  O35  1  0.38115576  0.02759541  0.13701636  1
  O  O36  1  0.97240459  0.61884424  0.13701636  1
  O  O37  1  0.75521172  0.42343270  0.04996910  1
  O  O38  1  0.57656730  0.24478828  0.04996910  1
  O  O39  1  0.98351159  0.35392537  0.48513292  1
  O  O40  1  0.64607563  0.01648841  0.48513292  1
