# generated using pymatgen
data_Li4Mn2Ni3O10
_symmetry_space_group_name_H-M   'P 1'
_cell_length_a   5.09474086
_cell_length_b   5.04246512
_cell_length_c   7.65732187
_cell_angle_alpha   108.84991771
_cell_angle_beta   101.48647553
_cell_angle_gamma   100.97489162
_symmetry_Int_Tables_number   1
_chemical_formula_structural   Li4Mn2Ni3O10
_chemical_formula_sum   'Li4 Mn2 Ni3 O10'
_cell_volume   175.42211294
_cell_formula_units_Z   1
loop_
 _symmetry_equiv_pos_site_id
 _symmetry_equiv_pos_as_xyz
  1  'x, y, z'
loop_
 _atom_site_type_symbol
 _atom_site_label
 _atom_site_symmetry_multiplicity
 _atom_site_fract_x
 _atom_site_fract_y
 _atom_site_fract_z
 _atom_site_occupancy
  Li  Li0  1  0.23056899  0.91669974  0.40956380  1
  Li  Li1  1  0.39520347  0.30079870  0.78067802  1
  Li  Li2  1  0.60479653  0.69920130  0.21932198  1
  Li  Li3  1  0.76943101  0.08330026  0.59043620  1
  Mn  Mn4  1  0.09849845  0.69826990  0.69202328  1
  Mn  Mn5  1  0.90150155  0.30173010  0.30797672  1
  Ni  Ni6  1  0.00000000  0.50000000  0.00000000  1
  Ni  Ni7  1  0.30385237  0.10659048  0.10318684  1
  Ni  Ni8  1  0.69614763  0.89340952  0.89681316  1
  O  O9  1  0.05279496  0.08126334  0.84872645  1
  O  O10  1  0.11288896  0.31539751  0.54574787  1
  O  O11  1  0.32139988  0.70088014  0.93966988  1
  O  O12  1  0.21770275  0.48123616  0.22797007  1
  O  O13  1  0.43291360  0.90008424  0.66874997  1
  O  O14  1  0.56708640  0.09991576  0.33125003  1
  O  O15  1  0.78229725  0.51876384  0.77202993  1
  O  O16  1  0.67860012  0.29911986  0.06033012  1
  O  O17  1  0.88711104  0.68460249  0.45425213  1
  O  O18  1  0.94720504  0.91873666  0.15127355  1
