# generated using pymatgen
data_MgBi
_symmetry_space_group_name_H-M   'P 1'
_cell_length_a   12.88433172
_cell_length_b   3.36848991
_cell_length_c   7.83630451
_cell_angle_alpha   90.00000000
_cell_angle_beta   102.64005191
_cell_angle_gamma   90.00000000
_symmetry_Int_Tables_number   1
_chemical_formula_structural   MgBi
_chemical_formula_sum   'Mg6 Bi6'
_cell_volume   331.85873842
_cell_formula_units_Z   6
loop_
 _symmetry_equiv_pos_site_id
 _symmetry_equiv_pos_as_xyz
  1  'x, y, z'
loop_
 _atom_site_type_symbol
 _atom_site_label
 _atom_site_symmetry_multiplicity
 _atom_site_fract_x
 _atom_site_fract_y
 _atom_site_fract_z
 _atom_site_occupancy
  Mg  Mg0  1  0.49745284  0.50000000  0.99630271  1
  Mg  Mg1  1  0.05118447  -0.00000000  0.61831537  1
  Mg  Mg2  1  0.33852992  -0.00000000  0.66903808  1
  Mg  Mg3  1  0.99745284  0.00000000  0.99630271  1
  Mg  Mg4  1  0.55118447  0.50000000  0.61831537  1
  Mg  Mg5  1  0.83852992  0.50000000  0.66903808  1
  Bi  Bi6  1  0.40614070  0.00000000  0.30075132  1
  Bi  Bi7  1  0.16402109  0.50000000  0.34487768  1
  Bi  Bi8  1  0.20933798  0.50000000  0.90404784  1
  Bi  Bi9  1  0.90614070  0.50000000  0.30075132  1
  Bi  Bi10  1  0.66402109  0.00000000  0.34487768  1
  Bi  Bi11  1  0.70933798  0.00000000  0.90404784  1
