# generated using pymatgen
data_Li3Fe2(SiO4)2
_symmetry_space_group_name_H-M   'P 1'
_cell_length_a   6.10516458
_cell_length_b   11.31618714
_cell_length_c   5.17400675
_cell_angle_alpha   90.00000000
_cell_angle_beta   88.82778662
_cell_angle_gamma   90.00000000
_symmetry_Int_Tables_number   1
_chemical_formula_structural   Li3Fe2(SiO4)2
_chemical_formula_sum   'Li6 Fe4 Si4 O16'
_cell_volume   357.38275304
_cell_formula_units_Z   2
loop_
 _symmetry_equiv_pos_site_id
 _symmetry_equiv_pos_as_xyz
  1  'x, y, z'
loop_
 _atom_site_type_symbol
 _atom_site_label
 _atom_site_symmetry_multiplicity
 _atom_site_fract_x
 _atom_site_fract_y
 _atom_site_fract_z
 _atom_site_occupancy
  Li  Li0  1  0.99239058  0.16584854  0.69803602  1
  Li  Li1  1  0.50760942  0.66584854  0.80196398  1
  Li  Li2  1  0.50860076  0.82817103  0.28815153  1
  Li  Li3  1  0.50705689  0.33034162  0.19757452  1
  Li  Li4  1  0.99139924  0.32817103  0.21184847  1
  Li  Li5  1  0.99294311  0.83034162  0.30242548  1
  Fe  Fe6  1  0.24952044  0.42677768  0.81136071  1
  Fe  Fe7  1  0.25047956  0.92677768  0.68863929  1
  Fe  Fe8  1  0.77610426  0.57571520  0.18230330  1
  Fe  Fe9  1  0.72389574  0.07571520  0.31769670  1
  Si  Si10  1  0.25830262  0.59071518  0.31324488  1
  Si  Si11  1  0.24169738  0.09071518  0.18675512  1
  Si  Si12  1  0.74483335  0.41510291  0.68510205  1
  Si  Si13  1  0.75516665  0.91510291  0.81489795  1
  O  O14  1  0.02521780  0.16193688  0.29817148  1
  O  O15  1  0.04013967  0.66648839  0.25704661  1
  O  O16  1  0.21619205  0.06622632  0.87310598  1
  O  O17  1  0.24078400  0.45469804  0.18046170  1
  O  O18  1  0.28380795  0.56622632  0.62689402  1
  O  O19  1  0.25921600  0.95469804  0.31953830  1
  O  O20  1  0.45986033  0.16648839  0.24295339  1
  O  O21  1  0.47478220  0.66193688  0.20182852  1
  O  O22  1  0.52751678  0.84298867  0.71407370  1
  O  O23  1  0.52205302  0.34665462  0.79919178  1
  O  O24  1  0.74580352  0.54887213  0.79630437  1
  O  O25  1  0.75419648  0.04887213  0.70369563  1
  O  O26  1  0.74577893  0.41082077  0.36668812  1
  O  O27  1  0.75422107  0.91082077  0.13331188  1
  O  O28  1  0.97248322  0.34298867  0.78592630  1
  O  O29  1  0.97794698  0.84665462  0.70080822  1
