# generated using pymatgen
data_Li3Mn2Ni5O12
_symmetry_space_group_name_H-M   'P 1'
_cell_length_a   5.05467104
_cell_length_b   4.94132569
_cell_length_c   9.78186936
_cell_angle_alpha   100.87008776
_cell_angle_beta   95.23662834
_cell_angle_gamma   60.73132261
_symmetry_Int_Tables_number   1
_chemical_formula_structural   Li3Mn2Ni5O12
_chemical_formula_sum   'Li3 Mn2 Ni5 O12'
_cell_volume   209.30468063
_cell_formula_units_Z   1
loop_
 _symmetry_equiv_pos_site_id
 _symmetry_equiv_pos_as_xyz
  1  'x, y, z'
loop_
 _atom_site_type_symbol
 _atom_site_label
 _atom_site_symmetry_multiplicity
 _atom_site_fract_x
 _atom_site_fract_y
 _atom_site_fract_z
 _atom_site_occupancy
  Li  Li0  1  0.85047949  0.82690205  0.00482997  1
  Li  Li1  1  0.84541091  0.32575209  0.49462954  1
  Li  Li2  1  0.16740973  0.91711099  0.25009168  1
  Mn  Mn3  1  0.50372548  0.74849141  0.74988441  1
  Mn  Mn4  1  0.48870433  0.25653058  0.24930445  1
  Ni  Ni5  1  0.84105524  0.58045182  0.24932792  1
  Ni  Ni6  1  0.49410237  0.00081673  0.49635453  1
  Ni  Ni7  1  0.84255610  0.07915348  0.75026183  1
  Ni  Ni8  1  0.49445467  0.50682112  0.00300429  1
  Ni  Ni9  1  0.17325293  0.41360629  0.74981572  1
  O  O10  1  0.79380598  0.96385527  0.36084242  1
  O  O11  1  0.80787459  0.70567675  0.63572804  1
  O  O12  1  0.54178266  0.85811845  0.13849071  1
  O  O13  1  0.80691400  0.48780102  0.86435244  1
  O  O14  1  0.79471896  0.24387161  0.13790397  1
  O  O15  1  0.54078153  0.60288105  0.36015204  1
  O  O16  1  0.50404038  0.37825908  0.63632685  1
  O  O17  1  0.18960820  0.75767141  0.86059420  1
  O  O18  1  0.50170944  0.11966421  0.86335767  1
  O  O19  1  0.17403009  0.53369552  0.14139201  1
  O  O20  1  0.17344439  0.29499527  0.35734640  1
  O  O21  1  0.19041652  0.05285079  0.63912192  1
