# generated using pymatgen
data_Li13Mn8O24
_symmetry_space_group_name_H-M   'P 1'
_cell_length_a   4.99490928
_cell_length_b   8.60629848
_cell_length_c   9.72288549
_cell_angle_alpha   90.00000000
_cell_angle_beta   99.41482000
_cell_angle_gamma   90.00000000
_symmetry_Int_Tables_number   1
_chemical_formula_structural   Li13Mn8O24
_chemical_formula_sum   'Li13 Mn8 O24'
_cell_volume   412.33426377
_cell_formula_units_Z   1
loop_
 _symmetry_equiv_pos_site_id
 _symmetry_equiv_pos_as_xyz
  1  'x, y, z'
loop_
 _atom_site_type_symbol
 _atom_site_label
 _atom_site_symmetry_multiplicity
 _atom_site_fract_x
 _atom_site_fract_y
 _atom_site_fract_z
 _atom_site_occupancy
  Li  Li0  1  0.00000000  0.74781579  0.25000000  1
  Li  Li1  1  0.24672048  0.40539224  0.99938861  1
  Li  Li2  1  0.25416947  0.90531993  0.50402086  1
  Li  Li3  1  0.25060838  0.25002045  0.50008926  1
  Li  Li4  1  0.25221856  0.59436223  0.50126454  1
  Li  Li5  1  0.24990428  0.09452170  0.00280273  1
  Li  Li6  1  0.25779640  0.75000379  0.99856789  1
  Li  Li7  1  0.74583053  0.90531993  0.99597914  1
  Li  Li8  1  0.75327952  0.40539224  0.50061139  1
  Li  Li9  1  0.74220360  0.75000379  0.50143211  1
  Li  Li10  1  0.75009572  0.09452170  0.49719727  1
  Li  Li11  1  0.74778144  0.59436223  0.99873546  1
  Li  Li12  1  0.74939162  0.25002045  0.99991074  1
  Mn  Mn13  1  0.00000000  0.58517586  0.75000000  1
  Mn  Mn14  1  0.00000000  0.91979867  0.75000000  1
  Mn  Mn15  1  0.00000000  0.08305088  0.25000000  1
  Mn  Mn16  1  0.00000000  0.41211186  0.25000000  1
  Mn  Mn17  1  0.50000000  0.08544946  0.75000000  1
  Mn  Mn18  1  0.50000000  0.41955320  0.75000000  1
  Mn  Mn19  1  0.50000000  0.57722863  0.25000000  1
  Mn  Mn20  1  0.50000000  0.91812250  0.25000000  1
  O  O21  1  0.08955634  0.75227669  0.63353101  1
  O  O22  1  0.14871548  0.43776478  0.63607210  1
  O  O23  1  0.14902197  0.06667141  0.63589230  1
  O  O24  1  0.09196763  0.24781101  0.13300898  1
  O  O25  1  0.35129985  0.56648166  0.86451426  1
  O  O26  1  0.35145112  0.93809128  0.86438541  1
  O  O27  1  0.14364792  0.56779157  0.13790957  1
  O  O28  1  0.14382965  0.92768882  0.13779169  1
  O  O29  1  0.40996401  0.25231880  0.86625881  1
  O  O30  1  0.35174303  0.43184126  0.36414501  1
  O  O31  1  0.35205915  0.06366539  0.36407562  1
  O  O32  1  0.39436175  0.74775555  0.36356003  1
  O  O33  1  0.59003599  0.25231880  0.63374119  1
  O  O34  1  0.64854888  0.93809128  0.63561459  1
  O  O35  1  0.64870015  0.56648166  0.63548574  1
  O  O36  1  0.60563825  0.74775555  0.13643997  1
  O  O37  1  0.85097803  0.06667141  0.86410770  1
  O  O38  1  0.85128452  0.43776478  0.86392790  1
  O  O39  1  0.64794085  0.06366539  0.13592438  1
  O  O40  1  0.64825697  0.43184126  0.13585499  1
  O  O41  1  0.91044366  0.75227669  0.86646899  1
  O  O42  1  0.85617035  0.92768882  0.36220831  1
  O  O43  1  0.85635208  0.56779157  0.36209043  1
  O  O44  1  0.90803237  0.24781101  0.36699102  1
