# generated using pymatgen
data_Fe3OF5
_symmetry_space_group_name_H-M   'P 1'
_cell_length_a   4.78262391
_cell_length_b   8.08691111
_cell_length_c   5.79360027
_cell_angle_alpha   92.17326838
_cell_angle_beta   90.00000000
_cell_angle_gamma   90.00000000
_symmetry_Int_Tables_number   1
_chemical_formula_structural   Fe3OF5
_chemical_formula_sum   'Fe6 O2 F10'
_cell_volume   223.91590086
_cell_formula_units_Z   2
loop_
 _symmetry_equiv_pos_site_id
 _symmetry_equiv_pos_as_xyz
  1  'x, y, z'
loop_
 _atom_site_type_symbol
 _atom_site_label
 _atom_site_symmetry_multiplicity
 _atom_site_fract_x
 _atom_site_fract_y
 _atom_site_fract_z
 _atom_site_occupancy
  Fe  Fe0  1  0.51415796  0.66693604  0.16403739  1
  Fe  Fe1  1  0.49226237  0.01405372  0.49618561  1
  Fe  Fe2  1  0.47882519  0.32563299  0.81240255  1
  Fe  Fe3  1  0.97882519  0.67436701  0.68759745  1
  Fe  Fe4  1  0.01415796  0.33306396  0.33596261  1
  Fe  Fe5  1  0.99226237  0.98594628  0.00381439  1
  O  O6  1  0.80953762  0.75379043  0.95550447  1
  O  O7  1  0.30953762  0.24620957  0.54449553  1
  F  F8  1  0.79110227  0.44949830  0.64006800  1
  F  F9  1  0.80480321  0.10098668  0.29581136  1
  F  F10  1  0.71246794  0.11598831  0.80430815  1
  F  F11  1  0.70857014  0.77185095  0.47184888  1
  F  F12  1  0.68827231  0.41629833  0.11662208  1
  F  F13  1  0.29110227  0.55050170  0.85993200  1
  F  F14  1  0.30480321  0.89901332  0.20418864  1
  F  F15  1  0.20857014  0.22814905  0.02815112  1
  F  F16  1  0.18827231  0.58370167  0.38337792  1
  F  F17  1  0.21246794  0.88401169  0.69569185  1
