# generated using pymatgen
data_Li2Fe(Si2O5)2
_symmetry_space_group_name_H-M   'P 1'
_cell_length_a   7.22924173
_cell_length_b   9.94752476
_cell_length_c   13.19814205
_cell_angle_alpha   90.00000000
_cell_angle_beta   82.11602275
_cell_angle_gamma   90.00000000
_symmetry_Int_Tables_number   1
_chemical_formula_structural   Li2Fe(Si2O5)2
_chemical_formula_sum   'Li8 Fe4 Si16 O40'
_cell_volume   940.14759299
_cell_formula_units_Z   4
loop_
 _symmetry_equiv_pos_site_id
 _symmetry_equiv_pos_as_xyz
  1  'x, y, z'
loop_
 _atom_site_type_symbol
 _atom_site_label
 _atom_site_symmetry_multiplicity
 _atom_site_fract_x
 _atom_site_fract_y
 _atom_site_fract_z
 _atom_site_occupancy
  Li  Li0  1  0.11847498  0.64325090  0.89275327  1
  Li  Li1  1  0.17370544  0.40370537  0.26287760  1
  Li  Li2  1  0.32629456  0.90370537  0.23712240  1
  Li  Li3  1  0.38152502  0.14325090  0.60724673  1
  Li  Li4  1  0.61847498  0.85674910  0.39275327  1
  Li  Li5  1  0.67370544  0.09629463  0.76287760  1
  Li  Li6  1  0.82629456  0.59629463  0.73712240  1
  Li  Li7  1  0.88152502  0.35674910  0.10724673  1
  Fe  Fe8  1  0.06247271  0.63803689  0.14333782  1
  Fe  Fe9  1  0.43752729  0.13803689  0.35666218  1
  Fe  Fe10  1  0.56247271  0.86196311  0.64333782  1
  Fe  Fe11  1  0.93752729  0.36196311  0.85666218  1
  Si  Si12  1  0.00101897  0.77194673  0.35795127  1
  Si  Si13  1  0.99593347  0.05260955  0.33133634  1
  Si  Si14  1  0.24030138  0.47547760  0.67352408  1
  Si  Si15  1  0.25454057  0.23340205  0.96447929  1
  Si  Si16  1  0.24545943  0.73340205  0.53552071  1
  Si  Si17  1  0.25969862  0.97547760  0.82647592  1
  Si  Si18  1  0.50101897  0.72805327  0.85795127  1
  Si  Si19  1  0.49593447  0.44739045  0.83133634  1
  Si  Si20  1  0.50406653  0.55260955  0.16866366  1
  Si  Si21  1  0.49898103  0.27194673  0.14204873  1
  Si  Si22  1  0.74030138  0.02452240  0.17352408  1
  Si  Si23  1  0.75454057  0.26659795  0.46447929  1
  Si  Si24  1  0.74545943  0.76659795  0.03552071  1
  Si  Si25  1  0.75969862  0.52452240  0.32647592  1
  Si  Si26  1  0.00406553  0.94739045  0.66866366  1
  Si  Si27  1  0.99898103  0.22805327  0.64204873  1
  O  O28  1  0.05889125  0.94680521  0.78571408  1
  O  O29  1  0.08575736  0.80584859  0.61843283  1
  O  O30  1  0.05973419  0.31779106  0.97961781  1
  O  O31  1  0.08077160  0.52498316  0.76572095  1
  O  O32  1  0.10512713  0.08173315  0.60594295  1
  O  O33  1  0.10360936  0.78463252  0.24222734  1
  O  O34  1  0.18404500  0.32793514  0.62646977  1
  O  O35  1  0.22832410  0.08062663  0.92222793  1
  O  O36  1  0.15480801  0.72164750  0.42925122  1
  O  O37  1  0.27167590  0.58062663  0.57777207  1
  O  O38  1  0.31595500  0.82793514  0.87353023  1
  O  O39  1  0.28536142  0.53492383  0.16694964  1
  O  O40  1  0.21463858  0.03492383  0.33305036  1
  O  O41  1  0.34519199  0.22164750  0.07074878  1
  O  O42  1  0.39487287  0.58173315  0.89405705  1
  O  O43  1  0.41922840  0.02498316  0.73427905  1
  O  O44  1  0.44026581  0.81779106  0.52038219  1
  O  O45  1  0.41424264  0.30584859  0.88156717  1
  O  O46  1  0.44110875  0.44680621  0.71428592  1
  O  O47  1  0.39639064  0.28463252  0.25777266  1
  O  O48  1  0.60360936  0.71536748  0.74222734  1
  O  O49  1  0.55889125  0.55319479  0.28571408  1
  O  O50  1  0.58575736  0.69415141  0.11843283  1
  O  O51  1  0.55973419  0.18220894  0.47961781  1
  O  O52  1  0.58077160  0.97501684  0.26572095  1
  O  O53  1  0.60512713  0.41826685  0.10594295  1
  O  O54  1  0.65480801  0.77835250  0.92925122  1
  O  O55  1  0.78536142  0.96507617  0.66694964  1
  O  O56  1  0.71463858  0.46507617  0.83305036  1
  O  O57  1  0.68404500  0.17206486  0.12646977  1
  O  O58  1  0.72832410  0.41937337  0.42222793  1
  O  O59  1  0.84519199  0.27835250  0.57074878  1
  O  O60  1  0.77167590  0.91937337  0.07777207  1
  O  O61  1  0.81595500  0.67206486  0.37353023  1
  O  O62  1  0.89639064  0.21536748  0.75777266  1
  O  O63  1  0.89487287  0.91826685  0.39405705  1
  O  O64  1  0.91922840  0.47501684  0.23427905  1
  O  O65  1  0.94026581  0.68220894  0.02038219  1
  O  O66  1  0.91424264  0.19415141  0.38156717  1
  O  O67  1  0.94110875  0.05319479  0.21428592  1
