# generated using pymatgen
data_LiFeSiO4
_symmetry_space_group_name_H-M   'P 1'
_cell_length_a   8.71253142
_cell_length_b   8.71255361
_cell_length_c   8.09886205
_cell_angle_alpha   89.99872672
_cell_angle_beta   90.00093055
_cell_angle_gamma   120.00064827
_symmetry_Int_Tables_number   1
_chemical_formula_structural   LiFeSiO4
_chemical_formula_sum   'Li6 Fe6 Si6 O24'
_cell_volume   532.40437667
_cell_formula_units_Z   6
loop_
 _symmetry_equiv_pos_site_id
 _symmetry_equiv_pos_as_xyz
  1  'x, y, z'
loop_
 _atom_site_type_symbol
 _atom_site_label
 _atom_site_symmetry_multiplicity
 _atom_site_fract_x
 _atom_site_fract_y
 _atom_site_fract_z
 _atom_site_occupancy
  Li  Li0  1  0.33332693  0.66666172  0.26364084  1
  Li  Li1  1  0.33331800  0.66667528  0.71546019  1
  Li  Li2  1  0.99998986  0.99998472  0.11301261  1
  Li  Li3  1  0.99999063  0.99999278  0.61300955  1
  Li  Li4  1  0.66666048  0.33333744  0.76365109  1
  Li  Li5  1  0.66664665  0.33332857  0.21546559  1
  Fe  Fe6  1  0.02933034  0.68815283  0.40325180  1
  Fe  Fe7  1  0.31183723  0.34117141  0.40326350  1
  Fe  Fe8  1  0.65881206  0.97066907  0.40326312  1
  Fe  Fe9  1  0.34117697  0.02933249  0.90325932  1
  Fe  Fe10  1  0.68814423  0.65882407  0.90325140  1
  Fe  Fe11  1  0.97067162  0.31184692  0.90325478  1
  Si  Si12  1  0.03988896  0.68524666  0.01765112  1
  Si  Si13  1  0.31473158  0.35463375  0.01766035  1
  Si  Si14  1  0.64536270  0.96010337  0.01766842  1
  Si  Si15  1  0.35464146  0.03990424  0.51765889  1
  Si  Si16  1  0.68524971  0.64536145  0.51765440  1
  Si  Si17  1  0.96008306  0.31472885  0.51766638  1
  O  O18  1  0.13655415  0.90962424  0.51596192  1
  O  O19  1  0.14607017  0.73097318  0.19573610  1
  O  O20  1  0.09253681  0.52931304  0.49730473  1
  O  O21  1  0.19494824  0.77906456  0.87401470  1
  O  O22  1  0.22094422  0.41588931  0.87403272  1
  O  O23  1  0.43676273  0.90748670  0.49732205  1
  O  O24  1  0.09037532  0.22694464  0.51599299  1
  O  O25  1  0.26903449  0.41509384  0.19573502  1
  O  O26  1  0.58488751  0.85393464  0.19573911  1
  O  O27  1  0.47069935  0.56323022  0.49729468  1
  O  O28  1  0.22693365  0.13655243  0.01597948  1
  O  O29  1  0.58411503  0.80505921  0.87402806  1
  O  O30  1  0.41588838  0.19495704  0.37402365  1
  O  O31  1  0.77305208  0.86342590  0.51597119  1
  O  O32  1  0.52930025  0.43676367  0.99729950  1
  O  O33  1  0.41508724  0.14607640  0.69573849  1
  O  O34  1  0.73095465  0.58489153  0.69573523  1
  O  O35  1  0.90961997  0.77305364  0.01596433  1
  O  O36  1  0.56322634  0.09253208  0.99730531  1
  O  O37  1  0.77905892  0.58410980  0.37401780  1
  O  O38  1  0.80505087  0.22094283  0.37403575  1
  O  O39  1  0.90748009  0.47070727  0.99730506  1
  O  O40  1  0.85392679  0.26904067  0.69573514  1
  O  O41  1  0.86343526  0.09037752  0.01598562  1
