# generated using pymatgen
data_Li2VF7
_symmetry_space_group_name_H-M   'P 1'
_cell_length_a   6.97349142
_cell_length_b   7.04796613
_cell_length_c   10.19833603
_cell_angle_alpha   90.00000000
_cell_angle_beta   90.00000000
_cell_angle_gamma   90.00000000
_symmetry_Int_Tables_number   1
_chemical_formula_structural   Li2VF7
_chemical_formula_sum   'Li8 V4 F28'
_cell_volume   501.23731728
_cell_formula_units_Z   4
loop_
 _symmetry_equiv_pos_site_id
 _symmetry_equiv_pos_as_xyz
  1  'x, y, z'
loop_
 _atom_site_type_symbol
 _atom_site_label
 _atom_site_symmetry_multiplicity
 _atom_site_fract_x
 _atom_site_fract_y
 _atom_site_fract_z
 _atom_site_occupancy
  Li  Li0  1  0.13081092  0.25000000  0.74892662  1
  Li  Li1  1  0.16911525  0.75000000  0.00078864  1
  Li  Li2  1  0.33088475  0.25000000  0.50078864  1
  Li  Li3  1  0.36918908  0.75000000  0.24892662  1
  Li  Li4  1  0.63081092  0.25000000  0.75107338  1
  Li  Li5  1  0.66911525  0.75000000  0.49921136  1
  Li  Li6  1  0.83088475  0.25000000  0.99921136  1
  Li  Li7  1  0.86918908  0.75000000  0.25107338  1
  V  V8  1  0.19475443  0.75000000  0.55864411  1
  V  V9  1  0.30524557  0.25000000  0.05864411  1
  V  V10  1  0.69475443  0.75000000  0.94135589  1
  V  V11  1  0.80524557  0.25000000  0.44135589  1
  F  F12  1  0.04631397  0.25000000  0.51395483  1
  F  F13  1  0.05700071  0.25000000  0.11381886  1
  F  F14  1  0.11692701  0.75000000  0.17744597  1
  F  F15  1  0.12893569  0.56989625  0.67327782  1
  F  F16  1  0.12893569  0.93010375  0.67327782  1
  F  F17  1  0.23606417  0.06763048  0.93943096  1
  F  F18  1  0.23606417  0.43236952  0.93943096  1
  F  F19  1  0.26393583  0.56763048  0.43943096  1
  F  F20  1  0.26393583  0.93236952  0.43943096  1
  F  F21  1  0.37106431  0.06989625  0.17327782  1
  F  F22  1  0.37106431  0.43010375  0.17327782  1
  F  F23  1  0.38307299  0.25000000  0.67744597  1
  F  F24  1  0.44299929  0.75000000  0.61381886  1
  F  F25  1  0.45368603  0.75000000  0.01395483  1
  F  F26  1  0.54631397  0.25000000  0.98604517  1
  F  F27  1  0.55700071  0.25000000  0.38618114  1
  F  F28  1  0.61692701  0.75000000  0.32255403  1
  F  F29  1  0.62893569  0.93010375  0.82672218  1
  F  F30  1  0.62893569  0.56989625  0.82672218  1
  F  F31  1  0.73606417  0.06763048  0.56056904  1
  F  F32  1  0.73606417  0.43236952  0.56056904  1
  F  F33  1  0.76393583  0.93236952  0.06056904  1
  F  F34  1  0.76393583  0.56763048  0.06056904  1
  F  F35  1  0.87106431  0.06989625  0.32672218  1
  F  F36  1  0.87106431  0.43010375  0.32672218  1
  F  F37  1  0.88307299  0.25000000  0.82255403  1
  F  F38  1  0.94299929  0.75000000  0.88618114  1
  F  F39  1  0.95368603  0.75000000  0.48604517  1
