# generated using pymatgen
data_FeOF
_symmetry_space_group_name_H-M   'P 1'
_cell_length_a   14.22311565
_cell_length_b   14.26320650
_cell_length_c   3.10301293
_cell_angle_alpha   90.00000000
_cell_angle_beta   90.00000000
_cell_angle_gamma   90.23198807
_symmetry_Int_Tables_number   1
_chemical_formula_structural   FeOF
_chemical_formula_sum   'Fe18 O18 F18'
_cell_volume   629.49449536
_cell_formula_units_Z   18
loop_
 _symmetry_equiv_pos_site_id
 _symmetry_equiv_pos_as_xyz
  1  'x, y, z'
loop_
 _atom_site_type_symbol
 _atom_site_label
 _atom_site_symmetry_multiplicity
 _atom_site_fract_x
 _atom_site_fract_y
 _atom_site_fract_z
 _atom_site_occupancy
  Fe  Fe0  1  0.01215344  0.99605689  0.00000000  1
  Fe  Fe1  1  0.00792953  0.32661422  0.00000000  1
  Fe  Fe2  1  0.00607947  0.67015132  0.00000000  1
  Fe  Fe3  1  0.15424277  0.16348024  0.50000000  1
  Fe  Fe4  1  0.16619238  0.52059171  0.50000000  1
  Fe  Fe5  1  0.15324340  0.82983824  0.50000000  1
  Fe  Fe6  1  0.34530525  0.99592122  0.00000000  1
  Fe  Fe7  1  0.34342932  0.33453514  0.00000000  1
  Fe  Fe8  1  0.33657987  0.65570627  0.00000000  1
  Fe  Fe9  1  0.48704737  0.49999870  0.50000000  1
  Fe  Fe10  1  0.48251392  0.16772033  0.50000000  1
  Fe  Fe11  1  0.50434896  0.84731893  0.50000000  1
  Fe  Fe12  1  0.66738438  0.99787810  0.00000000  1
  Fe  Fe13  1  0.67988246  0.33125279  0.00000000  1
  Fe  Fe14  1  0.68030113  0.66636921  0.00000000  1
  Fe  Fe15  1  0.81639311  0.15997534  0.50000000  1
  Fe  Fe16  1  0.81988264  0.49960802  0.50000000  1
  Fe  Fe17  1  0.83818006  0.81350071  0.50000000  1
  O  O18  1  0.06502628  0.27031235  0.50000000  1
  O  O19  1  0.06236348  0.60045065  0.50000000  1
  O  O20  1  0.06405213  0.93552605  0.50000000  1
  O  O21  1  0.10068878  0.10276295  0.00000000  1
  O  O22  1  0.10641431  0.76800831  0.00000000  1
  O  O23  1  0.23346950  0.56741202  0.00000000  1
  O  O24  1  0.39572636  0.27056348  0.50000000  1
  O  O25  1  0.40283205  0.60702075  0.50000000  1
  O  O26  1  0.39767593  0.93273164  0.50000000  1
  O  O27  1  0.43472171  0.10135547  0.00000000  1
  O  O28  1  0.43407532  0.43689153  0.00000000  1
  O  O29  1  0.57075719  0.90225568  0.00000000  1
  O  O30  1  0.73119815  0.26578968  0.50000000  1
  O  O31  1  0.73122254  0.60284289  0.50000000  1
  O  O32  1  0.76399998  0.09536809  0.00000000  1
  O  O33  1  0.76881954  0.43385600  0.00000000  1
  O  O34  1  0.76574661  0.77188739  0.00000000  1
  O  O35  1  0.93737822  0.72928364  0.50000000  1
  F  F36  1  0.09938543  0.43521450  0.00000000  1
  F  F37  1  0.23147939  0.23199626  0.00000000  1
  F  F38  1  0.23252762  0.90217511  0.00000000  1
  F  F39  1  0.26803123  0.06630856  0.50000000  1
  F  F40  1  0.27385261  0.73748441  0.50000000  1
  F  F41  1  0.26310955  0.39673660  0.50000000  1
  F  F42  1  0.43821944  0.77172659  0.00000000  1
  F  F43  1  0.56432992  0.23293217  0.00000000  1
  F  F44  1  0.56688123  0.56481350  0.00000000  1
  F  F45  1  0.60205905  0.06788336  0.50000000  1
  F  F46  1  0.60126145  0.39815194  0.50000000  1
  F  F47  1  0.59701433  0.73106199  0.50000000  1
  F  F48  1  0.73445871  0.93616390  0.50000000  1
  F  F49  1  0.89682278  0.23004316  0.00000000  1
  F  F50  1  0.89743584  0.55961925  0.00000000  1
  F  F51  1  0.89716403  0.90233187  0.00000000  1
  F  F52  1  0.93227460  0.06754853  0.50000000  1
  F  F53  1  0.93643624  0.39697335  0.50000000  1
