# generated using pymatgen
data_Li4Mn2Co3Cu3O16
_symmetry_space_group_name_H-M   'P 1'
_cell_length_a   5.78825854
_cell_length_b   5.73890159
_cell_length_c   9.29604395
_cell_angle_alpha   90.00067626
_cell_angle_beta   88.54051631
_cell_angle_gamma   119.71838645
_symmetry_Int_Tables_number   1
_chemical_formula_structural   Li4Mn2Co3Cu3O16
_chemical_formula_sum   'Li4 Mn2 Co3 Cu3 O16'
_cell_volume   268.06749956
_cell_formula_units_Z   1
loop_
 _symmetry_equiv_pos_site_id
 _symmetry_equiv_pos_as_xyz
  1  'x, y, z'
loop_
 _atom_site_type_symbol
 _atom_site_label
 _atom_site_symmetry_multiplicity
 _atom_site_fract_x
 _atom_site_fract_y
 _atom_site_fract_z
 _atom_site_occupancy
  Li  Li0  1  0.32626007  0.66281128  0.89641942  1
  Li  Li1  1  0.99927535  0.99949766  0.99427263  1
  Li  Li2  1  0.99743085  0.99893578  0.49437313  1
  Li  Li3  1  0.67592962  0.33820113  0.40188494  1
  Mn  Mn4  1  0.34250626  0.67151067  0.49241594  1
  Mn  Mn5  1  0.65773149  0.32859720  0.97976569  1
  Co  Co6  1  0.65996924  0.82991852  0.21098408  1
  Co  Co7  1  0.83023995  0.65971800  0.71333449  1
  Co  Co8  1  0.83027382  0.17056171  0.71335194  1
  Cu  Cu9  1  0.17066082  0.83138165  0.21386236  1
  Cu  Cu10  1  0.17045847  0.33933540  0.21399094  1
  Cu  Cu11  1  0.33635522  0.16807048  0.71186623  1
  O  O12  1  0.15970304  0.82922240  0.59300439  1
  O  O13  1  0.05188378  0.52648032  0.35107083  1
  O  O14  1  0.34272834  0.67147543  0.11005430  1
  O  O15  1  0.98705232  0.99334214  0.30284471  1
  O  O16  1  0.99060284  0.99555239  0.80400330  1
  O  O17  1  0.15933235  0.33118535  0.59285733  1
  O  O18  1  0.50059764  0.96469965  0.34469430  1
  O  O19  1  0.49911571  0.53496269  0.34434489  1
  O  O20  1  0.32811126  0.16381318  0.09352106  1
  O  O21  1  0.66896096  0.83442871  0.60137138  1
  O  O22  1  0.52517639  0.48773663  0.84290800  1
  O  O23  1  0.52587352  0.03685355  0.84302420  1
  O  O24  1  0.67482268  0.33727707  0.61315937  1
  O  O25  1  0.81449225  0.66323818  0.09840990  1
  O  O26  1  0.95893046  0.47964322  0.83722613  1
  O  O27  1  0.81552632  0.15184864  0.09882212  1
