# generated using pymatgen
data_Li4V(CO3)4
_symmetry_space_group_name_H-M   'P 1'
_cell_length_a   11.10862023
_cell_length_b   9.92564105
_cell_length_c   8.33440352
_cell_angle_alpha   89.95929079
_cell_angle_beta   91.16460182
_cell_angle_gamma   89.70343522
_symmetry_Int_Tables_number   1
_chemical_formula_structural   Li4V(CO3)4
_chemical_formula_sum   'Li16 V4 C16 O48'
_cell_volume   918.75036704
_cell_formula_units_Z   4
loop_
 _symmetry_equiv_pos_site_id
 _symmetry_equiv_pos_as_xyz
  1  'x, y, z'
loop_
 _atom_site_type_symbol
 _atom_site_label
 _atom_site_symmetry_multiplicity
 _atom_site_fract_x
 _atom_site_fract_y
 _atom_site_fract_z
 _atom_site_occupancy
  Li  Li0  1  0.14272652  0.14537371  0.57550227  1
  Li  Li1  1  0.12776863  0.36013089  0.08644646  1
  Li  Li2  1  0.21658030  0.89077004  0.69455169  1
  Li  Li3  1  0.20769547  0.60812234  0.19169888  1
  Li  Li4  1  0.32249078  0.66892872  0.52319248  1
  Li  Li5  1  0.33274704  0.83067448  0.02489672  1
  Li  Li6  1  0.41661539  0.40624878  0.09414063  1
  Li  Li7  1  0.58045026  0.90438058  0.40495976  1
  Li  Li8  1  0.67127478  0.17076342  0.97322699  1
  Li  Li9  1  0.66077347  0.33174393  0.47124722  1
  Li  Li10  1  0.77879091  0.40822743  0.80317945  1
  Li  Li11  1  0.78364542  0.09288688  0.30628267  1
  Li  Li12  1  0.86359082  0.67217017  0.93357074  1
  Li  Li13  1  0.87713265  0.82789196  0.43003896  1
  Li  Li14  1  0.96436235  0.11604048  0.96838784  1
  Li  Li15  1  0.95923833  0.38221631  0.46630139  1
  V  V16  1  0.28889482  0.40448442  0.73456599  1
  V  V17  1  0.28751787  0.09550177  0.23142540  1
  V  V18  1  0.71068499  0.90831062  0.76242847  1
  V  V19  1  0.71249830  0.59338404  0.26667808  1
  C  C20  1  0.02948301  0.35859667  0.76975896  1
  C  C21  1  0.02816555  0.13560987  0.26926089  1
  C  C22  1  0.21665736  0.62735842  0.84776789  1
  C  C23  1  0.21566290  0.87449022  0.34195339  1
  C  C24  1  0.28920874  0.12974322  0.87716404  1
  C  C25  1  0.28378768  0.36611088  0.37525934  1
  C  C26  1  0.49556243  0.85961595  0.70109966  1
  C  C27  1  0.49269913  0.64310772  0.21896983  1
  C  C28  1  0.50412420  0.35863394  0.79565269  1
  C  C29  1  0.50618639  0.14529786  0.27822080  1
  C  C30  1  0.71495825  0.63757104  0.62055490  1
  C  C31  1  0.71826509  0.86262756  0.12304183  1
  C  C32  1  0.77902284  0.13081047  0.64952625  1
  C  C33  1  0.78124376  0.37066603  0.15545940  1
  C  C34  1  0.96743587  0.90193867  0.73025653  1
  C  C35  1  0.96828067  0.59595715  0.23236908  1
  O  O36  1  0.99974227  0.83876446  0.60640568  1
  O  O37  1  0.99549633  0.66154670  0.10846039  1
  O  O38  1  0.01578626  0.00808015  0.78517004  1
  O  O39  1  0.02046733  0.48805638  0.28051851  1
  O  O40  1  0.12987850  0.33546162  0.68167715  1
  O  O41  1  0.12558791  0.16238339  0.17686125  1
  O  O42  1  0.20791536  0.74794810  0.89135051  1
  O  O43  1  0.20705466  0.52001618  0.93694024  1
  O  O44  1  0.20278458  0.75507035  0.38792932  1
  O  O45  1  0.21479164  0.98319902  0.43035107  1
  O  O46  1  0.24195718  0.59535604  0.69850784  1
  O  O47  1  0.23684799  0.90491416  0.19170848  1
  O  O48  1  0.29042323  0.25927407  0.90674882  1
  O  O49  1  0.26275591  0.07934248  0.74276089  1
  O  O50  1  0.28040620  0.23717682  0.40630051  1
  O  O51  1  0.26813103  0.41432571  0.23399706  1
  O  O52  1  0.31835542  0.04989464  0.99921769  1
  O  O53  1  0.30415778  0.44898371  0.49380543  1
  O  O54  1  0.39489721  0.82337805  0.64427470  1
  O  O55  1  0.39013764  0.67067367  0.16061098  1
  O  O56  1  0.43895184  0.45645656  0.86079009  1
  O  O57  1  0.45189303  0.03012555  0.30989878  1
  O  O58  1  0.44701184  0.30217114  0.67523579  1
  O  O59  1  0.44039808  0.22363475  0.18571325  1
  O  O60  1  0.55401182  0.80190861  0.81994691  1
  O  O61  1  0.55789636  0.72322884  0.30894658  1
  O  O62  1  0.55883526  0.95988811  0.63883316  1
  O  O63  1  0.54825011  0.52693341  0.19202254  1
  O  O64  1  0.60578640  0.32346343  0.84996397  1
  O  O65  1  0.60890247  0.17425357  0.33390131  1
  O  O66  1  0.68535613  0.55412202  0.50285188  1
  O  O67  1  0.69592948  0.94665840  0.00597979  1
  O  O68  1  0.73936436  0.59385687  0.75915066  1
  O  O69  1  0.71721970  0.76633840  0.58433840  1
  O  O70  1  0.73329169  0.90644610  0.26567843  1
  O  O71  1  0.72506134  0.73354201  0.09008849  1
  O  O72  1  0.76170398  0.09956788  0.80198566  1
  O  O73  1  0.76502534  0.39998848  0.30829810  1
  O  O74  1  0.78462542  0.02409854  0.55973762  1
  O  O75  1  0.78533673  0.25087371  0.60340719  1
  O  O76  1  0.77999793  0.47925562  0.06767427  1
  O  O77  1  0.79295569  0.25194284  0.10708390  1
  O  O78  1  0.87243357  0.85020489  0.81471035  1
  O  O79  1  0.87644091  0.64532291  0.32446462  1
  O  O80  1  0.94929823  0.43178138  0.70256791  1
  O  O81  1  0.95036615  0.05726756  0.20821279  1
  O  O82  1  0.02066208  0.30249736  0.90614310  1
  O  O83  1  0.01947867  0.19508869  0.40437631  1
