# generated using pymatgen
data_FeOF
_symmetry_space_group_name_H-M   'P 1'
_cell_length_a   4.76317349
_cell_length_b   4.76624695
_cell_length_c   9.23102721
_cell_angle_alpha   90.00000000
_cell_angle_beta   89.95201743
_cell_angle_gamma   90.00000000
_symmetry_Int_Tables_number   1
_chemical_formula_structural   FeOF
_chemical_formula_sum   'Fe6 O6 F6'
_cell_volume   209.56696312
_cell_formula_units_Z   6
loop_
 _symmetry_equiv_pos_site_id
 _symmetry_equiv_pos_as_xyz
  1  'x, y, z'
loop_
 _atom_site_type_symbol
 _atom_site_label
 _atom_site_symmetry_multiplicity
 _atom_site_fract_x
 _atom_site_fract_y
 _atom_site_fract_z
 _atom_site_occupancy
  Fe  Fe0  1  0.96279482  0.96234315  -0.00005379  1
  Fe  Fe1  1  0.02896849  0.02661505  0.33266963  1
  Fe  Fe2  1  0.04736513  0.00659961  0.66749384  1
  Fe  Fe3  1  0.47103151  0.52661505  0.83399737  1
  Fe  Fe4  1  0.53720518  0.46234315  0.16671979  1
  Fe  Fe5  1  0.45263487  0.50659961  0.49917316  1
  O  O6  1  0.19475438  0.82291249  0.49674872  1
  O  O7  1  0.18184420  0.81178554  0.83724890  1
  O  O8  1  0.30524562  0.32291249  0.66991828  1
  O  O9  1  0.31815580  0.31178554  0.32941810  1
  O  O10  1  0.67938957  0.67355971  0.00063067  1
  O  O11  1  0.82061043  0.17355971  0.16603633  1
  F  F12  1  0.20012314  0.78945704  0.16633184  1
  F  F13  1  0.29987686  0.28945704  0.00033516  1
  F  F14  1  0.69284150  0.71161855  0.66469013  1
  F  F15  1  0.70676989  0.69510986  0.33467881  1
  F  F16  1  0.79323011  0.19510986  0.83198819  1
  F  F17  1  0.80715850  0.21161855  0.50197687  1
