# generated using pymatgen
data_FeOF
_symmetry_space_group_name_H-M   'P 1'
_cell_length_a   9.46383047
_cell_length_b   14.25668328
_cell_length_c   3.08528457
_cell_angle_alpha   90.00000000
_cell_angle_beta   90.00000000
_cell_angle_gamma   90.04681290
_symmetry_Int_Tables_number   1
_chemical_formula_structural   FeOF
_chemical_formula_sum   'Fe12 O12 F12'
_cell_volume   416.27519750
_cell_formula_units_Z   12
loop_
 _symmetry_equiv_pos_site_id
 _symmetry_equiv_pos_as_xyz
  1  'x, y, z'
loop_
 _atom_site_type_symbol
 _atom_site_label
 _atom_site_symmetry_multiplicity
 _atom_site_fract_x
 _atom_site_fract_y
 _atom_site_fract_z
 _atom_site_occupancy
  Fe  Fe0  1  0.01939222  0.99944089  0.00000000  1
  Fe  Fe1  1  0.00504433  0.33486856  0.00000000  1
  Fe  Fe2  1  0.01663032  0.66175238  0.00000000  1
  Fe  Fe3  1  0.25592771  0.14868392  0.50000000  1
  Fe  Fe4  1  0.22715078  0.49528436  0.50000000  1
  Fe  Fe5  1  0.22594944  0.82915111  0.50000000  1
  Fe  Fe6  1  0.51878454  0.33128648  0.00000000  1
  Fe  Fe7  1  0.50625195  0.00190880  0.00000000  1
  Fe  Fe8  1  0.51682091  0.66511143  0.00000000  1
  Fe  Fe9  1  0.76221661  0.18615925  0.50000000  1
  Fe  Fe10  1  0.72476911  0.50004922  0.50000000  1
  Fe  Fe11  1  0.72470783  0.83455143  0.50000000  1
  O  O12  1  0.08890901  0.59481737  0.50000000  1
  O  O13  1  0.09699422  0.93621330  0.50000000  1
  O  O14  1  0.14794495  0.10757302  0.00000000  1
  O  O15  1  0.15060921  0.76509725  0.00000000  1
  O  O16  1  0.14939458  0.42917689  0.00000000  1
  O  O17  1  0.41078225  0.06623428  0.50000000  1
  O  O18  1  0.59800866  0.26916744  0.50000000  1
  O  O19  1  0.60110189  0.94018936  0.50000000  1
  O  O20  1  0.58891669  0.59940588  0.50000000  1
  O  O21  1  0.65300365  0.43448341  0.00000000  1
  O  O22  1  0.65035996  0.76770039  0.00000000  1
  O  O23  1  0.86050663  0.23971309  0.00000000  1
  F  F24  1  0.10466091  0.27244407  0.50000000  1
  F  F25  1  0.34470456  0.23790419  0.00000000  1
  F  F26  1  0.34055091  0.56279143  0.00000000  1
  F  F27  1  0.34746910  0.89206237  0.00000000  1
  F  F28  1  0.39955738  0.39905394  0.50000000  1
  F  F29  1  0.39700831  0.72764607  0.50000000  1
  F  F30  1  0.66989240  0.10908227  0.00000000  1
  F  F31  1  0.84955604  0.89808809  0.00000000  1
  F  F32  1  0.84368667  0.56577467  0.00000000  1
  F  F33  1  0.89910076  0.06600976  0.50000000  1
  F  F34  1  0.90345274  0.40415860  0.50000000  1
  F  F35  1  0.90018375  0.72696503  0.50000000  1
