# generated using pymatgen
data_Li2Fe3(CoO4)3
_symmetry_space_group_name_H-M   'P 1'
_cell_length_a   6.71085846
_cell_length_b   5.97753663
_cell_length_c   5.85011895
_cell_angle_alpha   89.96317189
_cell_angle_beta   103.27992254
_cell_angle_gamma   74.81190392
_symmetry_Int_Tables_number   1
_chemical_formula_structural   Li2Fe3(CoO4)3
_chemical_formula_sum   'Li2 Fe3 Co3 O12'
_cell_volume   219.95830780
_cell_formula_units_Z   1
loop_
 _symmetry_equiv_pos_site_id
 _symmetry_equiv_pos_as_xyz
  1  'x, y, z'
loop_
 _atom_site_type_symbol
 _atom_site_label
 _atom_site_symmetry_multiplicity
 _atom_site_fract_x
 _atom_site_fract_y
 _atom_site_fract_z
 _atom_site_occupancy
  Li  Li0  1  0.68132717  0.31807247  0.68623107  1
  Li  Li1  1  0.31867283  0.68192753  0.31376893  1
  Fe  Fe2  1  0.32549484  0.15401336  0.83298961  1
  Fe  Fe3  1  0.00000000  0.50000000  0.50000000  1
  Fe  Fe4  1  0.67450516  0.84598664  0.16701039  1
  Co  Co5  1  0.33067823  0.16640707  0.33397158  1
  Co  Co6  1  0.00000000  0.50000000  0.00000000  1
  Co  Co7  1  0.66932177  0.83359293  0.66602842  1
  O  O8  1  0.02983361  0.27287734  0.24466322  1
  O  O9  1  0.00726319  0.29044869  0.75570140  1
  O  O10  1  0.63710254  0.06785457  0.42796833  1
  O  O11  1  0.30141369  0.39349133  0.09123149  1
  O  O12  1  0.64559984  0.05764968  0.89326281  1
  O  O13  1  0.31570968  0.38764566  0.56802201  1
  O  O14  1  0.68429032  0.61235434  0.43197799  1
  O  O15  1  0.35440016  0.94235032  0.10673719  1
  O  O16  1  0.69858631  0.60650867  0.90876851  1
  O  O17  1  0.36289746  0.93214543  0.57203167  1
  O  O18  1  0.99273681  0.70955131  0.24429860  1
  O  O19  1  0.97016639  0.72712266  0.75533678  1
