# generated using pymatgen
data_LiNiPO4
_symmetry_space_group_name_H-M   'P 1'
_cell_length_a   9.26248247
_cell_length_b   5.49099627
_cell_length_c   6.21881782
_cell_angle_alpha   103.40297890
_cell_angle_beta   105.06881561
_cell_angle_gamma   79.66960773
_symmetry_Int_Tables_number   1
_chemical_formula_structural   LiNiPO4
_chemical_formula_sum   'Li4 Ni4 P4 O16'
_cell_volume   294.70015222
_cell_formula_units_Z   4
loop_
 _symmetry_equiv_pos_site_id
 _symmetry_equiv_pos_as_xyz
  1  'x, y, z'
loop_
 _atom_site_type_symbol
 _atom_site_label
 _atom_site_symmetry_multiplicity
 _atom_site_fract_x
 _atom_site_fract_y
 _atom_site_fract_z
 _atom_site_occupancy
  Li  Li0  1  0.10826195  0.32536466  0.35957907  1
  Li  Li1  1  0.24777819  0.81451835  0.47090183  1
  Li  Li2  1  0.75222181  0.18548165  0.52909817  1
  Li  Li3  1  0.89173805  0.67463534  0.64042093  1
  Ni  Ni4  1  0.21252895  0.68600864  0.93487950  1
  Ni  Ni5  1  0.41879242  0.22248219  0.16280497  1
  Ni  Ni6  1  0.58120758  0.77751781  0.83719503  1
  Ni  Ni7  1  0.78747105  0.31399136  0.06512050  1
  P  P8  1  0.08337168  0.18533210  0.82986881  1
  P  P9  1  0.45748315  0.31977086  0.70159393  1
  P  P10  1  0.54251685  0.68022914  0.29840607  1
  P  P11  1  0.91662832  0.81466790  0.17013119  1
  O  O12  1  0.10951877  0.38711507  0.70695700  1
  O  O13  1  0.11867593  0.91186782  0.69779068  1
  O  O14  1  0.08461094  0.77060203  0.16268661  1
  O  O15  1  0.18627904  0.20858448  0.07273283  1
  O  O16  1  0.44095471  0.13578598  0.84500181  1
  O  O17  1  0.38157109  0.59658301  0.76889159  1
  O  O18  1  0.38342864  0.21173313  0.45735028  1
  O  O19  1  0.37262944  0.64401486  0.25293522  1
  O  O20  1  0.62737056  0.35598514  0.74706478  1
  O  O21  1  0.61657136  0.78826687  0.54264972  1
  O  O22  1  0.61842891  0.40341699  0.23110841  1
  O  O23  1  0.55904529  0.86421402  0.15499819  1
  O  O24  1  0.81372096  0.79141552  0.92726717  1
  O  O25  1  0.91538906  0.22939797  0.83731339  1
  O  O26  1  0.88132407  0.08813218  0.30220932  1
  O  O27  1  0.89048123  0.61288493  0.29304300  1
