# generated using pymatgen
data_Li4CoO4
_symmetry_space_group_name_H-M   'P 1'
_cell_length_a   9.21639249
_cell_length_b   6.71207958
_cell_length_c   6.31184861
_cell_angle_alpha   89.99996964
_cell_angle_beta   90.00008786
_cell_angle_gamma   90.00018276
_symmetry_Int_Tables_number   1
_chemical_formula_structural   Li4CoO4
_chemical_formula_sum   'Li16 Co4 O16'
_cell_volume   390.45827571
_cell_formula_units_Z   4
loop_
 _symmetry_equiv_pos_site_id
 _symmetry_equiv_pos_as_xyz
  1  'x, y, z'
loop_
 _atom_site_type_symbol
 _atom_site_label
 _atom_site_symmetry_multiplicity
 _atom_site_fract_x
 _atom_site_fract_y
 _atom_site_fract_z
 _atom_site_occupancy
  Li  Li0  1  0.08769947  0.68096628  0.49999972  1
  Li  Li1  1  0.13045608  0.96197190  0.24668838  1
  Li  Li2  1  0.13045608  0.96197077  0.75331169  1
  Li  Li3  1  0.18035632  0.24932043  0.50000044  1
  Li  Li4  1  0.31966644  0.74932211  0.00000063  1
  Li  Li5  1  0.36954729  0.46195653  0.25331433  1
  Li  Li6  1  0.36954698  0.46195835  0.74668573  1
  Li  Li7  1  0.41230255  0.18097642  0.00000013  1
  Li  Li8  1  0.58769708  0.81902374  0.99999990  1
  Li  Li9  1  0.63045316  0.53804040  0.25331378  1
  Li  Li10  1  0.63045279  0.53804150  0.74668681  1
  Li  Li11  1  0.68033684  0.25067885  0.99999958  1
  Li  Li12  1  0.81964966  0.75068052  0.50000066  1
  Li  Li13  1  0.86954166  0.03802821  0.24668957  1
  Li  Li14  1  0.86954236  0.03802792  0.75331161  1
  Li  Li15  1  0.91229832  0.31903382  0.50000121  1
  Co  Co16  1  0.12553395  0.25834611  0.00000012  1
  Co  Co17  1  0.37445657  0.75835066  0.50000201  1
  Co  Co18  1  0.62553774  0.24165580  0.50000155  1
  Co  Co19  1  0.87447017  0.74165932  0.99999861  1
  O  O20  1  0.03143665  0.22976310  0.25027002  1
  O  O21  1  0.03143414  0.22976389  0.74972990  1
  O  O22  1  0.26117455  0.45042249  0.00000001  1
  O  O23  1  0.26328899  0.52540355  0.50000117  1
  O  O24  1  0.23672362  0.02541341  0.00000097  1
  O  O25  1  0.23885005  0.95040974  0.50000078  1
  O  O26  1  0.46856844  0.72976878  0.24973235  1
  O  O27  1  0.46856916  0.72976696  0.75026390  1
  O  O28  1  0.53143203  0.27023305  0.75026863  1
  O  O29  1  0.53143249  0.27023069  0.24973067  1
  O  O30  1  0.76115743  0.04959027  0.49999953  1
  O  O31  1  0.76327537  0.97458251  0.99999984  1
  O  O32  1  0.73670932  0.47459831  0.49999938  1
  O  O33  1  0.73882698  0.54956904  -0.00000028  1
  O  O34  1  0.96855948  0.77023691  0.25026879  1
  O  O35  1  0.96855979  0.77023765  0.74972788  1
