# generated using pymatgen
data_RbMg30BiO32
_symmetry_space_group_name_H-M   'P 1'
_cell_length_a   8.66354183
_cell_length_b   8.66354183
_cell_length_c   8.81843905
_cell_angle_alpha   90.00000000
_cell_angle_beta   90.00000000
_cell_angle_gamma   90.00000000
_symmetry_Int_Tables_number   1
_chemical_formula_structural   RbMg30BiO32
_chemical_formula_sum   'Rb1 Mg30 Bi1 O32'
_cell_volume   661.88520094
_cell_formula_units_Z   1
loop_
 _symmetry_equiv_pos_site_id
 _symmetry_equiv_pos_as_xyz
  1  'x, y, z'
loop_
 _atom_site_type_symbol
 _atom_site_label
 _atom_site_symmetry_multiplicity
 _atom_site_fract_x
 _atom_site_fract_y
 _atom_site_fract_z
 _atom_site_occupancy
  Rb  Rb0  1  0.00000000  0.00000000  -0.00000000  1
  Mg  Mg1  1  0.00000000  0.50000000  -0.00000000  1
  Mg  Mg2  1  0.00000000  0.50000000  0.50000000  1
  Mg  Mg3  1  0.50000000  0.00000000  -0.00000000  1
  Mg  Mg4  1  0.50000000  0.00000000  0.50000000  1
  Mg  Mg5  1  0.50000000  0.50000000  -0.00000000  1
  Mg  Mg6  1  0.50000000  0.50000000  0.50000000  1
  Mg  Mg7  1  0.00000000  0.25965913  0.24391963  1
  Mg  Mg8  1  0.00000000  0.25965913  0.75608037  1
  Mg  Mg9  1  0.00000000  0.74034087  0.24391963  1
  Mg  Mg10  1  0.00000000  0.74034087  0.75608037  1
  Mg  Mg11  1  0.50000000  0.25088084  0.24860343  1
  Mg  Mg12  1  0.50000000  0.25088084  0.75139657  1
  Mg  Mg13  1  0.50000000  0.74911916  0.24860343  1
  Mg  Mg14  1  0.50000000  0.74911916  0.75139657  1
  Mg  Mg15  1  0.25965913  0.00000000  0.24391963  1
  Mg  Mg16  1  0.25965913  0.00000000  0.75608037  1
  Mg  Mg17  1  0.25088084  0.50000000  0.24860343  1
  Mg  Mg18  1  0.25088084  0.50000000  0.75139657  1
  Mg  Mg19  1  0.74034087  0.00000000  0.24391963  1
  Mg  Mg20  1  0.74034087  0.00000000  0.75608037  1
  Mg  Mg21  1  0.74911916  0.50000000  0.24860343  1
  Mg  Mg22  1  0.74911916  0.50000000  0.75139657  1
  Mg  Mg23  1  0.25339479  0.25339479  -0.00000000  1
  Mg  Mg24  1  0.25687716  0.25687716  0.50000000  1
  Mg  Mg25  1  0.25339479  0.74660521  -0.00000000  1
  Mg  Mg26  1  0.25687716  0.74312284  0.50000000  1
  Mg  Mg27  1  0.74660521  0.25339479  -0.00000000  1
  Mg  Mg28  1  0.74312284  0.25687716  0.50000000  1
  Mg  Mg29  1  0.74660521  0.74660521  -0.00000000  1
  Mg  Mg30  1  0.74312284  0.74312284  0.50000000  1
  Bi  Bi31  1  0.00000000  0.00000000  0.50000000  1
  O  O32  1  0.28016619  0.00000000  -0.00000000  1
  O  O33  1  0.26874173  0.00000000  0.50000000  1
  O  O34  1  0.25586030  0.50000000  -0.00000000  1
  O  O35  1  0.25356568  0.50000000  0.50000000  1
  O  O36  1  0.71983381  0.00000000  -0.00000000  1
  O  O37  1  0.73125827  0.00000000  0.50000000  1
  O  O38  1  0.74413970  0.50000000  -0.00000000  1
  O  O39  1  0.74643432  0.50000000  0.50000000  1
  O  O40  1  0.24902932  0.24902932  0.25061188  1
  O  O41  1  0.24902932  0.24902932  0.74938812  1
  O  O42  1  0.24902932  0.75097068  0.25061188  1
  O  O43  1  0.24902932  0.75097068  0.74938812  1
  O  O44  1  0.75097068  0.24902932  0.25061188  1
  O  O45  1  0.75097068  0.24902932  0.74938812  1
  O  O46  1  0.75097068  0.75097068  0.25061188  1
  O  O47  1  0.75097068  0.75097068  0.74938812  1
  O  O48  1  0.00000000  0.00000000  0.25739477  1
  O  O49  1  0.00000000  0.00000000  0.74260523  1
  O  O50  1  0.00000000  0.50000000  0.25389956  1
  O  O51  1  0.00000000  0.50000000  0.74610044  1
  O  O52  1  0.50000000  0.00000000  0.25389956  1
  O  O53  1  0.50000000  0.00000000  0.74610044  1
  O  O54  1  0.50000000  0.50000000  0.25154854  1
  O  O55  1  0.50000000  0.50000000  0.74845146  1
  O  O56  1  0.00000000  0.28016619  -0.00000000  1
  O  O57  1  0.00000000  0.26874173  0.50000000  1
  O  O58  1  0.00000000  0.71983381  -0.00000000  1
  O  O59  1  0.00000000  0.73125827  0.50000000  1
  O  O60  1  0.50000000  0.25586030  -0.00000000  1
  O  O61  1  0.50000000  0.25356568  0.50000000  1
  O  O62  1  0.50000000  0.74413970  -0.00000000  1
  O  O63  1  0.50000000  0.74643432  0.50000000  1
