# generated using pymatgen
data_FeOF
_symmetry_space_group_name_H-M   'P 1'
_cell_length_a   4.74314214
_cell_length_b   14.19509250
_cell_length_c   3.12166012
_cell_angle_alpha   90.00000000
_cell_angle_beta   90.00000000
_cell_angle_gamma   90.15110383
_symmetry_Int_Tables_number   1
_chemical_formula_structural   FeOF
_chemical_formula_sum   'Fe6 O6 F6'
_cell_volume   210.17858929
_cell_formula_units_Z   6
loop_
 _symmetry_equiv_pos_site_id
 _symmetry_equiv_pos_as_xyz
  1  'x, y, z'
loop_
 _atom_site_type_symbol
 _atom_site_label
 _atom_site_symmetry_multiplicity
 _atom_site_fract_x
 _atom_site_fract_y
 _atom_site_fract_z
 _atom_site_occupancy
  Fe  Fe0  1  0.02897192  0.99540872  0.00000000  1
  Fe  Fe1  1  0.02534258  0.32711322  0.00000000  1
  Fe  Fe2  1  0.03201609  0.65931730  0.00000000  1
  Fe  Fe3  1  0.51884296  0.18792050  0.50000000  1
  Fe  Fe4  1  0.45419996  0.49324450  0.50000000  1
  Fe  Fe5  1  0.45426522  0.82761405  0.50000000  1
  O  O6  1  0.19572130  0.26769589  0.50000000  1
  O  O7  1  0.18926639  0.60038070  0.50000000  1
  O  O8  1  0.19915291  0.93838541  0.50000000  1
  O  O9  1  0.29625479  0.76822156  0.00000000  1
  O  O10  1  0.29856972  0.43336579  0.00000000  1
  O  O11  1  0.70694654  0.23407643  0.00000000  1
  F  F12  1  0.30784578  0.10265893  0.00000000  1
  F  F13  1  0.69000663  0.56611791  0.00000000  1
  F  F14  1  0.69654487  0.89929051  0.00000000  1
  F  F15  1  0.80632674  0.06355216  0.50000000  1
  F  F16  1  0.80159806  0.40277843  0.50000000  1
  F  F17  1  0.79812653  0.73285796  0.50000000  1
