# generated using pymatgen
data_LiVPO5
_symmetry_space_group_name_H-M   'P 1'
_cell_length_a   6.06153462
_cell_length_b   7.35862302
_cell_length_c   9.95002246
_cell_angle_alpha   90.00000000
_cell_angle_beta   90.00000000
_cell_angle_gamma   90.00000000
_symmetry_Int_Tables_number   1
_chemical_formula_structural   LiVPO5
_chemical_formula_sum   'Li4 V4 P4 O20'
_cell_volume   443.81625632
_cell_formula_units_Z   4
loop_
 _symmetry_equiv_pos_site_id
 _symmetry_equiv_pos_as_xyz
  1  'x, y, z'
loop_
 _atom_site_type_symbol
 _atom_site_label
 _atom_site_symmetry_multiplicity
 _atom_site_fract_x
 _atom_site_fract_y
 _atom_site_fract_z
 _atom_site_occupancy
  Li  Li0  1  0.06695460  0.57175572  0.44031114  1
  Li  Li1  1  0.43304540  0.42824428  0.94031114  1
  Li  Li2  1  0.56695460  0.92824428  0.55968886  1
  Li  Li3  1  0.93304540  0.07175572  0.05968886  1
  V  V4  1  0.09473685  0.04780550  0.55062210  1
  V  V5  1  0.40526315  0.95219450  0.05062210  1
  V  V6  1  0.59473685  0.45219450  0.44937790  1
  V  V7  1  0.90526315  0.54780550  0.94937790  1
  P  P8  1  0.20414745  0.84787426  0.82796335  1
  P  P9  1  0.29585255  0.15212574  0.32796335  1
  P  P10  1  0.70414745  0.65212574  0.17203665  1
  P  P11  1  0.79585255  0.34787426  0.67203665  1
  O  O12  1  0.99764818  0.22316870  0.68779570  1
  O  O13  1  0.11518340  0.41331884  0.98192933  1
  O  O14  1  0.15571698  0.00969710  0.92683445  1
  O  O15  1  0.10325734  0.24656458  0.40682497  1
  O  O16  1  0.28000331  0.91625975  0.68850323  1
  O  O17  1  0.21999669  0.08374025  0.18850323  1
  O  O18  1  0.39674266  0.75343542  0.90682497  1
  O  O19  1  0.34428302  0.99030290  0.42683445  1
  O  O20  1  0.38481660  0.58668116  0.48192933  1
  O  O21  1  0.50235182  0.77683130  0.18779570  1
  O  O22  1  0.49764818  0.27683130  0.31220430  1
  O  O23  1  0.61518340  0.08668116  0.01807067  1
  O  O24  1  0.65571698  0.49030290  0.07316555  1
  O  O25  1  0.60325734  0.25343542  0.59317503  1
  O  O26  1  0.78000331  0.58374025  0.31149677  1
  O  O27  1  0.71999669  0.41625975  0.81149677  1
  O  O28  1  0.89674266  0.74656458  0.09317503  1
  O  O29  1  0.84428302  0.50969710  0.57316555  1
  O  O30  1  0.88481660  0.91331884  0.51807067  1
  O  O31  1  0.00235182  0.72316870  0.81220430  1
