# generated using pymatgen
data_Li4Mn7O16
_symmetry_space_group_name_H-M   'P 1'
_cell_length_a   5.22130440
_cell_length_b   7.61520441
_cell_length_c   7.61520494
_cell_angle_alpha   97.99936933
_cell_angle_beta   77.80423902
_cell_angle_gamma   77.80423407
_symmetry_Int_Tables_number   1
_chemical_formula_structural   Li4Mn7O16
_chemical_formula_sum   'Li4 Mn7 O16'
_cell_volume   283.87435029
_cell_formula_units_Z   1
loop_
 _symmetry_equiv_pos_site_id
 _symmetry_equiv_pos_as_xyz
  1  'x, y, z'
loop_
 _atom_site_type_symbol
 _atom_site_label
 _atom_site_symmetry_multiplicity
 _atom_site_fract_x
 _atom_site_fract_y
 _atom_site_fract_z
 _atom_site_occupancy
  Li  Li0  1  0.50795939  0.25192409  0.25192409  1
  Li  Li1  1  0.50000000  0.12689624  0.87310376  1
  Li  Li2  1  0.49204061  0.74807591  0.74807591  1
  Li  Li3  1  0.50000000  0.87310376  0.12689624  1
  Mn  Mn4  1  0.99514947  0.12167487  0.36881113  1
  Mn  Mn5  1  0.00000000  0.24507935  0.75492065  1
  Mn  Mn6  1  0.99514947  0.36881113  0.12167487  1
  Mn  Mn7  1  0.00000000  0.50000000  0.50000000  1
  Mn  Mn8  1  1.00000000  0.75492065  0.24507935  1
  Mn  Mn9  1  0.00485053  0.63118887  0.87832513  1
  Mn  Mn10  1  0.00485053  0.87832513  0.63118887  1
  O  O11  1  0.21664074  0.00820929  0.73947783  1
  O  O12  1  0.22508444  0.14744830  0.14744830  1
  O  O13  1  0.19617136  0.25948413  0.50489176  1
  O  O14  1  0.79589239  0.11509066  0.62482786  1
  O  O15  1  0.78335926  0.26052217  0.99179071  1
  O  O16  1  0.20410761  0.37517214  0.88490934  1
  O  O17  1  0.79125965  0.36471962  0.36471962  1
  O  O18  1  0.19617136  0.50489176  0.25948413  1
  O  O19  1  0.20874035  0.63528038  0.63528038  1
  O  O20  1  0.80382864  0.49510824  0.74051587  1
  O  O21  1  0.21664074  0.73947783  0.00820929  1
  O  O22  1  0.79589239  0.62482786  0.11509066  1
  O  O23  1  0.20410761  0.88490934  0.37517214  1
  O  O24  1  0.80382864  0.74051587  0.49510824  1
  O  O25  1  0.78335926  0.99179071  0.26052217  1
  O  O26  1  0.77491556  0.85255170  0.85255170  1
