# generated using pymatgen
data_LiNiCO4
_symmetry_space_group_name_H-M   'P 1'
_cell_length_a   9.04641952
_cell_length_b   9.35510391
_cell_length_c   3.10686547
_cell_angle_alpha   90.00000000
_cell_angle_beta   92.82370683
_cell_angle_gamma   90.00000000
_symmetry_Int_Tables_number   1
_chemical_formula_structural   LiNiCO4
_chemical_formula_sum   'Li4 Ni4 C4 O16'
_cell_volume   262.61538502
_cell_formula_units_Z   4
loop_
 _symmetry_equiv_pos_site_id
 _symmetry_equiv_pos_as_xyz
  1  'x, y, z'
loop_
 _atom_site_type_symbol
 _atom_site_label
 _atom_site_symmetry_multiplicity
 _atom_site_fract_x
 _atom_site_fract_y
 _atom_site_fract_z
 _atom_site_occupancy
  Li  Li0  1  0.17716083  0.40467103  0.77643204  1
  Li  Li1  1  0.32283917  0.90467103  0.72356796  1
  Li  Li2  1  0.67716083  0.09532897  0.27643204  1
  Li  Li3  1  0.82283917  0.59532897  0.22356796  1
  Ni  Ni4  1  0.05719153  0.11854768  0.27251599  1
  Ni  Ni5  1  0.44280847  0.61854768  0.22748401  1
  Ni  Ni6  1  0.55719153  0.38145232  0.77251599  1
  Ni  Ni7  1  0.94280847  0.88145232  0.72748401  1
  C  C8  1  0.13828164  0.66675373  0.20042365  1
  C  C9  1  0.36171836  0.16675373  0.29957635  1
  C  C10  1  0.63828164  0.83324627  0.70042365  1
  C  C11  1  0.86171836  0.33324627  0.79957635  1
  O  O12  1  0.01285571  0.73940198  0.16672353  1
  O  O13  1  0.11138345  0.99620424  0.73645661  1
  O  O14  1  0.13290632  0.53565500  0.27890816  1
  O  O15  1  0.23774123  0.23558127  0.33994137  1
  O  O16  1  0.26225877  0.73558127  0.16005863  1
  O  O17  1  0.36709368  0.03565500  0.22109184  1
  O  O18  1  0.38861655  0.49620424  0.76354339  1
  O  O19  1  0.48714429  0.23940198  0.33327647  1
  O  O20  1  0.51285571  0.76059802  0.66672353  1
  O  O21  1  0.61138345  0.50379576  0.23645661  1
  O  O22  1  0.63290632  0.96434500  0.77890816  1
  O  O23  1  0.73774123  0.26441873  0.83994137  1
  O  O24  1  0.76225877  0.76441873  0.66005863  1
  O  O25  1  0.86709368  0.46434500  0.72109184  1
  O  O26  1  0.88861655  0.00379576  0.26354339  1
  O  O27  1  0.98714429  0.26059802  0.83327647  1
