# generated using pymatgen
data_Li4CrP2(O4F)2
_symmetry_space_group_name_H-M   'P 1'
_cell_length_a   10.06442139
_cell_length_b   10.01715551
_cell_length_c   6.47076557
_cell_angle_alpha   90.14817070
_cell_angle_beta   90.09664575
_cell_angle_gamma   60.24158654
_symmetry_Int_Tables_number   1
_chemical_formula_structural   Li4CrP2(O4F)2
_chemical_formula_sum   'Li12 Cr3 P6 O24 F6'
_cell_volume   566.33073037
_cell_formula_units_Z   3
loop_
 _symmetry_equiv_pos_site_id
 _symmetry_equiv_pos_as_xyz
  1  'x, y, z'
loop_
 _atom_site_type_symbol
 _atom_site_label
 _atom_site_symmetry_multiplicity
 _atom_site_fract_x
 _atom_site_fract_y
 _atom_site_fract_z
 _atom_site_occupancy
  Li  Li0  1  0.00099497  0.99985795  0.42772983  1
  Li  Li1  1  0.18160803  0.13993136  0.26169484  1
  Li  Li2  1  0.14375933  0.67669304  0.26362008  1
  Li  Li3  1  0.34106053  0.32879199  0.92951711  1
  Li  Li4  1  0.34238818  0.32737661  0.49493004  1
  Li  Li5  1  0.34016917  0.83191447  0.51623989  1
  Li  Li6  1  0.67201287  0.18125911  0.26453729  1
  Li  Li7  1  0.82181241  0.34016451  0.50728494  1
  Li  Li8  1  0.66177175  0.66978759  0.55606937  1
  Li  Li9  1  0.66068579  0.66908660  0.94779618  1
  Li  Li10  1  0.99798743  0.47799297  0.73850387  1
  Li  Li11  1  0.83037070  0.83445185  0.50570829  1
  Cr  Cr12  1  0.33329852  0.83219858  0.00063376  1
  Cr  Cr13  1  0.83031432  0.33172089  0.00564364  1
  Cr  Cr14  1  0.83372725  0.83506455  0.00303246  1
  P  P15  1  0.15277674  0.14506357  0.74792860  1
  P  P16  1  0.13964392  0.70374497  0.74876062  1
  P  P17  1  0.50843921  0.53268827  0.26889526  1
  P  P18  1  0.69824194  0.15362900  0.74446110  1
  P  P19  1  0.53352264  0.95777533  0.26690901  1
  P  P20  1  0.96335391  0.50807908  0.26896541  1
  O  O21  1  0.16336723  0.05645882  0.54937168  1
  O  O22  1  0.18992584  0.03967613  0.94143108  1
  O  O23  1  0.13278558  0.38736342  0.26278006  1
  O  O24  1  0.23879102  0.23411880  0.74427081  1
  O  O25  1  0.03754389  0.77708640  0.94531121  1
  O  O26  1  0.05405598  0.78500077  0.55043709  1
  O  O27  1  0.19902757  0.53050036  0.74601367  1
  O  O28  1  0.48707387  0.12766556  0.26261924  1
  O  O29  1  0.38965384  0.48096080  0.26267370  1
  O  O30  1  0.26819375  0.74768516  0.78309469  1
  O  O31  1  0.52544456  0.24847372  0.74236623  1
  O  O32  1  0.49156604  0.64032175  0.07877287  1
  O  O33  1  0.50826985  0.62016671  0.46162579  1
  O  O34  1  0.39231090  0.93413950  0.22927872  1
  O  O35  1  0.77812796  0.16374375  0.54809408  1
  O  O36  1  0.76526507  0.19243117  0.94161329  1
  O  O37  1  0.67536932  0.39323782  0.23428445  1
  O  O38  1  0.62114411  0.86987433  0.45853622  1
  O  O39  1  0.64221097  0.86563213  0.07729603  1
  O  O40  1  0.97743062  0.26865800  0.78356899  1
  O  O41  1  0.87429462  0.48877695  0.07900750  1
  O  O42  1  0.88237474  0.50508655  0.46887991  1
  O  O43  1  0.75651656  0.97725219  0.78021211  1
  O  O44  1  0.93587276  0.67493061  0.23436292  1
  F  F45  1  0.20502946  0.83088637  0.22511997  1
  F  F46  1  0.47276148  0.82382760  0.79063238  1
  F  F47  1  0.70473443  0.47536185  0.79507592  1
  F  F48  1  0.96314580  0.20239838  0.22617734  1
  F  F49  1  0.83333910  0.69373702  0.79269223  1
  F  F50  1  0.82950749  0.96689110  0.22514422  1
