# generated using pymatgen
data_FeOF
_symmetry_space_group_name_H-M   'P 1'
_cell_length_a   9.53862648
_cell_length_b   9.54458717
_cell_length_c   6.13785224
_cell_angle_alpha   89.84746484
_cell_angle_beta   89.99674784
_cell_angle_gamma   89.90294713
_symmetry_Int_Tables_number   1
_chemical_formula_structural   FeOF
_chemical_formula_sum   'Fe16 O16 F16'
_cell_volume   558.80110747
_cell_formula_units_Z   16
loop_
 _symmetry_equiv_pos_site_id
 _symmetry_equiv_pos_as_xyz
  1  'x, y, z'
loop_
 _atom_site_type_symbol
 _atom_site_label
 _atom_site_symmetry_multiplicity
 _atom_site_fract_x
 _atom_site_fract_y
 _atom_site_fract_z
 _atom_site_occupancy
  Fe  Fe0  1  0.98900626  0.98657668  0.01552563  1
  Fe  Fe1  1  0.01043243  0.01411362  0.48455973  1
  Fe  Fe2  1  0.01103140  0.51366086  0.99896218  1
  Fe  Fe3  1  0.98909845  0.48649375  0.49887688  1
  Fe  Fe4  1  0.26685407  0.22987766  0.26628712  1
  Fe  Fe5  1  0.23314593  0.27012234  0.73371288  1
  Fe  Fe6  1  0.23781071  0.76231853  0.23494114  1
  Fe  Fe7  1  0.26218929  0.73768147  0.76505886  1
  Fe  Fe8  1  0.51099374  0.51342332  0.98447437  1
  Fe  Fe9  1  0.48956757  0.48588638  0.51544027  1
  Fe  Fe10  1  0.48896860  0.98633914  0.00103782  1
  Fe  Fe11  1  0.51090155  0.01350625  0.50112312  1
  Fe  Fe12  1  0.76099826  0.23880727  0.26501857  1
  Fe  Fe13  1  0.73900174  0.26119273  0.73498143  1
  Fe  Fe14  1  0.76978653  0.73297800  0.23377890  1
  Fe  Fe15  1  0.73021347  0.76702200  0.76622110  1
  O  O16  1  0.08955258  0.41150845  0.75202273  1
  O  O17  1  0.09566751  0.90437776  0.25413358  1
  O  O18  1  0.15378015  0.15460159  0.50437504  1
  O  O19  1  0.15358159  0.65482940  0.00012410  1
  O  O20  1  0.34621985  0.34539841  0.49562496  1
  O  O21  1  0.34641841  0.84517060  0.99987590  1
  O  O22  1  0.40433249  0.59562224  0.74586642  1
  O  O23  1  0.41044742  0.08849155  0.24797727  1
  O  O24  1  0.59640921  0.40330955  0.75423059  1
  O  O25  1  0.58852827  0.91044888  0.74825269  1
  O  O26  1  0.65348202  0.15472629  0.50042603  1
  O  O27  1  0.65334343  0.65495566  0.00405475  1
  O  O28  1  0.84651798  0.34527371  0.49957397  1
  O  O29  1  0.84665657  0.84504434  0.99594525  1
  O  O30  1  0.90359079  0.09669045  0.24576941  1
  O  O31  1  0.91147173  0.58955112  0.25174731  1
  F  F32  1  0.10224780  0.39584826  0.24397339  1
  F  F33  1  0.09597014  0.90348745  0.74583983  1
  F  F34  1  0.15501084  0.15378317  0.99578028  1
  F  F35  1  0.15498109  0.65409217  0.49976568  1
  F  F36  1  0.34498916  0.34621683  0.00421972  1
  F  F37  1  0.34501891  0.84590783  0.50023432  1
  F  F38  1  0.39775220  0.10415174  0.75602661  1
  F  F39  1  0.40402986  0.59651255  0.25416017  1
  F  F40  1  0.59575533  0.40383835  0.24594988  1
  F  F41  1  0.60348535  0.89719055  0.25652890  1
  F  F42  1  0.65485252  0.15405396  0.00052775  1
  F  F43  1  0.65469343  0.65408486  0.49591917  1
  F  F44  1  0.84514748  0.34594604  0.99947225  1
  F  F45  1  0.84530657  0.84591514  0.50408083  1
  F  F46  1  0.90424467  0.09616165  0.75405012  1
  F  F47  1  0.89651465  0.60280945  0.74347110  1
