# generated using pymatgen
data_Sr3Co3O8
_symmetry_space_group_name_H-M   'P 1'
_cell_length_a   5.60363912
_cell_length_b   5.60363912
_cell_length_c   12.07066578
_cell_angle_alpha   75.99407865
_cell_angle_beta   75.99407865
_cell_angle_gamma   89.83917733
_symmetry_Int_Tables_number   1
_chemical_formula_structural   Sr3Co3O8
_chemical_formula_sum   'Sr6 Co6 O16'
_cell_volume   356.20011961
_cell_formula_units_Z   2
loop_
 _symmetry_equiv_pos_site_id
 _symmetry_equiv_pos_as_xyz
  1  'x, y, z'
loop_
 _atom_site_type_symbol
 _atom_site_label
 _atom_site_symmetry_multiplicity
 _atom_site_fract_x
 _atom_site_fract_y
 _atom_site_fract_z
 _atom_site_occupancy
  Sr  Sr0  1  0.00000000  0.00000000  0.00000000  1
  Sr  Sr1  1  0.50000000  0.50000000  0.00000000  1
  Sr  Sr2  1  0.32979661  0.34324218  0.32825493  1
  Sr  Sr3  1  0.15675782  0.17020339  0.67174507  1
  Sr  Sr4  1  0.67020339  0.65675782  0.67174507  1
  Sr  Sr5  1  0.84324218  0.82979661  0.32825493  1
  Co  Co6  1  0.57539738  0.07539738  0.83740839  1
  Co  Co7  1  0.42460262  0.92460262  0.16259161  1
  Co  Co8  1  0.24099295  0.74099295  0.49558865  1
  Co  Co9  1  0.09271545  0.59271545  0.82113039  1
  Co  Co10  1  0.90728455  0.40728455  0.17886961  1
  Co  Co11  1  0.75900705  0.25900705  0.50441135  1
  O  O12  1  0.50000000  0.00000000  0.00000000  1
  O  O13  1  0.00000000  0.00000000  0.50000000  1
  O  O14  1  0.15115683  0.19933160  0.15702846  1
  O  O15  1  0.68806051  0.18806051  0.14544465  1
  O  O16  1  0.15936267  0.65936267  0.17657266  1
  O  O17  1  0.00000000  0.50000000  0.50000000  1
  O  O18  1  0.30066840  0.34884317  0.84297154  1
  O  O19  1  0.69933160  0.65115683  0.15702846  1
  O  O20  1  0.50000000  0.50000000  0.50000000  1
  O  O21  1  0.36270456  0.86270456  0.33479335  1
  O  O22  1  0.76912776  0.26912776  0.35083658  1
  O  O23  1  0.23087224  0.73087224  0.64916342  1
  O  O24  1  0.63729544  0.13729544  0.66520665  1
  O  O25  1  0.31193949  0.81193949  0.85455535  1
  O  O26  1  0.84063733  0.34063733  0.82342734  1
  O  O27  1  0.84884317  0.80066840  0.84297154  1
