# generated using pymatgen
data_Li2Fe2P4H3O16
_symmetry_space_group_name_H-M   'P 1'
_cell_length_a   4.94432576
_cell_length_b   8.15759080
_cell_length_c   7.56725929
_cell_angle_alpha   89.55128049
_cell_angle_beta   103.68890540
_cell_angle_gamma   88.85950586
_symmetry_Int_Tables_number   1
_chemical_formula_structural   Li2Fe2P4H3O16
_chemical_formula_sum   'Li2 Fe2 P4 H3 O16'
_cell_volume   296.46308105
_cell_formula_units_Z   1
loop_
 _symmetry_equiv_pos_site_id
 _symmetry_equiv_pos_as_xyz
  1  'x, y, z'
loop_
 _atom_site_type_symbol
 _atom_site_label
 _atom_site_symmetry_multiplicity
 _atom_site_fract_x
 _atom_site_fract_y
 _atom_site_fract_z
 _atom_site_occupancy
  Li  Li0  1  0.38870012  0.87119036  0.84680246  1
  Li  Li1  1  0.59873176  0.12618684  0.15323770  1
  Fe  Fe2  1  0.49800614  0.49825218  0.99895215  1
  Fe  Fe3  1  0.00226977  -0.00007062  0.50036516  1
  P  P4  1  0.11052360  0.33617054  0.25165554  1
  P  P5  1  0.37274089  0.84414955  0.23615047  1
  P  P6  1  0.62488654  0.15859165  0.75723289  1
  P  P7  1  0.88479000  0.66343701  0.75051707  1
  H  H8  1  0.45251801  0.39512694  0.47966695  1
  H  H9  1  0.54998471  0.61871814  0.51474041  1
  H  H10  1  0.95669539  0.01423112  0.97879759  1
  O  O11  1  0.98897997  0.83148410  0.70043437  1
  O  O12  1  0.12989751  0.55479287  0.84330006  1
  O  O13  1  0.17912124  0.83261141  0.36806801  1
  O  O14  1  0.25330246  0.42231399  0.43726806  1
  O  O15  1  0.36885290  0.05635120  0.66893975  1
  O  O16  1  0.54687279  0.32778562  0.81578764  1
  O  O17  1  0.25204855  0.94381659  0.05892928  1
  O  O18  1  0.33236217  0.31611358  0.13892403  1
  O  O19  1  0.66319366  0.68386102  0.86321056  1
  O  O20  1  0.75317374  0.05652085  0.94098166  1
  O  O21  1  0.44955519  0.66911137  0.18691409  1
  O  O22  1  0.63403210  0.93985890  0.33533076  1
  O  O23  1  0.74024921  0.57650097  0.56496467  1
  O  O24  1  0.82537179  0.16824511  0.63219911  1
  O  O25  1  0.86485640  0.44448201  0.15836889  1
  O  O26  1  0.00444440  0.16819271  0.30024665  1
