# generated using pymatgen
data_LiCoSiO4
_symmetry_space_group_name_H-M   'P 1'
_cell_length_a   5.16827890
_cell_length_b   5.17395578
_cell_length_c   6.58264221
_cell_angle_alpha   89.99770214
_cell_angle_beta   90.00312645
_cell_angle_gamma   90.68632974
_symmetry_Int_Tables_number   1
_chemical_formula_structural   LiCoSiO4
_chemical_formula_sum   'Li2 Co2 Si2 O8'
_cell_volume   176.01016294
_cell_formula_units_Z   2
loop_
 _symmetry_equiv_pos_site_id
 _symmetry_equiv_pos_as_xyz
  1  'x, y, z'
loop_
 _atom_site_type_symbol
 _atom_site_label
 _atom_site_symmetry_multiplicity
 _atom_site_fract_x
 _atom_site_fract_y
 _atom_site_fract_z
 _atom_site_occupancy
  Li  Li0  1  0.81090049  0.80963273  0.25141910  1
  Li  Li1  1  0.18910447  0.19037573  0.75141953  1
  Co  Co2  1  0.81416882  0.81392869  0.75127180  1
  Co  Co3  1  0.18581181  0.18606782  0.25127156  1
  Si  Si4  1  0.31436479  0.68610289  0.00140666  1
  Si  Si5  1  0.68563415  0.31389739  0.50139047  1
  O  O6  1  0.19586699  0.82711708  0.20403804  1
  O  O7  1  0.17359953  0.80472451  0.79865249  1
  O  O8  1  0.62872636  0.74296243  0.98712405  1
  O  O9  1  0.74354771  0.62781825  0.51582328  1
  O  O10  1  0.25643434  0.37218858  0.01582698  1
  O  O11  1  0.37127713  0.25702580  0.48712191  1
  O  O12  1  0.82637823  0.19528216  0.29865430  1
  O  O13  1  0.80415119  0.17288095  0.70404284  1
