# generated using pymatgen
data_Li4VP2O9
_symmetry_space_group_name_H-M   'P 1'
_cell_length_a   6.79170929
_cell_length_b   7.23506944
_cell_length_c   8.07432209
_cell_angle_alpha   90.00000000
_cell_angle_beta   65.12913534
_cell_angle_gamma   90.00000000
_symmetry_Int_Tables_number   1
_chemical_formula_structural   Li4VP2O9
_chemical_formula_sum   'Li8 V2 P4 O18'
_cell_volume   359.96366654
_cell_formula_units_Z   2
loop_
 _symmetry_equiv_pos_site_id
 _symmetry_equiv_pos_as_xyz
  1  'x, y, z'
loop_
 _atom_site_type_symbol
 _atom_site_label
 _atom_site_symmetry_multiplicity
 _atom_site_fract_x
 _atom_site_fract_y
 _atom_site_fract_z
 _atom_site_occupancy
  Li  Li0  1  0.61468818  0.22761772  0.77062463  1
  Li  Li1  1  0.11468818  0.77238228  0.77062463  1
  Li  Li2  1  0.00000000  0.00000000  0.50000000  1
  Li  Li3  1  0.50000000  0.00000000  0.50000000  1
  Li  Li4  1  0.38531282  0.77238228  0.22937537  1
  Li  Li5  1  0.88531182  0.22761772  0.22937537  1
  Li  Li6  1  0.75000000  0.50000000  0.00000000  1
  Li  Li7  1  0.25000000  0.50000000  0.00000000  1
  V  V8  1  0.00000000  0.50000000  0.50000000  1
  V  V9  1  0.50000000  0.50000000  0.50000000  1
  P  P10  1  0.61183498  0.77148688  0.77633104  1
  P  P11  1  0.11183498  0.22851312  0.77633104  1
  P  P12  1  0.38816502  0.22851312  0.22366896  1
  P  P13  1  0.88816502  0.77148688  0.22366896  1
  O  O14  1  0.01103667  0.28282948  0.97792567  1
  O  O15  1  0.51103667  0.71717052  0.97792567  1
  O  O16  1  0.14345733  0.02572568  0.71308535  1
  O  O17  1  0.64345733  0.97427432  0.71308535  1
  O  O18  1  0.34529693  0.31757918  0.69489625  1
  O  O19  1  0.45980681  0.68242082  0.69489625  1
  O  O20  1  0.95980681  0.31757918  0.69489625  1
  O  O21  1  0.84529693  0.68242082  0.69489625  1
  O  O22  1  0.25000000  0.59832585  0.50000000  1
  O  O23  1  0.75000000  0.40167415  0.50000000  1
  O  O24  1  0.54019319  0.31757918  0.30510375  1
  O  O25  1  0.65470307  0.68242082  0.30510375  1
  O  O26  1  0.04019319  0.68242082  0.30510375  1
  O  O27  1  0.15470307  0.31757918  0.30510375  1
  O  O28  1  0.85654267  0.97427432  0.28691465  1
  O  O29  1  0.35654267  0.02572568  0.28691465  1
  O  O30  1  0.48896333  0.28282948  0.02207433  1
  O  O31  1  0.98896333  0.71717052  0.02207433  1
