# generated using pymatgen
data_LiP4WO12
_symmetry_space_group_name_H-M   'P 1'
_cell_length_a   7.60237832
_cell_length_b   7.60237832
_cell_length_c   18.25599944
_cell_angle_alpha   90.00000000
_cell_angle_beta   90.00000000
_cell_angle_gamma   100.42167618
_symmetry_Int_Tables_number   1
_chemical_formula_structural   LiP4WO12
_chemical_formula_sum   'Li4 P16 W4 O48'
_cell_volume   1037.72028234
_cell_formula_units_Z   4
loop_
 _symmetry_equiv_pos_site_id
 _symmetry_equiv_pos_as_xyz
  1  'x, y, z'
loop_
 _atom_site_type_symbol
 _atom_site_label
 _atom_site_symmetry_multiplicity
 _atom_site_fract_x
 _atom_site_fract_y
 _atom_site_fract_z
 _atom_site_occupancy
  Li  Li0  1  0.19493655  0.10148269  0.39484215  1
  Li  Li1  1  0.89851731  0.80506345  0.60515785  1
  Li  Li2  1  0.80506345  0.89851731  0.89484215  1
  Li  Li3  1  0.10148269  0.19493655  0.10515785  1
  P  P4  1  0.04639117  0.75885659  0.09502136  1
  P  P5  1  0.24114341  0.95360883  0.90497864  1
  P  P6  1  0.29349542  0.77754572  0.76277855  1
  P  P7  1  0.22245428  0.70650458  0.23722145  1
  P  P8  1  0.37113433  0.62886567  0.50000000  1
  P  P9  1  0.67158242  0.74433873  0.05783227  1
  P  P10  1  0.25566127  0.32841758  0.94216773  1
  P  P11  1  0.35898992  0.35898992  0.25000000  1
  P  P12  1  0.64101008  0.64101008  0.75000000  1
  P  P13  1  0.74433873  0.67158242  0.44216773  1
  P  P14  1  0.32841758  0.25566127  0.55783227  1
  P  P15  1  0.62886567  0.37113433  0.00000000  1
  P  P16  1  0.77754572  0.29349542  0.73722145  1
  P  P17  1  0.70650458  0.22245428  0.26277855  1
  P  P18  1  0.75885659  0.04639117  0.40497864  1
  P  P19  1  0.95360883  0.24114341  0.59502136  1
  W  W20  1  0.56489510  0.96086144  0.63137191  1
  W  W21  1  0.03913856  0.43510490  0.36862809  1
  W  W22  1  0.43510490  0.03913856  0.13137191  1
  W  W23  1  0.96086144  0.56489510  0.86862809  1
  O  O24  1  0.15194782  0.94989641  0.10194185  1
  O  O25  1  0.05010359  0.84805218  0.89805815  1
  O  O26  1  0.06165984  0.64511960  0.03154164  1
  O  O27  1  0.35488040  0.93834016  0.96845836  1
  O  O28  1  0.10954270  0.66814855  0.77128031  1
  O  O29  1  0.33185145  0.89045730  0.22871969  1
  O  O30  1  0.09164188  0.65133790  0.16984609  1
  O  O31  1  0.34866210  0.90835812  0.83015391  1
  O  O32  1  0.12197792  0.67955497  0.30842555  1
  O  O33  1  0.32044503  0.87802208  0.69157445  1
  O  O34  1  0.40755476  0.79582113  0.54552700  1
  O  O35  1  0.20417887  0.59244524  0.45447300  1
  O  O36  1  0.52320802  0.80202630  0.10110585  1
  O  O37  1  0.19797370  0.47679198  0.89889415  1
  O  O38  1  0.35898588  0.56364392  0.23215278  1
  O  O39  1  0.43635608  0.64101412  0.76784722  1
  O  O40  1  0.78078795  0.84262202  0.38670852  1
  O  O41  1  0.15737798  0.21921205  0.61329148  1
  O  O42  1  0.52891908  0.61844753  0.44205554  1
  O  O43  1  0.38155247  0.47108092  0.55794446  1
  O  O44  1  0.25036810  0.30487214  0.31874248  1
  O  O45  1  0.69512786  0.74963190  0.68125752  1
  O  O46  1  0.71823145  0.81751181  0.98402763  1
  O  O47  1  0.18248819  0.28176855  0.01597237  1
  O  O48  1  0.28176855  0.18248819  0.48402763  1
  O  O49  1  0.81751181  0.71823145  0.51597237  1
  O  O50  1  0.30487214  0.25036810  0.18125752  1
  O  O51  1  0.74963190  0.69512786  0.81874248  1
  O  O52  1  0.61844753  0.52891908  0.05794446  1
  O  O53  1  0.47108092  0.38155247  0.94205554  1
  O  O54  1  0.21921205  0.15737798  0.88670852  1
  O  O55  1  0.84262202  0.78078795  0.11329148  1
  O  O56  1  0.64101412  0.43635608  0.73215278  1
  O  O57  1  0.56364392  0.35898588  0.26784722  1
  O  O58  1  0.47679198  0.19797370  0.60110585  1
  O  O59  1  0.80202630  0.52320802  0.39889415  1
  O  O60  1  0.79582113  0.40755476  0.95447300  1
  O  O61  1  0.59244524  0.20417887  0.04552700  1
  O  O62  1  0.67955497  0.12197792  0.19157445  1
  O  O63  1  0.87802208  0.32044503  0.80842555  1
  O  O64  1  0.65133790  0.09164188  0.33015391  1
  O  O65  1  0.90835812  0.34866210  0.66984609  1
  O  O66  1  0.89045730  0.33185145  0.27128031  1
  O  O67  1  0.66814855  0.10954270  0.72871969  1
  O  O68  1  0.64511960  0.06165984  0.46845836  1
  O  O69  1  0.93834016  0.35488040  0.53154164  1
  O  O70  1  0.94989641  0.15194782  0.39805815  1
  O  O71  1  0.84805218  0.05010359  0.60194185  1
