# generated using pymatgen
data_LiP2WO8
_symmetry_space_group_name_H-M   'P 1'
_cell_length_a   4.98429656
_cell_length_b   8.06584254
_cell_length_c   16.44645674
_cell_angle_alpha   90.00000000
_cell_angle_beta   101.82172405
_cell_angle_gamma   90.00000000
_symmetry_Int_Tables_number   1
_chemical_formula_structural   LiP2WO8
_chemical_formula_sum   'Li4 P8 W4 O32'
_cell_volume   647.16554537
_cell_formula_units_Z   4
loop_
 _symmetry_equiv_pos_site_id
 _symmetry_equiv_pos_as_xyz
  1  'x, y, z'
loop_
 _atom_site_type_symbol
 _atom_site_label
 _atom_site_symmetry_multiplicity
 _atom_site_fract_x
 _atom_site_fract_y
 _atom_site_fract_z
 _atom_site_occupancy
  Li  Li0  1  0.09849055  0.83662299  0.47290987  1
  Li  Li1  1  0.40150945  0.33662299  0.02709013  1
  Li  Li2  1  0.59849055  0.66337701  0.97290987  1
  Li  Li3  1  0.90150945  0.16337701  0.52709013  1
  P  P4  1  0.12098988  0.62930446  0.24538222  1
  P  P5  1  0.26488123  0.19400303  0.41862563  1
  P  P6  1  0.23511877  0.69400303  0.08137437  1
  P  P7  1  0.37901012  0.12930446  0.25461778  1
  P  P8  1  0.62098988  0.87069554  0.74538222  1
  P  P9  1  0.76488123  0.30599697  0.91862563  1
  P  P10  1  0.73511877  0.80599697  0.58137437  1
  P  P11  1  0.87901012  0.37069554  0.75461778  1
  W  W12  1  0.21046879  0.03779719  0.85685561  1
  W  W13  1  0.28953121  0.53779719  0.64314439  1
  W  W14  1  0.71046879  0.46220281  0.35685561  1
  W  W15  1  0.78953121  0.96220281  0.14314439  1
  O  O16  1  0.01595785  0.72369941  0.61186558  1
  O  O17  1  0.10234821  0.49157394  0.74136092  1
  O  O18  1  0.01859296  0.80770461  0.23647047  1
  O  O19  1  0.11286047  0.38158661  0.57786643  1
  O  O20  1  0.38713953  0.88158661  0.92213357  1
  O  O21  1  0.24764165  0.08026438  0.48938542  1
  O  O22  1  0.99970157  0.82387419  0.06566694  1
  O  O23  1  0.11790910  0.11831679  0.18777612  1
  O  O24  1  0.39765179  0.99157394  0.75863908  1
  O  O25  1  0.48404215  0.22369941  0.88813442  1
  O  O26  1  0.18395032  0.57555558  0.15671010  1
  O  O27  1  0.31604968  0.07555558  0.34328990  1
  O  O28  1  0.38209090  0.61831679  0.31222388  1
  O  O29  1  0.51859296  0.69229539  0.73647047  1
  O  O30  1  0.50029843  0.32387419  0.43433306  1
  O  O31  1  0.25235835  0.58026438  0.01061458  1
  O  O32  1  0.74764165  0.41973562  0.98938542  1
  O  O33  1  0.49970157  0.67612581  0.56566694  1
  O  O34  1  0.48140704  0.30770461  0.26352953  1
  O  O35  1  0.61790910  0.38168321  0.68777612  1
  O  O36  1  0.68395032  0.92444442  0.65671010  1
  O  O37  1  0.81604968  0.42444442  0.84328990  1
  O  O38  1  0.51595785  0.77630059  0.11186558  1
  O  O39  1  0.60234821  0.00842606  0.24136092  1
  O  O40  1  0.88209090  0.88168321  0.81222388  1
  O  O41  1  0.00029843  0.17612581  0.93433306  1
  O  O42  1  0.75235835  0.91973562  0.51061458  1
  O  O43  1  0.61286047  0.11841339  0.07786643  1
  O  O44  1  0.88713953  0.61841339  0.42213357  1
  O  O45  1  0.98140704  0.19229539  0.76352953  1
  O  O46  1  0.89765179  0.50842606  0.25863908  1
  O  O47  1  0.98404215  0.27630059  0.38813442  1
