# generated using pymatgen
data_FeOF
_symmetry_space_group_name_H-M   'P 1'
_cell_length_a   14.22939418
_cell_length_b   14.29474080
_cell_length_c   3.10311876
_cell_angle_alpha   90.00000000
_cell_angle_beta   90.00000000
_cell_angle_gamma   90.25543994
_symmetry_Int_Tables_number   1
_chemical_formula_structural   FeOF
_chemical_formula_sum   'Fe18 O18 F18'
_cell_volume   631.18515489
_cell_formula_units_Z   18
loop_
 _symmetry_equiv_pos_site_id
 _symmetry_equiv_pos_as_xyz
  1  'x, y, z'
loop_
 _atom_site_type_symbol
 _atom_site_label
 _atom_site_symmetry_multiplicity
 _atom_site_fract_x
 _atom_site_fract_y
 _atom_site_fract_z
 _atom_site_occupancy
  Fe  Fe0  1  0.01487616  0.99959218  0.00000000  1
  Fe  Fe1  1  0.00302528  0.33333472  0.00000000  1
  Fe  Fe2  1  0.01390904  0.66446881  0.00000000  1
  Fe  Fe3  1  0.17217185  0.14682820  0.50000000  1
  Fe  Fe4  1  0.15252634  0.49585453  0.50000000  1
  Fe  Fe5  1  0.15412876  0.83186417  0.50000000  1
  Fe  Fe6  1  0.33929164  0.00340748  0.00000000  1
  Fe  Fe7  1  0.34568053  0.33037031  0.00000000  1
  Fe  Fe8  1  0.34612987  0.66497623  0.00000000  1
  Fe  Fe9  1  0.48575291  0.49805601  0.50000000  1
  Fe  Fe10  1  0.48491468  0.16429406  0.50000000  1
  Fe  Fe11  1  0.47968136  0.83468555  0.50000000  1
  Fe  Fe12  1  0.67467782  0.99358197  0.00000000  1
  Fe  Fe13  1  0.67850629  0.33004004  0.00000000  1
  Fe  Fe14  1  0.67615974  0.66701930  0.00000000  1
  Fe  Fe15  1  0.84007196  0.18355410  0.50000000  1
  Fe  Fe16  1  0.81625480  0.50107853  0.50000000  1
  Fe  Fe17  1  0.82186852  0.83102625  0.50000000  1
  O  O18  1  0.06417277  0.59953841  0.50000000  1
  O  O19  1  0.06466602  0.93588178  0.50000000  1
  O  O20  1  0.10017704  0.10464120  0.00000000  1
  O  O21  1  0.09826064  0.43014016  0.00000000  1
  O  O22  1  0.10069853  0.76826724  0.00000000  1
  O  O23  1  0.27164350  0.06280763  0.50000000  1
  O  O24  1  0.39682054  0.26900225  0.50000000  1
  O  O25  1  0.39717775  0.60146877  0.50000000  1
  O  O26  1  0.39773091  0.93656143  0.50000000  1
  O  O27  1  0.44031538  0.10130292  0.00000000  1
  O  O28  1  0.43505579  0.43490884  0.00000000  1
  O  O29  1  0.43255808  0.76884329  0.00000000  1
  O  O30  1  0.73155549  0.26610823  0.50000000  1
  O  O31  1  0.72947866  0.60403329  0.50000000  1
  O  O32  1  0.73359373  0.93882844  0.50000000  1
  O  O33  1  0.76835846  0.43489762  0.00000000  1
  O  O34  1  0.76762944  0.77026022  0.00000000  1
  O  O35  1  0.90524491  0.23685843  0.00000000  1
  F  F36  1  0.06812529  0.26943772  0.50000000  1
  F  F37  1  0.23057517  0.23513349  0.00000000  1
  F  F38  1  0.22944289  0.56296690  0.00000000  1
  F  F39  1  0.23080789  0.89420552  0.00000000  1
  F  F40  1  0.26600004  0.73060446  0.50000000  1
  F  F41  1  0.26588572  0.40033808  0.50000000  1
  F  F42  1  0.56659773  0.23430163  0.00000000  1
  F  F43  1  0.56546331  0.56618012  0.00000000  1
  F  F44  1  0.56656659  0.90115215  0.00000000  1
  F  F45  1  0.60680523  0.06694969  0.50000000  1
  F  F46  1  0.60202672  0.39911380  0.50000000  1
  F  F47  1  0.60003891  0.73342962  0.50000000  1
  F  F48  1  0.77112396  0.10454849  0.00000000  1
  F  F49  1  0.89772496  0.56624895  0.00000000  1
  F  F50  1  0.89889066  0.89850689  0.00000000  1
  F  F51  1  0.92996296  0.06490376  0.50000000  1
  F  F52  1  0.93535653  0.40168460  0.50000000  1
  F  F53  1  0.93384224  0.73191051  0.50000000  1
