# generated using pymatgen
data_LiPW4O13
_symmetry_space_group_name_H-M   'P 1'
_cell_length_a   10.17700256
_cell_length_b   10.47855714
_cell_length_c   10.05416401
_cell_angle_alpha   90.00000000
_cell_angle_beta   90.00000000
_cell_angle_gamma   90.00000000
_symmetry_Int_Tables_number   1
_chemical_formula_structural   LiPW4O13
_chemical_formula_sum   'Li4 P4 W16 O52'
_cell_volume   1072.17909482
_cell_formula_units_Z   4
loop_
 _symmetry_equiv_pos_site_id
 _symmetry_equiv_pos_as_xyz
  1  'x, y, z'
loop_
 _atom_site_type_symbol
 _atom_site_label
 _atom_site_symmetry_multiplicity
 _atom_site_fract_x
 _atom_site_fract_y
 _atom_site_fract_z
 _atom_site_occupancy
  Li  Li0  1  0.26036421  0.75000000  0.80198984  1
  Li  Li1  1  0.29683335  0.25000000  0.29828071  1
  Li  Li2  1  0.76036421  0.75000000  0.69801016  1
  Li  Li3  1  0.79683335  0.25000000  0.20171929  1
  P  P4  1  0.25037068  0.75000000  0.07475183  1
  P  P5  1  0.25366449  0.25000000  0.57321424  1
  P  P6  1  0.75037068  0.75000000  0.42524817  1
  P  P7  1  0.75366449  0.25000000  0.92678576  1
  W  W8  1  0.00070724  0.58778170  0.25066131  1
  W  W9  1  0.00070724  0.91221830  0.25066131  1
  W  W10  1  0.24829064  0.07410164  0.03583379  1
  W  W11  1  0.24829064  0.42589836  0.03583379  1
  W  W12  1  0.25217511  0.57363690  0.53535649  1
  W  W13  1  0.25217511  0.92636310  0.53535649  1
  W  W14  1  0.50038952  0.08798378  0.75237639  1
  W  W15  1  0.50038952  0.41201622  0.75237639  1
  W  W16  1  0.50070724  0.58778170  0.24933869  1
  W  W17  1  0.50070724  0.91221830  0.24933869  1
  W  W18  1  0.74829064  0.07410164  0.46416621  1
  W  W19  1  0.74829064  0.42589836  0.46416621  1
  W  W20  1  0.75217511  0.57363690  0.96464351  1
  W  W21  1  0.75217511  0.92636310  0.96464351  1
  W  W22  1  0.00038952  0.08798378  0.74762361  1
  W  W23  1  0.00038952  0.41201622  0.74762361  1
  O  O24  1  0.11555562  0.10365754  0.90011744  1
  O  O25  1  0.11555562  0.39634246  0.90011744  1
  O  O26  1  0.11179211  0.60187808  0.40125901  1
  O  O27  1  0.11179211  0.89812192  0.40125901  1
  O  O28  1  0.12334498  0.75000000  0.16623883  1
  O  O29  1  0.12519174  0.25000000  0.66217033  1
  O  O30  1  0.10876054  0.03656733  0.16327884  1
  O  O31  1  0.10876054  0.46343267  0.16327884  1
  O  O32  1  0.11568125  0.96627276  0.66248951  1
  O  O33  1  0.11568125  0.53372724  0.66248951  1
  O  O34  1  0.25086651  0.63184383  0.98273192  1
  O  O35  1  0.25086651  0.86815617  0.98273192  1
  O  O36  1  0.25077836  0.25000000  0.10600303  1
  O  O37  1  0.25130505  0.75000000  0.60484148  1
  O  O38  1  0.25734248  0.13167542  0.48142197  1
  O  O39  1  0.25734248  0.36832458  0.48142197  1
  O  O40  1  0.38382754  0.03459731  0.16252450  1
  O  O41  1  0.38382754  0.46540269  0.16252450  1
  O  O42  1  0.39062018  0.53580495  0.66193927  1
  O  O43  1  0.39062018  0.96419505  0.66193927  1
  O  O44  1  0.37843571  0.75000000  0.16410421  1
  O  O45  1  0.38048951  0.25000000  0.66554889  1
  O  O46  1  0.39002231  0.10443033  0.89917078  1
  O  O47  1  0.39002231  0.39556967  0.89917078  1
  O  O48  1  0.38790441  0.60588555  0.39870553  1
  O  O49  1  0.38790441  0.89411445  0.39870553  1
  O  O50  1  0.61555562  0.10365754  0.59988256  1
  O  O51  1  0.61555562  0.39634246  0.59988256  1
  O  O52  1  0.61179211  0.60187808  0.09874099  1
  O  O53  1  0.61179211  0.89812192  0.09874099  1
  O  O54  1  0.62334498  0.75000000  0.33376117  1
  O  O55  1  0.62519174  0.25000000  0.83782967  1
  O  O56  1  0.60876054  0.03656733  0.33672116  1
  O  O57  1  0.60876054  0.46343267  0.33672116  1
  O  O58  1  0.61568125  0.96627276  0.83751049  1
  O  O59  1  0.61568125  0.53372724  0.83751049  1
  O  O60  1  0.75086651  0.86815617  0.51726808  1
  O  O61  1  0.75086651  0.63184383  0.51726808  1
  O  O62  1  0.75077836  0.25000000  0.39399697  1
  O  O63  1  0.75130505  0.75000000  0.89515852  1
  O  O64  1  0.75734248  0.13167542  0.01857803  1
  O  O65  1  0.75734248  0.36832458  0.01857803  1
  O  O66  1  0.88382754  0.03459731  0.33747550  1
  O  O67  1  0.88382754  0.46540269  0.33747550  1
  O  O68  1  0.89062018  0.53580495  0.83806073  1
  O  O69  1  0.89062018  0.96419505  0.83806073  1
  O  O70  1  0.87843571  0.75000000  0.33589579  1
  O  O71  1  0.88048951  0.25000000  0.83445111  1
  O  O72  1  0.89002231  0.10443033  0.60082922  1
  O  O73  1  0.89002231  0.39556967  0.60082922  1
  O  O74  1  0.88790441  0.89411445  0.10129447  1
  O  O75  1  0.88790441  0.60588555  0.10129447  1
