# generated using pymatgen
data_LiCrSiO4
_symmetry_space_group_name_H-M   'P 1'
_cell_length_a   5.87649508
_cell_length_b   5.54738936
_cell_length_c   5.66691463
_cell_angle_alpha   60.69529158
_cell_angle_beta   58.76888170
_cell_angle_gamma   90.00000000
_symmetry_Int_Tables_number   1
_chemical_formula_structural   LiCrSiO4
_chemical_formula_sum   'Li2 Cr2 Si2 O8'
_cell_volume   129.52696225
_cell_formula_units_Z   2
loop_
 _symmetry_equiv_pos_site_id
 _symmetry_equiv_pos_as_xyz
  1  'x, y, z'
loop_
 _atom_site_type_symbol
 _atom_site_label
 _atom_site_symmetry_multiplicity
 _atom_site_fract_x
 _atom_site_fract_y
 _atom_site_fract_z
 _atom_site_occupancy
  Li  Li0  1  0.00000000  0.00000000  0.50000000  1
  Li  Li1  1  0.00000000  0.50000000  0.50000000  1
  Cr  Cr2  1  0.00000000  0.00000000  0.00000000  1
  Cr  Cr3  1  0.50000000  0.00000000  0.00000000  1
  Si  Si4  1  0.61480144  0.36480144  0.27039711  1
  Si  Si5  1  0.38519856  0.63519856  0.72960289  1
  O  O6  1  0.25689096  0.26166492  0.98621907  1
  O  O7  1  0.74310904  0.24788400  0.01378093  1
  O  O8  1  0.73567384  0.25175156  0.49649688  1
  O  O9  1  0.26783028  0.25175156  0.49649688  1
  O  O10  1  0.25689096  0.75211600  0.98621907  1
  O  O11  1  0.74310904  0.73833508  0.01378093  1
  O  O12  1  0.26432616  0.74824844  0.50350312  1
  O  O13  1  0.73216972  0.74824844  0.50350312  1
