# generated using pymatgen
data_LiCoSiO4
_symmetry_space_group_name_H-M   'P 1'
_cell_length_a   8.46434240
_cell_length_b   5.27866598
_cell_length_c   8.19829595
_cell_angle_alpha   90.00000000
_cell_angle_beta   104.68290374
_cell_angle_gamma   90.00000000
_symmetry_Int_Tables_number   1
_chemical_formula_structural   LiCoSiO4
_chemical_formula_sum   'Li4 Co4 Si4 O16'
_cell_volume   354.34122470
_cell_formula_units_Z   4
loop_
 _symmetry_equiv_pos_site_id
 _symmetry_equiv_pos_as_xyz
  1  'x, y, z'
loop_
 _atom_site_type_symbol
 _atom_site_label
 _atom_site_symmetry_multiplicity
 _atom_site_fract_x
 _atom_site_fract_y
 _atom_site_fract_z
 _atom_site_occupancy
  Li  Li0  1  0.07704626  0.84403242  0.96746618  1
  Li  Li1  1  0.28011147  0.32889008  0.50621862  1
  Li  Li2  1  0.57704626  0.15596758  0.96746618  1
  Li  Li3  1  0.78011147  0.67110992  0.50621862  1
  Co  Co4  1  0.21388161  0.33024209  0.87035307  1
  Co  Co5  1  0.37712564  0.82058332  0.36350106  1
  Co  Co6  1  0.71388161  0.66975791  0.87035307  1
  Co  Co7  1  0.87712564  0.17941668  0.36350106  1
  Si  Si8  1  0.00390966  0.67567247  0.24748436  1
  Si  Si9  1  0.33479444  0.82714056  0.73954368  1
  Si  Si10  1  0.50390966  0.32432753  0.24748436  1
  Si  Si11  1  0.83479444  0.17285944  0.73954368  1
  O  O12  1  0.01747203  0.18336981  0.87315188  1
  O  O13  1  0.03888442  0.38530546  0.32205688  1
  O  O14  1  0.20467306  0.67897629  0.82600132  1
  O  O15  1  0.28202731  0.12743656  0.70763982  1
  O  O16  1  0.17341520  0.79305803  0.21504374  1
  O  O17  1  0.33795737  0.68621683  0.56258249  1
  O  O18  1  0.51747203  0.81663019  0.87315188  1
  O  O19  1  0.42661824  0.16480908  0.38157149  1
  O  O20  1  0.38588229  0.29880205  0.05618441  1
  O  O21  1  0.53888442  0.61469454  0.32205688  1
  O  O22  1  0.70467306  0.32102371  0.82600132  1
  O  O23  1  0.78202731  0.87256344  0.70763982  1
  O  O24  1  0.67341520  0.20694197  0.21504374  1
  O  O25  1  0.83795737  0.31378317  0.56258249  1
  O  O26  1  0.92661824  0.83519092  0.38157149  1
  O  O27  1  0.88588229  0.70119795  0.05618441  1
