# generated using pymatgen
data_Li2V(CO3)3
_symmetry_space_group_name_H-M   'P 1'
_cell_length_a   9.79497951
_cell_length_b   6.24072691
_cell_length_c   6.24072703
_cell_angle_alpha   101.05850622
_cell_angle_beta   90.00000000
_cell_angle_gamma   90.00000000
_symmetry_Int_Tables_number   1
_chemical_formula_structural   Li2V(CO3)3
_chemical_formula_sum   'Li4 V2 C6 O18'
_cell_volume   374.39844512
_cell_formula_units_Z   2
loop_
 _symmetry_equiv_pos_site_id
 _symmetry_equiv_pos_as_xyz
  1  'x, y, z'
loop_
 _atom_site_type_symbol
 _atom_site_label
 _atom_site_symmetry_multiplicity
 _atom_site_fract_x
 _atom_site_fract_y
 _atom_site_fract_z
 _atom_site_occupancy
  Li  Li0  1  0.25000000  0.36840191  0.32618371  1
  Li  Li1  1  0.25000000  0.74746416  0.17665707  1
  Li  Li2  1  0.75000000  0.17665707  0.74746416  1
  Li  Li3  1  0.75000000  0.32618371  0.36840191  1
  V  V4  1  0.25000000  0.08460825  0.67227134  1
  V  V5  1  0.75000000  0.67227134  0.08460825  1
  C  C6  1  0.01839312  0.16703995  0.57255799  1
  C  C7  1  0.25000000  0.70955552  0.74269090  1
  C  C8  1  0.48160688  0.16703995  0.57255799  1
  C  C9  1  0.51839312  0.57255799  0.16703995  1
  C  C10  1  0.75000000  0.74269090  0.70955552  1
  C  C11  1  0.98160688  0.57255799  0.16703995  1
  O  O12  1  0.06244138  0.13980514  0.76772819  1
  O  O13  1  0.10318074  0.53185405  0.19670336  1
  O  O14  1  0.12153814  0.15343268  0.43529376  1
  O  O15  1  0.25000000  0.51249855  0.74985724  1
  O  O16  1  0.25000000  0.78114654  0.55024270  1
  O  O17  1  0.25000000  0.87501984  0.90671005  1
  O  O18  1  0.37846186  0.15343268  0.43529376  1
  O  O19  1  0.39681926  0.53185405  0.19670336  1
  O  O20  1  0.43755862  0.13980514  0.76772819  1
  O  O21  1  0.56244138  0.76772819  0.13980514  1
  O  O22  1  0.60318074  0.19670336  0.53185405  1
  O  O23  1  0.62153814  0.43529376  0.15343268  1
  O  O24  1  0.75000000  0.55024270  0.78114654  1
  O  O25  1  0.75000000  0.74985724  0.51249855  1
  O  O26  1  0.75000000  0.90671005  0.87501984  1
  O  O27  1  0.87846186  0.43529376  0.15343268  1
  O  O28  1  0.89681926  0.19670336  0.53185405  1
  O  O29  1  0.93755862  0.76772819  0.13980514  1
