# generated using pymatgen
data_Li2Ti2V3O10
_symmetry_space_group_name_H-M   'P 1'
_cell_length_a   5.17794392
_cell_length_b   5.12430677
_cell_length_c   7.71557461
_cell_angle_alpha   76.51487055
_cell_angle_beta   104.27420290
_cell_angle_gamma   101.21480660
_symmetry_Int_Tables_number   1
_chemical_formula_structural   Li2Ti2V3O10
_chemical_formula_sum   'Li2 Ti2 V3 O10'
_cell_volume   190.88084781
_cell_formula_units_Z   1
loop_
 _symmetry_equiv_pos_site_id
 _symmetry_equiv_pos_as_xyz
  1  'x, y, z'
loop_
 _atom_site_type_symbol
 _atom_site_label
 _atom_site_symmetry_multiplicity
 _atom_site_fract_x
 _atom_site_fract_y
 _atom_site_fract_z
 _atom_site_occupancy
  Li  Li0  1  0.22780479  0.53229702  0.40134739  1
  Li  Li1  1  0.77219521  0.46770298  0.59865261  1
  Ti  Ti2  1  0.12255337  0.01335792  0.68420893  1
  Ti  Ti3  1  0.87744663  0.98664208  0.31579107  1
  V  V4  1  0.00000000  0.50000000  0.00000000  1
  V  V5  1  0.68423170  0.96697030  0.89709549  1
  V  V6  1  0.31576830  0.03302970  0.10290451  1
  O  O7  1  0.04686896  0.21106120  0.86276939  1
  O  O8  1  0.07198594  0.77178685  0.51679379  1
  O  O9  1  0.31857648  0.77831860  0.94014460  1
  O  O10  1  0.20082582  0.26744571  0.21816330  1
  O  O11  1  0.47223988  0.17853410  0.68581241  1
  O  O12  1  0.52776012  0.82146590  0.31418759  1
  O  O13  1  0.79917418  0.73255429  0.78183670  1
  O  O14  1  0.68142352  0.22168140  0.05985540  1
  O  O15  1  0.92801406  0.22821315  0.48320621  1
  O  O16  1  0.95313104  0.78893880  0.13723061  1
