# generated using pymatgen
data_FeOF
_symmetry_space_group_name_H-M   'P 1'
_cell_length_a   14.13048944
_cell_length_b   14.23480615
_cell_length_c   3.10529240
_cell_angle_alpha   90.00000000
_cell_angle_beta   90.00000000
_cell_angle_gamma   90.18852383
_symmetry_Int_Tables_number   1
_chemical_formula_structural   FeOF
_chemical_formula_sum   'Fe18 O18 F18'
_cell_volume   624.60996922
_cell_formula_units_Z   18
loop_
 _symmetry_equiv_pos_site_id
 _symmetry_equiv_pos_as_xyz
  1  'x, y, z'
loop_
 _atom_site_type_symbol
 _atom_site_label
 _atom_site_symmetry_multiplicity
 _atom_site_fract_x
 _atom_site_fract_y
 _atom_site_fract_z
 _atom_site_occupancy
  Fe  Fe0  1  0.01704317  0.99068604  0.00000000  1
  Fe  Fe1  1  0.00552521  0.32356516  0.00000000  1
  Fe  Fe2  1  0.00114573  0.67581042  0.00000000  1
  Fe  Fe3  1  0.15341787  0.16199910  0.50000000  1
  Fe  Fe4  1  0.17584828  0.51151317  0.50000000  1
  Fe  Fe5  1  0.16466836  0.82369763  0.50000000  1
  Fe  Fe6  1  0.34858105  0.99730193  0.00000000  1
  Fe  Fe7  1  0.34440539  0.33633381  0.00000000  1
  Fe  Fe8  1  0.32955386  0.67162341  0.00000000  1
  Fe  Fe9  1  0.48082401  0.50703116  0.50000000  1
  Fe  Fe10  1  0.50431774  0.14663104  0.50000000  1
  Fe  Fe11  1  0.50757478  0.85107592  0.50000000  1
  Fe  Fe12  1  0.66585858  0.99959675  0.00000000  1
  Fe  Fe13  1  0.67896045  0.33002594  0.00000000  1
  Fe  Fe14  1  0.68020839  0.66619902  0.00000000  1
  Fe  Fe15  1  0.81406085  0.15579159  0.50000000  1
  Fe  Fe16  1  0.81734051  0.49869946  0.50000000  1
  Fe  Fe17  1  0.81286635  0.83905231  0.50000000  1
  O  O18  1  0.06740652  0.27186913  0.50000000  1
  O  O19  1  0.06846529  0.92913948  0.50000000  1
  O  O20  1  0.10174723  0.10242968  0.00000000  1
  O  O21  1  0.10141035  0.76467386  0.00000000  1
  O  O22  1  0.22895849  0.56330943  0.00000000  1
  O  O23  1  0.26710147  0.73389250  0.50000000  1
  O  O24  1  0.39608327  0.60572933  0.50000000  1
  O  O25  1  0.39698906  0.93422342  0.50000000  1
  O  O26  1  0.43541345  0.10234831  0.00000000  1
  O  O27  1  0.43001072  0.43509710  0.00000000  1
  O  O28  1  0.56834505  0.90006436  0.00000000  1
  O  O29  1  0.60459270  0.06346436  0.50000000  1
  O  O30  1  0.73098690  0.26741114  0.50000000  1
  O  O31  1  0.73339052  0.60244610  0.50000000  1
  O  O32  1  0.72971985  0.93828539  0.50000000  1
  O  O33  1  0.76739376  0.09788493  0.00000000  1
  O  O34  1  0.77066801  0.43510135  0.00000000  1
  O  O35  1  0.76573083  0.77139247  0.00000000  1
  F  F36  1  0.05969061  0.59673552  0.50000000  1
  F  F37  1  0.09937073  0.43727968  0.00000000  1
  F  F38  1  0.23740290  0.23363897  0.00000000  1
  F  F39  1  0.23223460  0.90168167  0.00000000  1
  F  F40  1  0.26715787  0.06824009  0.50000000  1
  F  F41  1  0.26236884  0.39215621  0.50000000  1
  F  F42  1  0.40036830  0.26614077  0.50000000  1
  F  F43  1  0.44068802  0.77192860  0.00000000  1
  F  F44  1  0.56366287  0.23531296  0.00000000  1
  F  F45  1  0.56431086  0.56644106  0.00000000  1
  F  F46  1  0.60042975  0.40072549  0.50000000  1
  F  F47  1  0.59966791  0.72905705  0.50000000  1
  F  F48  1  0.89914401  0.23138215  0.00000000  1
  F  F49  1  0.90272414  0.56732057  0.00000000  1
  F  F50  1  0.89914341  0.89981945  0.00000000  1
  F  F51  1  0.93641003  0.06268198  0.50000000  1
  F  F52  1  0.93781115  0.39980600  0.50000000  1
  F  F53  1  0.93080093  0.73425761  0.50000000  1
