# generated using pymatgen
data_V3O7F
_symmetry_space_group_name_H-M   'P 1'
_cell_length_a   15.06636499
_cell_length_b   9.96265057
_cell_length_c   3.61397503
_cell_angle_alpha   90.00000000
_cell_angle_beta   90.00021686
_cell_angle_gamma   90.00000000
_symmetry_Int_Tables_number   1
_chemical_formula_structural   V3O7F
_chemical_formula_sum   'V12 O28 F4'
_cell_volume   542.46101211
_cell_formula_units_Z   4
loop_
 _symmetry_equiv_pos_site_id
 _symmetry_equiv_pos_as_xyz
  1  'x, y, z'
loop_
 _atom_site_type_symbol
 _atom_site_label
 _atom_site_symmetry_multiplicity
 _atom_site_fract_x
 _atom_site_fract_y
 _atom_site_fract_z
 _atom_site_occupancy
  V  V0  1  0.04785409  0.25000000  0.44598267  1
  V  V1  1  0.16483255  0.55755326  0.49540963  1
  V  V2  1  0.16483255  0.94244674  0.49540963  1
  V  V3  1  0.33516097  0.05755688  0.99540904  1
  V  V4  1  0.33516097  0.44244312  0.99540904  1
  V  V5  1  0.45213664  0.75000000  0.94596717  1
  V  V6  1  0.54786336  0.25000000  0.05403283  1
  V  V7  1  0.66483903  0.55755688  0.00459096  1
  V  V8  1  0.66483903  0.94244312  0.00459096  1
  V  V9  1  0.83516745  0.05755326  0.50459037  1
  V  V10  1  0.83516745  0.44244674  0.50459037  1
  V  V11  1  0.95214591  0.75000000  0.55401733  1
  O  O12  1  0.02754338  0.25000000  0.98779465  1
  O  O13  1  0.06432582  0.62408608  0.50129371  1
  O  O14  1  0.06432582  0.87591392  0.50129371  1
  O  O15  1  0.12271524  0.11490575  0.49021677  1
  O  O16  1  0.12271524  0.38509425  0.49021677  1
  O  O17  1  0.19960335  0.95144532  0.99520705  1
  O  O18  1  0.19960335  0.54855468  0.99520705  1
  O  O19  1  0.30039537  0.04855447  0.49520781  1
  O  O20  1  0.30039537  0.45144453  0.49520781  1
  O  O21  1  0.37728352  0.61490526  0.99021724  1
  O  O22  1  0.37728352  0.88509474  0.99021724  1
  O  O23  1  0.43567404  0.12408647  0.00129416  1
  O  O24  1  0.43567404  0.37591353  0.00129416  1
  O  O25  1  0.47245581  0.75000000  0.48778647  1
  O  O26  1  0.52754419  0.25000000  0.51221353  1
  O  O27  1  0.56432596  0.62408647  0.99870584  1
  O  O28  1  0.56432596  0.87591353  0.99870584  1
  O  O29  1  0.62271648  0.11490526  0.00978276  1
  O  O30  1  0.62271648  0.38509474  0.00978276  1
  O  O31  1  0.69960463  0.54855447  0.50479219  1
  O  O32  1  0.69960463  0.95144553  0.50479219  1
  O  O33  1  0.80039665  0.04855468  0.00479295  1
  O  O34  1  0.80039665  0.45144432  0.00479295  1
  O  O35  1  0.87728476  0.61490575  0.50978323  1
  O  O36  1  0.87728476  0.88509425  0.50978323  1
  O  O37  1  0.93567418  0.12408608  0.49870629  1
  O  O38  1  0.93567418  0.37591392  0.49870629  1
  O  O39  1  0.97245662  0.75000000  0.01220535  1
  F  F40  1  0.21731158  0.75000000  0.49471516  1
  F  F41  1  0.28268668  0.25000000  0.99471597  1
  F  F42  1  0.71731332  0.75000000  0.00528403  1
  F  F43  1  0.78268842  0.25000000  0.50528484  1
