# generated using pymatgen
data_RbHfMg30O31
_symmetry_space_group_name_H-M   'P 1'
_cell_length_a   8.65570387
_cell_length_b   8.67869691
_cell_length_c   8.68109213
_cell_angle_alpha   90.00000000
_cell_angle_beta   90.00000000
_cell_angle_gamma   90.00000000
_symmetry_Int_Tables_number   1
_chemical_formula_structural   RbHfMg30O31
_chemical_formula_sum   'Rb1 Hf1 Mg30 O31'
_cell_volume   652.12564119
_cell_formula_units_Z   1
loop_
 _symmetry_equiv_pos_site_id
 _symmetry_equiv_pos_as_xyz
  1  'x, y, z'
loop_
 _atom_site_type_symbol
 _atom_site_label
 _atom_site_symmetry_multiplicity
 _atom_site_fract_x
 _atom_site_fract_y
 _atom_site_fract_z
 _atom_site_occupancy
  Rb  Rb0  1  0.00261134  -0.00000000  0.00000000  1
  Hf  Hf1  1  0.02165492  -0.00000000  0.50000000  1
  Mg  Mg2  1  -0.00111552  0.50000000  0.00000000  1
  Mg  Mg3  1  0.99660324  0.50000000  0.50000000  1
  Mg  Mg4  1  0.50223071  -0.00000000  0.00000000  1
  Mg  Mg5  1  0.50137277  -0.00000000  0.50000000  1
  Mg  Mg6  1  0.50065813  0.50000000  0.00000000  1
  Mg  Mg7  1  0.50166764  0.50000000  0.50000000  1
  Mg  Mg8  1  -0.00119367  0.26057188  0.24666310  1
  Mg  Mg9  1  -0.00119367  0.26057188  0.75333690  1
  Mg  Mg10  1  -0.00119367  0.73942812  0.24666310  1
  Mg  Mg11  1  -0.00119367  0.73942812  0.75333690  1
  Mg  Mg12  1  0.50042813  0.25215993  0.24928991  1
  Mg  Mg13  1  0.50042813  0.25215993  0.75071009  1
  Mg  Mg14  1  0.50042813  0.74784007  0.24928991  1
  Mg  Mg15  1  0.50042813  0.74784007  0.75071009  1
  Mg  Mg16  1  0.26295339  -0.00000000  0.24237781  1
  Mg  Mg17  1  0.26295339  -0.00000000  0.75762219  1
  Mg  Mg18  1  0.25158568  0.50000000  0.24753456  1
  Mg  Mg19  1  0.25158568  0.50000000  0.75246544  1
  Mg  Mg20  1  0.74243194  -0.00000000  0.24963912  1
  Mg  Mg21  1  0.74243194  -0.00000000  0.75036088  1
  Mg  Mg22  1  0.74767596  0.50000000  0.24951639  1
  Mg  Mg23  1  0.74767596  0.50000000  0.75048361  1
  Mg  Mg24  1  0.25475135  0.25655077  0.00000000  1
  Mg  Mg25  1  0.25379341  0.25820788  0.50000000  1
  Mg  Mg26  1  0.25475135  0.74344923  0.00000000  1
  Mg  Mg27  1  0.25379341  0.74179212  0.50000000  1
  Mg  Mg28  1  0.74583607  0.25374197  0.00000000  1
  Mg  Mg29  1  0.74730347  0.25145150  0.50000000  1
  Mg  Mg30  1  0.74583607  0.74625803  0.00000000  1
  Mg  Mg31  1  0.74730347  0.74854850  0.50000000  1
  O  O32  1  0.28155348  -0.00000000  0.00000000  1
  O  O33  1  0.25588318  0.50000000  0.00000000  1
  O  O34  1  0.25046607  0.50000000  0.50000000  1
  O  O35  1  0.72225084  -0.00000000  0.00000000  1
  O  O36  1  0.74747260  -0.00000000  0.50000000  1
  O  O37  1  0.74379988  0.50000000  0.00000000  1
  O  O38  1  0.74732367  0.50000000  0.50000000  1
  O  O39  1  0.24938219  0.25243005  0.24558848  1
  O  O40  1  0.24938219  0.25243005  0.75441152  1
  O  O41  1  0.24938219  0.74756995  0.24558848  1
  O  O42  1  0.24938219  0.74756995  0.75441152  1
  O  O43  1  0.74965871  0.25001591  0.24943566  1
  O  O44  1  0.74965871  0.25001591  0.75056434  1
  O  O45  1  0.74965871  0.74998409  0.24943566  1
  O  O46  1  0.74965871  0.74998409  0.75056434  1
  O  O47  1  0.99200721  -0.00000000  0.27463551  1
  O  O48  1  0.99200721  -0.00000000  0.72536449  1
  O  O49  1  0.99903505  0.50000000  0.25692711  1
  O  O50  1  0.99903505  0.50000000  0.74307289  1
  O  O51  1  0.50040823  -0.00000000  0.25741836  1
  O  O52  1  0.50040823  -0.00000000  0.74258164  1
  O  O53  1  0.49994405  0.50000000  0.25267623  1
  O  O54  1  0.49994405  0.50000000  0.74732377  1
  O  O55  1  0.99850888  0.27953402  0.00000000  1
  O  O56  1  0.99397766  0.25594324  0.50000000  1
  O  O57  1  0.99850888  0.72046598  0.00000000  1
  O  O58  1  0.99397766  0.74405676  0.50000000  1
  O  O59  1  0.50062692  0.25587040  0.00000000  1
  O  O60  1  0.50039353  0.25214772  0.50000000  1
  O  O61  1  0.50062692  0.74412960  0.00000000  1
  O  O62  1  0.50039353  0.74785228  0.50000000  1
