# generated using pymatgen
data_Li2Mn3O6
_symmetry_space_group_name_H-M   'P 1'
_cell_length_a   6.55275570
_cell_length_b   6.63409474
_cell_length_c   15.96365761
_cell_angle_alpha   82.94172089
_cell_angle_beta   95.53890629
_cell_angle_gamma   97.70433091
_symmetry_Int_Tables_number   1
_chemical_formula_structural   Li2Mn3O6
_chemical_formula_sum   'Li12 Mn18 O36'
_cell_volume   680.22524927
_cell_formula_units_Z   6
loop_
 _symmetry_equiv_pos_site_id
 _symmetry_equiv_pos_as_xyz
  1  'x, y, z'
loop_
 _atom_site_type_symbol
 _atom_site_label
 _atom_site_symmetry_multiplicity
 _atom_site_fract_x
 _atom_site_fract_y
 _atom_site_fract_z
 _atom_site_occupancy
  Li  Li0  1  0.91253168  0.41342535  0.58380561  1
  Li  Li1  1  0.75582485  0.25349392  0.08285247  1
  Li  Li2  1  0.74979554  0.24973973  0.41684297  1
  Li  Li3  1  0.74810823  0.25045114  0.75097053  1
  Li  Li4  1  0.58726964  0.08663537  0.24952128  1
  Li  Li5  1  0.57814806  0.07888477  0.91660084  1
  Li  Li6  1  0.41121602  0.91288816  0.08439098  1
  Li  Li7  1  0.41482492  0.91269439  0.42037724  1
  Li  Li8  1  0.41401041  0.91729603  0.74574281  1
  Li  Li9  1  0.08346945  0.58325156  0.08365717  1
  Li  Li10  1  0.08558003  0.58729032  0.41362891  1
  Li  Li11  1  0.08457029  0.58393240  0.75357441  1
  Mn  Mn12  1  0.99565253  0.00385271  0.33384494  1
  Mn  Mn13  1  0.99618220  0.00285565  0.66524292  1
  Mn  Mn14  1  0.84838901  0.81966003  0.16806123  1
  Mn  Mn15  1  0.84001556  0.82373759  0.50157300  1
  Mn  Mn16  1  0.84042157  0.82431592  0.83506877  1
  Mn  Mn17  1  0.65993630  0.67621836  0.33207210  1
  Mn  Mn18  1  0.65452787  0.67801672  0.66576538  1
  Mn  Mn19  1  0.50267132  0.49742582  0.16789154  1
  Mn  Mn20  1  0.66420466  0.67115372  0.99828887  1
  Mn  Mn21  1  0.50399429  0.49528664  0.49990689  1
  Mn  Mn22  1  0.50489970  0.49088682  0.83413510  1
  Mn  Mn23  1  0.32510878  0.34252225  0.33171156  1
  Mn  Mn24  1  0.33033324  0.34391467  0.66482874  1
  Mn  Mn25  1  0.16981641  0.15508736  0.16841441  1
  Mn  Mn26  1  0.31763505  0.34717490  0.99822811  1
  Mn  Mn27  1  0.17468548  0.15843420  0.50144874  1
  Mn  Mn28  1  0.17287480  0.16049223  0.83279525  1
  Mn  Mn29  1  0.99730081  0.01187245  0.99835504  1
  O  O30  1  0.89067802  0.09810852  0.20067697  1
  O  O31  1  0.93646082  0.72856153  0.30195983  1
  O  O32  1  0.90598946  0.10359516  0.54662479  1
  O  O33  1  0.93544750  0.72918762  0.63411928  1
  O  O34  1  0.89179535  0.09700162  0.86704182  1
  O  O35  1  0.77166108  0.56116363  0.11291478  1
  O  O36  1  0.93066163  0.73299543  0.95487323  1
  O  O37  1  0.78464374  0.54195022  0.46374212  1
  O  O38  1  0.71384519  0.94880073  0.03056695  1
  O  O39  1  0.77940910  0.55826270  0.79550700  1
  O  O40  1  0.71417590  0.95768854  0.37006681  1
  O  O41  1  0.59394694  0.39715568  0.28668910  1
  O  O42  1  0.72941688  0.93987965  0.71896331  1
  O  O43  1  0.60960649  0.39876354  0.63224259  1
  O  O44  1  0.56637558  0.77123458  0.19873660  1
  O  O45  1  0.45406462  0.21918994  0.13630095  1
  O  O46  1  0.59736330  0.39855923  0.96446844  1
  O  O47  1  0.56457137  0.77062118  0.53297740  1
  O  O48  1  0.43797934  0.22864382  0.44766655  1
  O  O49  1  0.39490033  0.60458202  0.05353394  1
  O  O50  1  0.57500458  0.77542276  0.88151611  1
  O  O51  1  0.45075573  0.20034060  0.79644263  1
  O  O52  1  0.38645819  0.60903421  0.37192898  1
  O  O53  1  0.27713090  0.07066109  0.29896172  1
  O  O54  1  0.38859218  0.61028123  0.71296102  1
  O  O55  1  0.23624375  0.43370048  0.21180298  1
  O  O56  1  0.26519681  0.06925845  0.62175409  1
  O  O57  1  0.27667853  0.06798061  0.96689655  1
  O  O58  1  0.22063604  0.43134915  0.53198515  1
  O  O59  1  0.05496904  0.28383587  0.04632288  1
  O  O60  1  0.11172036  0.88334326  0.12072177  1
  O  O61  1  0.22889918  0.43547156  0.86434818  1
  O  O62  1  0.06158359  0.26929427  0.38596568  1
  O  O63  1  0.11416194  0.89114463  0.46202517  1
  O  O64  1  0.04611718  0.28053673  0.69778579  1
  O  O65  1  0.10535468  0.89700754  0.77944401  1
