# generated using pymatgen
data_Ti3Cu2P6WO24
_symmetry_space_group_name_H-M   'P 1'
_cell_length_a   8.70318005
_cell_length_b   8.69928333
_cell_length_c   8.69928431
_cell_angle_alpha   60.00000071
_cell_angle_beta   60.01480559
_cell_angle_gamma   60.01480942
_symmetry_Int_Tables_number   1
_chemical_formula_structural   Ti3Cu2P6WO24
_chemical_formula_sum   'Ti3 Cu2 P6 W1 O24'
_cell_volume   465.82966127
_cell_formula_units_Z   1
loop_
 _symmetry_equiv_pos_site_id
 _symmetry_equiv_pos_as_xyz
  1  'x, y, z'
loop_
 _atom_site_type_symbol
 _atom_site_label
 _atom_site_symmetry_multiplicity
 _atom_site_fract_x
 _atom_site_fract_y
 _atom_site_fract_z
 _atom_site_occupancy
  Ti  Ti0  1  0.07443296  0.64185601  0.64185601  1
  Ti  Ti1  1  0.42574485  0.85808472  0.85808472  1
  Ti  Ti2  1  0.92658918  0.35780394  0.35780394  1
  Cu  Cu3  1  0.01326264  0.99557945  0.99557945  1
  Cu  Cu4  1  0.50024945  0.49991718  0.49991718  1
  P  P5  1  0.24730929  0.25118333  0.54237311  1
  P  P6  1  0.24730929  0.95913328  0.25118333  1
  P  P7  1  0.24730929  0.54237311  0.95913328  1
  P  P8  1  0.74999722  0.46365898  0.03935256  1
  P  P9  1  0.74999722  0.03935256  0.74699124  1
  P  P10  1  0.74999722  0.74699124  0.46365898  1
  W  W11  1  0.57492305  0.14169232  0.14169232  1
  O  O12  1  0.07264973  0.12515229  0.30313840  1
  O  O13  1  0.07264973  0.49905858  0.12515229  1
  O  O14  1  0.07264973  0.30313840  0.49905858  1
  O  O15  1  0.24468043  0.08384688  0.72972573  1
  O  O16  1  0.42697720  0.19817592  0.38290684  1
  O  O17  1  0.25230873  0.41699867  0.56002992  1
  O  O18  1  0.24468043  0.94174696  0.08384688  1
  O  O19  1  0.25230873  0.77066268  0.41699867  1
  O  O20  1  0.57141954  0.62535415  0.00027792  1
  O  O21  1  0.25230873  0.56002992  0.77066268  1
  O  O22  1  0.75589944  0.27406043  0.05801516  1
  O  O23  1  0.57141954  0.00027792  0.80294840  1
  O  O24  1  0.42697720  0.99193904  0.19817592  1
  O  O25  1  0.24468043  0.72972573  0.94174696  1
  O  O26  1  0.74597680  0.44234315  0.22878889  1
  O  O27  1  0.42697720  0.38290684  0.99193904  1
  O  O28  1  0.74597680  0.22878889  0.58289216  1
  O  O29  1  0.75589944  0.05801516  0.91202597  1
  O  O30  1  0.74597680  0.58289216  0.44234315  1
  O  O31  1  0.57141954  0.80294840  0.62535415  1
  O  O32  1  0.75589944  0.91202597  0.27406043  1
  O  O33  1  0.92771425  0.69720725  0.50003706  1
  O  O34  1  0.92771425  0.50003706  0.87504144  1
  O  O35  1  0.92771425  0.87504144  0.69720725  1
