# generated using pymatgen
data_Li19Cr4P8O35F
_symmetry_space_group_name_H-M   'P 1'
_cell_length_a   6.87957202
_cell_length_b   10.57014205
_cell_length_c   10.59276959
_cell_angle_alpha   94.70717666
_cell_angle_beta   108.93925599
_cell_angle_gamma   71.05766167
_symmetry_Int_Tables_number   1
_chemical_formula_structural   Li19Cr4P8O35F
_chemical_formula_sum   'Li19 Cr4 P8 O35 F1'
_cell_volume   688.89515320
_cell_formula_units_Z   1
loop_
 _symmetry_equiv_pos_site_id
 _symmetry_equiv_pos_as_xyz
  1  'x, y, z'
loop_
 _atom_site_type_symbol
 _atom_site_label
 _atom_site_symmetry_multiplicity
 _atom_site_fract_x
 _atom_site_fract_y
 _atom_site_fract_z
 _atom_site_occupancy
  Li  Li0  1  0.99292794  0.25126401  0.23964753  1
  Li  Li1  1  0.49549418  0.25088710  0.23943999  1
  Li  Li2  1  0.37657197  0.26137180  0.48413883  1
  Li  Li3  1  0.62330037  0.48630667  0.25402163  1
  Li  Li4  1  0.88160293  0.73872492  0.00500710  1
  Li  Li5  1  0.12186792  0.01130268  0.75284114  1
  Li  Li6  1  0.26590747  0.73372574  0.26031901  1
  Li  Li7  1  0.77003100  0.72504959  0.26883877  1
  Li  Li8  1  0.73588428  0.26599166  0.73628970  1
  Li  Li9  1  0.22645985  0.27438361  0.72854132  1
  Li  Li10  1  0.99858459  0.49879691  0.49942607  1
  Li  Li11  1  0.38005737  0.99468515  0.25139679  1
  Li  Li12  1  0.61682527  0.25906368  0.99597883  1
  Li  Li13  1  0.16246879  0.73110552  0.51394079  1
  Li  Li14  1  0.85521461  0.51138227  0.74440313  1
  Li  Li15  1  0.00301392  0.74456918  0.76431226  1
  Li  Li16  1  0.51760651  0.74574247  0.76506658  1
  Li  Li17  1  0.99899753  0.99929413  0.00074765  1
  Li  Li18  1  0.50238356  0.99942784  0.00083114  1
  Cr  Cr19  1  0.73897662  0.00419825  0.49866220  1
  Cr  Cr20  1  0.24873412  0.50056634  0.00183594  1
  Cr  Cr21  1  0.26052817  0.99839462  0.49619618  1
  Cr  Cr22  1  0.74707290  0.49835462  0.99658042  1
  P  P23  1  0.12993547  0.50413625  0.27387202  1
  P  P24  1  0.86870341  0.27399923  0.50374736  1
  P  P25  1  0.36422126  0.77464266  0.00411525  1
  P  P26  1  0.63423129  0.00494874  0.77245436  1
  P  P27  1  0.86638237  0.99306530  0.22459367  1
  P  P28  1  0.13382470  0.22478268  0.99435656  1
  P  P29  1  0.35968661  0.49510629  0.72388960  1
  P  P30  1  0.64018116  0.72430212  0.49574936  1
  O  O31  1  0.24269262  0.09612935  0.08304908  1
  O  O32  1  0.75794206  0.08223659  0.09693322  1
  O  O33  1  0.92388688  0.30024129  0.03016061  1
  O  O34  1  0.30207066  0.30193097  0.03380097  1
  O  O35  1  0.70020146  0.03290480  0.30383174  1
  O  O36  1  0.07673725  0.02870933  0.30210174  1
  O  O37  1  0.56073982  0.44237863  0.06768121  1
  O  O38  1  0.43564350  0.07065926  0.43969344  1
  O  O39  1  0.22412323  0.35115512  0.30657586  1
  O  O40  1  0.77582597  0.30783872  0.35177808  1
  O  O41  1  0.11177089  0.18285420  0.54184221  1
  O  O42  1  0.26508561  0.54535037  0.20025879  1
  O  O43  1  0.73448569  0.19826587  0.54481716  1
  O  O44  1  0.88638255  0.54075639  0.18654806  1
  O  O45  1  0.42582061  0.80610425  0.15535008  1
  O  O46  1  0.57300024  0.15556612  0.80448538  1
  O  O47  1  0.12188656  0.59253030  0.39561033  1
  O  O48  1  0.87787601  0.39392685  0.59350515  1
  O  O49  1  0.31923489  0.40670975  0.60254072  1
  O  O50  1  0.67742860  0.60504920  0.40502972  1
  O  O51  1  0.07467586  0.19415653  0.84251970  1
  O  O52  1  0.92513059  0.84160811  0.19376561  1
  O  O53  1  0.75648470  0.81497918  0.45900642  1
  O  O54  1  0.38898774  0.80095379  0.45567051  1
  O  O55  1  0.60934816  0.45467506  0.79797899  1
  O  O56  1  0.24000575  0.45905527  0.81152359  1
  O  O57  1  0.26796372  0.64884584  0.69138347  1
  O  O58  1  0.73249890  0.68995875  0.64752964  1
  O  O59  1  0.93493350  0.55707717  0.93042825  1
  O  O60  1  0.57022585  0.69730727  0.96486915  1
  O  O61  1  0.42754374  0.96556572  0.69247036  1
  O  O62  1  0.80274170  0.97037936  0.69440215  1
  O  O63  1  0.19396858  0.69897102  0.96871646  1
  O  O64  1  0.74303470  0.91284037  0.89832093  1
  O  O65  1  0.25535629  0.90264591  0.91406637  1
  F  F66  1  0.06658299  0.92762131  0.55802865  1
