# generated using pymatgen
data_Li2Ni(CO3)2
_symmetry_space_group_name_H-M   'P 1'
_cell_length_a   7.47275549
_cell_length_b   8.16138893
_cell_length_c   9.55417649
_cell_angle_alpha   90.11018290
_cell_angle_beta   89.98938401
_cell_angle_gamma   108.68358565
_symmetry_Int_Tables_number   1
_chemical_formula_structural   Li2Ni(CO3)2
_chemical_formula_sum   'Li8 Ni4 C8 O24'
_cell_volume   551.98306554
_cell_formula_units_Z   4
loop_
 _symmetry_equiv_pos_site_id
 _symmetry_equiv_pos_as_xyz
  1  'x, y, z'
loop_
 _atom_site_type_symbol
 _atom_site_label
 _atom_site_symmetry_multiplicity
 _atom_site_fract_x
 _atom_site_fract_y
 _atom_site_fract_z
 _atom_site_occupancy
  Li  Li0  1  0.97339755  0.35423634  0.89373997  1
  Li  Li1  1  0.87024732  0.79563021  0.79280360  1
  Li  Li2  1  0.52689042  0.14536631  0.39348005  1
  Li  Li3  1  0.63017732  0.70449864  0.29226208  1
  Li  Li4  1  0.37000699  0.29529816  0.70744753  1
  Li  Li5  1  0.47325502  0.85438408  0.60639240  1
  Li  Li6  1  0.12986404  0.20448556  0.20737578  1
  Li  Li7  1  0.02654971  0.64537805  0.10649196  1
  Ni  Ni8  1  0.94402423  0.43938947  0.36770387  1
  Ni  Ni9  1  0.55615563  0.06036507  0.86711231  1
  Ni  Ni10  1  0.44395702  0.93981507  0.13241247  1
  Ni  Ni11  1  0.05627789  0.56090026  0.63278662  1
  C  C12  1  0.76041072  0.22434781  0.61628904  1
  C  C13  1  0.73966971  0.27629034  0.11637245  1
  C  C14  1  0.74304869  0.66220195  0.51156560  1
  C  C15  1  0.75715587  0.83777924  0.01151859  1
  C  C16  1  0.24278200  0.16223180  0.98842400  1
  C  C17  1  0.25686599  0.33783186  0.48847489  1
  C  C18  1  0.26030304  0.72370916  0.88367378  1
  C  C19  1  0.23965834  0.77573995  0.38370669  1
  O  O20  1  0.87828635  0.40489167  0.16535142  1
  O  O21  1  0.77855955  0.23754558  0.48214159  1
  O  O22  1  0.86985723  0.33320982  0.70108655  1
  O  O23  1  0.63021401  0.16732861  0.20098932  1
  O  O24  1  0.72139102  0.26292685  0.98215825  1
  O  O25  1  0.62177156  0.09582570  0.66483197  1
  O  O26  1  0.87175896  0.75095489  0.00088851  1
  O  O27  1  0.83757843  0.66282662  0.62616295  1
  O  O28  1  0.76273687  0.57443003  0.40155466  1
  O  O29  1  0.73780608  0.92552695  0.90149010  1
  O  O30  1  0.66212865  0.83752355  0.12590446  1
  O  O31  1  0.62839026  0.74888898  0.50076772  1
  O  O32  1  0.37136760  0.25093759  0.49887078  1
  O  O33  1  0.33762292  0.16253120  0.87389379  1
  O  O34  1  0.26232111  0.07448868  0.09834616  1
  O  O35  1  0.23773382  0.42577209  0.59858688  1
  O  O36  1  0.16186101  0.33721597  0.37412802  1
  O  O37  1  0.12814892  0.24900323  0.99928066  1
  O  O38  1  0.37826002  0.90398691  0.33487290  1
  O  O39  1  0.27858235  0.73730539  0.01792152  1
  O  O40  1  0.36973186  0.83250505  0.79881405  1
  O  O41  1  0.13017464  0.66661490  0.29914481  1
  O  O42  1  0.22147945  0.76299976  0.51788228  1
  O  O43  1  0.12151683  0.59487766  0.83490000  1
