# generated using pymatgen
data_Li3V2P2O8F3
_symmetry_space_group_name_H-M   'P 1'
_cell_length_a   8.92293009
_cell_length_b   9.21006719
_cell_length_c   10.50715884
_cell_angle_alpha   90.00000000
_cell_angle_beta   90.00000000
_cell_angle_gamma   90.00000000
_symmetry_Int_Tables_number   1
_chemical_formula_structural   Li3V2P2O8F3
_chemical_formula_sum   'Li12 V8 P8 O32 F12'
_cell_volume   863.48656853
_cell_formula_units_Z   4
loop_
 _symmetry_equiv_pos_site_id
 _symmetry_equiv_pos_as_xyz
  1  'x, y, z'
loop_
 _atom_site_type_symbol
 _atom_site_label
 _atom_site_symmetry_multiplicity
 _atom_site_fract_x
 _atom_site_fract_y
 _atom_site_fract_z
 _atom_site_occupancy
  Li  Li0  1  0.03691957  0.28234539  0.50000000  1
  Li  Li1  1  0.06208141  0.81419949  0.00000000  1
  Li  Li2  1  0.23096661  0.49283420  0.00000000  1
  Li  Li3  1  0.26903339  0.99283420  0.50000000  1
  Li  Li4  1  0.43791859  0.31419949  0.50000000  1
  Li  Li5  1  0.46308043  0.78234539  0.00000000  1
  Li  Li6  1  0.53691957  0.21765461  0.00000000  1
  Li  Li7  1  0.56208141  0.68580051  0.50000000  1
  Li  Li8  1  0.73096661  0.00716580  0.50000000  1
  Li  Li9  1  0.76903339  0.50716580  0.00000000  1
  Li  Li10  1  0.93791859  0.18580051  0.00000000  1
  Li  Li11  1  0.96308043  0.71765461  0.50000000  1
  V  V12  1  0.25097553  0.24898326  0.18534354  1
  V  V13  1  0.25097553  0.24898326  0.81465646  1
  V  V14  1  0.24902447  0.74898326  0.31465646  1
  V  V15  1  0.24902447  0.74898326  0.68534354  1
  V  V16  1  0.75097553  0.25101674  0.31465646  1
  V  V17  1  0.75097553  0.25101674  0.68534354  1
  V  V18  1  0.74902447  0.75101674  0.81465646  1
  V  V19  1  0.74902447  0.75101674  0.18534354  1
  P  P20  1  0.00000000  0.00000000  0.27462312  1
  P  P21  1  0.00000000  0.50000000  0.26365966  1
  P  P22  1  0.00000000  0.00000000  0.72537688  1
  P  P23  1  0.00000000  0.50000000  0.73634034  1
  P  P24  1  0.50000000  0.50000000  0.22537688  1
  P  P25  1  0.50000000  0.00000000  0.23634034  1
  P  P26  1  0.50000000  0.00000000  0.76365966  1
  P  P27  1  0.50000000  0.50000000  0.77462312  1
  O  O28  1  0.07653176  0.61307115  0.64757109  1
  O  O29  1  0.07653176  0.61307115  0.35242891  1
  O  O30  1  0.09095620  0.09944358  0.81645687  1
  O  O31  1  0.09095620  0.09944358  0.18354313  1
  O  O32  1  0.09853213  0.90681912  0.63644937  1
  O  O33  1  0.09853213  0.90681912  0.36355063  1
  O  O34  1  0.11363079  0.42358305  0.82390810  1
  O  O35  1  0.11363079  0.42358305  0.17609190  1
  O  O36  1  0.38636921  0.92358305  0.67609190  1
  O  O37  1  0.38636921  0.92358305  0.32390810  1
  O  O38  1  0.40146787  0.40681912  0.13644937  1
  O  O39  1  0.40146787  0.40681912  0.86355063  1
  O  O40  1  0.40904380  0.59944358  0.68354313  1
  O  O41  1  0.40904380  0.59944358  0.31645687  1
  O  O42  1  0.42346824  0.11307115  0.85242891  1
  O  O43  1  0.42346824  0.11307115  0.14757109  1
  O  O44  1  0.57653176  0.88692885  0.14757109  1
  O  O45  1  0.57653176  0.88692885  0.85242891  1
  O  O46  1  0.59095620  0.40055642  0.68354313  1
  O  O47  1  0.59095620  0.40055642  0.31645687  1
  O  O48  1  0.59853213  0.59318088  0.86355063  1
  O  O49  1  0.59853213  0.59318088  0.13644937  1
  O  O50  1  0.61363079  0.07641695  0.67609190  1
  O  O51  1  0.61363079  0.07641695  0.32390810  1
  O  O52  1  0.88636921  0.57641695  0.17609190  1
  O  O53  1  0.88636921  0.57641695  0.82390810  1
  O  O54  1  0.90146787  0.09318088  0.63644937  1
  O  O55  1  0.90146787  0.09318088  0.36355063  1
  O  O56  1  0.90904380  0.90055642  0.18354313  1
  O  O57  1  0.90904380  0.90055642  0.81645687  1
  O  O58  1  0.92346824  0.38692885  0.64757109  1
  O  O59  1  0.92346824  0.38692885  0.35242891  1
  F  F60  1  0.27729416  0.24733751  0.37592977  1
  F  F61  1  0.27729416  0.24733751  0.62407023  1
  F  F62  1  0.19918103  0.25079799  0.00000000  1
  F  F63  1  0.30081897  0.75079799  0.50000000  1
  F  F64  1  0.22270584  0.74733751  0.87592977  1
  F  F65  1  0.22270584  0.74733751  0.12407023  1
  F  F66  1  0.77729416  0.25266249  0.87592977  1
  F  F67  1  0.77729416  0.25266249  0.12407023  1
  F  F68  1  0.69918103  0.24920201  0.50000000  1
  F  F69  1  0.80081897  0.74920201  0.00000000  1
  F  F70  1  0.72270584  0.75266249  0.62407023  1
  F  F71  1  0.72270584  0.75266249  0.37592977  1
