# generated using pymatgen
data_BaLiCaVP2O9
_symmetry_space_group_name_H-M   'P 1'
_cell_length_a   7.22144416
_cell_length_b   7.44198519
_cell_length_c   14.87731683
_cell_angle_alpha   101.16825044
_cell_angle_beta   89.99846444
_cell_angle_gamma   89.99798001
_symmetry_Int_Tables_number   1
_chemical_formula_structural   BaLiCaVP2O9
_chemical_formula_sum   'Ba4 Li4 Ca4 V4 P8 O36'
_cell_volume   784.39389853
_cell_formula_units_Z   4
loop_
 _symmetry_equiv_pos_site_id
 _symmetry_equiv_pos_as_xyz
  1  'x, y, z'
loop_
 _atom_site_type_symbol
 _atom_site_label
 _atom_site_symmetry_multiplicity
 _atom_site_fract_x
 _atom_site_fract_y
 _atom_site_fract_z
 _atom_site_occupancy
  Ba  Ba0  1  0.73095050  0.37233883  0.92266257  1
  Ba  Ba1  1  0.76904244  0.37233593  0.42265926  1
  Ba  Ba2  1  0.23095485  0.62766603  0.57733490  1
  Ba  Ba3  1  0.26904530  0.62766605  0.07733797  1
  Li  Li4  1  0.21447374  0.09688201  0.79671639  1
  Li  Li5  1  0.28551697  0.09688085  0.29671795  1
  Li  Li6  1  0.71448659  0.90311661  0.70328109  1
  Li  Li7  1  0.78550732  0.90311382  0.20328265  1
  Ca  Ca8  1  0.97499719  0.19102525  0.65728520  1
  Ca  Ca9  1  0.52500723  0.19102617  0.15728761  1
  Ca  Ca10  1  0.47499255  0.80898081  0.84271451  1
  Ca  Ca11  1  0.02500028  0.80897430  0.34271325  1
  V  V12  1  0.47942736  0.16164757  0.65898215  1
  V  V13  1  0.02063438  0.16159708  0.15898074  1
  V  V14  1  0.97937228  0.83836105  0.84101072  1
  V  V15  1  0.52058177  0.83836940  0.34102425  1
  P  P16  1  0.26871338  0.12410697  0.50285426  1
  P  P17  1  0.23129255  0.12411594  0.00285065  1
  P  P18  1  0.22419245  0.46597283  0.80111828  1
  P  P19  1  0.72418115  0.53403027  0.69888295  1
  P  P20  1  0.27581384  0.46597381  0.30111060  1
  P  P21  1  0.77581498  0.53402127  0.19887791  1
  P  P22  1  0.76870480  0.87589714  0.99715196  1
  P  P23  1  0.73128502  0.87590064  0.49714630  1
  O  O24  1  0.47599211  0.02554362  0.75209330  1
  O  O25  1  0.26536466  0.00869871  0.58138334  1
  O  O26  1  0.70846921  0.00613554  0.59256133  1
  O  O27  1  0.02401792  0.02551829  0.25210672  1
  O  O28  1  0.23464050  0.00869302  0.08138079  1
  O  O29  1  0.79152001  0.00612596  0.09256083  1
  O  O30  1  0.08378915  0.22703295  0.50614800  1
  O  O31  1  0.05844228  0.36228409  0.83008640  1
  O  O32  1  0.43777959  0.25472385  0.52767728  1
  O  O33  1  0.67925941  0.33971147  0.72009913  1
  O  O34  1  0.27791833  0.34689851  0.70505712  1
  O  O35  1  0.38299812  0.49776429  0.87133283  1
  O  O36  1  0.41620703  0.22702661  0.00615309  1
  O  O37  1  0.44156560  0.36228419  0.33009037  1
  O  O38  1  0.06221434  0.25473691  0.02768629  1
  O  O39  1  0.82076295  0.33968776  0.22009185  1
  O  O40  1  0.88300889  0.50223177  0.62865750  1
  O  O41  1  0.22210005  0.34690045  0.20506600  1
  O  O42  1  0.77789560  0.65309360  0.79493469  1
  O  O43  1  0.11698638  0.49777474  0.37134361  1
  O  O44  1  0.17924076  0.66030264  0.77990858  1
  O  O45  1  0.93778381  0.74526857  0.97231448  1
  O  O46  1  0.55843420  0.63772218  0.66990972  1
  O  O47  1  0.58378587  0.77297308  0.99384759  1
  O  O48  1  0.61700310  0.50223194  0.12866519  1
  O  O49  1  0.72208027  0.65309959  0.29494120  1
  O  O50  1  0.32074146  0.66029412  0.27990073  1
  O  O51  1  0.56221932  0.74528045  0.47232145  1
  O  O52  1  0.94154978  0.63771403  0.16991317  1
  O  O53  1  0.91620988  0.77296800  0.49384984  1
  O  O54  1  0.20847380  0.99387734  0.90743563  1
  O  O55  1  0.76535652  0.99130375  0.91861635  1
  O  O56  1  0.97597180  0.97446511  0.74789846  1
  O  O57  1  0.29153040  0.99386641  0.40743772  1
  O  O58  1  0.73463623  0.99130586  0.41861804  1
  O  O59  1  0.52400371  0.97444897  0.24790825  1
