# generated using pymatgen
data_RbHfMg30O31
_symmetry_space_group_name_H-M   'P 1'
_cell_length_a   8.59685919
_cell_length_b   8.71998422
_cell_length_c   8.76696241
_cell_angle_alpha   90.00000000
_cell_angle_beta   90.00000000
_cell_angle_gamma   90.00000000
_symmetry_Int_Tables_number   1
_chemical_formula_structural   RbHfMg30O31
_chemical_formula_sum   'Rb1 Hf1 Mg30 O31'
_cell_volume   657.21074737
_cell_formula_units_Z   1
loop_
 _symmetry_equiv_pos_site_id
 _symmetry_equiv_pos_as_xyz
  1  'x, y, z'
loop_
 _atom_site_type_symbol
 _atom_site_label
 _atom_site_symmetry_multiplicity
 _atom_site_fract_x
 _atom_site_fract_y
 _atom_site_fract_z
 _atom_site_occupancy
  Rb  Rb0  1  0.02036658  0.00000000  0.00000000  1
  Hf  Hf1  1  0.99879665  0.00000000  0.50000000  1
  Mg  Mg2  1  0.99849385  0.50000000  0.00000000  1
  Mg  Mg3  1  0.99980554  0.50000000  0.50000000  1
  Mg  Mg4  1  0.49057092  0.00000000  0.00000000  1
  Mg  Mg5  1  0.50212429  0.00000000  0.50000000  1
  Mg  Mg6  1  0.50199757  0.50000000  0.00000000  1
  Mg  Mg7  1  0.50015723  0.50000000  0.50000000  1
  Mg  Mg8  1  0.99957473  0.25999377  0.24458617  1
  Mg  Mg9  1  0.99957473  0.25999377  0.75541383  1
  Mg  Mg10  1  0.99957473  0.74000623  0.24458617  1
  Mg  Mg11  1  0.99957473  0.74000623  0.75541383  1
  Mg  Mg12  1  0.50040691  0.25078712  0.24815869  1
  Mg  Mg13  1  0.50040691  0.25078712  0.75184131  1
  Mg  Mg14  1  0.50040691  0.74921288  0.24815869  1
  Mg  Mg15  1  0.50040691  0.74921288  0.75184131  1
  Mg  Mg16  1  0.26207948  0.00000000  0.25072933  1
  Mg  Mg17  1  0.26207948  0.00000000  0.74927067  1
  Mg  Mg18  1  0.25109727  0.50000000  0.24984286  1
  Mg  Mg19  1  0.25109727  0.50000000  0.75015714  1
  Mg  Mg20  1  0.74207251  0.00000000  0.24243799  1
  Mg  Mg21  1  0.74207251  0.00000000  0.75756201  1
  Mg  Mg22  1  0.74874546  0.50000000  0.24816108  1
  Mg  Mg23  1  0.74874546  0.50000000  0.75183892  1
  Mg  Mg24  1  0.25577540  0.26016209  0.00000000  1
  Mg  Mg25  1  0.25562999  0.25712729  0.50000000  1
  Mg  Mg26  1  0.25577540  0.73983791  0.00000000  1
  Mg  Mg27  1  0.25562999  0.74287271  0.50000000  1
  Mg  Mg28  1  0.74751878  0.25229353  0.00000000  1
  Mg  Mg29  1  0.74416141  0.25607315  0.50000000  1
  Mg  Mg30  1  0.74751878  0.74770647  0.00000000  1
  Mg  Mg31  1  0.74416141  0.74392685  0.50000000  1
  O  O32  1  0.24822666  0.00000000  0.50000000  1
  O  O33  1  0.25495729  0.50000000  0.00000000  1
  O  O34  1  0.24945957  0.50000000  0.50000000  1
  O  O35  1  0.72395799  0.00000000  0.00000000  1
  O  O36  1  0.75215412  0.00000000  0.50000000  1
  O  O37  1  0.74592039  0.50000000  0.00000000  1
  O  O38  1  0.75047668  0.50000000  0.50000000  1
  O  O39  1  0.24801202  0.24995910  0.25243153  1
  O  O40  1  0.24801202  0.24995910  0.74756847  1
  O  O41  1  0.24801202  0.75004090  0.25243153  1
  O  O42  1  0.24801202  0.75004090  0.74756847  1
  O  O43  1  0.75170033  0.24846236  0.25079771  1
  O  O44  1  0.75170033  0.24846236  0.74920229  1
  O  O45  1  0.75170033  0.75153764  0.25079771  1
  O  O46  1  0.75170033  0.75153764  0.74920229  1
  O  O47  1  0.99733057  0.00000000  0.27243426  1
  O  O48  1  0.99733057  0.00000000  0.72756574  1
  O  O49  1  -0.00001175  0.50000000  0.25743271  1
  O  O50  1  -0.00001175  0.50000000  0.74256729  1
  O  O51  1  0.50193373  0.00000000  0.25983096  1
  O  O52  1  0.50193373  0.00000000  0.74016904  1
  O  O53  1  0.49987294  0.50000000  0.25226255  1
  O  O54  1  0.49987294  0.50000000  0.74773745  1
  O  O55  1  0.99905434  0.27890278  0.00000000  1
  O  O56  1  -0.00002738  0.24659810  0.50000000  1
  O  O57  1  0.99905434  0.72109722  0.00000000  1
  O  O58  1  -0.00002738  0.75340190  0.50000000  1
  O  O59  1  0.50170315  0.25678969  0.00000000  1
  O  O60  1  0.49994346  0.24947764  0.50000000  1
  O  O61  1  0.50170315  0.74321031  0.00000000  1
  O  O62  1  0.49994346  0.75052236  0.50000000  1
