# generated using pymatgen
data_Mn3(O2F)2
_symmetry_space_group_name_H-M   'P 1'
_cell_length_a   4.59672860
_cell_length_b   4.59672860
_cell_length_c   9.24909804
_cell_angle_alpha   89.68908930
_cell_angle_beta   89.68908930
_cell_angle_gamma   89.99341012
_symmetry_Int_Tables_number   1
_chemical_formula_structural   Mn3(O2F)2
_chemical_formula_sum   'Mn6 O8 F4'
_cell_volume   195.42688956
_cell_formula_units_Z   2
loop_
 _symmetry_equiv_pos_site_id
 _symmetry_equiv_pos_as_xyz
  1  'x, y, z'
loop_
 _atom_site_type_symbol
 _atom_site_label
 _atom_site_symmetry_multiplicity
 _atom_site_fract_x
 _atom_site_fract_y
 _atom_site_fract_z
 _atom_site_occupancy
  Mn  Mn0  1  0.98880361  0.96150876  0.00718063  1
  Mn  Mn1  1  0.03849124  0.01119639  0.32615237  1
  Mn  Mn2  1  0.01192297  0.98807703  0.66666700  1
  Mn  Mn3  1  0.48763557  0.52321808  0.82698611  1
  Mn  Mn4  1  0.51186033  0.48813967  0.16666700  1
  Mn  Mn5  1  0.47678192  0.51236443  0.50634689  1
  O  O6  1  0.20648577  0.79351423  0.16666700  1
  O  O7  1  0.19884018  0.81586809  0.49442871  1
  O  O8  1  0.18413191  0.80115982  0.83890429  1
  O  O9  1  0.31873247  0.31641514  0.33719712  1
  O  O10  1  0.29909761  0.31428019  0.66676817  1
  O  O11  1  0.68358486  0.68126753  0.99613588  1
  O  O12  1  0.68571981  0.70090239  0.66656483  1
  O  O13  1  0.81804724  0.18195276  0.16666700  1
  F  F14  1  0.28790540  0.28912570  0.98567069  1
  F  F15  1  0.71087430  0.71209460  0.34766331  1
  F  F16  1  0.80154403  0.21045923  0.49674852  1
  F  F17  1  0.78954077  0.19845597  0.83658448  1
