# generated using pymatgen
data_Mn6O5F7
_symmetry_space_group_name_H-M   'P 1'
_cell_length_a   4.72781150
_cell_length_b   7.92406480
_cell_length_c   5.72318087
_cell_angle_alpha   94.08739890
_cell_angle_beta   88.10527871
_cell_angle_gamma   90.60794591
_symmetry_Int_Tables_number   1
_chemical_formula_structural   Mn6O5F7
_chemical_formula_sum   'Mn6 O5 F7'
_cell_volume   213.74068988
_cell_formula_units_Z   1
loop_
 _symmetry_equiv_pos_site_id
 _symmetry_equiv_pos_as_xyz
  1  'x, y, z'
loop_
 _atom_site_type_symbol
 _atom_site_label
 _atom_site_symmetry_multiplicity
 _atom_site_fract_x
 _atom_site_fract_y
 _atom_site_fract_z
 _atom_site_occupancy
  Mn  Mn0  1  0.47225094  0.01472074  0.49145516  1
  Mn  Mn1  1  0.53964248  0.65280385  0.15936646  1
  Mn  Mn2  1  0.49984904  0.33132952  0.83324063  1
  Mn  Mn3  1  0.01196419  0.69154101  0.67188661  1
  Mn  Mn4  1  0.97323555  0.31869465  0.33928850  1
  Mn  Mn5  1  0.98742159  0.98764968  0.00460496  1
  O  O6  1  0.81378792  0.76640497  0.95783136  1
  O  O7  1  0.79747628  0.08770174  0.29382377  1
  O  O8  1  0.69130892  0.42450999  0.11992521  1
  O  O9  1  0.31442154  0.24089973  0.54566468  1
  O  O10  1  0.19539546  0.90831866  0.71101107  1
  F  F11  1  0.80650744  0.46561112  0.63436831  1
  F  F12  1  0.70987462  0.11777900  0.79848654  1
  F  F13  1  0.67938968  0.78211847  0.47147211  1
  F  F14  1  0.29918658  0.55199256  0.86477492  1
  F  F15  1  0.31251512  0.87480386  0.19373189  1
  F  F16  1  0.19517156  0.57502493  0.37179547  1
  F  F17  1  0.20060008  0.20809452  0.03727235  1
