# generated using pymatgen
data_MnOF
_symmetry_space_group_name_H-M   'P 1'
_cell_length_a   4.62341542
_cell_length_b   11.53986498
_cell_length_c   5.12350471
_cell_angle_alpha   89.61361955
_cell_angle_beta   89.88012023
_cell_angle_gamma   87.25296966
_symmetry_Int_Tables_number   1
_chemical_formula_structural   MnOF
_chemical_formula_sum   'Mn8 O8 F8'
_cell_volume   273.03660863
_cell_formula_units_Z   8
loop_
 _symmetry_equiv_pos_site_id
 _symmetry_equiv_pos_as_xyz
  1  'x, y, z'
loop_
 _atom_site_type_symbol
 _atom_site_label
 _atom_site_symmetry_multiplicity
 _atom_site_fract_x
 _atom_site_fract_y
 _atom_site_fract_z
 _atom_site_occupancy
  Mn  Mn0  1  0.99789696  0.42236817  0.73553118  1
  Mn  Mn1  1  0.02640072  0.07875761  0.23188806  1
  Mn  Mn2  1  0.99663790  0.57237701  0.22815339  1
  Mn  Mn3  1  0.05706009  0.92768229  0.72683821  1
  Mn  Mn4  1  0.49822262  0.82472068  0.22989529  1
  Mn  Mn5  1  0.52141200  0.17690371  0.79027933  1
  Mn  Mn6  1  0.50858874  0.32569497  0.28688065  1
  Mn  Mn7  1  0.47464141  0.67258300  0.77418426  1
  O  O8  1  0.25036587  0.06580614  0.92300729  1
  O  O9  1  0.21218792  0.44194626  0.41380982  1
  O  O10  1  0.19673391  0.55054451  0.90786617  1
  O  O11  1  0.24794616  0.94247478  0.39793931  1
  O  O12  1  0.27145126  0.80773974  0.91533317  1
  O  O13  1  0.73109735  0.19314707  0.11113542  1
  O  O14  1  0.72090965  0.30815553  0.60625266  1
  O  O15  1  0.70676844  0.68856424  0.07580003  1
  F  F16  1  0.27220971  0.18916049  0.47310923  1
  F  F17  1  0.25777362  0.30984861  0.97409888  1
  F  F18  1  0.25191024  0.69128911  0.44780410  1
  F  F19  1  0.73058459  0.81111331  0.54959341  1
  F  F20  1  0.79072745  0.05244219  0.56127038  1
  F  F21  1  0.74610261  0.44054575  0.05212745  1
  F  F22  1  0.74131651  0.56711310  0.55686598  1
  F  F23  1  0.79105426  0.93902373  0.03033635  1
