# generated using pymatgen
data_Mn3(OF2)2
_symmetry_space_group_name_H-M   'P 1'
_cell_length_a   4.80538881
_cell_length_b   7.97406225
_cell_length_c   5.74930572
_cell_angle_alpha   92.89549293
_cell_angle_beta   91.46739253
_cell_angle_gamma   87.60078453
_symmetry_Int_Tables_number   1
_chemical_formula_structural   Mn3(OF2)2
_chemical_formula_sum   'Mn6 O4 F8'
_cell_volume   219.76953206
_cell_formula_units_Z   2
loop_
 _symmetry_equiv_pos_site_id
 _symmetry_equiv_pos_as_xyz
  1  'x, y, z'
loop_
 _atom_site_type_symbol
 _atom_site_label
 _atom_site_symmetry_multiplicity
 _atom_site_fract_x
 _atom_site_fract_y
 _atom_site_fract_z
 _atom_site_occupancy
  Mn  Mn0  1  0.49662216  0.00501349  0.50404303  1
  Mn  Mn1  1  0.56155922  0.66259418  0.16818264  1
  Mn  Mn2  1  0.48949676  0.33646131  0.82959580  1
  Mn  Mn3  1  0.96696887  0.67719494  0.66725374  1
  Mn  Mn4  1  0.00773439  0.33373722  0.33169167  1
  Mn  Mn5  1  0.99217043  0.98438606  0.00712092  1
  O  O6  1  0.80597550  0.76446866  0.95522780  1
  O  O7  1  0.69456144  0.78229447  0.47144384  1
  O  O8  1  0.69395835  0.43055802  0.11790088  1
  O  O9  1  0.30904678  0.22973199  0.53908528  1
  F  F10  1  0.79756584  0.43173547  0.62422807  1
  F  F11  1  0.79913272  0.09912418  0.30709915  1
  F  F12  1  0.70044690  0.10422303  0.80658489  1
  F  F13  1  0.27974370  0.56840788  0.85829149  1
  F  F14  1  0.32058968  0.88759304  0.19522430  1
  F  F15  1  0.18231645  0.57797524  0.38138004  1
  F  F16  1  0.19573317  0.21749126  0.03824297  1
  F  F17  1  0.20637464  0.90700955  0.69740447  1
