# generated using pymatgen
data_Mn6O7F5
_symmetry_space_group_name_H-M   'P 1'
_cell_length_a   4.72883323
_cell_length_b   7.72880668
_cell_length_c   5.59231225
_cell_angle_alpha   95.34228076
_cell_angle_beta   93.58884281
_cell_angle_gamma   87.09152330
_symmetry_Int_Tables_number   1
_chemical_formula_structural   Mn6O7F5
_chemical_formula_sum   'Mn6 O7 F5'
_cell_volume   202.89471323
_cell_formula_units_Z   1
loop_
 _symmetry_equiv_pos_site_id
 _symmetry_equiv_pos_as_xyz
  1  'x, y, z'
loop_
 _atom_site_type_symbol
 _atom_site_label
 _atom_site_symmetry_multiplicity
 _atom_site_fract_x
 _atom_site_fract_y
 _atom_site_fract_z
 _atom_site_occupancy
  Mn  Mn0  1  0.46692745  0.99283764  0.51640358  1
  Mn  Mn1  1  0.50749452  0.67015945  0.17363405  1
  Mn  Mn2  1  0.53879985  0.33044346  0.81979865  1
  Mn  Mn3  1  0.98707986  0.67279018  0.65116713  1
  Mn  Mn4  1  0.98387004  0.33295263  0.34788101  1
  Mn  Mn5  1  0.01493981  0.99930272  0.98970634  1
  O  O6  1  0.81881990  0.44865071  0.62380023  1
  O  O7  1  0.69697635  0.09375387  0.79565785  1
  O  O8  1  0.68432824  0.77451162  0.46444253  1
  O  O9  1  0.69664920  0.43743161  0.12955187  1
  O  O10  1  0.31065918  0.23067077  0.54082725  1
  O  O11  1  0.30087591  0.89668196  0.20661252  1
  O  O12  1  0.19127472  0.89002176  0.70741409  1
  F  F13  1  0.80326744  0.75991147  0.96140319  1
  F  F14  1  0.80308498  0.08908545  0.28724523  1
  F  F15  1  0.30498023  0.56611048  0.86583672  1
  F  F16  1  0.20343845  0.57097920  0.36683648  1
  F  F17  1  0.18653287  0.24370404  0.05178229  1
