# generated using pymatgen
data_Mn12O5F19
_symmetry_space_group_name_H-M   'P 1'
_cell_length_a   4.85593977
_cell_length_b   5.81847248
_cell_length_c   16.05599177
_cell_angle_alpha   90.42921131
_cell_angle_beta   90.33242270
_cell_angle_gamma   86.43320512
_symmetry_Int_Tables_number   1
_chemical_formula_structural   Mn12O5F19
_chemical_formula_sum   'Mn12 O5 F19'
_cell_volume   452.75051640
_cell_formula_units_Z   1
loop_
 _symmetry_equiv_pos_site_id
 _symmetry_equiv_pos_as_xyz
  1  'x, y, z'
loop_
 _atom_site_type_symbol
 _atom_site_label
 _atom_site_symmetry_multiplicity
 _atom_site_fract_x
 _atom_site_fract_y
 _atom_site_fract_z
 _atom_site_occupancy
  Mn  Mn0  1  0.98764227  0.16722352  0.41434716  1
  Mn  Mn1  1  0.02385083  0.83401893  0.23740681  1
  Mn  Mn2  1  0.00277037  0.15728434  0.08092288  1
  Mn  Mn3  1  0.02413525  0.14740801  0.75212950  1
  Mn  Mn4  1  0.01505324  0.82413796  0.58612442  1
  Mn  Mn5  1  0.00538847  0.82944429  0.90845444  1
  Mn  Mn6  1  0.49354544  0.35031950  0.58697165  1
  Mn  Mn7  1  0.52001926  0.33464047  0.92747868  1
  Mn  Mn8  1  0.51047642  0.32855731  0.25685430  1
  Mn  Mn9  1  0.50198245  0.65810870  0.08426533  1
  Mn  Mn10  1  0.52110888  0.65151640  0.41290260  1
  Mn  Mn11  1  0.47510835  0.66256714  0.74874712  1
  O  O12  1  0.22680814  0.88958406  0.12863165  1
  O  O13  1  0.21958841  0.87782880  0.80205059  1
  O  O14  1  0.28892576  0.61193255  0.64625023  1
  O  O15  1  0.72531439  0.38828900  0.03577302  1
  O  O16  1  0.72331733  0.39565292  0.36566048  1
  F  F17  1  0.22071520  0.10897697  0.30549740  1
  F  F18  1  0.22794085  0.11589773  0.63750453  1
  F  F19  1  0.21310900  0.11892320  0.97186979  1
  F  F20  1  0.24177537  0.88857343  0.46839296  1
  F  F21  1  0.25742736  0.39152598  0.14610166  1
  F  F22  1  0.26234712  0.39500278  0.47504942  1
  F  F23  1  0.26590531  0.61716680  0.31116130  1
  F  F24  1  0.27006895  0.37504376  0.81627296  1
  F  F25  1  0.27282218  0.61588655  0.97702988  1
  F  F26  1  0.71126839  0.62301598  0.19403896  1
  F  F27  1  0.70545730  0.62029493  0.85497895  1
  F  F28  1  0.73346272  0.61154472  0.52605178  1
  F  F29  1  0.74331457  0.39121215  0.70227564  1
  F  F30  1  0.77125354  0.89076813  0.35455518  1
  F  F31  1  0.77460814  0.11515323  0.18632112  1
  F  F32  1  0.77045991  0.11690020  0.85780799  1
  F  F33  1  0.76820072  0.10849461  0.52971262  1
  F  F34  1  0.75920915  0.88644387  0.01764041  1
  F  F35  1  0.76562094  0.90066508  0.69276559  1
