# generated using pymatgen
data_Li3Fe8(BO3)8
_symmetry_space_group_name_H-M   'P 1'
_cell_length_a   5.29551562
_cell_length_b   9.05317878
_cell_length_c   10.17373907
_cell_angle_alpha   89.93282140
_cell_angle_beta   90.98711956
_cell_angle_gamma   90.00095576
_symmetry_Int_Tables_number   1
_chemical_formula_structural   Li3Fe8(BO3)8
_chemical_formula_sum   'Li3 Fe8 B8 O24'
_cell_volume   487.66904511
_cell_formula_units_Z   1
loop_
 _symmetry_equiv_pos_site_id
 _symmetry_equiv_pos_as_xyz
  1  'x, y, z'
loop_
 _atom_site_type_symbol
 _atom_site_label
 _atom_site_symmetry_multiplicity
 _atom_site_fract_x
 _atom_site_fract_y
 _atom_site_fract_z
 _atom_site_occupancy
  Li  Li0  1  0.34423776  0.00682871  0.84649976  1
  Li  Li1  1  0.65795183  0.00046191  0.10860302  1
  Li  Li2  1  0.85021614  0.49456745  0.34920805  1
  Fe  Fe3  1  0.15766886  0.16557275  0.12191220  1
  Fe  Fe4  1  0.84065510  0.15987928  0.37064247  1
  Fe  Fe5  1  0.33224635  0.34222735  0.86905990  1
  Fe  Fe6  1  0.65814938  0.33450140  0.61994508  1
  Fe  Fe7  1  0.33939729  0.66641300  0.37354447  1
  Fe  Fe8  1  0.15612320  0.82983376  0.62072046  1
  Fe  Fe9  1  0.65505880  0.66599450  0.12364993  1
  Fe  Fe10  1  0.84671535  0.83307208  0.87238909  1
  B  B11  1  0.15998906  0.16977683  0.62585800  1
  B  B12  1  0.32517861  0.32961363  0.37363602  1
  B  B13  1  0.82320261  0.16957070  0.87044023  1
  B  B14  1  0.65290928  0.33053927  0.12605635  1
  B  B15  1  0.34321939  0.66968084  0.87292628  1
  B  B16  1  0.66661874  0.66809383  0.61996979  1
  B  B17  1  0.17146055  0.83407884  0.11955828  1
  B  B18  1  0.83931102  0.83133768  0.36700210  1
  O  O19  1  0.25188048  0.03215743  0.65094981  1
  O  O20  1  0.08116405  0.18349350  0.90058206  1
  O  O21  1  0.70039191  0.03916998  0.89380495  1
  O  O22  1  0.19610558  0.20210759  0.33373835  1
  O  O23  1  0.30069391  0.29434964  0.66245608  1
  O  O24  1  0.77859241  0.20141909  0.16954705  1
  O  O25  1  0.91946094  0.19074110  0.56848497  1
  O  O26  1  0.42584743  0.31356357  0.05841422  1
  O  O27  1  0.20969088  0.46208721  0.37336319  1
  O  O28  1  0.58418635  0.31528288  0.41427362  1
  O  O29  1  0.69318409  0.29256952  0.81929293  1
  O  O30  1  0.22471177  0.53710919  0.86094354  1
  O  O31  1  0.75418026  0.46511379  0.15549495  1
  O  O32  1  0.30160100  0.70981725  0.16394039  1
  O  O33  1  0.42115342  0.69444266  0.57833925  1
  O  O34  1  0.76560056  0.52924607  0.60862912  1
  O  O35  1  0.58142613  0.68186673  0.93195183  1
  O  O36  1  0.07214082  0.82071797  0.42953111  1
  O  O37  1  0.22707098  0.79946454  0.82575103  1
  O  O38  1  0.72196509  0.70063790  0.32355582  1
  O  O39  1  0.81052630  0.78496643  0.66829055  1
  O  O40  1  0.29521531  0.96473202  0.10092602  1
  O  O41  1  0.91133926  0.82337512  0.08974270  1
  O  O42  1  0.72615576  0.96515101  0.34497597  1
