# generated using pymatgen
data_Mg30NbSiO32
_symmetry_space_group_name_H-M   'P 1'
_cell_length_a   8.58914509
_cell_length_b   8.59030482
_cell_length_c   8.59030482
_cell_angle_alpha   90.00000000
_cell_angle_beta   90.00000000
_cell_angle_gamma   90.00000000
_symmetry_Int_Tables_number   1
_chemical_formula_structural   Mg30NbSiO32
_chemical_formula_sum   'Mg30 Nb1 Si1 O32'
_cell_volume   633.82167731
_cell_formula_units_Z   1
loop_
 _symmetry_equiv_pos_site_id
 _symmetry_equiv_pos_as_xyz
  1  'x, y, z'
loop_
 _atom_site_type_symbol
 _atom_site_label
 _atom_site_symmetry_multiplicity
 _atom_site_fract_x
 _atom_site_fract_y
 _atom_site_fract_z
 _atom_site_occupancy
  Mg  Mg0  1  0.00000000  -0.00000000  0.50000000  1
  Mg  Mg1  1  0.00000000  0.50000000  -0.00000000  1
  Mg  Mg2  1  0.50000000  -0.00000000  -0.00000000  1
  Mg  Mg3  1  0.50000000  -0.00000000  0.50000000  1
  Mg  Mg4  1  0.50000000  0.50000000  -0.00000000  1
  Mg  Mg5  1  0.50000000  0.50000000  0.50000000  1
  Mg  Mg6  1  0.00000000  0.24972566  0.24972566  1
  Mg  Mg7  1  0.00000000  0.24972566  0.75027434  1
  Mg  Mg8  1  0.00000000  0.75027434  0.24972566  1
  Mg  Mg9  1  0.00000000  0.75027434  0.75027434  1
  Mg  Mg10  1  0.50000000  0.24989189  0.24989189  1
  Mg  Mg11  1  0.50000000  0.24989189  0.75010811  1
  Mg  Mg12  1  0.50000000  0.75010811  0.24989189  1
  Mg  Mg13  1  0.50000000  0.75010811  0.75010811  1
  Mg  Mg14  1  0.25144383  -0.00000000  0.25125682  1
  Mg  Mg15  1  0.25144383  -0.00000000  0.74874318  1
  Mg  Mg16  1  0.25155882  0.50000000  0.24836936  1
  Mg  Mg17  1  0.25155882  0.50000000  0.75163064  1
  Mg  Mg18  1  0.74855617  -0.00000000  0.25125682  1
  Mg  Mg19  1  0.74855617  -0.00000000  0.74874318  1
  Mg  Mg20  1  0.74844118  0.50000000  0.24836936  1
  Mg  Mg21  1  0.74844118  0.50000000  0.75163064  1
  Mg  Mg22  1  0.25144383  0.25125682  -0.00000000  1
  Mg  Mg23  1  0.25155882  0.24836936  0.50000000  1
  Mg  Mg24  1  0.25144383  0.74874318  -0.00000000  1
  Mg  Mg25  1  0.25155882  0.75163064  0.50000000  1
  Mg  Mg26  1  0.74855617  0.25125682  -0.00000000  1
  Mg  Mg27  1  0.74844118  0.24836936  0.50000000  1
  Mg  Mg28  1  0.74855617  0.74874318  -0.00000000  1
  Mg  Mg29  1  0.74844118  0.75163064  0.50000000  1
  Nb  Nb30  1  0.00000000  0.50000000  0.50000000  1
  Si  Si31  1  0.00000000  -0.00000000  -0.00000000  1
  O  O32  1  0.25970536  -0.00000000  -0.00000000  1
  O  O33  1  0.25244188  -0.00000000  0.50000000  1
  O  O34  1  0.25244188  0.50000000  -0.00000000  1
  O  O35  1  0.26231191  0.50000000  0.50000000  1
  O  O36  1  0.74029464  -0.00000000  -0.00000000  1
  O  O37  1  0.74755812  -0.00000000  0.50000000  1
  O  O38  1  0.74755812  0.50000000  -0.00000000  1
  O  O39  1  0.73768809  0.50000000  0.50000000  1
  O  O40  1  0.24932130  0.24986788  0.24986788  1
  O  O41  1  0.24932130  0.24986788  0.75013212  1
  O  O42  1  0.24932130  0.75013212  0.24986788  1
  O  O43  1  0.24932130  0.75013212  0.75013212  1
  O  O44  1  0.75067870  0.24986788  0.24986788  1
  O  O45  1  0.75067870  0.24986788  0.75013212  1
  O  O46  1  0.75067870  0.75013212  0.24986788  1
  O  O47  1  0.75067870  0.75013212  0.75013212  1
  O  O48  1  0.00000000  -0.00000000  0.25816849  1
  O  O49  1  0.00000000  -0.00000000  0.74183151  1
  O  O50  1  0.00000000  0.50000000  0.23853749  1
  O  O51  1  0.00000000  0.50000000  0.76146251  1
  O  O52  1  0.50000000  -0.00000000  0.25093422  1
  O  O53  1  0.50000000  -0.00000000  0.74906578  1
  O  O54  1  0.50000000  0.50000000  0.24888804  1
  O  O55  1  0.50000000  0.50000000  0.75111196  1
  O  O56  1  0.00000000  0.25816849  -0.00000000  1
  O  O57  1  0.00000000  0.23853749  0.50000000  1
  O  O58  1  0.00000000  0.74183151  -0.00000000  1
  O  O59  1  0.00000000  0.76146251  0.50000000  1
  O  O60  1  0.50000000  0.25093422  -0.00000000  1
  O  O61  1  0.50000000  0.24888804  0.50000000  1
  O  O62  1  0.50000000  0.74906578  -0.00000000  1
  O  O63  1  0.50000000  0.75111196  0.50000000  1
