# generated using pymatgen
data_Mn3(O2F)2
_symmetry_space_group_name_H-M   'P 1'
_cell_length_a   4.59980258
_cell_length_b   7.69462822
_cell_length_c   5.56706865
_cell_angle_alpha   93.14246975
_cell_angle_beta   90.00000000
_cell_angle_gamma   90.00000000
_symmetry_Int_Tables_number   1
_chemical_formula_structural   Mn3(O2F)2
_chemical_formula_sum   'Mn6 O8 F4'
_cell_volume   196.74326515
_cell_formula_units_Z   2
loop_
 _symmetry_equiv_pos_site_id
 _symmetry_equiv_pos_as_xyz
  1  'x, y, z'
loop_
 _atom_site_type_symbol
 _atom_site_label
 _atom_site_symmetry_multiplicity
 _atom_site_fract_x
 _atom_site_fract_y
 _atom_site_fract_z
 _atom_site_occupancy
  Mn  Mn0  1  0.47048628  0.00876936  0.48609188  1
  Mn  Mn1  1  0.50687016  0.66412628  0.14939864  1
  Mn  Mn2  1  0.50925944  0.34679945  0.82548070  1
  Mn  Mn3  1  0.00687016  0.66920672  0.68393536  1
  Mn  Mn4  1  0.97048628  0.32456464  0.34724112  1
  Mn  Mn5  1  0.00925944  0.98653355  0.00785230  1
  O  O6  1  0.80576871  0.44551094  0.63798259  1
  O  O7  1  0.80733085  0.76777449  0.96302180  1
  O  O8  1  0.80592230  0.09237031  0.29523924  1
  O  O9  1  0.69368518  0.43419077  0.12745904  1
  O  O10  1  0.30733085  0.56555851  0.87031120  1
  O  O11  1  0.30592230  0.24096369  0.53809376  1
  O  O12  1  0.30576871  0.88782206  0.19535041  1
  O  O13  1  0.19368518  0.89914223  0.70587496  1
  F  F14  1  0.70769818  0.10543886  0.80443996  1
  F  F15  1  0.69297991  0.76558033  0.46125516  1
  F  F16  1  0.19297991  0.56775267  0.37207884  1
  F  F17  1  0.20769818  0.22789414  0.02889404  1
