# generated using pymatgen
data_Mn3O5F
_symmetry_space_group_name_H-M   'P 1'
_cell_length_a   7.24873991
_cell_length_b   5.45820268
_cell_length_c   5.45820268
_cell_angle_alpha   70.65773206
_cell_angle_beta   71.25590154
_cell_angle_gamma   71.25590154
_symmetry_Int_Tables_number   1
_chemical_formula_structural   Mn3O5F
_chemical_formula_sum   'Mn6 O10 F2'
_cell_volume   187.29354801
_cell_formula_units_Z   2
loop_
 _symmetry_equiv_pos_site_id
 _symmetry_equiv_pos_as_xyz
  1  'x, y, z'
loop_
 _atom_site_type_symbol
 _atom_site_label
 _atom_site_symmetry_multiplicity
 _atom_site_fract_x
 _atom_site_fract_y
 _atom_site_fract_z
 _atom_site_occupancy
  Mn  Mn0  1  0.83988389  0.67044151  0.67044151  1
  Mn  Mn1  1  0.67259727  0.34820633  0.34820633  1
  Mn  Mn2  1  0.32740273  0.65179367  0.65179367  1
  Mn  Mn3  1  0.16011611  0.32955849  0.32955849  1
  Mn  Mn4  1  0.50000000  0.00000000  0.00000000  1
  Mn  Mn5  1  0.00000000  0.00000000  0.00000000  1
  O  O6  1  0.66935221  0.02961516  0.63980213  1
  O  O7  1  0.33064779  0.36019787  0.97038484  1
  O  O8  1  0.62445566  0.56905546  0.56905546  1
  O  O9  1  0.96097349  0.23541401  0.23541401  1
  O  O10  1  0.03902651  0.76458599  0.76458599  1
  O  O11  1  0.37554434  0.43094454  0.43094454  1
  O  O12  1  0.33064779  0.97038484  0.36019787  1
  O  O13  1  0.66935221  0.63980213  0.02961516  1
  O  O14  1  0.00000000  0.30583066  0.69416934  1
  O  O15  1  0.00000000  0.69416934  0.30583066  1
  F  F16  1  0.30516597  0.88024917  0.88024917  1
  F  F17  1  0.69483403  0.11975083  0.11975083  1
