# generated using pymatgen
data_Mn3(O2F)2
_symmetry_space_group_name_H-M   'P 1'
_cell_length_a   4.62829545
_cell_length_b   4.59204791
_cell_length_c   9.25537042
_cell_angle_alpha   89.99126483
_cell_angle_beta   89.99927117
_cell_angle_gamma   89.99988801
_symmetry_Int_Tables_number   1
_chemical_formula_structural   Mn3(O2F)2
_chemical_formula_sum   'Mn6 O8 F4'
_cell_volume   196.70766587
_cell_formula_units_Z   2
loop_
 _symmetry_equiv_pos_site_id
 _symmetry_equiv_pos_as_xyz
  1  'x, y, z'
loop_
 _atom_site_type_symbol
 _atom_site_label
 _atom_site_symmetry_multiplicity
 _atom_site_fract_x
 _atom_site_fract_y
 _atom_site_fract_z
 _atom_site_occupancy
  Mn  Mn0  1  0.02884684  0.00524573  0.00654513  1
  Mn  Mn1  1  0.02881421  0.00522685  0.32679794  1
  Mn  Mn2  1  0.00265942  0.97623829  0.66665975  1
  Mn  Mn3  1  0.47116731  0.50531371  0.82681238  1
  Mn  Mn4  1  0.49734352  0.47609070  0.16664876  1
  Mn  Mn5  1  0.47113149  0.50532370  0.50652370  1
  O  O6  1  0.21475028  0.80066309  0.16663217  1
  O  O7  1  0.18879907  0.80887774  0.49429310  1
  O  O8  1  0.18882945  0.80892850  0.83905345  1
  O  O9  1  0.31118354  0.30882323  0.99429248  1
  O  O10  1  0.31116348  0.30886617  0.33904232  1
  O  O11  1  0.28530953  0.30075291  0.66662201  1
  O  O12  1  0.67742931  0.69206617  0.66666638  1
  O  O13  1  0.82260552  0.19204761  0.16667240  1
  F  F14  1  0.70454356  0.70136732  0.99630507  1
  F  F15  1  0.70441577  0.70133191  0.33706827  1
  F  F16  1  0.79543929  0.20142782  0.49625685  1
  F  F17  1  0.79556840  0.20140656  0.83710785  1
