# generated using pymatgen
data_Li3Fe8(BO3)8
_symmetry_space_group_name_H-M   'P 1'
_cell_length_a   5.27561112
_cell_length_b   9.12441260
_cell_length_c   11.38503547
_cell_angle_alpha   66.14699480
_cell_angle_beta   76.96152782
_cell_angle_gamma   89.35178089
_symmetry_Int_Tables_number   1
_chemical_formula_structural   Li3Fe8(BO3)8
_chemical_formula_sum   'Li3 Fe8 B8 O24'
_cell_volume   486.33891624
_cell_formula_units_Z   1
loop_
 _symmetry_equiv_pos_site_id
 _symmetry_equiv_pos_as_xyz
  1  'x, y, z'
loop_
 _atom_site_type_symbol
 _atom_site_label
 _atom_site_symmetry_multiplicity
 _atom_site_fract_x
 _atom_site_fract_y
 _atom_site_fract_z
 _atom_site_occupancy
  Li  Li0  1  0.72528278  0.74939306  0.16375010  1
  Li  Li1  1  0.01648805  0.99075254  0.66179675  1
  Li  Li2  1  0.23214716  0.25643494  0.15829889  1
  Fe  Fe3  1  0.98776991  0.65118531  0.37741409  1
  Fe  Fe4  1  0.72594474  0.06587257  0.88361538  1
  Fe  Fe5  1  0.53683760  0.83569961  0.62935205  1
  Fe  Fe6  1  0.74911606  0.44274203  0.12530933  1
  Fe  Fe7  1  0.23306005  0.55983081  0.87766680  1
  Fe  Fe8  1  0.49138201  0.14684442  0.37993855  1
  Fe  Fe9  1  0.01981714  0.35462578  0.62973078  1
  Fe  Fe10  1  0.24888396  0.94149322  0.12481928  1
  B  B11  1  0.97971703  0.31596652  0.37789264  1
  B  B12  1  0.72968619  0.39502613  0.87846427  1
  B  B13  1  0.51481888  0.18287900  0.62786493  1
  B  B14  1  0.76438859  0.10551380  0.12968088  1
  B  B15  1  0.48021551  0.81807159  0.37239535  1
  B  B16  1  0.23768680  0.89670949  0.87338241  1
  B  B17  1  0.03802141  0.68738943  0.62899168  1
  B  B18  1  0.25981698  0.60391037  0.12800084  1
  O  O19  1  0.99002973  0.93294274  0.85531875  1
  O  O20  1  0.86130553  0.28945773  0.82645350  1
  O  O21  1  0.86909362  0.48011023  0.92244223  1
  O  O22  1  0.90973937  0.81744376  0.62573340  1
  O  O23  1  0.95541654  0.58375360  0.57634307  1
  O  O24  1  0.75695360  0.16288899  0.66622410  1
  O  O25  1  0.74769797  0.32145223  0.33981401  1
  O  O26  1  0.47086426  0.40268955  0.88923100  1
  O  O27  1  0.35755419  0.77905772  0.84111999  1
  O  O28  1  0.53828750  0.92236410  0.42428651  1
  O  O29  1  0.65386391  0.71219937  0.35324857  1
  O  O30  1  0.36853608  0.98355848  0.92134732  1
  O  O31  1  0.66352440  0.00393158  0.08035494  1
  O  O32  1  0.36247807  0.30102134  0.63702602  1
  O  O33  1  0.42977702  0.07476189  0.58285963  1
  O  O34  1  0.59174954  0.19957344  0.17593676  1
  O  O35  1  0.51525283  0.61162451  0.12964817  1
  O  O36  1  0.25513441  0.64907760  0.68133800  1
  O  O37  1  0.24793940  0.82375793  0.33282655  1
  O  O38  1  0.03511119  0.42142729  0.43232222  1
  O  O39  1  0.15470423  0.21165982  0.35895634  1
  O  O40  1  0.15532967  0.49838419  0.08579322  1
  O  O41  1  0.08912360  0.70147114  0.17296062  1
  O  O42  1  0.01830251  0.11020714  0.13184207  1
