# generated using pymatgen
data_Li3MnF7
_symmetry_space_group_name_H-M   'P 1'
_cell_length_a   8.02067710
_cell_length_b   7.03653084
_cell_length_c   5.28119232
_cell_angle_alpha   83.92525823
_cell_angle_beta   104.18171011
_cell_angle_gamma   108.69665181
_symmetry_Int_Tables_number   1
_chemical_formula_structural   Li3MnF7
_chemical_formula_sum   'Li6 Mn2 F14'
_cell_volume   273.60445229
_cell_formula_units_Z   2
loop_
 _symmetry_equiv_pos_site_id
 _symmetry_equiv_pos_as_xyz
  1  'x, y, z'
loop_
 _atom_site_type_symbol
 _atom_site_label
 _atom_site_symmetry_multiplicity
 _atom_site_fract_x
 _atom_site_fract_y
 _atom_site_fract_z
 _atom_site_occupancy
  Li  Li0  1  0.28038948  0.99245610  0.86297617  1
  Li  Li1  1  0.31852883  0.54450248  0.79968062  1
  Li  Li2  1  0.43087755  0.71459805  0.29133269  1
  Li  Li3  1  0.67774263  0.43545689  0.20160843  1
  Li  Li4  1  0.75024028  0.00642633  0.13183269  1
  Li  Li5  1  0.89620192  0.23915362  0.65821826  1
  Mn  Mn6  1  0.20730179  0.28449947  0.28284066  1
  Mn  Mn7  1  0.79893179  0.71347046  0.70902952  1
  F  F8  1  0.02701182  0.83363339  0.67095536  1
  F  F9  1  0.20710053  0.05385456  0.16159951  1
  F  F10  1  0.10364775  0.35562805  0.94144915  1
  F  F11  1  0.21865038  0.52698374  0.41571812  1
  F  F12  1  0.36839278  0.78353788  0.95036621  1
  F  F13  1  0.31409581  0.21710078  0.61165092  1
  F  F14  1  0.42612951  0.42912721  0.19691482  1
  F  F15  1  0.56282803  0.59704290  0.74092623  1
  F  F16  1  0.69630307  0.78143242  0.36411353  1
  F  F17  1  0.63329305  0.17730523  0.14530337  1
  F  F18  1  0.79844554  0.47355121  0.58507018  1
  F  F19  1  0.86947773  0.63524350  0.04432569  1
  F  F20  1  0.79350753  0.96255126  0.80504201  1
  F  F21  1  0.98142318  0.17501247  0.35695985  1
