# generated using pymatgen
data_LiFe2(BO3)2
_symmetry_space_group_name_H-M   'P 1'
_cell_length_a   5.20981968
_cell_length_b   9.08865253
_cell_length_c   10.21663031
_cell_angle_alpha   91.12457541
_cell_angle_beta   90.93518714
_cell_angle_gamma   89.64216724
_symmetry_Int_Tables_number   1
_chemical_formula_structural   LiFe2(BO3)2
_chemical_formula_sum   'Li4 Fe8 B8 O24'
_cell_volume   483.59380704
_cell_formula_units_Z   4
loop_
 _symmetry_equiv_pos_site_id
 _symmetry_equiv_pos_as_xyz
  1  'x, y, z'
loop_
 _atom_site_type_symbol
 _atom_site_label
 _atom_site_symmetry_multiplicity
 _atom_site_fract_x
 _atom_site_fract_y
 _atom_site_fract_z
 _atom_site_occupancy
  Li  Li0  1  0.85297889  0.82706366  0.66248134  1
  Li  Li1  1  0.81473467  0.83455467  0.16604851  1
  Li  Li2  1  0.67299932  0.66679478  0.40823539  1
  Li  Li3  1  0.66587133  0.67642370  0.91630334  1
  Fe  Fe4  1  0.83733844  0.17020858  0.63178449  1
  Fe  Fe5  1  0.81633145  0.49136275  0.13167070  1
  Fe  Fe6  1  0.68357481  0.01198430  0.87971425  1
  Fe  Fe7  1  0.66445036  0.32881898  0.37447745  1
  Fe  Fe8  1  0.33992125  0.65049522  0.62826905  1
  Fe  Fe9  1  0.32973160  0.00415994  0.12656127  1
  Fe  Fe10  1  0.16992959  0.84992114  0.38628552  1
  Fe  Fe11  1  0.16544791  0.49574603  0.88020063  1
  B  B12  1  0.84527848  0.50079655  0.62259838  1
  B  B13  1  0.83815106  0.16075376  0.13465096  1
  B  B14  1  0.65695058  0.00193532  0.37651138  1
  B  B15  1  0.66128532  0.34094432  0.87164130  1
  B  B16  1  0.33154313  0.99740975  0.63301180  1
  B  B17  1  0.32144926  0.67654903  0.11998408  1
  B  B18  1  0.17212090  0.50399842  0.37495380  1
  B  B19  1  0.17851080  0.82530866  0.88119564  1
  O  O20  1  0.90389063  0.50301872  0.34535983  1
  O  O21  1  0.91425513  0.82894665  0.86380032  1
  O  O22  1  0.79243704  0.21776798  0.82426926  1
  O  O23  1  0.76473501  0.12891831  0.43186101  1
  O  O24  1  0.78960437  0.86963574  0.37010887  1
  O  O25  1  0.80072724  0.46461246  0.91709750  1
  O  O26  1  0.71920759  0.63389025  0.60563123  1
  O  O27  1  0.69778221  0.03529595  0.09274951  1
  O  O28  1  0.73879389  0.37004184  0.57398108  1
  O  O29  1  0.70803798  0.28384902  0.18220600  1
  O  O30  1  0.58780754  0.67519497  0.11736909  1
  O  O31  1  0.59902476  0.99766274  0.66204240  1
  O  O32  1  0.41216496  0.00816729  0.32294217  1
  O  O33  1  0.40373600  0.34357832  0.87791754  1
  O  O34  1  0.31587741  0.69601141  0.84573845  1
  O  O35  1  0.28663030  0.63613538  0.41526122  1
  O  O36  1  0.31553441  0.37955734  0.36684051  1
  O  O37  1  0.31793360  0.94254835  0.93182975  1
  O  O38  1  0.17891454  0.55773737  0.07535550  1
  O  O39  1  0.18801944  0.12213884  0.63768830  1
  O  O40  1  0.21437171  0.86398693  0.59722455  1
  O  O41  1  0.18924208  0.80356471  0.16363473  1
  O  O42  1  0.09501618  0.15808379  0.12563814  1
  O  O43  1  0.08123082  0.49799912  0.68535779  1
