# generated using pymatgen
data_LiFe2(BO3)2
_symmetry_space_group_name_H-M   'P 1'
_cell_length_a   5.28960443
_cell_length_b   9.05618872
_cell_length_c   11.40902515
_cell_angle_alpha   113.06592827
_cell_angle_beta   77.28029232
_cell_angle_gamma   90.19370358
_symmetry_Int_Tables_number   1
_chemical_formula_structural   LiFe2(BO3)2
_chemical_formula_sum   'Li4 Fe8 B8 O24'
_cell_volume   488.40464303
_cell_formula_units_Z   4
loop_
 _symmetry_equiv_pos_site_id
 _symmetry_equiv_pos_as_xyz
  1  'x, y, z'
loop_
 _atom_site_type_symbol
 _atom_site_label
 _atom_site_symmetry_multiplicity
 _atom_site_fract_x
 _atom_site_fract_y
 _atom_site_fract_z
 _atom_site_occupancy
  Li  Li0  1  0.16073457  0.17058656  0.35587182  1
  Li  Li1  1  0.35445905  0.31578574  0.61445737  1
  Li  Li2  1  0.60795998  0.04829566  0.09473592  1
  Li  Li3  1  0.42812388  0.93379906  0.83545211  1
  Fe  Fe4  1  0.40490143  0.28184157  0.86871506  1
  Fe  Fe5  1  0.09507891  0.23463281  0.12012385  1
  Fe  Fe6  1  0.85161588  0.13540070  0.61711115  1
  Fe  Fe7  1  0.66215889  0.35847393  0.37471914  1
  Fe  Fe8  1  0.34996231  0.65285970  0.61591355  1
  Fe  Fe9  1  0.13980610  0.83114592  0.36741639  1
  Fe  Fe10  1  0.91088287  0.75721384  0.86870156  1
  Fe  Fe11  1  0.59680153  0.72843370  0.13191035  1
  B  B12  1  0.64198987  0.02227665  0.37094773  1
  B  B13  1  0.89867947  0.09095073  0.87037075  1
  B  B14  1  0.14929538  0.50897478  0.36792557  1
  B  B15  1  0.40194983  0.61698148  0.87414191  1
  B  B16  1  0.84861278  0.47056333  0.62728925  1
  B  B17  1  0.60100273  0.38847854  0.11817812  1
  B  B18  1  0.35030988  0.99090896  0.62296143  1
  B  B19  1  0.10691514  0.89626367  0.12210472  1
  O  O20  1  0.12703292  0.12552557  0.91502528  1
  O  O21  1  0.47173002  0.13608233  0.64858834  1
  O  O22  1  0.21778623  0.03967985  0.13344672  1
  O  O23  1  0.50560455  0.15800891  0.38127451  1
  O  O24  1  0.87781472  0.03648683  0.41092664  1
  O  O25  1  0.79759253  0.17970529  0.81338648  1
  O  O26  1  0.31291047  0.47042624  0.84054513  1
  O  O27  1  0.06430533  0.34922563  0.31404508  1
  O  O28  1  0.71905603  0.27372105  0.15022287  1
  O  O29  1  0.62021016  0.46391007  0.58713901  1
  O  O30  1  0.98641424  0.32985254  0.60946412  1
  O  O31  1  0.37994535  0.34377316  0.06999123  1
  O  O32  1  0.61772120  0.65719948  0.93109778  1
  O  O33  1  0.36133528  0.52107176  0.42151724  1
  O  O34  1  0.28671183  0.73952773  0.85008073  1
  O  O35  1  0.95298491  0.61711675  0.68278222  1
  O  O36  1  0.69830653  0.52892630  0.12906436  1
  O  O37  1  0.22417299  0.78662470  0.15373540  1
  O  O38  1  0.13488387  0.97761596  0.56947319  1
  O  O39  1  0.43904350  0.87521206  0.65397335  1
  O  O40  1  0.01333561  0.63160805  0.36537050  1
  O  O41  1  0.76251595  0.96591165  0.88876224  1
  O  O42  1  0.54856191  0.87189184  0.32027905  1
  O  O43  1  0.87088140  0.86778690  0.08227575  1
