# generated using pymatgen
data_FeOF
_symmetry_space_group_name_H-M   'P 1'
_cell_length_a   14.19786417
_cell_length_b   14.23495637
_cell_length_c   3.10015974
_cell_angle_alpha   90.00000000
_cell_angle_beta   90.00000000
_cell_angle_gamma   90.20909631
_symmetry_Int_Tables_number   1
_chemical_formula_structural   FeOF
_chemical_formula_sum   'Fe18 O18 F18'
_cell_volume   626.55664059
_cell_formula_units_Z   18
loop_
 _symmetry_equiv_pos_site_id
 _symmetry_equiv_pos_as_xyz
  1  'x, y, z'
loop_
 _atom_site_type_symbol
 _atom_site_label
 _atom_site_symmetry_multiplicity
 _atom_site_fract_x
 _atom_site_fract_y
 _atom_site_fract_z
 _atom_site_occupancy
  Fe  Fe0  1  0.01386086  0.99945576  0.00000000  1
  Fe  Fe1  1  0.00278808  0.33950718  0.00000000  1
  Fe  Fe2  1  0.00811100  0.65918205  0.00000000  1
  Fe  Fe3  1  0.14518480  0.17281892  0.50000000  1
  Fe  Fe4  1  0.15346476  0.49570387  0.50000000  1
  Fe  Fe5  1  0.17258228  0.85062173  0.50000000  1
  Fe  Fe6  1  0.33352183  0.00249919  0.00000000  1
  Fe  Fe7  1  0.34510878  0.33057497  0.00000000  1
  Fe  Fe8  1  0.34580099  0.66390691  0.00000000  1
  Fe  Fe9  1  0.48748124  0.49688441  0.50000000  1
  Fe  Fe10  1  0.48597319  0.16301845  0.50000000  1
  Fe  Fe11  1  0.50011124  0.81698476  0.50000000  1
  Fe  Fe12  1  0.68017286  0.99812818  0.00000000  1
  Fe  Fe13  1  0.68021581  0.33160693  0.00000000  1
  Fe  Fe14  1  0.66763094  0.67653813  0.00000000  1
  Fe  Fe15  1  0.82074302  0.16533353  0.50000000  1
  Fe  Fe16  1  0.83305502  0.48078991  0.50000000  1
  Fe  Fe17  1  0.81988376  0.83164675  0.50000000  1
  O  O18  1  0.06210963  0.27231464  0.50000000  1
  O  O19  1  0.06577379  0.60599984  0.50000000  1
  O  O20  1  0.06462558  0.93237723  0.50000000  1
  O  O21  1  0.10058845  0.10283778  0.00000000  1
  O  O22  1  0.10477025  0.43763532  0.00000000  1
  O  O23  1  0.23899507  0.90342460  0.00000000  1
  O  O24  1  0.39805240  0.26666496  0.50000000  1
  O  O25  1  0.39960061  0.60330174  0.50000000  1
  O  O26  1  0.43179756  0.09650566  0.00000000  1
  O  O27  1  0.43447081  0.43536359  0.00000000  1
  O  O28  1  0.43175285  0.77226803  0.00000000  1
  O  O29  1  0.60355223  0.73008143  0.50000000  1
  O  O30  1  0.73024194  0.26809006  0.50000000  1
  O  O31  1  0.72984139  0.93374768  0.50000000  1
  O  O32  1  0.76805270  0.10139852  0.00000000  1
  O  O33  1  0.76494177  0.43679005  0.00000000  1
  O  O34  1  0.77359647  0.76457239  0.00000000  1
  O  O35  1  0.93559042  0.39894133  0.50000000  1
  F  F36  1  0.10493591  0.77086216  0.00000000  1
  F  F37  1  0.23165148  0.23508355  0.00000000  1
  F  F38  1  0.23357568  0.56698741  0.00000000  1
  F  F39  1  0.26864473  0.06835699  0.50000000  1
  F  F40  1  0.26361334  0.73104947  0.50000000  1
  F  F41  1  0.26921254  0.39884672  0.50000000  1
  F  F42  1  0.40134842  0.93693139  0.50000000  1
  F  F43  1  0.56309395  0.22927147  0.00000000  1
  F  F44  1  0.56900323  0.56231856  0.00000000  1
  F  F45  1  0.56275917  0.90139332  0.00000000  1
  F  F46  1  0.59943753  0.06606581  0.50000000  1
  F  F47  1  0.59907573  0.39773183  0.50000000  1
  F  F48  1  0.73256124  0.60088858  0.50000000  1
  F  F49  1  0.89714566  0.22770267  0.00000000  1
  F  F50  1  0.89730437  0.57025684  0.00000000  1
  F  F51  1  0.89869831  0.89964894  0.00000000  1
  F  F52  1  0.93433800  0.06399525  0.50000000  1
  F  F53  1  0.93955632  0.73509257  0.50000000  1
