# generated using pymatgen
data_FeOF
_symmetry_space_group_name_H-M   'P 1'
_cell_length_a   14.37287449
_cell_length_b   14.43294665
_cell_length_c   3.12946785
_cell_angle_alpha   90.00000000
_cell_angle_beta   90.00000000
_cell_angle_gamma   90.31756839
_symmetry_Int_Tables_number   1
_chemical_formula_structural   FeOF
_chemical_formula_sum   'Fe18 O18 F18'
_cell_volume   649.17601058
_cell_formula_units_Z   18
loop_
 _symmetry_equiv_pos_site_id
 _symmetry_equiv_pos_as_xyz
  1  'x, y, z'
loop_
 _atom_site_type_symbol
 _atom_site_label
 _atom_site_symmetry_multiplicity
 _atom_site_fract_x
 _atom_site_fract_y
 _atom_site_fract_z
 _atom_site_occupancy
  Fe  Fe0  1  0.01373543  0.00004772  0.00000000  1
  Fe  Fe1  1  0.99934792  0.33610938  0.00000000  1
  Fe  Fe2  1  0.01428799  0.66291805  0.00000000  1
  Fe  Fe3  1  0.14571857  0.17299232  0.50000000  1
  Fe  Fe4  1  0.14984288  0.49383524  0.50000000  1
  Fe  Fe5  1  0.15289152  0.83139033  0.50000000  1
  Fe  Fe6  1  0.33677909  0.00546435  0.00000000  1
  Fe  Fe7  1  0.34582962  0.33152697  0.00000000  1
  Fe  Fe8  1  0.34440251  0.66131117  0.00000000  1
  Fe  Fe9  1  0.48733283  0.49669211  0.50000000  1
  Fe  Fe10  1  0.48392978  0.16571562  0.50000000  1
  Fe  Fe11  1  0.49661534  0.81579964  0.50000000  1
  Fe  Fe12  1  0.67707266  0.99506022  0.00000000  1
  Fe  Fe13  1  0.68279965  0.33224718  0.00000000  1
  Fe  Fe14  1  0.66635105  0.67757994  0.00000000  1
  Fe  Fe15  1  0.84008584  0.18731679  0.50000000  1
  Fe  Fe16  1  0.83572928  0.48382012  0.50000000  1
  Fe  Fe17  1  0.82208619  0.82985627  0.50000000  1
  O  O18  1  0.06200005  0.27419653  0.50000000  1
  O  O19  1  0.06439780  0.60148049  0.50000000  1
  O  O20  1  0.06696220  0.93754783  0.50000000  1
  O  O21  1  0.09812837  0.10737388  0.00000000  1
  O  O22  1  0.10141732  0.43392216  0.00000000  1
  O  O23  1  0.10251019  0.76939308  0.00000000  1
  O  O24  1  0.39768303  0.26765522  0.50000000  1
  O  O25  1  0.39881427  0.60168108  0.50000000  1
  O  O26  1  0.43658824  0.10030133  0.00000000  1
  O  O27  1  0.43455791  0.43555314  0.00000000  1
  O  O28  1  0.43253750  0.76897727  0.00000000  1
  O  O29  1  0.60270694  0.73030217  0.50000000  1
  O  O30  1  0.73080741  0.26731926  0.50000000  1
  O  O31  1  0.73180382  0.93687448  0.50000000  1
  O  O32  1  0.76948801  0.43503825  0.00000000  1
  O  O33  1  0.77128040  0.76714226  0.00000000  1
  O  O34  1  0.90067218  0.23350031  0.00000000  1
  O  O35  1  0.93674884  0.39877667  0.50000000  1
  F  F36  1  0.23003994  0.23542489  0.00000000  1
  F  F37  1  0.23166141  0.56447820  0.00000000  1
  F  F38  1  0.23568535  0.89976673  0.00000000  1
  F  F39  1  0.26501514  0.06710500  0.50000000  1
  F  F40  1  0.26758494  0.73116420  0.50000000  1
  F  F41  1  0.26863748  0.39750018  0.50000000  1
  F  F42  1  0.39916431  0.93249673  0.50000000  1
  F  F43  1  0.56395845  0.23075328  0.00000000  1
  F  F44  1  0.56809671  0.56238694  0.00000000  1
  F  F45  1  0.56288187  0.90129267  0.00000000  1
  F  F46  1  0.60551028  0.06632455  0.50000000  1
  F  F47  1  0.60082860  0.39828287  0.50000000  1
  F  F48  1  0.73180081  0.60136007  0.50000000  1
  F  F49  1  0.76960556  0.10227470  0.00000000  1
  F  F50  1  0.89779376  0.56779382  0.00000000  1
  F  F51  1  0.89887374  0.89881904  0.00000000  1
  F  F52  1  0.93274160  0.06238466  0.50000000  1
  F  F53  1  0.93618040  0.73367566  0.50000000  1
