# generated using pymatgen
data_Li4TiCr5O12
_symmetry_space_group_name_H-M   'P 1'
_cell_length_a   8.90131810
_cell_length_b   8.91148352
_cell_length_c   10.26040102
_cell_angle_alpha   89.58728499
_cell_angle_beta   89.82330361
_cell_angle_gamma   60.05650778
_symmetry_Int_Tables_number   1
_chemical_formula_structural   Li4TiCr5O12
_chemical_formula_sum   'Li12 Ti3 Cr15 O36'
_cell_volume   705.23679574
_cell_formula_units_Z   3
loop_
 _symmetry_equiv_pos_site_id
 _symmetry_equiv_pos_as_xyz
  1  'x, y, z'
loop_
 _atom_site_type_symbol
 _atom_site_label
 _atom_site_symmetry_multiplicity
 _atom_site_fract_x
 _atom_site_fract_y
 _atom_site_fract_z
 _atom_site_occupancy
  Li  Li0  1  0.39107630  0.89675402  0.72720746  1
  Li  Li1  1  0.89072282  0.89390992  0.76999141  1
  Li  Li2  1  0.77596934  0.77277603  0.22998877  1
  Li  Li3  1  0.27563247  0.76999404  0.27277330  1
  Li  Li4  1  0.06760700  0.53962843  0.72247813  1
  Li  Li5  1  0.57040015  0.53775717  0.77450334  1
  Li  Li6  1  0.11795399  0.45249122  0.22939106  1
  Li  Li7  1  0.61982272  0.44932428  0.27369711  1
  Li  Li8  1  0.04680415  0.21737835  0.72629801  1
  Li  Li9  1  0.54872066  0.21426427  0.77060570  1
  Li  Li10  1  0.09629762  0.12887952  0.22553455  1
  Li  Li11  1  0.59914139  0.12696368  0.27752501  1
  Ti  Ti12  1  0.67156908  0.66794256  0.99798603  1
  Ti  Ti13  1  0.33333082  0.33331786  0.99998946  1
  Ti  Ti14  1  0.99507229  0.99870861  0.00203965  1
  Cr  Cr15  1  0.83194110  0.66621110  0.50330804  1
  Cr  Cr16  1  0.16817443  0.66667786  0.50113535  1
  Cr  Cr17  1  0.49949265  0.66855362  0.49981109  1
  Cr  Cr18  1  0.33251800  0.66616613  0.99767876  1
  Cr  Cr19  1  0.00098407  0.66755165  0.99994228  1
  Cr  Cr20  1  0.49807595  0.33599402  0.50160541  1
  Cr  Cr21  1  0.83340580  0.33332294  0.50002293  1
  Cr  Cr22  1  0.16841021  0.33071025  0.49840180  1
  Cr  Cr23  1  0.99788866  0.33535161  0.99710416  1
  Cr  Cr24  1  0.66875858  0.33129966  0.00292541  1
  Cr  Cr25  1  0.16729717  0.99799207  0.50019155  1
  Cr  Cr26  1  0.49841687  0.00005264  0.49880889  1
  Cr  Cr27  1  0.83479790  0.00043136  0.49669651  1
  Cr  Cr28  1  0.33413074  0.00050024  0.00231054  1
  Cr  Cr29  1  0.66565325  0.99909895  0.00005293  1
  O  O30  1  0.38124674  0.88736446  0.39966688  1
  O  O31  1  0.71957757  0.89299775  0.39677031  1
  O  O32  1  0.21733978  0.89201722  0.10390340  1
  O  O33  1  0.88659828  0.88935136  0.10307833  1
  O  O34  1  0.56336369  0.88047574  0.10145035  1
  O  O35  1  0.06557115  0.88898432  0.40067001  1
  O  O36  1  0.60102196  0.77766016  0.59921041  1
  O  O37  1  0.10323590  0.78620279  0.89854508  1
  O  O38  1  0.78004002  0.77729084  0.89692338  1
  O  O39  1  0.44930851  0.77464036  0.89608356  1
  O  O40  1  0.28548354  0.77927457  0.60032457  1
  O  O41  1  0.94705705  0.77377219  0.60327738  1
  O  O42  1  0.05477458  0.55490920  0.40118347  1
  O  O43  1  0.39463634  0.56087896  0.39685843  1
  O  O44  1  0.88781211  0.55959123  0.10524602  1
  O  O45  1  0.55601198  0.55630706  0.09998263  1
  O  O46  1  0.22437324  0.54929761  0.10081753  1
  O  O47  1  0.71385097  0.55899089  0.40237793  1
  O  O48  1  0.27532900  0.44298731  0.59710311  1
  O  O49  1  0.77154534  0.45001080  0.89866365  1
  O  O50  1  0.44968009  0.43838427  0.89552108  1
  O  O51  1  0.11462496  0.44462350  0.89758836  1
  O  O52  1  0.60651112  0.44929895  0.60032733  1
  O  O53  1  0.95320008  0.43770024  0.60383163  1
  O  O54  1  0.06010194  0.21720030  0.39970859  1
  O  O55  1  0.71327175  0.22904786  0.39627944  1
  O  O56  1  0.55203319  0.22200937  0.10243037  1
  O  O57  1  0.21698511  0.22826939  0.10446274  1
  O  O58  1  0.89510113  0.21664091  0.10136585  1
  O  O59  1  0.39166250  0.22378144  0.40288669  1
  O  O60  1  0.95283439  0.10757741  0.59760562  1
  O  O61  1  0.44232147  0.11731556  0.89915411  1
  O  O62  1  0.11062050  0.11037583  0.90003933  1
  O  O63  1  0.77880781  0.10708759  0.89475452  1
  O  O64  1  0.27219565  0.10566636  0.60314117  1
  O  O65  1  0.61182637  0.11199513  0.59876414  1
