# generated using pymatgen
data_Li2Fe2Si8O19
_symmetry_space_group_name_H-M   'P 1'
_cell_length_a   4.96698634
_cell_length_b   7.21243448
_cell_length_c   12.54388167
_cell_angle_alpha   72.78377345
_cell_angle_beta   90.00000000
_cell_angle_gamma   69.85879687
_symmetry_Int_Tables_number   1
_chemical_formula_structural   Li2Fe2Si8O19
_chemical_formula_sum   'Li2 Fe2 Si8 O19'
_cell_volume   400.37834947
_cell_formula_units_Z   1
loop_
 _symmetry_equiv_pos_site_id
 _symmetry_equiv_pos_as_xyz
  1  'x, y, z'
loop_
 _atom_site_type_symbol
 _atom_site_label
 _atom_site_symmetry_multiplicity
 _atom_site_fract_x
 _atom_site_fract_y
 _atom_site_fract_z
 _atom_site_occupancy
  Li  Li0  1  0.76282807  0.80008085  0.63875466  1
  Li  Li1  1  0.56290891  0.19991915  0.36124534  1
  Fe  Fe2  1  0.68888545  0.60266199  0.40267748  1
  Fe  Fe3  1  0.29154745  0.39733801  0.59732252  1
  Si  Si4  1  0.46354964  0.75872952  0.92747369  1
  Si  Si5  1  0.86450241  0.98280070  0.16923875  1
  Si  Si6  1  0.08411695  0.86614438  0.41921024  1
  Si  Si7  1  0.32735538  0.43954876  0.83145453  1
  Si  Si8  1  0.76690414  0.56045124  0.16854547  1
  Si  Si9  1  0.95026133  0.13385562  0.58078976  1
  Si  Si10  1  0.84730311  0.01719930  0.83076125  1
  Si  Si11  1  0.22227916  0.24127048  0.07252631  1
  O  O12  1  0.16606289  0.96617616  0.89163717  1
  O  O13  1  0.73568281  0.83364348  0.89800965  1
  O  O14  1  0.87721379  0.00097774  0.29654993  1
  O  O15  1  0.40525416  0.86759718  0.41734789  1
  O  O16  1  0.44965929  0.61192847  0.85249342  1
  O  O17  1  0.05702204  0.63794015  0.45672424  1
  O  O18  1  0.12468088  0.53243400  0.71311299  1
  O  O19  1  0.86227705  0.75681351  0.17294457  1
  O  O20  1  0.15436620  0.36576624  0.93831644  1
  O  O21  1  0.52013243  0.63423376  0.06168356  1
  O  O22  1  0.61909057  0.24318649  0.82705543  1
  O  O23  1  0.65711488  0.46756600  0.28688701  1
  O  O24  1  0.69496220  0.36205985  0.54327576  1
  O  O25  1  0.06158776  0.38807153  0.14750658  1
  O  O26  1  0.27285034  0.13240282  0.58265211  1
  O  O27  1  0.87819152  0.99902226  0.70345007  1
  O  O28  1  0.89046485  -0.00000000  0.50000000  1
  O  O29  1  0.56932729  0.16635652  0.10199035  1
  O  O30  1  0.13223905  0.03382384  0.10836283  1
