# generated using pymatgen
data_Li3MnO4
_symmetry_space_group_name_H-M   'P 1'
_cell_length_a   7.11282662
_cell_length_b   7.11341390
_cell_length_c   7.09775142
_cell_angle_alpha   70.50551625
_cell_angle_beta   70.52236221
_cell_angle_gamma   109.53014400
_symmetry_Int_Tables_number   1
_chemical_formula_structural   Li3MnO4
_chemical_formula_sum   'Li12 Mn4 O16'
_cell_volume   276.14890098
_cell_formula_units_Z   4
loop_
 _symmetry_equiv_pos_site_id
 _symmetry_equiv_pos_as_xyz
  1  'x, y, z'
loop_
 _atom_site_type_symbol
 _atom_site_label
 _atom_site_symmetry_multiplicity
 _atom_site_fract_x
 _atom_site_fract_y
 _atom_site_fract_z
 _atom_site_occupancy
  Li  Li0  1  0.48214348  0.73723351  0.00008109  1
  Li  Li1  1  0.74470911  0.25661515  0.74118145  1
  Li  Li2  1  0.25591466  0.74412624  0.74161292  1
  Li  Li3  1  0.25663352  0.25677895  0.25209429  1
  Li  Li4  1  0.25058987  0.51117241  0.48715934  1
  Li  Li5  1  0.51175842  0.25091933  0.48641552  1
  Li  Li6  1  0.50873045  0.50879265  0.74804708  1
  Li  Li7  1  0.73752387  0.99834093  0.51350201  1
  Li  Li8  1  0.73752938  0.48227531  0.99974792  1
  Li  Li9  1  0.99827915  0.73769385  0.51319846  1
  Li  Li10  1  0.99776406  0.48557094  0.25884508  1
  Li  Li11  1  0.48589418  0.99772099  0.25842181  1
  Mn  Mn12  1  0.73562684  0.73558577  0.26274141  1
  Mn  Mn13  1  0.99833245  0.99840853  0.73711018  1
  Mn  Mn14  1  0.99817691  0.26147217  0.00000679  1
  Mn  Mn15  1  0.26134502  0.99822498  0.99995175  1
  O  O16  1  0.22585410  0.22595752  0.77207345  1
  O  O17  1  0.47464314  0.99807930  0.76572833  1
  O  O18  1  0.77128660  0.99837653  0.99994724  1
  O  O19  1  0.23154456  0.47532414  0.00006909  1
  O  O20  1  0.47533530  0.23159243  0.99995269  1
  O  O21  1  0.23223868  0.99829457  0.52287856  1
  O  O22  1  0.76342734  0.76342566  0.75886807  1
  O  O23  1  0.99817516  0.23214358  0.52278440  1
  O  O24  1  0.99811704  0.47480789  0.76583928  1
  O  O25  1  0.24048022  0.76386586  0.23426781  1
  O  O26  1  0.76383106  0.24037365  0.23427293  1
  O  O27  1  0.99835013  0.77124355  -0.00001263  1
  O  O28  1  0.52124181  0.75517174  0.47706224  1
  O  O29  1  0.75506705  0.52105972  0.47713200  1
  O  O30  1  0.52234414  0.52234391  0.24110405  1
  O  O31  1  0.99806327  0.99796525  0.22791738  1
