# generated using pymatgen
data_Li2Co(CO3)2
_symmetry_space_group_name_H-M   'P 1'
_cell_length_a   7.82624793
_cell_length_b   7.68941865
_cell_length_c   9.59659479
_cell_angle_alpha   89.99868745
_cell_angle_beta   90.00223256
_cell_angle_gamma   110.87463948
_symmetry_Int_Tables_number   1
_chemical_formula_structural   Li2Co(CO3)2
_chemical_formula_sum   'Li8 Co4 C8 O24'
_cell_volume   539.60947295
_cell_formula_units_Z   4
loop_
 _symmetry_equiv_pos_site_id
 _symmetry_equiv_pos_as_xyz
  1  'x, y, z'
loop_
 _atom_site_type_symbol
 _atom_site_label
 _atom_site_symmetry_multiplicity
 _atom_site_fract_x
 _atom_site_fract_y
 _atom_site_fract_z
 _atom_site_occupancy
  Li  Li0  1  0.99450823  0.29718343  0.86769777  1
  Li  Li1  1  0.67394515  0.94546459  0.36038346  1
  Li  Li2  1  0.82604287  0.55455442  0.86028225  1
  Li  Li3  1  0.50550377  0.20279115  0.36767373  1
  Li  Li4  1  0.46215160  0.73475747  0.63423904  1
  Li  Li5  1  0.17019657  0.46386670  0.13632012  1
  Li  Li6  1  0.32975505  0.03612298  0.63630550  1
  Li  Li7  1  0.03784600  0.76521819  0.13420991  1
  Co  Co8  1  0.93355740  0.42429137  0.37486345  1
  Co  Co9  1  0.56650542  0.07578450  0.87480410  1
  Co  Co10  1  0.43889107  0.92838545  0.11783381  1
  Co  Co11  1  0.06118451  0.57165768  0.61790246  1
  C  C12  1  0.76274185  0.30181770  0.10592892  1
  C  C13  1  0.73726495  0.19820648  0.60595181  1
  C  C14  1  0.76230722  0.66589905  0.50564968  1
  C  C15  1  0.73768906  0.83408350  0.00554608  1
  C  C16  1  0.25146368  0.15684891  0.00203707  1
  C  C17  1  0.24853673  0.34313838  0.50200151  1
  C  C18  1  0.26854566  0.79881150  0.38480261  1
  C  C19  1  0.23142024  0.70117227  0.88478312  1
  O  O20  1  0.90908353  0.41362757  0.16435834  1
  O  O21  1  0.87405083  0.29938957  0.67963725  1
  O  O22  1  0.73960414  0.20405952  0.46922166  1
  O  O23  1  0.76041791  0.29598010  0.96924182  1
  O  O24  1  0.62594855  0.20053602  0.17964063  1
  O  O25  1  0.84205160  0.64508211  0.62189686  1
  O  O26  1  0.59086805  0.08644221  0.66430018  1
  O  O27  1  0.78840191  0.58919634  0.39112523  1
  O  O28  1  0.84078413  0.73617463  0.00470266  1
  O  O29  1  0.65925396  0.76385064  0.50477136  1
  O  O30  1  0.71160470  0.91081646  0.89105834  1
  O  O31  1  0.35911013  0.16891573  0.89587941  1
  O  O32  1  0.65791063  0.85483222  0.12181806  1
  O  O33  1  0.34501749  0.23865823  0.50838150  1
  O  O34  1  0.24046250  0.03858269  0.10291327  1
  O  O35  1  0.25953896  0.46140567  0.60285635  1
  O  O36  1  0.15497806  0.26132410  0.00843611  1
  O  O37  1  0.41412749  0.92265830  0.33285344  1
  O  O38  1  0.14086287  0.33106284  0.39583844  1
  O  O39  1  0.25541480  0.69915818  0.01922663  1
  O  O40  1  0.34541289  0.82003985  0.80354751  1
  O  O41  1  0.15456865  0.67996051  0.30356492  1
  O  O42  1  0.24457782  0.80088556  0.51921658  1
  O  O43  1  0.08589140  0.57730420  0.83288105  1
