# generated using pymatgen
data_LiMnF4
_symmetry_space_group_name_H-M   'P 1'
_cell_length_a   7.65085900
_cell_length_b   7.43082126
_cell_length_c   5.14434362
_cell_angle_alpha   90.00000000
_cell_angle_beta   96.15718738
_cell_angle_gamma   90.00000000
_symmetry_Int_Tables_number   1
_chemical_formula_structural   LiMnF4
_chemical_formula_sum   'Li4 Mn4 F16'
_cell_volume   290.77994644
_cell_formula_units_Z   4
loop_
 _symmetry_equiv_pos_site_id
 _symmetry_equiv_pos_as_xyz
  1  'x, y, z'
loop_
 _atom_site_type_symbol
 _atom_site_label
 _atom_site_symmetry_multiplicity
 _atom_site_fract_x
 _atom_site_fract_y
 _atom_site_fract_z
 _atom_site_occupancy
  Li  Li0  1  0.21277014  0.26329968  0.57380655  1
  Li  Li1  1  0.28722986  0.76329968  0.42619345  1
  Li  Li2  1  0.71277014  0.23670032  0.57380655  1
  Li  Li3  1  0.78722986  0.73670032  0.42619345  1
  Mn  Mn4  1  0.00000000  0.00000000  0.00000000  1
  Mn  Mn5  1  0.00000000  0.50000000  0.00000000  1
  Mn  Mn6  1  0.50000000  0.00000000  0.00000000  1
  Mn  Mn7  1  0.50000000  0.50000000  0.00000000  1
  F  F8  1  0.04071934  0.27468571  0.17446763  1
  F  F9  1  0.06723431  0.62270269  0.30970210  1
  F  F10  1  0.10129380  0.05787919  0.70380102  1
  F  F11  1  0.23473817  0.95354396  0.16131276  1
  F  F12  1  0.26526183  0.45354396  0.83868724  1
  F  F13  1  0.39870620  0.55787919  0.29619898  1
  F  F14  1  0.43276569  0.12270269  0.69029790  1
  F  F15  1  0.45928066  0.77468571  0.82553237  1
  F  F16  1  0.54071934  0.22531429  0.17446763  1
  F  F17  1  0.56723431  0.87729731  0.30970210  1
  F  F18  1  0.60129380  0.44212081  0.70380102  1
  F  F19  1  0.73473817  0.54645604  0.16131276  1
  F  F20  1  0.76526183  0.04645604  0.83868724  1
  F  F21  1  0.89870620  0.94212081  0.29619898  1
  F  F22  1  0.93276569  0.37729731  0.69029790  1
  F  F23  1  0.95928066  0.72531429  0.82553237  1
