# generated using pymatgen
data_Li7VO5F
_symmetry_space_group_name_H-M   'P 1'
_cell_length_a   5.56891170
_cell_length_b   6.13729365
_cell_length_c   9.78315806
_cell_angle_alpha   90.85291866
_cell_angle_beta   69.39365026
_cell_angle_gamma   118.56417676
_symmetry_Int_Tables_number   1
_chemical_formula_structural   Li7VO5F
_chemical_formula_sum   'Li14 V2 O10 F2'
_cell_volume   270.05407834
_cell_formula_units_Z   2
loop_
 _symmetry_equiv_pos_site_id
 _symmetry_equiv_pos_as_xyz
  1  'x, y, z'
loop_
 _atom_site_type_symbol
 _atom_site_label
 _atom_site_symmetry_multiplicity
 _atom_site_fract_x
 _atom_site_fract_y
 _atom_site_fract_z
 _atom_site_occupancy
  Li  Li0  1  0.13120007  0.12622986  0.22067755  1
  Li  Li1  1  0.08583584  0.59967377  0.75863124  1
  Li  Li2  1  0.45475788  0.85319931  0.35986453  1
  Li  Li3  1  0.54524212  0.64680069  0.14013547  1
  Li  Li4  1  0.30240531  0.23808178  0.43276065  1
  Li  Li5  1  0.21861111  0.70250317  0.97985744  1
  Li  Li6  1  0.38644556  0.38980888  0.65183799  1
  Li  Li7  1  0.69759469  0.26191822  0.06723935  1
  Li  Li8  1  0.78138889  0.79749683  0.52014256  1
  Li  Li9  1  0.51503631  0.51567793  0.88127124  1
  Li  Li10  1  0.48496369  0.98432207  0.61872876  1
  Li  Li11  1  0.86879993  0.37377014  0.27932245  1
  Li  Li12  1  0.91416416  0.90032623  0.74136876  1
  Li  Li13  1  0.61355444  0.11019112  0.84816201  1
  V  V14  1  0.03039270  0.06804786  0.97403026  1
  V  V15  1  0.96960730  0.43195214  0.52596974  1
  O  O16  1  0.20481443  0.45737366  0.32857329  1
  O  O17  1  0.20616404  0.92407676  0.82842936  1
  O  O18  1  0.39270497  0.22879638  0.01438934  1
  O  O19  1  0.36199234  0.66008578  0.55579565  1
  O  O20  1  0.09585496  0.36899793  0.88390817  1
  O  O21  1  0.60729503  0.27120362  0.48561066  1
  O  O22  1  0.63800766  0.83991422  0.94420435  1
  O  O23  1  0.79383596  0.57592324  0.67157064  1
  O  O24  1  0.79518557  0.04262634  0.17142671  1
  O  O25  1  0.90414504  0.13100207  0.61609183  1
  F  F26  1  0.15278214  0.93406008  0.35896799  1
  F  F27  1  0.84721786  0.56593992  0.14103201  1
