# generated using pymatgen
data_Li2NiP2O7
_symmetry_space_group_name_H-M   'P 1'
_cell_length_a   5.11491469
_cell_length_b   7.04579443
_cell_length_c   8.67595992
_cell_angle_alpha   113.57369493
_cell_angle_beta   90.43398454
_cell_angle_gamma   110.51826374
_symmetry_Int_Tables_number   1
_chemical_formula_structural   Li2NiP2O7
_chemical_formula_sum   'Li4 Ni2 P4 O14'
_cell_volume   264.39036481
_cell_formula_units_Z   2
loop_
 _symmetry_equiv_pos_site_id
 _symmetry_equiv_pos_as_xyz
  1  'x, y, z'
loop_
 _atom_site_type_symbol
 _atom_site_label
 _atom_site_symmetry_multiplicity
 _atom_site_fract_x
 _atom_site_fract_y
 _atom_site_fract_z
 _atom_site_occupancy
  Li  Li0  1  0.06528472  0.31026697  0.00852643  1
  Li  Li1  1  0.32241117  0.60965684  0.74905469  1
  Li  Li2  1  0.67758883  0.39034316  0.25094531  1
  Li  Li3  1  0.93471528  0.68973303  0.99147357  1
  Ni  Ni4  1  0.14501610  0.15134777  0.33414006  1
  Ni  Ni5  1  0.85498390  0.84865223  0.66585994  1
  P  P6  1  0.25314251  0.64608474  0.39554706  1
  P  P7  1  0.48046852  0.83420585  0.14090556  1
  P  P8  1  0.51953148  0.16579415  0.85909444  1
  P  P9  1  0.74685749  0.35391526  0.60445294  1
  O  O10  1  0.99787347  0.71411428  0.43369245  1
  O  O11  1  0.43847791  0.68803795  0.55143843  1
  O  O12  1  0.15501002  0.39834410  0.25898720  1
  O  O13  1  0.19942716  0.08404549  0.85273270  1
  O  O14  1  0.30540450  0.61117571  0.98801614  1
  O  O15  1  0.45652565  0.79814928  0.31499940  1
  O  O16  1  0.64914980  0.99647822  0.84697814  1
  O  O17  1  0.35085020  0.00352178  0.15302186  1
  O  O18  1  0.54347435  0.20185072  0.68500060  1
  O  O19  1  0.69459550  0.38882429  0.01198386  1
  O  O20  1  0.80057284  0.91595451  0.14726730  1
  O  O21  1  0.84498998  0.60165590  0.74101280  1
  O  O22  1  0.56152209  0.31196205  0.44856157  1
  O  O23  1  0.00212653  0.28588572  0.56630755  1
