# generated using pymatgen
data_MnOF
_symmetry_space_group_name_H-M   'P 1'
_cell_length_a   5.65633393
_cell_length_b   7.08282461
_cell_length_c   6.93583467
_cell_angle_alpha   93.47548471
_cell_angle_beta   89.01079980
_cell_angle_gamma   88.08136401
_symmetry_Int_Tables_number   1
_chemical_formula_structural   MnOF
_chemical_formula_sum   'Mn8 O8 F8'
_cell_volume   277.15071606
_cell_formula_units_Z   8
loop_
 _symmetry_equiv_pos_site_id
 _symmetry_equiv_pos_as_xyz
  1  'x, y, z'
loop_
 _atom_site_type_symbol
 _atom_site_label
 _atom_site_symmetry_multiplicity
 _atom_site_fract_x
 _atom_site_fract_y
 _atom_site_fract_z
 _atom_site_occupancy
  Mn  Mn0  1  0.53679639  0.25101140  0.75126666  1
  Mn  Mn1  1  0.49397692  0.75143259  0.75119461  1
  Mn  Mn2  1  0.43569018  0.26206330  0.24532168  1
  Mn  Mn3  1  0.59872967  0.75703958  0.25393749  1
  Mn  Mn4  1  0.88126922  0.48691100  0.49850871  1
  Mn  Mn5  1  0.14405414  0.99372184  0.50001055  1
  Mn  Mn6  1  0.07289897  0.50922318  0.99901451  1
  Mn  Mn7  1  0.86232333  0.99475677  0.00203500  1
  O  O8  1  0.82468585  0.72985585  0.03034025  1
  O  O9  1  0.63113710  0.50243592  0.69329739  1
  O  O10  1  0.62680177  0.02470428  0.19794639  1
  O  O11  1  0.65446434  0.48967746  0.30019655  1
  O  O12  1  0.62047932  0.99621852  0.80885028  1
  O  O13  1  0.37002138  0.32324621  0.98733391  1
  O  O14  1  0.37089516  0.19121354  0.50792168  1
  O  O15  1  0.39656831  0.80200102  0.48966667  1
  F  F16  1  0.90319137  0.79225395  0.46526393  1
  F  F17  1  0.88811874  0.19297733  0.54081075  1
  F  F18  1  0.86903147  0.26954520  0.96423241  1
  F  F19  1  0.34657166  0.70973457  0.01640819  1
  F  F20  1  0.11096161  0.95427064  0.80000306  1
  F  F21  1  0.13697841  0.45659254  0.29576209  1
  F  F22  1  0.11442200  0.52818460  0.70196120  1
  F  F23  1  0.10993369  0.03093071  0.19871306  1
