# generated using pymatgen
data_Li3MnFeCo(PO4)3
_symmetry_space_group_name_H-M   'P 1'
_cell_length_a   10.43749888
_cell_length_b   6.07784770
_cell_length_c   14.27562814
_cell_angle_alpha   90.00000000
_cell_angle_beta   90.00573745
_cell_angle_gamma   90.00000000
_symmetry_Int_Tables_number   1
_chemical_formula_structural   Li3MnFeCo(PO4)3
_chemical_formula_sum   'Li12 Mn4 Fe4 Co4 P12 O48'
_cell_volume   905.61056328
_cell_formula_units_Z   4
loop_
 _symmetry_equiv_pos_site_id
 _symmetry_equiv_pos_as_xyz
  1  'x, y, z'
loop_
 _atom_site_type_symbol
 _atom_site_label
 _atom_site_symmetry_multiplicity
 _atom_site_fract_x
 _atom_site_fract_y
 _atom_site_fract_z
 _atom_site_occupancy
  Li  Li0  1  0.99616954  0.50070644  0.66718530  1
  Li  Li1  1  0.99693839  0.00074686  0.99974728  1
  Li  Li2  1  0.99693839  0.49925314  0.99974728  1
  Li  Li3  1  -0.00007166  0.99932897  0.33346436  1
  Li  Li4  1  -0.00007166  0.50067103  0.33346436  1
  Li  Li5  1  0.99616954  0.99929356  0.66718530  1
  Li  Li6  1  0.50107696  0.00087125  0.50038354  1
  Li  Li7  1  0.50107696  0.49912875  0.50038354  1
  Li  Li8  1  0.50253477  0.99879456  0.16688082  1
  Li  Li9  1  0.50253477  0.50120544  0.16688082  1
  Li  Li10  1  0.50436305  0.99851058  0.83262362  1
  Li  Li11  1  0.50436305  0.50148942  0.83262362  1
  Mn  Mn12  1  0.21800971  0.75000000  0.16031382  1
  Mn  Mn13  1  0.21845113  0.75000000  0.82644676  1
  Mn  Mn14  1  0.28131888  0.25000000  0.66010632  1
  Mn  Mn15  1  0.28165703  0.25000000  0.99349738  1
  Fe  Fe16  1  0.21847599  0.75000000  0.49203440  1
  Fe  Fe17  1  0.27975826  0.25000000  0.32781412  1
  Fe  Fe18  1  0.72421293  0.75000000  0.00428278  1
  Fe  Fe19  1  0.72000665  0.75000000  0.33932716  1
  Co  Co20  1  0.72293722  0.75000000  0.67236496  1
  Co  Co21  1  0.77702431  0.25000000  0.83937824  1
  Co  Co22  1  0.77988162  0.25000000  0.50554003  1
  Co  Co23  1  0.77709067  0.25000000  0.17439358  1
  P  P24  1  0.08936572  0.25000000  0.80584454  1
  P  P25  1  0.09057429  0.25000000  0.13980485  1
  P  P26  1  0.09217900  0.25000000  0.47314122  1
  P  P27  1  0.40665808  0.75000000  0.30722367  1
  P  P28  1  0.40857878  0.75000000  0.63745266  1
  P  P29  1  0.41064731  0.75000000  0.97241760  1
  P  P30  1  0.59719546  0.25000000  0.36152602  1
  P  P31  1  0.59873906  0.25000000  0.02833099  1
  P  P32  1  0.59822998  0.25000000  0.69364742  1
  P  P33  1  0.90171477  0.75000000  0.86085830  1
  P  P34  1  0.90167058  0.75000000  0.19410622  1
  P  P35  1  0.90357535  0.75000000  0.52669630  1
  O  O36  1  0.03917302  0.75000000  0.23604142  1
  O  O37  1  0.04214533  0.75000000  0.56745180  1
  O  O38  1  0.03942181  0.75000000  0.90176176  1
  O  O39  1  0.09622785  0.25000000  0.58055683  1
  O  O40  1  0.09457684  0.25000000  0.91339217  1
  O  O41  1  0.09712007  0.25000000  0.24736382  1
  O  O42  1  0.16067374  0.04788032  0.09415255  1
  O  O43  1  0.16067374  0.45211968  0.09415255  1
  O  O44  1  0.16423135  0.04811368  0.42782069  1
  O  O45  1  0.16423135  0.45188632  0.42782069  1
  O  O46  1  0.15969623  0.04764435  0.76048303  1
  O  O47  1  0.15969623  0.45235565  0.76048303  1
  O  O48  1  0.33829345  0.54751426  0.59185784  1
  O  O49  1  0.33829345  0.95248574  0.59185784  1
  O  O50  1  0.33648692  0.54695702  0.26225564  1
  O  O51  1  0.33648692  0.95304298  0.26225564  1
  O  O52  1  0.34015535  0.54805260  0.92714759  1
  O  O53  1  0.34015535  0.95194740  0.92714759  1
  O  O54  1  0.40190180  0.75000000  0.41487736  1
  O  O55  1  0.40511684  0.75000000  0.07980077  1
  O  O56  1  0.40265891  0.75000000  0.74510804  1
  O  O57  1  0.45884325  0.25000000  0.40100765  1
  O  O58  1  0.46051587  0.25000000  0.06903557  1
  O  O59  1  0.46026556  0.25000000  0.73520362  1
  O  O60  1  0.54569473  0.75000000  0.26693923  1
  O  O61  1  0.54957845  0.75000000  0.93215599  1
  O  O62  1  0.54782469  0.75000000  0.59863578  1
  O  O63  1  0.60137587  0.25000000  0.25354136  1
  O  O64  1  0.60143339  0.25000000  0.92031636  1
  O  O65  1  0.60155137  0.25000000  0.58593701  1
  O  O66  1  0.66847613  0.04613269  0.07306363  1
  O  O67  1  0.66760516  0.04695303  0.40722042  1
  O  O68  1  0.66863253  0.04564430  0.73817313  1
  O  O69  1  0.66863253  0.45435570  0.73817313  1
  O  O70  1  0.66847613  0.45386731  0.07306363  1
  O  O71  1  0.66760516  0.45304697  0.40722042  1
  O  O72  1  0.83127840  0.54637607  0.90573552  1
  O  O73  1  0.83127840  0.95362393  0.90573552  1
  O  O74  1  0.83088284  0.54665350  0.23865308  1
  O  O75  1  0.83322114  0.54622256  0.57194909  1
  O  O76  1  0.83088284  0.95334650  0.23865308  1
  O  O77  1  0.83322114  0.95377744  0.57194909  1
  O  O78  1  0.89904242  0.75000000  0.75268651  1
  O  O79  1  0.90035344  0.75000000  0.41873170  1
  O  O80  1  0.89981603  0.75000000  0.08616740  1
  O  O81  1  0.95050144  0.25000000  0.76621772  1
  O  O82  1  0.95166853  0.25000000  0.10056073  1
  O  O83  1  0.95394714  0.25000000  0.43236777  1
