# generated using pymatgen
data_CeHfMg30O32
_symmetry_space_group_name_H-M   'P 1'
_cell_length_a   8.66346461
_cell_length_b   8.71562575
_cell_length_c   8.71562575
_cell_angle_alpha   90.00000000
_cell_angle_beta   90.00000000
_cell_angle_gamma   90.00000000
_symmetry_Int_Tables_number   1
_chemical_formula_structural   CeHfMg30O32
_chemical_formula_sum   'Ce1 Hf1 Mg30 O32'
_cell_volume   658.09524414
_cell_formula_units_Z   1
loop_
 _symmetry_equiv_pos_site_id
 _symmetry_equiv_pos_as_xyz
  1  'x, y, z'
loop_
 _atom_site_type_symbol
 _atom_site_label
 _atom_site_symmetry_multiplicity
 _atom_site_fract_x
 _atom_site_fract_y
 _atom_site_fract_z
 _atom_site_occupancy
  Ce  Ce0  1  0.00000000  0.00000000  0.00000000  1
  Hf  Hf1  1  0.00000000  0.50000000  0.50000000  1
  Mg  Mg2  1  0.00000000  0.00000000  0.50000000  1
  Mg  Mg3  1  0.00000000  0.50000000  0.00000000  1
  Mg  Mg4  1  0.50000000  0.00000000  0.00000000  1
  Mg  Mg5  1  0.50000000  0.00000000  0.50000000  1
  Mg  Mg6  1  0.50000000  0.50000000  0.00000000  1
  Mg  Mg7  1  0.50000000  0.50000000  0.50000000  1
  Mg  Mg8  1  0.00000000  0.25528817  0.25528817  1
  Mg  Mg9  1  0.00000000  0.25528817  0.74471183  1
  Mg  Mg10  1  0.00000000  0.74471183  0.25528817  1
  Mg  Mg11  1  0.00000000  0.74471183  0.74471183  1
  Mg  Mg12  1  0.50000000  0.25030263  0.25030263  1
  Mg  Mg13  1  0.50000000  0.25030263  0.74969737  1
  Mg  Mg14  1  0.50000000  0.74969737  0.25030263  1
  Mg  Mg15  1  0.50000000  0.74969737  0.74969737  1
  Mg  Mg16  1  0.25823990  0.00000000  0.25708468  1
  Mg  Mg17  1  0.25823990  0.00000000  0.74291532  1
  Mg  Mg18  1  0.25489263  0.50000000  0.24503475  1
  Mg  Mg19  1  0.25489263  0.50000000  0.75496525  1
  Mg  Mg20  1  0.74176010  0.00000000  0.25708468  1
  Mg  Mg21  1  0.74176010  0.00000000  0.74291532  1
  Mg  Mg22  1  0.74510737  0.50000000  0.24503475  1
  Mg  Mg23  1  0.74510737  0.50000000  0.75496525  1
  Mg  Mg24  1  0.25823990  0.25708468  0.00000000  1
  Mg  Mg25  1  0.25489263  0.24503475  0.50000000  1
  Mg  Mg26  1  0.25823990  0.74291532  0.00000000  1
  Mg  Mg27  1  0.25489263  0.75496525  0.50000000  1
  Mg  Mg28  1  0.74176010  0.25708468  0.00000000  1
  Mg  Mg29  1  0.74510737  0.24503475  0.50000000  1
  Mg  Mg30  1  0.74176010  0.74291532  0.00000000  1
  Mg  Mg31  1  0.74510737  0.75496525  0.50000000  1
  O  O32  1  0.26639441  0.00000000  0.00000000  1
  O  O33  1  0.25424559  0.00000000  0.50000000  1
  O  O34  1  0.25424559  0.50000000  0.00000000  1
  O  O35  1  0.24746477  0.50000000  0.50000000  1
  O  O36  1  0.73360559  0.00000000  0.00000000  1
  O  O37  1  0.74575441  0.00000000  0.50000000  1
  O  O38  1  0.74575441  0.50000000  0.00000000  1
  O  O39  1  0.75253523  0.50000000  0.50000000  1
  O  O40  1  0.25020944  0.24980603  0.24980603  1
  O  O41  1  0.25020944  0.24980603  0.75019397  1
  O  O42  1  0.25020944  0.75019397  0.24980603  1
  O  O43  1  0.25020944  0.75019397  0.75019397  1
  O  O44  1  0.74979056  0.24980603  0.24980603  1
  O  O45  1  0.74979056  0.24980603  0.75019397  1
  O  O46  1  0.74979056  0.75019397  0.24980603  1
  O  O47  1  0.74979056  0.75019397  0.75019397  1
  O  O48  1  0.00000000  0.00000000  0.26535146  1
  O  O49  1  0.00000000  0.00000000  0.73464854  1
  O  O50  1  0.00000000  0.50000000  0.24360147  1
  O  O51  1  0.00000000  0.50000000  0.75639853  1
  O  O52  1  0.50000000  0.00000000  0.25314451  1
  O  O53  1  0.50000000  0.00000000  0.74685549  1
  O  O54  1  0.50000000  0.50000000  0.25132444  1
  O  O55  1  0.50000000  0.50000000  0.74867556  1
  O  O56  1  0.00000000  0.26535146  0.00000000  1
  O  O57  1  0.00000000  0.24360147  0.50000000  1
  O  O58  1  0.00000000  0.73464854  0.00000000  1
  O  O59  1  0.00000000  0.75639853  0.50000000  1
  O  O60  1  0.50000000  0.25314451  0.00000000  1
  O  O61  1  0.50000000  0.25132444  0.50000000  1
  O  O62  1  0.50000000  0.74685549  0.00000000  1
  O  O63  1  0.50000000  0.74867556  0.50000000  1
