# generated using pymatgen
data_V3CrSb2(PO4)6
_symmetry_space_group_name_H-M   'P 1'
_cell_length_a   8.86849888
_cell_length_b   8.71145331
_cell_length_c   8.71145400
_cell_angle_alpha   60.00000013
_cell_angle_beta   60.58407666
_cell_angle_gamma   60.58407332
_symmetry_Int_Tables_number   1
_chemical_formula_structural   V3CrSb2(PO4)6
_chemical_formula_sum   'V3 Cr1 Sb2 P6 O24'
_cell_volume   480.05894535
_cell_formula_units_Z   1
loop_
 _symmetry_equiv_pos_site_id
 _symmetry_equiv_pos_as_xyz
  1  'x, y, z'
loop_
 _atom_site_type_symbol
 _atom_site_label
 _atom_site_symmetry_multiplicity
 _atom_site_fract_x
 _atom_site_fract_y
 _atom_site_fract_z
 _atom_site_occupancy
  V  V0  1  0.05900546  0.64699818  0.64699818  1
  V  V1  1  0.43909872  0.85363343  0.85363343  1
  V  V2  1  0.93889866  0.35370045  0.35370045  1
  Cr  Cr3  1  0.56252090  0.14582670  0.14582670  1
  Sb  Sb4  1  0.00131273  0.99956209  0.99956209  1
  Sb  Sb5  1  0.49499121  0.50166993  0.50166993  1
  P  P6  1  0.25112328  0.24959462  0.53705593  1
  P  P7  1  0.25112328  0.96222516  0.24959462  1
  P  P8  1  0.25112328  0.53705593  0.96222516  1
  P  P9  1  0.74869532  0.45959063  0.04045056  1
  P  P10  1  0.74869532  0.04045056  0.75126448  1
  P  P11  1  0.74869532  0.75126448  0.45959063  1
  O  O12  1  0.07471549  0.11644855  0.30153949  1
  O  O13  1  0.07471549  0.50729647  0.11644855  1
  O  O14  1  0.07471549  0.30153949  0.50729647  1
  O  O15  1  0.24515553  0.08437650  0.73105499  1
  O  O16  1  0.42730237  0.19907767  0.38158318  1
  O  O17  1  0.25594237  0.41634276  0.56005052  1
  O  O18  1  0.24515553  0.93941199  0.08437650  1
  O  O19  1  0.25594237  0.76766335  0.41634276  1
  O  O20  1  0.57351554  0.61556483  0.00916199  1
  O  O21  1  0.25594237  0.56005052  0.76766335  1
  O  O22  1  0.75421850  0.26629482  0.06101800  1
  O  O23  1  0.57351554  0.00916199  0.80175664  1
  O  O24  1  0.42730237  0.99203679  0.19907767  1
  O  O25  1  0.24515553  0.73105499  0.93941199  1
  O  O26  1  0.74493371  0.43684628  0.23294742  1
  O  O27  1  0.42730237  0.38158318  0.99203679  1
  O  O28  1  0.74493371  0.23294742  0.58527259  1
  O  O29  1  0.75421850  0.06101800  0.91846867  1
  O  O30  1  0.74493371  0.58527259  0.43684628  1
  O  O31  1  0.57351554  0.80175664  0.61556483  1
  O  O32  1  0.75421850  0.91846867  0.26629482  1
  O  O33  1  0.92578866  0.70025518  0.48950863  1
  O  O34  1  0.92578866  0.48950863  0.88444754  1
  O  O35  1  0.92578866  0.88444754  0.70025518  1
