# generated using pymatgen
data_Li2CuF5
_symmetry_space_group_name_H-M   'P 1'
_cell_length_a   7.16757036
_cell_length_b   5.36089500
_cell_length_c   9.49517445
_cell_angle_alpha   90.00000960
_cell_angle_beta   90.12050737
_cell_angle_gamma   90.00000031
_symmetry_Int_Tables_number   1
_chemical_formula_structural   Li2CuF5
_chemical_formula_sum   'Li8 Cu4 F20'
_cell_volume   364.84739841
_cell_formula_units_Z   4
loop_
 _symmetry_equiv_pos_site_id
 _symmetry_equiv_pos_as_xyz
  1  'x, y, z'
loop_
 _atom_site_type_symbol
 _atom_site_label
 _atom_site_symmetry_multiplicity
 _atom_site_fract_x
 _atom_site_fract_y
 _atom_site_fract_z
 _atom_site_occupancy
  Li  Li0  1  0.04970372  0.24999997  0.72895446  1
  Li  Li1  1  0.10139878  0.24999994  0.43161276  1
  Li  Li2  1  0.39813325  0.74999999  0.93199215  1
  Li  Li3  1  0.45069065  0.74999997  0.22868863  1
  Li  Li4  1  0.54910534  0.25000001  0.77109914  1
  Li  Li5  1  0.60136927  0.24999998  0.06836815  1
  Li  Li6  1  0.89850598  0.74999999  0.56816837  1
  Li  Li7  1  0.95054461  0.75000000  0.27121331  1
  Cu  Cu8  1  0.18266062  0.24999996  0.04911969  1
  Cu  Cu9  1  0.31801700  0.74999988  0.54880060  1
  Cu  Cu10  1  0.68191372  0.25000008  0.45118216  1
  Cu  Cu11  1  0.81710798  0.74999999  0.95106032  1
  F  F12  1  0.99985981  0.99988397  0.99993268  1
  F  F13  1  0.99985959  0.50011581  0.99993247  1
  F  F14  1  0.09735790  0.24999999  0.23273178  1
  F  F15  1  0.13529341  0.49461622  0.58850659  1
  F  F16  1  0.13529346  0.00538360  0.58850659  1
  F  F17  1  0.23681962  0.74999993  0.35834903  1
  F  F18  1  0.26415197  0.25000011  0.85701648  1
  F  F19  1  0.36463416  0.50485583  0.08849525  1
  F  F20  1  0.36463431  0.99514433  0.08849522  1
  F  F21  1  0.40252928  0.74999982  0.73140216  1
  F  F22  1  0.49990257  0.99980560  0.50005066  1
  F  F23  1  0.49990238  0.50019438  0.50005076  1
  F  F24  1  0.59756052  0.25000017  0.26840139  1
  F  F25  1  0.63567869  0.00475720  0.91146524  1
  F  F26  1  0.63567885  0.49524281  0.91146533  1
  F  F27  1  0.73610126  0.75000004  0.14262860  1
  F  F28  1  0.76334392  0.25000015  0.64198787  1
  F  F29  1  0.86480099  0.50577116  0.41148828  1
  F  F30  1  0.86480097  0.99422906  0.41148832  1
  F  F31  1  0.90264541  0.75000006  0.76734557  1
