# generated using pymatgen
data_Li2V2SiGeO10
_symmetry_space_group_name_H-M   'P 1'
_cell_length_a   6.41342241
_cell_length_b   6.41342241
_cell_length_c   4.65541744
_cell_angle_alpha   90.00000000
_cell_angle_beta   90.00000000
_cell_angle_gamma   89.41402092
_symmetry_Int_Tables_number   1
_chemical_formula_structural   Li2V2SiGeO10
_chemical_formula_sum   'Li2 V2 Si1 Ge1 O10'
_cell_volume   191.47655547
_cell_formula_units_Z   1
loop_
 _symmetry_equiv_pos_site_id
 _symmetry_equiv_pos_as_xyz
  1  'x, y, z'
loop_
 _atom_site_type_symbol
 _atom_site_label
 _atom_site_symmetry_multiplicity
 _atom_site_fract_x
 _atom_site_fract_y
 _atom_site_fract_z
 _atom_site_occupancy
  Li  Li0  1  0.00983142  0.50983142  0.00000000  1
  Li  Li1  1  0.49016858  0.99016858  0.00000000  1
  V  V2  1  0.25000000  0.25000000  0.60923545  1
  V  V3  1  0.75000000  0.75000000  0.39076455  1
  Si  Si4  1  0.25000000  0.75000000  0.50000000  1
  Ge  Ge5  1  0.75000000  0.25000000  0.50000000  1
  O  O6  1  0.04114358  0.74488223  0.29404493  1
  O  O7  1  0.24488223  0.54114358  0.70595507  1
  O  O8  1  0.25000000  0.25000000  0.25897212  1
  O  O9  1  0.25511777  0.95885642  0.70595507  1
  O  O10  1  0.45885642  0.75511777  0.29404493  1
  O  O11  1  0.53090885  0.24316202  0.73025854  1
  O  O12  1  0.74316202  0.03090885  0.26974146  1
  O  O13  1  0.75683798  0.46909115  0.26974146  1
  O  O14  1  0.75000000  0.75000000  0.74102788  1
  O  O15  1  0.96909115  0.25683798  0.73025854  1
