# generated using pymatgen
data_Mn4O7F
_symmetry_space_group_name_H-M   'P 1'
_cell_length_a   6.98165400
_cell_length_b   7.17535954
_cell_length_c   6.67405452
_cell_angle_alpha   64.51286662
_cell_angle_beta   65.61782482
_cell_angle_gamma   101.83215638
_symmetry_Int_Tables_number   1
_chemical_formula_structural   Mn4O7F
_chemical_formula_sum   'Mn8 O14 F2'
_cell_volume   243.29511354
_cell_formula_units_Z   2
loop_
 _symmetry_equiv_pos_site_id
 _symmetry_equiv_pos_as_xyz
  1  'x, y, z'
loop_
 _atom_site_type_symbol
 _atom_site_label
 _atom_site_symmetry_multiplicity
 _atom_site_fract_x
 _atom_site_fract_y
 _atom_site_fract_z
 _atom_site_occupancy
  Mn  Mn0  1  0.29607690  0.45894356  0.25487513  1
  Mn  Mn1  1  0.20213137  0.05897805  0.74319954  1
  Mn  Mn2  1  0.19533091  0.55217758  0.75680046  1
  Mn  Mn3  1  0.29578018  0.93423439  0.25840392  1
  Mn  Mn4  1  0.69691502  0.05103309  0.76183898  1
  Mn  Mn5  1  0.80095203  0.46381869  0.24512487  1
  Mn  Mn6  1  0.80418410  0.94263831  0.24159608  1
  Mn  Mn7  1  0.70875401  0.56287207  0.73816102  1
  O  O8  1  0.63340837  0.02449278  0.07939436  1
  O  O9  1  0.12666773  0.51157490  0.08639356  1
  O  O10  1  0.03672016  0.14989683  0.57747644  1
  O  O11  1  0.10227338  0.21015442  0.92102148  1
  O  O12  1  0.46306130  0.34796846  0.41360644  1
  O  O13  1  0.22675328  0.61774148  0.43086945  1
  O  O14  1  0.27329586  0.88117590  0.57897852  1
  O  O15  1  0.76847895  0.38166630  0.58016788  1
  O  O16  1  0.90762273  0.79861093  0.06913055  1
  O  O17  1  0.54105428  0.64851174  0.57461882  1
  O  O18  1  0.59864683  0.71183418  0.91983212  1
  O  O19  1  0.96280273  0.85388714  0.42060564  1
  O  O20  1  0.86419560  0.47737228  0.92252356  1
  O  O21  1  0.36567311  0.97313156  0.92538118  1
  F  F22  1  0.40340863  0.28244073  0.07240188  1
  F  F23  1  0.72581052  0.10484262  0.42759812  1
