# generated using pymatgen
data_LiCoPO4
_symmetry_space_group_name_H-M   'P 1'
_cell_length_a   5.07690996
_cell_length_b   5.20421931
_cell_length_c   8.47574359
_cell_angle_alpha   89.60981527
_cell_angle_beta   90.79996934
_cell_angle_gamma   119.19403229
_symmetry_Int_Tables_number   1
_chemical_formula_structural   LiCoPO4
_chemical_formula_sum   'Li2 Co2 P2 O8'
_cell_volume   195.47502774
_cell_formula_units_Z   2
loop_
 _symmetry_equiv_pos_site_id
 _symmetry_equiv_pos_as_xyz
  1  'x, y, z'
loop_
 _atom_site_type_symbol
 _atom_site_label
 _atom_site_symmetry_multiplicity
 _atom_site_fract_x
 _atom_site_fract_y
 _atom_site_fract_z
 _atom_site_occupancy
  Li  Li0  1  0.06631176  0.24626620  0.00226127  1
  Li  Li1  1  0.82004656  0.75373380  0.50226127  1
  Co  Co2  1  0.28140360  0.64219376  0.31036391  1
  Co  Co3  1  0.63920984  0.35780624  0.81036391  1
  P  P4  1  0.30046217  0.66604970  0.69615313  1
  P  P5  1  0.63441247  0.33395030  0.19615313  1
  O  O6  1  0.98852557  0.65476428  0.68545463  1
  O  O7  1  0.39198021  0.60721241  0.53117882  1
  O  O8  1  0.28094236  0.42005551  0.80963800  1
  O  O9  1  0.54934512  0.96594272  0.75635125  1
  O  O10  1  0.33376128  0.34523572  0.18545463  1
  O  O11  1  0.78476781  0.39278759  0.03117882  1
  O  O12  1  0.86088785  0.57994449  0.30963800  1
  O  O13  1  0.58340240  0.03405728  0.25635125  1
