# generated using pymatgen
data_Li5Mn3(CoO5)2
_symmetry_space_group_name_H-M   'P 1'
_cell_length_a   5.25062860
_cell_length_b   5.23982131
_cell_length_c   7.71986583
_cell_angle_alpha   107.95901559
_cell_angle_beta   104.54293344
_cell_angle_gamma   99.37397590
_symmetry_Int_Tables_number   1
_chemical_formula_structural   Li5Mn3(CoO5)2
_chemical_formula_sum   'Li5 Mn3 Co2 O10'
_cell_volume   188.79265763
_cell_formula_units_Z   1
loop_
 _symmetry_equiv_pos_site_id
 _symmetry_equiv_pos_as_xyz
  1  'x, y, z'
loop_
 _atom_site_type_symbol
 _atom_site_label
 _atom_site_symmetry_multiplicity
 _atom_site_fract_x
 _atom_site_fract_y
 _atom_site_fract_z
 _atom_site_occupancy
  Li  Li0  1  0.21570624  0.90974584  0.41165632  1
  Li  Li1  1  0.39444427  0.27930473  0.78225882  1
  Li  Li2  1  0.50000000  0.50000000  0.50000000  1
  Li  Li3  1  0.60555573  0.72069527  0.21774118  1
  Li  Li4  1  0.78429376  0.09025416  0.58834368  1
  Mn  Mn5  1  0.00000000  0.50000000  0.00000000  1
  Mn  Mn6  1  0.69552332  0.89297993  0.89625582  1
  Mn  Mn7  1  0.30447668  0.10702007  0.10374418  1
  Co  Co8  1  0.09411519  0.70713455  0.68501314  1
  Co  Co9  1  0.90588481  0.29286545  0.31498686  1
  O  O10  1  0.07249704  0.09344190  0.85502148  1
  O  O11  1  0.31694498  0.71613962  0.95223745  1
  O  O12  1  0.13142610  0.31127945  0.54327226  1
  O  O13  1  0.23930452  0.47298816  0.22908427  1
  O  O14  1  0.45546999  0.88932585  0.66297762  1
  O  O15  1  0.54453001  0.11067415  0.33702238  1
  O  O16  1  0.76069548  0.52701184  0.77091573  1
  O  O17  1  0.86857390  0.68872055  0.45672774  1
  O  O18  1  0.68305502  0.28386038  0.04776255  1
  O  O19  1  0.92750296  0.90655810  0.14497852  1
