# generated using pymatgen
data_LiP2WO8
_symmetry_space_group_name_H-M   'P 1'
_cell_length_a   8.03777102
_cell_length_b   7.34054087
_cell_length_c   5.28886013
_cell_angle_alpha   90.00000000
_cell_angle_beta   91.71910477
_cell_angle_gamma   90.00000000
_symmetry_Int_Tables_number   1
_chemical_formula_structural   LiP2WO8
_chemical_formula_sum   'Li2 P4 W2 O16'
_cell_volume   311.91068911
_cell_formula_units_Z   2
loop_
 _symmetry_equiv_pos_site_id
 _symmetry_equiv_pos_as_xyz
  1  'x, y, z'
loop_
 _atom_site_type_symbol
 _atom_site_label
 _atom_site_symmetry_multiplicity
 _atom_site_fract_x
 _atom_site_fract_y
 _atom_site_fract_z
 _atom_site_occupancy
  Li  Li0  1  0.53818081  0.08746698  0.12723850  1
  Li  Li1  1  0.96181919  0.58746698  0.37276150  1
  P  P2  1  0.19718533  0.19047334  0.00799478  1
  P  P3  1  0.30281467  0.69047334  0.49200522  1
  P  P4  1  0.69158860  0.31677720  0.52644503  1
  P  P5  1  0.80841140  0.81677720  0.97355497  1
  W  W6  1  0.00273669  0.00898484  0.49538734  1
  W  W7  1  0.49726331  0.50898484  0.00461266  1
  O  O8  1  0.07349864  0.17342567  0.77419879  1
  O  O9  1  0.07585374  0.18154917  0.24001992  1
  O  O10  1  0.17528000  0.54395535  0.47532956  1
  O  O11  1  0.22945972  0.88826956  0.49883286  1
  O  O12  1  0.27054028  0.38826956  0.00116714  1
  O  O13  1  0.32472000  0.04395535  0.02467044  1
  O  O14  1  0.42414626  0.68154917  0.25998008  1
  O  O15  1  0.42650136  0.67342567  0.72580121  1
  O  O16  1  0.56810689  0.32926832  0.28699250  1
  O  O17  1  0.57494711  0.31957181  0.76195664  1
  O  O18  1  0.68675954  0.96712585  0.95547679  1
  O  O19  1  0.72909372  0.62231190  0.00268501  1
  O  O20  1  0.77090628  0.12231190  0.49731499  1
  O  O21  1  0.81324046  0.46712585  0.54452321  1
  O  O22  1  0.92505289  0.81957181  0.73804336  1
  O  O23  1  0.93189311  0.82926832  0.21300750  1
