# generated using pymatgen
data_BaCa2I6
_symmetry_space_group_name_H-M   'P 1'
_cell_length_a   14.06692184
_cell_length_b   14.06300588
_cell_length_c   7.27258271
_cell_angle_alpha   90.01345830
_cell_angle_beta   90.00000000
_cell_angle_gamma   120.00921176
_symmetry_Int_Tables_number   1
_chemical_formula_structural   BaCa2I6
_chemical_formula_sum   'Ba3 Ca6 I18'
_cell_volume   1245.82257802
_cell_formula_units_Z   3
loop_
 _symmetry_equiv_pos_site_id
 _symmetry_equiv_pos_as_xyz
  1  'x, y, z'
loop_
 _atom_site_type_symbol
 _atom_site_label
 _atom_site_symmetry_multiplicity
 _atom_site_fract_x
 _atom_site_fract_y
 _atom_site_fract_z
 _atom_site_occupancy
  Ba  Ba0  1  0.33339029  0.66679258  0.49596047  1
  Ba  Ba1  1  0.00022782  0.00000000  0.00000000  1
  Ba  Ba2  1  0.66659871  0.33320742  0.50403953  1
  Ca  Ca3  1  0.99990340  0.64970172  0.99998638  1
  Ca  Ca4  1  0.99996796  0.31571215  0.49995488  1
  Ca  Ca5  1  0.35020168  0.35029828  0.00001362  1
  Ca  Ca6  1  0.31569717  0.00000000  0.50000000  1
  Ca  Ca7  1  0.68425581  0.68428785  0.50004512  1
  Ca  Ca8  1  0.64984062  0.00000000  0.00000000  1
  I  I9  1  0.10152641  0.86331716  0.74290277  1
  I  I10  1  0.21755272  0.78933482  0.23912666  1
  I  I11  1  0.09651006  0.52961314  0.75483811  1
  I  I12  1  0.43306954  0.90371571  0.75502770  1
  I  I13  1  0.21053730  0.42832590  0.23893125  1
  I  I14  1  0.13657276  0.23811369  0.74283816  1
  I  I15  1  0.57165537  0.78215584  0.23880721  1
  I  I16  1  0.23820925  0.13668284  0.25709723  1
  I  I17  1  0.47044285  0.56684827  0.75468645  1
  I  I18  1  0.76208324  0.89866044  0.74294258  1
  I  I19  1  0.42821790  0.21066518  0.76087334  1
  I  I20  1  0.56689692  0.47038686  0.24516189  1
  I  I21  1  0.52935484  0.09628429  0.24497230  1
  I  I22  1  0.78221140  0.57167410  0.76106875  1
  I  I23  1  0.89845907  0.76188631  0.25716184  1
  I  I24  1  0.78949953  0.21784416  0.76119279  1
  I  I25  1  0.90359458  0.43315173  0.24531355  1
  I  I26  1  0.86342181  0.10133956  0.25705742  1
