# generated using pymatgen
data_Li2VSi4O11
_symmetry_space_group_name_H-M   'P 1'
_cell_length_a   7.81440420
_cell_length_b   8.45068080
_cell_length_c   8.45068080
_cell_angle_alpha   102.34342206
_cell_angle_beta   117.53908108
_cell_angle_gamma   62.46091892
_symmetry_Int_Tables_number   1
_chemical_formula_structural   Li2VSi4O11
_chemical_formula_sum   'Li4 V2 Si8 O22'
_cell_volume   438.76143035
_cell_formula_units_Z   2
loop_
 _symmetry_equiv_pos_site_id
 _symmetry_equiv_pos_as_xyz
  1  'x, y, z'
loop_
 _atom_site_type_symbol
 _atom_site_label
 _atom_site_symmetry_multiplicity
 _atom_site_fract_x
 _atom_site_fract_y
 _atom_site_fract_z
 _atom_site_occupancy
  Li  Li0  1  0.61901977  0.02924394  0.26728247  1
  Li  Li1  1  0.64826271  0.73271753  0.02924394  1
  Li  Li2  1  0.35173729  0.26728247  0.97075606  1
  Li  Li3  1  0.38098123  0.97075606  0.73271753  1
  V  V4  1  0.23820748  0.00000000  0.00000000  1
  V  V5  1  0.76179252  0.00000000  0.00000000  1
  Si  Si6  1  0.17140144  0.32719497  0.28254505  1
  Si  Si7  1  0.78394863  0.32719497  0.28254505  1
  Si  Si8  1  0.88885639  0.28254505  0.67280503  1
  Si  Si9  1  0.50140259  0.28254505  0.67280503  1
  Si  Si10  1  0.11114361  0.71745495  0.32719497  1
  Si  Si11  1  0.49859741  0.71745495  0.32719497  1
  Si  Si12  1  0.82859856  0.67280503  0.71745495  1
  Si  Si13  1  0.21605137  0.67280503  0.71745495  1
  O  O14  1  0.00000000  0.00000000  0.00000000  1
  O  O15  1  0.50000000  0.00000000  0.00000000  1
  O  O16  1  0.20437897  0.24173324  0.10291342  1
  O  O17  1  0.65680222  0.24173324  0.10291342  1
  O  O18  1  0.03278844  0.25788080  0.32345767  1
  O  O19  1  0.40551538  0.26668489  0.45343322  1
  O  O20  1  0.78123295  0.26668489  0.45343322  1
  O  O21  1  0.04791784  0.54656678  0.26668489  1
  O  O22  1  0.67220027  0.54656678  0.26668489  1
  O  O23  1  0.10146455  0.10291342  0.75826676  1
  O  O24  1  0.55388779  0.10291342  0.75826676  1
  O  O25  1  0.29066923  0.67654233  0.25788080  1
  O  O26  1  0.70933077  0.32345767  0.74211920  1
  O  O27  1  0.44611221  0.89708658  0.24173324  1
  O  O28  1  0.89853545  0.89708658  0.24173324  1
  O  O29  1  0.32779973  0.45343322  0.73331511  1
  O  O30  1  0.95208216  0.45343322  0.73331511  1
  O  O31  1  0.59448462  0.73331511  0.54656678  1
  O  O32  1  0.21876705  0.73331511  0.54656678  1
  O  O33  1  0.96721156  0.74211920  0.67654233  1
  O  O34  1  0.34319778  0.75826676  0.89708658  1
  O  O35  1  0.79562103  0.75826676  0.89708658  1
