# generated using pymatgen
data_Li7NiOF7
_symmetry_space_group_name_H-M   'P 1'
_cell_length_a   2.92692532
_cell_length_b   7.74525193
_cell_length_c   6.51017447
_cell_angle_alpha   89.84068039
_cell_angle_beta   77.00910412
_cell_angle_gamma   79.10850116
_symmetry_Int_Tables_number   1
_chemical_formula_structural   Li7NiOF7
_chemical_formula_sum   'Li7 Ni1 O1 F7'
_cell_volume   141.09488966
_cell_formula_units_Z   1
loop_
 _symmetry_equiv_pos_site_id
 _symmetry_equiv_pos_as_xyz
  1  'x, y, z'
loop_
 _atom_site_type_symbol
 _atom_site_label
 _atom_site_symmetry_multiplicity
 _atom_site_fract_x
 _atom_site_fract_y
 _atom_site_fract_z
 _atom_site_occupancy
  Li  Li0  1  0.75714144  0.36397454  0.12174158  1
  Li  Li1  1  0.50252110  0.73982507  0.25513172  1
  Li  Li2  1  0.24537428  0.13922847  0.37002197  1
  Li  Li3  1  0.75559861  0.87137378  0.61742899  1
  Li  Li4  1  0.00205735  0.49732365  0.49856165  1
  Li  Li5  1  0.25509460  0.61530701  0.87450378  1
  Li  Li6  1  0.49125743  0.25815115  0.75933399  1
  Ni  Ni7  1  0.98750978  0.01930285  0.00567659  1
  O  O8  1  0.37769946  0.18411293  0.06048915  1
  F  F9  1  0.87731025  0.93065462  0.31472489  1
  F  F10  1  0.12265206  0.56591619  0.18877968  1
  F  F11  1  0.37413843  0.68803249  0.56368964  1
  F  F12  1  0.61905078  0.31529841  0.44659903  1
  F  F13  1  0.62705855  0.81008430  0.93579860  1
  F  F14  1  0.87367358  0.44359795  0.80905590  1
  F  F15  1  0.13186028  0.05781560  0.67846385  1
