# generated using pymatgen
data_V2Fe3Sb(PO4)6
_symmetry_space_group_name_H-M   'P 1'
_cell_length_a   8.63390882
_cell_length_b   8.65474368
_cell_length_c   8.65474282
_cell_angle_alpha   60.00000115
_cell_angle_beta   59.92014401
_cell_angle_gamma   59.92014620
_symmetry_Int_Tables_number   1
_chemical_formula_structural   V2Fe3Sb(PO4)6
_chemical_formula_sum   'V2 Fe3 Sb1 P6 O24'
_cell_volume   456.74687993
_cell_formula_units_Z   1
loop_
 _symmetry_equiv_pos_site_id
 _symmetry_equiv_pos_as_xyz
  1  'x, y, z'
loop_
 _atom_site_type_symbol
 _atom_site_label
 _atom_site_symmetry_multiplicity
 _atom_site_fract_x
 _atom_site_fract_y
 _atom_site_fract_z
 _atom_site_occupancy
  V  V0  1  0.01216798  0.99594401  0.99594401  1
  V  V1  1  0.49601093  0.50133002  0.50133002  1
  Fe  Fe2  1  0.06675506  0.64441498  0.64441498  1
  Fe  Fe3  1  0.43541339  0.85486187  0.85486187  1
  Fe  Fe4  1  0.93127803  0.35624032  0.35624032  1
  Sb  Sb5  1  0.56921773  0.14359442  0.14359442  1
  P  P6  1  0.24473869  0.25388635  0.54579201  1
  P  P7  1  0.24473869  0.95558394  0.25388635  1
  P  P8  1  0.24473869  0.54579201  0.95558394  1
  P  P9  1  0.74812663  0.46032457  0.04474419  1
  P  P10  1  0.74812663  0.04474419  0.74680460  1
  P  P11  1  0.74812663  0.74680460  0.46032457  1
  O  O12  1  0.07222235  0.11301772  0.31770241  1
  O  O13  1  0.07222235  0.49705753  0.11301772  1
  O  O14  1  0.07222235  0.31770241  0.49705753  1
  O  O15  1  0.23165533  0.08741108  0.73589280  1
  O  O16  1  0.43502530  0.18923478  0.38606601  1
  O  O17  1  0.26896220  0.41252120  0.55769473  1
  O  O18  1  0.23165533  0.94504079  0.08741108  1
  O  O19  1  0.26896220  0.76082187  0.41252120  1
  O  O20  1  0.56706112  0.61044433  0.00669358  1
  O  O21  1  0.26896220  0.55769473  0.76082187  1
  O  O22  1  0.76768620  0.25646102  0.06080100  1
  O  O23  1  0.56706112  0.00669358  0.81580098  1
  O  O24  1  0.43502530  0.98967391  0.18923478  1
  O  O25  1  0.23165533  0.73589280  0.94504079  1
  O  O26  1  0.73050548  0.43525775  0.24235205  1
  O  O27  1  0.43502530  0.38606601  0.98967391  1
  O  O28  1  0.73050548  0.24235205  0.59188372  1
  O  O29  1  0.76768620  0.06080100  0.91505177  1
  O  O30  1  0.73050548  0.59188372  0.43525775  1
  O  O31  1  0.56706112  0.81580098  0.61044433  1
  O  O32  1  0.76768620  0.91505177  0.25646102  1
  O  O33  1  0.93040132  0.69202116  0.49022880  1
  O  O34  1  0.93040132  0.49022880  0.88734871  1
  O  O35  1  0.93040132  0.88734871  0.69202116  1
