# generated using pymatgen
data_LiNi5O5F
_symmetry_space_group_name_H-M   'P 1'
_cell_length_a   2.96783790
_cell_length_b   2.96783872
_cell_length_c   12.74738937
_cell_angle_alpha   90.00001650
_cell_angle_beta   89.99996734
_cell_angle_gamma   90.00000191
_symmetry_Int_Tables_number   1
_chemical_formula_structural   LiNi5O5F
_chemical_formula_sum   'Li1 Ni5 O5 F1'
_cell_volume   112.27982445
_cell_formula_units_Z   1
loop_
 _symmetry_equiv_pos_site_id
 _symmetry_equiv_pos_as_xyz
  1  'x, y, z'
loop_
 _atom_site_type_symbol
 _atom_site_label
 _atom_site_symmetry_multiplicity
 _atom_site_fract_x
 _atom_site_fract_y
 _atom_site_fract_z
 _atom_site_occupancy
  Li  Li0  1  0.49999981  0.50000041  0.83332689  1
  Ni  Ni1  1  0.00000042  0.00000076  0.00312662  1
  Ni  Ni2  1  0.50000480  0.49999786  0.16633135  1
  Ni  Ni3  1  0.99999499  -0.00000449  0.33333657  1
  Ni  Ni4  1  0.50000124  0.49999997  0.50034158  1
  Ni  Ni5  1  0.00000041  0.00000166  0.66352693  1
  O  O6  1  0.50000002  0.50000052  -0.00020160  1
  O  O7  1  0.99999943  0.00000036  0.16689625  1
  O  O8  1  0.49999947  0.50000078  0.33333810  1
  O  O9  1  -0.00000012  0.00000076  0.49977076  1
  O  O10  1  0.49999983  0.50000083  0.66686593  1
  F  F11  1  0.99999970  0.00000058  0.83333963  1
