# generated using pymatgen
data_LiV3(OF3)2
_symmetry_space_group_name_H-M   'P 1'
_cell_length_a   6.06608507
_cell_length_b   6.07498187
_cell_length_c   4.61060657
_cell_angle_alpha   89.99606639
_cell_angle_beta   90.00000000
_cell_angle_gamma   119.95156666
_symmetry_Int_Tables_number   1
_chemical_formula_structural   LiV3(OF3)2
_chemical_formula_sum   'Li1 V3 O2 F6'
_cell_volume   147.21563158
_cell_formula_units_Z   1
loop_
 _symmetry_equiv_pos_site_id
 _symmetry_equiv_pos_as_xyz
  1  'x, y, z'
loop_
 _atom_site_type_symbol
 _atom_site_label
 _atom_site_symmetry_multiplicity
 _atom_site_fract_x
 _atom_site_fract_y
 _atom_site_fract_z
 _atom_site_occupancy
  Li  Li0  1  0.00129663  0.00000000  0.50000000  1
  V  V1  1  0.99989366  0.49996048  0.99975870  1
  V  V2  1  0.49993318  0.50003952  0.00024130  1
  V  V3  1  0.49981589  0.00000000  0.00000000  1
  O  O4  1  0.33337899  0.66699930  0.80939389  1
  O  O5  1  0.66637968  0.33300070  0.19060611  1
  F  F6  1  0.16793776  0.83127794  0.23626119  1
  F  F7  1  0.16868943  0.33782448  0.23621626  1
  F  F8  1  0.33666082  0.16872206  0.76373881  1
  F  F9  1  0.66329318  0.83153635  0.23541093  1
  F  F10  1  0.83086495  0.66217552  0.76378374  1
  F  F11  1  0.83175682  0.16846365  0.76458907  1
