# generated using pymatgen
data_CeHfMg30O32
_symmetry_space_group_name_H-M   'P 1'
_cell_length_a   8.67387896
_cell_length_b   8.67387896
_cell_length_c   8.71977568
_cell_angle_alpha   90.00000000
_cell_angle_beta   90.00000000
_cell_angle_gamma   90.00000000
_symmetry_Int_Tables_number   1
_chemical_formula_structural   CeHfMg30O32
_chemical_formula_sum   'Ce1 Hf1 Mg30 O32'
_cell_volume   656.04257960
_cell_formula_units_Z   1
loop_
 _symmetry_equiv_pos_site_id
 _symmetry_equiv_pos_as_xyz
  1  'x, y, z'
loop_
 _atom_site_type_symbol
 _atom_site_label
 _atom_site_symmetry_multiplicity
 _atom_site_fract_x
 _atom_site_fract_y
 _atom_site_fract_z
 _atom_site_occupancy
  Ce  Ce0  1  -0.00000000  0.00000000  0.00000000  1
  Hf  Hf1  1  -0.00000000  0.00000000  0.50000000  1
  Mg  Mg2  1  -0.00000000  0.50000000  0.00000000  1
  Mg  Mg3  1  -0.00000000  0.50000000  0.50000000  1
  Mg  Mg4  1  0.50000000  0.00000000  0.00000000  1
  Mg  Mg5  1  0.50000000  0.00000000  0.50000000  1
  Mg  Mg6  1  0.50000000  0.50000000  0.00000000  1
  Mg  Mg7  1  0.50000000  0.50000000  0.50000000  1
  Mg  Mg8  1  -0.00000000  0.25967059  0.25233961  1
  Mg  Mg9  1  -0.00000000  0.25967059  0.74766039  1
  Mg  Mg10  1  -0.00000000  0.74032941  0.25233961  1
  Mg  Mg11  1  -0.00000000  0.74032941  0.74766039  1
  Mg  Mg12  1  0.50000000  0.25163224  0.25009218  1
  Mg  Mg13  1  0.50000000  0.25163224  0.74990782  1
  Mg  Mg14  1  0.50000000  0.74836776  0.25009218  1
  Mg  Mg15  1  0.50000000  0.74836776  0.74990782  1
  Mg  Mg16  1  0.25967059  0.00000000  0.25233961  1
  Mg  Mg17  1  0.25967059  0.00000000  0.74766039  1
  Mg  Mg18  1  0.25163224  0.50000000  0.25009218  1
  Mg  Mg19  1  0.25163224  0.50000000  0.74990782  1
  Mg  Mg20  1  0.74032941  0.00000000  0.25233961  1
  Mg  Mg21  1  0.74032941  0.00000000  0.74766039  1
  Mg  Mg22  1  0.74836776  0.50000000  0.25009218  1
  Mg  Mg23  1  0.74836776  0.50000000  0.74990782  1
  Mg  Mg24  1  0.25789587  0.25789587  0.00000000  1
  Mg  Mg25  1  0.25601641  0.25601641  0.50000000  1
  Mg  Mg26  1  0.25789587  0.74210413  0.00000000  1
  Mg  Mg27  1  0.25601641  0.74398359  0.50000000  1
  Mg  Mg28  1  0.74210413  0.25789587  -0.00000000  1
  Mg  Mg29  1  0.74398359  0.25601641  0.50000000  1
  Mg  Mg30  1  0.74210413  0.74210413  -0.00000000  1
  Mg  Mg31  1  0.74398359  0.74398359  0.50000000  1
  O  O32  1  0.26977790  0.00000000  -0.00000000  1
  O  O33  1  0.25430546  0.00000000  0.50000000  1
  O  O34  1  0.25338107  0.50000000  0.00000000  1
  O  O35  1  0.25055779  0.50000000  0.50000000  1
  O  O36  1  0.73022210  0.00000000  0.00000000  1
  O  O37  1  0.74569454  0.00000000  0.50000000  1
  O  O38  1  0.74661893  0.50000000  -0.00000000  1
  O  O39  1  0.74944221  0.50000000  0.50000000  1
  O  O40  1  0.24997865  0.24997865  0.25043230  1
  O  O41  1  0.24997865  0.24997865  0.74956770  1
  O  O42  1  0.24997865  0.75002135  0.25043230  1
  O  O43  1  0.24997865  0.75002135  0.74956770  1
  O  O44  1  0.75002135  0.24997865  0.25043230  1
  O  O45  1  0.75002135  0.24997865  0.74956770  1
  O  O46  1  0.75002135  0.75002135  0.25043230  1
  O  O47  1  0.75002135  0.75002135  0.74956770  1
  O  O48  1  -0.00000000  0.00000000  0.26004910  1
  O  O49  1  -0.00000000  0.00000000  0.73995090  1
  O  O50  1  -0.00000000  0.50000000  0.25364638  1
  O  O51  1  -0.00000000  0.50000000  0.74635362  1
  O  O52  1  0.50000000  0.00000000  0.25364638  1
  O  O53  1  0.50000000  0.00000000  0.74635362  1
  O  O54  1  0.50000000  0.50000000  0.25094322  1
  O  O55  1  0.50000000  0.50000000  0.74905678  1
  O  O56  1  -0.00000000  0.26977790  0.00000000  1
  O  O57  1  -0.00000000  0.25430546  0.50000000  1
  O  O58  1  -0.00000000  0.73022210  0.00000000  1
  O  O59  1  -0.00000000  0.74569454  0.50000000  1
  O  O60  1  0.50000000  0.25338107  0.00000000  1
  O  O61  1  0.50000000  0.25055779  0.50000000  1
  O  O62  1  0.50000000  0.74661893  0.00000000  1
  O  O63  1  0.50000000  0.74944221  0.50000000  1
