# generated using pymatgen
data_Li3V4(OF3)3
_symmetry_space_group_name_H-M   'P 1'
_cell_length_a   6.08676357
_cell_length_b   5.97361406
_cell_length_c   5.95624873
_cell_angle_alpha   99.65221121
_cell_angle_beta   99.68698133
_cell_angle_gamma   99.09553631
_symmetry_Int_Tables_number   1
_chemical_formula_structural   Li3V4(OF3)3
_chemical_formula_sum   'Li3 V4 O3 F9'
_cell_volume   206.55569705
_cell_formula_units_Z   1
loop_
 _symmetry_equiv_pos_site_id
 _symmetry_equiv_pos_as_xyz
  1  'x, y, z'
loop_
 _atom_site_type_symbol
 _atom_site_label
 _atom_site_symmetry_multiplicity
 _atom_site_fract_x
 _atom_site_fract_y
 _atom_site_fract_z
 _atom_site_occupancy
  Li  Li0  1  0.99257963  0.00809600  0.98420206  1
  Li  Li1  1  0.60876392  0.32944985  0.13614740  1
  Li  Li2  1  0.88579754  0.40721517  0.70954009  1
  V  V3  1  0.15771857  0.59516204  0.32909171  1
  V  V4  1  0.38902792  0.67337702  0.85984130  1
  V  V5  1  0.66382334  0.85090732  0.39293062  1
  V  V6  1  0.32497488  0.14618910  0.60352546  1
  O  O7  1  0.42780848  0.82915652  0.58703919  1
  O  O8  1  0.20133298  0.42403911  0.58762809  1
  O  O9  1  0.41858007  0.59326151  0.18077663  1
  F  F10  1  0.08537687  0.92563745  0.33538702  1
  F  F11  1  0.07315758  0.68828786  0.91344685  1
  F  F12  1  0.68667071  0.88718180  0.05657241  1
  F  F13  1  0.58821687  0.41673584  0.81366977  1
  F  F14  1  0.30745341  0.09244767  0.91697006  1
  F  F15  1  0.82718427  0.59018482  0.44101784  1
  F  F16  1  0.53359300  0.15559919  0.37582963  1
  F  F17  1  0.95164561  0.32369773  0.11346138  1
  F  F18  1  0.87629236  0.06337201  0.66292250  1
