# generated using pymatgen
data_Li5Co2Cu2(PO4)4
_symmetry_space_group_name_H-M   'P 1'
_cell_length_a   4.85815365
_cell_length_b   6.21431469
_cell_length_c   10.23574956
_cell_angle_alpha   92.15650638
_cell_angle_beta   86.97638613
_cell_angle_gamma   90.88963528
_symmetry_Int_Tables_number   1
_chemical_formula_structural   Li5Co2Cu2(PO4)4
_chemical_formula_sum   'Li5 Co2 Cu2 P4 O16'
_cell_volume   308.34112146
_cell_formula_units_Z   1
loop_
 _symmetry_equiv_pos_site_id
 _symmetry_equiv_pos_as_xyz
  1  'x, y, z'
loop_
 _atom_site_type_symbol
 _atom_site_label
 _atom_site_symmetry_multiplicity
 _atom_site_fract_x
 _atom_site_fract_y
 _atom_site_fract_z
 _atom_site_occupancy
  Li  Li0  1  0.95511681  0.48598098  0.98120749  1
  Li  Li1  1  0.89318720  0.97851711  0.86800368  1
  Li  Li2  1  0.46512909  0.99959804  0.53766992  1
  Li  Li3  1  0.54059826  0.50917800  0.47559755  1
  Li  Li4  1  0.10535181  0.02347000  0.13045117  1
  Co  Co5  1  0.45517044  0.73162212  0.78563239  1
  Co  Co6  1  0.54440916  0.26158740  0.21571853  1
  Cu  Cu7  1  0.91474305  0.27095839  0.69796242  1
  Cu  Cu8  1  0.08415004  0.73101234  0.29620269  1
  P  P9  1  0.39674409  0.24597659  0.90411239  1
  P  P10  1  0.91369145  0.75395867  0.59819884  1
  P  P11  1  0.08890862  0.25219166  0.39929472  1
  P  P12  1  0.60000050  0.75405956  0.09604731  1
  O  O13  1  0.69985278  0.74488298  0.94679741  1
  O  O14  1  0.71651688  0.25508381  0.88775099  1
  O  O15  1  0.27934940  0.03404023  0.83944726  1
  O  O16  1  0.26684784  0.44401872  0.84199519  1
  O  O17  1  0.75658797  0.55658719  0.66047444  1
  O  O18  1  0.77542050  0.94793330  0.67975689  1
  O  O19  1  0.22849785  0.74895279  0.60628470  1
  O  O20  1  0.18044118  0.23006811  0.54131536  1
  O  O21  1  0.81910334  0.76265341  0.45591124  1
  O  O22  1  0.77500518  0.27092635  0.39260588  1
  O  O23  1  0.21274799  0.06075553  0.31252333  1
  O  O24  1  0.25420157  0.45121000  0.34213145  1
  O  O25  1  0.72867892  0.55304193  0.15515338  1
  O  O26  1  0.72385026  0.96565175  0.15769615  1
  O  O27  1  0.28251069  0.74997951  0.11193345  1
  O  O28  1  0.29901312  0.25263054  0.05173477  1
