# generated using pymatgen
data_KMg14Bi
_symmetry_space_group_name_H-M   'P 1'
_cell_length_a   6.61112325
_cell_length_b   6.50892013
_cell_length_c   10.64287387
_cell_angle_alpha   90.00000000
_cell_angle_beta   90.00000000
_cell_angle_gamma   119.48992139
_symmetry_Int_Tables_number   1
_chemical_formula_structural   KMg14Bi
_chemical_formula_sum   'K1 Mg14 Bi1'
_cell_volume   398.64204379
_cell_formula_units_Z   1
loop_
 _symmetry_equiv_pos_site_id
 _symmetry_equiv_pos_as_xyz
  1  'x, y, z'
loop_
 _atom_site_type_symbol
 _atom_site_label
 _atom_site_symmetry_multiplicity
 _atom_site_fract_x
 _atom_site_fract_y
 _atom_site_fract_z
 _atom_site_occupancy
  K  K0  1  0.16670597  0.33335248  0.12500000  1
  Mg  Mg1  1  0.16523471  0.33261686  0.62500000  1
  Mg  Mg2  1  0.16361659  0.83180779  0.62500000  1
  Mg  Mg3  1  0.66642998  0.32850622  0.12500000  1
  Mg  Mg4  1  0.66747956  0.33514977  0.62500000  1
  Mg  Mg5  1  0.66642998  0.83792276  0.12500000  1
  Mg  Mg6  1  0.66747956  0.83232879  0.62500000  1
  Mg  Mg7  1  0.34042279  0.16662438  0.39094778  1
  Mg  Mg8  1  0.34042279  0.16662438  0.85905222  1
  Mg  Mg9  1  0.34042279  0.67379941  0.39094778  1
  Mg  Mg10  1  0.34042279  0.67379941  0.85905222  1
  Mg  Mg11  1  0.82182807  0.16091453  0.38861308  1
  Mg  Mg12  1  0.82182807  0.16091453  0.86138692  1
  Mg  Mg13  1  0.82712333  0.66356217  0.37590402  1
  Mg  Mg14  1  0.82712333  0.66356217  0.87409598  1
  Bi  Bi15  1  0.17702971  0.83851436  0.12500000  1
