# generated using pymatgen
data_Sn(PO3)2
_symmetry_space_group_name_H-M   'P 1'
_cell_length_a   8.08043676
_cell_length_b   8.08043676
_cell_length_c   9.77355728
_cell_angle_alpha   90.00000000
_cell_angle_beta   90.00000000
_cell_angle_gamma   89.84319848
_symmetry_Int_Tables_number   1
_chemical_formula_structural   Sn(PO3)2
_chemical_formula_sum   'Sn4 P8 O24'
_cell_volume   638.14696459
_cell_formula_units_Z   4
loop_
 _symmetry_equiv_pos_site_id
 _symmetry_equiv_pos_as_xyz
  1  'x, y, z'
loop_
 _atom_site_type_symbol
 _atom_site_label
 _atom_site_symmetry_multiplicity
 _atom_site_fract_x
 _atom_site_fract_y
 _atom_site_fract_z
 _atom_site_occupancy
  Sn  Sn0  1  0.64654359  0.81094989  0.49142455  1
  Sn  Sn1  1  0.18905011  0.35345641  0.50857545  1
  Sn  Sn2  1  0.81094989  0.64654359  0.00857545  1
  Sn  Sn3  1  0.35345641  0.18905011  0.99142455  1
  P  P4  1  0.34013073  0.88227812  0.23813150  1
  P  P5  1  0.11772188  0.65986927  0.76186850  1
  P  P6  1  0.35223433  0.64776567  0.00000000  1
  P  P7  1  0.02840071  0.02840071  0.75000000  1
  P  P8  1  0.97159929  0.97159929  0.25000000  1
  P  P9  1  0.64776567  0.35223433  0.50000000  1
  P  P10  1  0.65986927  0.11772188  0.73813150  1
  P  P11  1  0.88227812  0.34013073  0.26186850  1
  O  O12  1  0.16786152  0.96233969  0.28674126  1
  O  O13  1  0.03766031  0.83213848  0.71325874  1
  O  O14  1  0.41422485  0.78992094  0.35852784  1
  O  O15  1  0.21007906  0.58577515  0.64147216  1
  O  O16  1  0.27521885  0.74924459  0.12711877  1
  O  O17  1  0.25075541  0.72478115  0.87288123  1
  O  O18  1  0.55329954  0.98710980  0.67339278  1
  O  O19  1  0.01289020  0.44670046  0.32660722  1
  O  O20  1  0.06442753  0.12267024  0.62136269  1
  O  O21  1  0.87732976  0.93557247  0.37863731  1
  O  O22  1  0.30513989  0.46972590  0.01976064  1
  O  O23  1  0.53027410  0.69486011  0.98023936  1
  O  O24  1  0.69486011  0.53027410  0.51976064  1
  O  O25  1  0.46972590  0.30513989  0.48023936  1
  O  O26  1  0.12267024  0.06442753  0.87863731  1
  O  O27  1  0.93557247  0.87732976  0.12136269  1
  O  O28  1  0.98710980  0.55329954  0.82660722  1
  O  O29  1  0.44670046  0.01289020  0.17339278  1
  O  O30  1  0.72478115  0.25075541  0.62711877  1
  O  O31  1  0.74924459  0.27521885  0.37288123  1
  O  O32  1  0.58577515  0.21007906  0.85852784  1
  O  O33  1  0.78992094  0.41422485  0.14147216  1
  O  O34  1  0.96233969  0.16786152  0.21325874  1
  O  O35  1  0.83213848  0.03766031  0.78674126  1
