# generated using pymatgen
data_Li4Mn5O9F
_symmetry_space_group_name_H-M   'P 1'
_cell_length_a   5.40238169
_cell_length_b   5.16999117
_cell_length_c   8.00614164
_cell_angle_alpha   105.95579431
_cell_angle_beta   74.51846636
_cell_angle_gamma   77.61945030
_symmetry_Int_Tables_number   1
_chemical_formula_structural   Li4Mn5O9F
_chemical_formula_sum   'Li4 Mn5 O9 F1'
_cell_volume   196.95124806
_cell_formula_units_Z   1
loop_
 _symmetry_equiv_pos_site_id
 _symmetry_equiv_pos_as_xyz
  1  'x, y, z'
loop_
 _atom_site_type_symbol
 _atom_site_label
 _atom_site_symmetry_multiplicity
 _atom_site_fract_x
 _atom_site_fract_y
 _atom_site_fract_z
 _atom_site_occupancy
  Li  Li0  1  0.50181961  0.40761658  0.30494136  1
  Li  Li1  1  0.48579536  0.98118424  0.47627309  1
  Li  Li2  1  0.49435213  0.58094095  0.69328682  1
  Li  Li3  1  0.49899030  0.20394385  0.91747869  1
  Mn  Mn4  1  0.00732504  0.19229294  0.39370365  1
  Mn  Mn5  1  0.98038674  0.99695884  0.00611688  1
  Mn  Mn6  1  0.98409480  0.59931105  0.20100941  1
  Mn  Mn7  1  0.99414298  0.80615284  0.59807516  1
  Mn  Mn8  1  0.98669703  0.41524781  0.80513538  1
  O  O9  1  0.19597461  0.20613364  0.14613776  1
  O  O10  1  0.22312536  0.81772069  0.37172811  1
  O  O11  1  0.22541547  0.43275016  0.57009754  1
  O  O12  1  0.18762560  0.59762569  0.95174022  1
  O  O13  1  0.77534758  0.36147057  0.02722287  1
  O  O14  1  0.76669210  0.98653355  0.26564273  1
  O  O15  1  0.77523922  0.57204108  0.43615845  1
  O  O16  1  0.80485991  0.21439802  0.65310640  1
  O  O17  1  0.79142692  0.83784208  0.84197844  1
  F  F18  1  0.31446023  0.98872340  0.73793704  1
