# generated using pymatgen
data_V3H8(NO4)2
_symmetry_space_group_name_H-M   'P 1'
_cell_length_a   9.02860642
_cell_length_b   9.02865576
_cell_length_c   5.69214685
_cell_angle_alpha   89.99907706
_cell_angle_beta   90.00069600
_cell_angle_gamma   89.99994479
_symmetry_Int_Tables_number   1
_chemical_formula_structural   V3H8(NO4)2
_chemical_formula_sum   'V6 H16 N4 O16'
_cell_volume   464.00206351
_cell_formula_units_Z   2
loop_
 _symmetry_equiv_pos_site_id
 _symmetry_equiv_pos_as_xyz
  1  'x, y, z'
loop_
 _atom_site_type_symbol
 _atom_site_label
 _atom_site_symmetry_multiplicity
 _atom_site_fract_x
 _atom_site_fract_y
 _atom_site_fract_z
 _atom_site_occupancy
  V  V0  1  0.00000331  0.99999500  0.00322308  1
  V  V1  1  0.50000801  0.49999701  0.00331955  1
  V  V2  1  0.13371518  0.63369861  0.00418742  1
  V  V3  1  0.36630173  0.13371130  0.00419057  1
  V  V4  1  0.63370128  0.86628715  0.00418675  1
  V  V5  1  0.86630384  0.36628500  0.00419168  1
  H  H6  1  0.09931167  0.40072868  0.45193303  1
  H  H7  1  0.11149254  0.25750685  0.64200061  1
  H  H8  1  0.23340385  0.26667183  0.41919514  1
  H  H9  1  0.24248978  0.38853149  0.64207891  1
  H  H10  1  0.25751444  0.88850877  0.64199554  1
  H  H11  1  0.26667712  0.76659806  0.41919154  1
  H  H12  1  0.38853912  0.75751194  0.64207785  1
  H  H13  1  0.40073884  0.90068718  0.45193143  1
  H  H14  1  0.59930797  0.09926752  0.45193142  1
  H  H15  1  0.61149273  0.24248688  0.64199290  1
  H  H16  1  0.73340512  0.23332118  0.41919057  1
  H  H17  1  0.74248812  0.11146023  0.64207901  1
  H  H18  1  0.75751503  0.61145890  0.64207841  1
  H  H19  1  0.76659905  0.73332085  0.41919053  1
  H  H20  1  0.88851234  0.74248194  0.64199748  1
  H  H21  1  0.90069226  0.59926084  0.45193658  1
  N  N22  1  0.17063766  0.32939671  0.53690326  1
  N  N23  1  0.32940295  0.82936417  0.53690083  1
  N  N24  1  0.67063682  0.17059750  0.53690016  1
  N  N25  1  0.82936677  0.67059460  0.53690270  1
  O  O26  1  0.00000178  0.99999285  0.29123031  1
  O  O27  1  0.00000482  0.49999555  0.89352558  1
  O  O28  1  0.08431230  0.80755807  0.89575960  1
  O  O29  1  0.13184225  0.63180598  0.29896266  1
  O  O30  1  0.19244081  0.08430781  0.89576717  1
  O  O31  1  0.30757736  0.58429825  0.89578480  1
  O  O32  1  0.36819589  0.13184004  0.29896259  1
  O  O33  1  0.41570027  0.30757523  0.89578519  1
  O  O34  1  0.50000262  0.99999920  0.89352632  1
  O  O35  1  0.50000453  0.49999856  0.29134701  1
  O  O36  1  0.58430296  0.69242520  0.89578076  1
  O  O37  1  0.63181110  0.86815680  0.29896273  1
  O  O38  1  0.69243645  0.41569646  0.89580762  1
  O  O39  1  0.80756130  0.91568951  0.89575993  1
  O  O40  1  0.86820258  0.36815018  0.29896614  1
  O  O41  1  0.91569445  0.19243014  0.89574361  1
