# generated using pymatgen
data_Li7Fe7SiO16
_symmetry_space_group_name_H-M   'P 1'
_cell_length_a   5.23586010
_cell_length_b   5.23586010
_cell_length_c   11.41016440
_cell_angle_alpha   90.00000000
_cell_angle_beta   90.00000000
_cell_angle_gamma   66.57110002
_symmetry_Int_Tables_number   1
_chemical_formula_structural   Li7Fe7SiO16
_chemical_formula_sum   'Li7 Fe7 Si1 O16'
_cell_volume   287.01175942
_cell_formula_units_Z   1
loop_
 _symmetry_equiv_pos_site_id
 _symmetry_equiv_pos_as_xyz
  1  'x, y, z'
loop_
 _atom_site_type_symbol
 _atom_site_label
 _atom_site_symmetry_multiplicity
 _atom_site_fract_x
 _atom_site_fract_y
 _atom_site_fract_z
 _atom_site_occupancy
  Li  Li0  1  0.00000000  0.50000000  0.12191543  1
  Li  Li1  1  0.00000000  0.00000000  0.24851444  1
  Li  Li2  1  0.50000000  0.00000000  0.37333051  1
  Li  Li3  1  0.50000000  0.50000000  0.50000000  1
  Li  Li4  1  0.00000000  0.00000000  0.75148556  1
  Li  Li5  1  0.00000000  0.50000000  0.62666949  1
  Li  Li6  1  0.50000000  0.00000000  0.87808457  1
  Fe  Fe7  1  0.50000000  0.00000000  0.12099181  1
  Fe  Fe8  1  0.50000000  0.50000000  0.23779232  1
  Fe  Fe9  1  0.00000000  0.50000000  0.37340945  1
  Fe  Fe10  1  0.00000000  0.00000000  0.50000000  1
  Fe  Fe11  1  0.50000000  0.00000000  0.62659055  1
  Fe  Fe12  1  0.50000000  0.50000000  0.76220768  1
  Fe  Fe13  1  0.00000000  0.50000000  0.87900819  1
  Si  Si14  1  0.00000000  0.00000000  0.00000000  1
  O  O15  1  0.75580921  0.21180519  0.11705117  1
  O  O16  1  0.20222566  0.20222566  0.00000000  1
  O  O17  1  0.79777434  0.79777434  0.00000000  1
  O  O18  1  0.72714052  0.72862756  0.24531282  1
  O  O19  1  0.24419179  0.78819481  0.11705117  1
  O  O20  1  0.27285948  0.27137244  0.24531282  1
  O  O21  1  0.76808635  0.26834658  0.37187920  1
  O  O22  1  0.73165342  0.23191365  0.62812080  1
  O  O23  1  0.23191365  0.73165342  0.37187920  1
  O  O24  1  0.23235811  0.23235811  0.50000000  1
  O  O25  1  0.76764189  0.76764189  0.50000000  1
  O  O26  1  0.72862756  0.72714052  0.75468718  1
  O  O27  1  0.78819481  0.24419179  0.88294883  1
  O  O28  1  0.26834658  0.76808635  0.62812080  1
  O  O29  1  0.27137244  0.27285948  0.75468718  1
  O  O30  1  0.21180519  0.75580921  0.88294883  1
