# generated using pymatgen
data_Cr4OF6
_symmetry_space_group_name_H-M   'P 1'
_cell_length_a   7.22128769
_cell_length_b   7.22123074
_cell_length_c   5.32049008
_cell_angle_alpha   89.99166989
_cell_angle_beta   89.99610271
_cell_angle_gamma   90.00000803
_symmetry_Int_Tables_number   1
_chemical_formula_structural   Cr4OF6
_chemical_formula_sum   'Cr8 O2 F12'
_cell_volume   277.44538273
_cell_formula_units_Z   2
loop_
 _symmetry_equiv_pos_site_id
 _symmetry_equiv_pos_as_xyz
  1  'x, y, z'
loop_
 _atom_site_type_symbol
 _atom_site_label
 _atom_site_symmetry_multiplicity
 _atom_site_fract_x
 _atom_site_fract_y
 _atom_site_fract_z
 _atom_site_occupancy
  Cr  Cr0  1  0.99794603  0.24999862  0.56314267  1
  Cr  Cr1  1  0.25000110  0.99789705  0.06313787  1
  Cr  Cr2  1  0.25000052  0.50209259  0.06311298  1
  Cr  Cr3  1  0.50209529  0.24998222  0.56313502  1
  Cr  Cr4  1  0.49789909  0.75001126  0.43687457  1
  Cr  Cr5  1  0.75000377  0.49790220  0.93687447  1
  Cr  Cr6  1  0.75001700  0.00212109  0.93687804  1
  Cr  Cr7  1  0.00204119  0.75000312  0.43683711  1
  O  O8  1  0.24997850  0.74997415  0.25002046  1
  O  O9  1  0.75001225  0.25003298  0.74997442  1
  F  F10  1  0.03392648  0.96607491  0.75000596  1
  F  F11  1  0.03391998  0.53392947  0.75000622  1
  F  F12  1  0.25000833  0.25000206  0.90163952  1
  F  F13  1  0.25002233  0.25000043  0.40161131  1
  F  F14  1  0.46607568  0.53392748  0.75000190  1
  F  F15  1  0.46607649  0.96608863  0.74999910  1
  F  F16  1  0.53392875  0.03391510  0.25000125  1
  F  F17  1  0.53392343  0.46606584  0.25000587  1
  F  F18  1  0.74999620  0.75000540  0.09836305  1
  F  F19  1  0.74996891  0.74999089  0.59838579  1
  F  F20  1  0.96607950  0.03392253  0.24999768  1
  F  F21  1  0.96607918  0.46606198  0.24999476  1
