# generated using pymatgen
data_Mn7O7F
_symmetry_space_group_name_H-M   'P 1'
_cell_length_a   3.53629996
_cell_length_b   3.53622404
_cell_length_c   19.56948451
_cell_angle_alpha   89.99994444
_cell_angle_beta   90.00284893
_cell_angle_gamma   119.99631483
_symmetry_Int_Tables_number   1
_chemical_formula_structural   Mn7O7F
_chemical_formula_sum   'Mn7 O7 F1'
_cell_volume   211.94101601
_cell_formula_units_Z   1
loop_
 _symmetry_equiv_pos_site_id
 _symmetry_equiv_pos_as_xyz
  1  'x, y, z'
loop_
 _atom_site_type_symbol
 _atom_site_label
 _atom_site_symmetry_multiplicity
 _atom_site_fract_x
 _atom_site_fract_y
 _atom_site_fract_z
 _atom_site_occupancy
  Mn  Mn0  1  0.33325687  0.66671238  0.07963141  1
  Mn  Mn1  1  0.33322376  0.66667377  0.35069576  1
  Mn  Mn2  1  0.33319123  0.66663465  0.61742093  1
  Mn  Mn3  1  0.33333341  0.66670556  0.87186929  1
  Mn  Mn4  1  0.66666794  0.33335989  0.21629749  1
  Mn  Mn5  1  0.66654803  0.33332212  0.48392755  1
  Mn  Mn6  1  0.66665424  0.33338489  0.74254112  1
  O  O7  1  0.33334142  0.66671424  0.24311568  1
  O  O8  1  0.33318264  0.66664018  0.50866281  1
  O  O9  1  0.33322850  0.66666527  0.74027541  1
  O  O10  1  0.66667233  0.33338733  0.10918329  1
  O  O11  1  0.66659878  0.33335035  0.37596861  1
  O  O12  1  0.66655045  0.33332513  0.64017081  1
  O  O13  1  0.66670189  0.33340159  0.84295064  1
  F  F14  1  0.33416051  0.66712766  0.97524119  1
