# generated using pymatgen
data_Li6CrCoP2(CO7)2
_symmetry_space_group_name_H-M   'P 1'
_cell_length_a   8.55661077
_cell_length_b   5.00789098
_cell_length_c   6.46127041
_cell_angle_alpha   90.00000000
_cell_angle_beta   90.00000000
_cell_angle_gamma   85.58168159
_symmetry_Int_Tables_number   1
_chemical_formula_structural   Li6CrCoP2(CO7)2
_chemical_formula_sum   'Li6 Cr1 Co1 P2 C2 O14'
_cell_volume   276.04633776
_cell_formula_units_Z   1
loop_
 _symmetry_equiv_pos_site_id
 _symmetry_equiv_pos_as_xyz
  1  'x, y, z'
loop_
 _atom_site_type_symbol
 _atom_site_label
 _atom_site_symmetry_multiplicity
 _atom_site_fract_x
 _atom_site_fract_y
 _atom_site_fract_z
 _atom_site_occupancy
  Li  Li0  1  0.09763160  0.76169939  0.25000000  1
  Li  Li1  1  0.27415252  0.24865324  0.02294931  1
  Li  Li2  1  0.27415252  0.24865324  0.47705069  1
  Li  Li3  1  0.72498834  0.75026031  0.52338242  1
  Li  Li4  1  0.72498834  0.75026031  0.97661758  1
  Li  Li5  1  0.90613644  0.23761895  0.75000000  1
  Cr  Cr6  1  0.66424828  0.21432263  0.25000000  1
  Co  Co7  1  0.33144415  0.79010075  0.75000000  1
  P  P8  1  0.41068977  0.71975560  0.25000000  1
  P  P9  1  0.58553250  0.28210081  0.75000000  1
  C  C10  1  0.03646090  0.70344316  0.75000000  1
  C  C11  1  0.96798360  0.29454541  0.25000000  1
  O  O12  1  0.07277595  0.94869297  0.75000000  1
  O  O13  1  0.11154725  0.36209709  0.25000000  1
  O  O14  1  0.15090490  0.51441440  0.75000000  1
  O  O15  1  0.31032377  0.82867888  0.06180963  1
  O  O16  1  0.31032377  0.82867888  0.43819037  1
  O  O17  1  0.41995613  0.17759343  0.75000000  1
  O  O18  1  0.42036623  0.40893452  0.25000000  1
  O  O19  1  0.56776069  0.59445788  0.75000000  1
  O  O20  1  0.57859327  0.81359262  0.25000000  1
  O  O21  1  0.68859841  0.17530405  0.93583361  1
  O  O22  1  0.68859841  0.17530405  0.56416639  1
  O  O23  1  0.85322579  0.48279303  0.25000000  1
  O  O24  1  0.89176661  0.64103528  0.75000000  1
  O  O25  1  0.93684886  0.04700811  0.25000000  1
