# generated using pymatgen
data_Mg30TiBO32
_symmetry_space_group_name_H-M   'P 1'
_cell_length_a   8.54877170
_cell_length_b   8.53818189
_cell_length_c   8.53818189
_cell_angle_alpha   90.00000000
_cell_angle_beta   90.00000000
_cell_angle_gamma   90.00000000
_symmetry_Int_Tables_number   1
_chemical_formula_structural   Mg30TiBO32
_chemical_formula_sum   'Mg30 Ti1 B1 O32'
_cell_volume   623.21015864
_cell_formula_units_Z   1
loop_
 _symmetry_equiv_pos_site_id
 _symmetry_equiv_pos_as_xyz
  1  'x, y, z'
loop_
 _atom_site_type_symbol
 _atom_site_label
 _atom_site_symmetry_multiplicity
 _atom_site_fract_x
 _atom_site_fract_y
 _atom_site_fract_z
 _atom_site_occupancy
  Mg  Mg0  1  -0.00000000  0.00000000  0.50000000  1
  Mg  Mg1  1  0.00000000  0.50000000  0.00000000  1
  Mg  Mg2  1  0.50000000  0.00000000  0.00000000  1
  Mg  Mg3  1  0.50000000  0.00000000  0.50000000  1
  Mg  Mg4  1  0.50000000  0.50000000  0.00000000  1
  Mg  Mg5  1  0.50000000  0.50000000  0.50000000  1
  Mg  Mg6  1  0.00000000  0.25635960  0.25635960  1
  Mg  Mg7  1  0.00000000  0.25635960  0.74364040  1
  Mg  Mg8  1  -0.00000000  0.74364040  0.25635960  1
  Mg  Mg9  1  -0.00000000  0.74364040  0.74364040  1
  Mg  Mg10  1  0.50000000  0.25156721  0.25156721  1
  Mg  Mg11  1  0.50000000  0.25156721  0.74843279  1
  Mg  Mg12  1  0.50000000  0.74843279  0.25156721  1
  Mg  Mg13  1  0.50000000  0.74843279  0.74843279  1
  Mg  Mg14  1  0.25203469  0.00000000  0.25313292  1
  Mg  Mg15  1  0.25203469  0.00000000  0.74686708  1
  Mg  Mg16  1  0.24793727  0.50000000  0.25349215  1
  Mg  Mg17  1  0.24793727  0.50000000  0.74650785  1
  Mg  Mg18  1  0.74796531  0.00000000  0.25313292  1
  Mg  Mg19  1  0.74796531  0.00000000  0.74686708  1
  Mg  Mg20  1  0.75206273  0.50000000  0.25349215  1
  Mg  Mg21  1  0.75206273  0.50000000  0.74650785  1
  Mg  Mg22  1  0.25203469  0.25313292  0.00000000  1
  Mg  Mg23  1  0.24793727  0.25349215  0.50000000  1
  Mg  Mg24  1  0.25203469  0.74686708  0.00000000  1
  Mg  Mg25  1  0.24793727  0.74650785  0.50000000  1
  Mg  Mg26  1  0.74796531  0.25313292  0.00000000  1
  Mg  Mg27  1  0.75206273  0.25349215  0.50000000  1
  Mg  Mg28  1  0.74796531  0.74686708  0.00000000  1
  Mg  Mg29  1  0.75206273  0.74650785  0.50000000  1
  Ti  Ti30  1  -0.00000000  0.00000000  0.00000000  1
  B  B31  1  0.00000000  0.50000000  0.50000000  1
  O  O32  1  0.24844281  0.00000000  0.00000000  1
  O  O33  1  0.25073484  0.00000000  0.50000000  1
  O  O34  1  0.25073484  0.50000000  0.00000000  1
  O  O35  1  0.26388012  0.50000000  0.50000000  1
  O  O36  1  0.75155719  0.00000000  0.00000000  1
  O  O37  1  0.74926516  0.00000000  0.50000000  1
  O  O38  1  0.74926516  0.50000000  0.00000000  1
  O  O39  1  0.73611988  0.50000000  0.50000000  1
  O  O40  1  0.24888385  0.24963674  0.24963674  1
  O  O41  1  0.24888385  0.24963674  0.75036326  1
  O  O42  1  0.24888385  0.75036326  0.24963674  1
  O  O43  1  0.24888385  0.75036326  0.75036326  1
  O  O44  1  0.75111615  0.24963674  0.24963674  1
  O  O45  1  0.75111615  0.24963674  0.75036326  1
  O  O46  1  0.75111615  0.75036326  0.24963674  1
  O  O47  1  0.75111615  0.75036326  0.75036326  1
  O  O48  1  -0.00000000  0.00000000  0.24312339  1
  O  O49  1  -0.00000000  0.00000000  0.75687661  1
  O  O50  1  -0.00000000  0.50000000  0.23455440  1
  O  O51  1  -0.00000000  0.50000000  0.76544560  1
  O  O52  1  0.50000000  0.00000000  0.24864035  1
  O  O53  1  0.50000000  0.00000000  0.75135965  1
  O  O54  1  0.50000000  0.50000000  0.24783162  1
  O  O55  1  0.50000000  0.50000000  0.75216838  1
  O  O56  1  0.00000000  0.24312339  0.00000000  1
  O  O57  1  0.00000000  0.23455440  0.50000000  1
  O  O58  1  -0.00000000  0.75687661  0.00000000  1
  O  O59  1  -0.00000000  0.76544560  0.50000000  1
  O  O60  1  0.50000000  0.24864035  0.00000000  1
  O  O61  1  0.50000000  0.24783162  0.50000000  1
  O  O62  1  0.50000000  0.75135965  0.00000000  1
  O  O63  1  0.50000000  0.75216838  0.50000000  1
