# generated using pymatgen
data_Li3MnPCO7
_symmetry_space_group_name_H-M   'P 1'
_cell_length_a   8.57925934
_cell_length_b   9.98929681
_cell_length_c   6.57422829
_cell_angle_alpha   89.74275384
_cell_angle_beta   90.49984082
_cell_angle_gamma   85.38663405
_symmetry_Int_Tables_number   1
_chemical_formula_structural   Li3MnPCO7
_chemical_formula_sum   'Li12 Mn4 P4 C4 O28'
_cell_volume   561.56203700
_cell_formula_units_Z   4
loop_
 _symmetry_equiv_pos_site_id
 _symmetry_equiv_pos_as_xyz
  1  'x, y, z'
loop_
 _atom_site_type_symbol
 _atom_site_label
 _atom_site_symmetry_multiplicity
 _atom_site_fract_x
 _atom_site_fract_y
 _atom_site_fract_z
 _atom_site_occupancy
  Li  Li0  1  0.08963133  0.38202625  0.25647950  1
  Li  Li1  1  0.08995478  0.87951611  0.25518565  1
  Li  Li2  1  0.27917660  0.12250941  0.47314942  1
  Li  Li3  1  0.27259971  0.62316550  0.03185100  1
  Li  Li4  1  0.27352521  0.62271490  0.46573054  1
  Li  Li5  1  0.66260216  0.10516379  0.25126179  1
  Li  Li6  1  0.72409843  0.36823405  0.52010810  1
  Li  Li7  1  0.72393439  0.36785436  0.98045799  1
  Li  Li8  1  0.72448153  0.88988620  0.51604798  1
  Li  Li9  1  0.72523450  0.88968107  0.98499334  1
  Li  Li10  1  0.89519722  0.11336951  0.74735699  1
  Li  Li11  1  0.90438669  0.61871496  0.74903240  1
  Mn  Mn12  1  0.26958052  0.13398522  0.01084446  1
  Mn  Mn13  1  0.34716551  0.39484849  0.74627238  1
  Mn  Mn14  1  0.34477704  0.87733015  0.74218264  1
  Mn  Mn15  1  0.66057949  0.61360076  0.24994575  1
  P  P16  1  0.41239012  0.36046463  0.25015727  1
  P  P17  1  0.41288509  0.86105343  0.24919942  1
  P  P18  1  0.59309621  0.13787541  0.75035814  1
  P  P19  1  0.59273704  0.63828290  0.74980705  1
  C  C20  1  0.03383388  0.35019793  0.75561247  1
  C  C21  1  0.03346100  0.85231688  0.75266131  1
  C  C22  1  0.95998629  0.14886483  0.25086466  1
  C  C23  1  0.96702580  0.64892031  0.24972028  1
  O  O24  1  0.06961150  0.47256243  0.74783081  1
  O  O25  1  0.10962955  0.18159604  0.25104217  1
  O  O26  1  0.06981195  0.97615654  0.75649863  1
  O  O27  1  0.14944116  0.25384909  0.76517270  1
  O  O28  1  0.11258022  0.67914227  0.24921445  1
  O  O29  1  0.14598164  0.75545985  0.75015528  1
  O  O30  1  0.31067678  0.41211201  0.06289335  1
  O  O31  1  0.31094330  0.41512001  0.43228878  1
  O  O32  1  0.31239826  0.91531490  0.06030671  1
  O  O33  1  0.31023524  0.91663101  0.42964415  1
  O  O34  1  0.42045838  0.09288622  0.75018445  1
  O  O35  1  0.42559573  0.20358594  0.24972273  1
  O  O36  1  0.42144314  0.59664536  0.74904040  1
  O  O37  1  0.42066110  0.70385961  0.24996459  1
  O  O38  1  0.57679928  0.29594358  0.74975441  1
  O  O39  1  0.57740091  0.41010777  0.25129225  1
  O  O40  1  0.58009335  0.79534817  0.74943147  1
  O  O41  1  0.57933093  0.90515551  0.25012511  1
  O  O42  1  0.68724150  0.08656433  0.93933865  1
  O  O43  1  0.68429084  0.08628110  0.56220054  1
  O  O44  1  0.68926173  0.58274151  0.56601479  1
  O  O45  1  0.69004161  0.58161015  0.93511540  1
  O  O46  1  0.85196850  0.24492338  0.25286269  1
  O  O47  1  0.89150321  0.31702271  0.75090284  1
  O  O48  1  0.85614406  0.74567552  0.24974758  1
  O  O49  1  0.93277213  0.02476536  0.24958537  1
  O  O50  1  0.88954287  0.82239018  0.75007350  1
  O  O51  1  0.93180159  0.52597140  0.25031167  1
