# generated using pymatgen
data_Na2PRuCO7
_symmetry_space_group_name_H-M   'P 1'
_cell_length_a   9.13315456
_cell_length_b   6.56041154
_cell_length_c   5.24760385
_cell_angle_alpha   90.00000000
_cell_angle_beta   88.82187495
_cell_angle_gamma   90.00000000
_symmetry_Int_Tables_number   1
_chemical_formula_structural   Na2PRuCO7
_chemical_formula_sum   'Na4 P2 Ru2 C2 O14'
_cell_volume   314.35553836
_cell_formula_units_Z   2
loop_
 _symmetry_equiv_pos_site_id
 _symmetry_equiv_pos_as_xyz
  1  'x, y, z'
loop_
 _atom_site_type_symbol
 _atom_site_label
 _atom_site_symmetry_multiplicity
 _atom_site_fract_x
 _atom_site_fract_y
 _atom_site_fract_z
 _atom_site_occupancy
  Na  Na0  1  0.23828866  0.00466181  0.23623284  1
  Na  Na1  1  0.23828866  0.49533819  0.23623284  1
  Na  Na2  1  0.76171134  0.50466181  0.76376716  1
  Na  Na3  1  0.76171134  0.99533819  0.76376716  1
  P  P4  1  0.42279177  0.25000000  0.70858668  1
  P  P5  1  0.57720823  0.75000000  0.29141332  1
  Ru  Ru6  1  0.34519709  0.75000000  0.78157538  1
  Ru  Ru7  1  0.65480291  0.25000000  0.21842462  1
  C  C8  1  0.07173434  0.75000000  0.72487835  1
  C  C9  1  0.92826566  0.25000000  0.27512165  1
  O  O10  1  0.06470983  0.25000000  0.29002864  1
  O  O11  1  0.14128682  0.75000000  0.94391441  1
  O  O12  1  0.16515620  0.75000000  0.52795703  1
  O  O13  1  0.32967656  0.06178522  0.79130897  1
  O  O14  1  0.32967656  0.43821478  0.79130897  1
  O  O15  1  0.42686322  0.75000000  0.15866172  1
  O  O16  1  0.44597402  0.25000000  0.41254683  1
  O  O17  1  0.55402598  0.75000000  0.58745317  1
  O  O18  1  0.57313678  0.25000000  0.84133828  1
  O  O19  1  0.67032344  0.56178522  0.20869103  1
  O  O20  1  0.67032344  0.93821478  0.20869103  1
  O  O21  1  0.83484380  0.25000000  0.47204297  1
  O  O22  1  0.85871318  0.25000000  0.05608559  1
  O  O23  1  0.93529017  0.75000000  0.70997136  1
