# generated using pymatgen
data_Li2MnF5
_symmetry_space_group_name_H-M   'P 1'
_cell_length_a   9.87884377
_cell_length_b   6.91665535
_cell_length_c   6.35248257
_cell_angle_alpha   90.00000000
_cell_angle_beta   90.00000000
_cell_angle_gamma   90.00000000
_symmetry_Int_Tables_number   1
_chemical_formula_structural   Li2MnF5
_chemical_formula_sum   'Li8 Mn4 F20'
_cell_volume   434.05597127
_cell_formula_units_Z   4
loop_
 _symmetry_equiv_pos_site_id
 _symmetry_equiv_pos_as_xyz
  1  'x, y, z'
loop_
 _atom_site_type_symbol
 _atom_site_label
 _atom_site_symmetry_multiplicity
 _atom_site_fract_x
 _atom_site_fract_y
 _atom_site_fract_z
 _atom_site_occupancy
  Li  Li0  1  0.04623369  0.24609103  0.76201772  1
  Li  Li1  1  0.17526519  0.95135717  0.23920319  1
  Li  Li2  1  0.32473481  0.45135717  0.73920319  1
  Li  Li3  1  0.45376631  0.74609103  0.26201772  1
  Li  Li4  1  0.54623369  0.24609103  0.73798228  1
  Li  Li5  1  0.67526519  0.95135717  0.26079681  1
  Li  Li6  1  0.82473481  0.45135717  0.76079681  1
  Li  Li7  1  0.95376631  0.74609103  0.23798228  1
  Mn  Mn8  1  0.09208521  0.76272722  0.74056486  1
  Mn  Mn9  1  0.40791479  0.26272722  0.24056486  1
  Mn  Mn10  1  0.59208521  0.76272722  0.75943514  1
  Mn  Mn11  1  0.90791479  0.26272722  0.25943514  1
  F  F12  1  0.09857656  0.77088082  0.03597477  1
  F  F13  1  0.09713953  0.76900209  0.44547376  1
  F  F14  1  0.10645451  0.20045053  0.24619394  1
  F  F15  1  0.14188257  0.02288979  0.74006156  1
  F  F16  1  0.13788014  0.48598335  0.74182196  1
  F  F17  1  0.35811743  0.52288979  0.24006156  1
  F  F18  1  0.36211986  0.98598335  0.24182196  1
  F  F19  1  0.39354549  0.70045053  0.74619394  1
  F  F20  1  0.40286047  0.26900209  0.94547376  1
  F  F21  1  0.40142344  0.27088082  0.53597477  1
  F  F22  1  0.59857656  0.77088082  0.46402523  1
  F  F23  1  0.59713953  0.76900209  0.05452624  1
  F  F24  1  0.60645451  0.20045053  0.25380606  1
  F  F25  1  0.64188257  0.02288979  0.75993844  1
  F  F26  1  0.63788014  0.48598335  0.75817804  1
  F  F27  1  0.85811743  0.52288979  0.25993844  1
  F  F28  1  0.86211986  0.98598335  0.25817804  1
  F  F29  1  0.89354549  0.70045053  0.75380606  1
  F  F30  1  0.90286047  0.26900209  0.55452624  1
  F  F31  1  0.90142344  0.27088082  0.96402523  1
