# generated using pymatgen
data_Li3MnPCO7
_symmetry_space_group_name_H-M   'P 1'
_cell_length_a   8.60349782
_cell_length_b   9.84660559
_cell_length_c   6.48311281
_cell_angle_alpha   90.00000000
_cell_angle_beta   90.00000000
_cell_angle_gamma   85.41329745
_symmetry_Int_Tables_number   1
_chemical_formula_structural   Li3MnPCO7
_chemical_formula_sum   'Li12 Mn4 P4 C4 O28'
_cell_volume   547.45962882
_cell_formula_units_Z   4
loop_
 _symmetry_equiv_pos_site_id
 _symmetry_equiv_pos_as_xyz
  1  'x, y, z'
loop_
 _atom_site_type_symbol
 _atom_site_label
 _atom_site_symmetry_multiplicity
 _atom_site_fract_x
 _atom_site_fract_y
 _atom_site_fract_z
 _atom_site_occupancy
  Li  Li0  1  0.10288870  0.38650850  0.25062248  1
  Li  Li1  1  0.10288870  0.88650850  0.24937752  1
  Li  Li2  1  0.28637259  0.11744395  0.01173325  1
  Li  Li3  1  0.28637259  0.61744395  0.48826675  1
  Li  Li4  1  0.35325856  0.38961488  0.74472463  1
  Li  Li5  1  0.35325856  0.88961488  0.75527537  1
  Li  Li6  1  0.64674144  0.11038512  0.24472463  1
  Li  Li7  1  0.64674144  0.61038512  0.25527537  1
  Li  Li8  1  0.71362741  0.38255605  0.51173325  1
  Li  Li9  1  0.71362741  0.88255605  0.98826675  1
  Li  Li10  1  0.89711130  0.11349150  0.75062248  1
  Li  Li11  1  0.89711130  0.61349150  0.74937752  1
  Mn  Mn12  1  0.26834851  0.12930209  0.49811364  1
  Mn  Mn13  1  0.26834851  0.62930209  0.00188636  1
  Mn  Mn14  1  0.73165149  0.37069791  0.99811364  1
  Mn  Mn15  1  0.73165149  0.87069791  0.50188636  1
  P  P16  1  0.40712717  0.36006194  0.25188242  1
  P  P17  1  0.40712717  0.86006194  0.24811758  1
  P  P18  1  0.59287283  0.13993806  0.75188242  1
  P  P19  1  0.59287283  0.63993806  0.74811758  1
  C  C20  1  0.04211404  0.35205041  0.74784311  1
  C  C21  1  0.04211404  0.85205041  0.75215689  1
  C  C22  1  0.95788596  0.14794959  0.24784311  1
  C  C23  1  0.95788596  0.64794959  0.25215689  1
  O  O24  1  0.06986557  0.47778251  0.76042575  1
  O  O25  1  0.10344332  0.18285266  0.24970160  1
  O  O26  1  0.06986557  0.97778251  0.73957425  1
  O  O27  1  0.15360298  0.25573729  0.73527217  1
  O  O28  1  0.10344332  0.68285266  0.25029840  1
  O  O29  1  0.15360298  0.75573729  0.76472783  1
  O  O30  1  0.31264954  0.41329680  0.05858814  1
  O  O31  1  0.30684644  0.41065962  0.43896791  1
  O  O32  1  0.30684644  0.91065962  0.06103209  1
  O  O33  1  0.31264954  0.91329680  0.44141186  1
  O  O34  1  0.42633033  0.08998190  0.75543969  1
  O  O35  1  0.42224154  0.20048008  0.25055554  1
  O  O36  1  0.42633033  0.58998190  0.74456031  1
  O  O37  1  0.42224154  0.70048008  0.24944446  1
  O  O38  1  0.57775846  0.29951992  0.75055554  1
  O  O39  1  0.57366967  0.41001810  0.25543969  1
  O  O40  1  0.57775846  0.79951992  0.74944446  1
  O  O41  1  0.57366967  0.91001810  0.24456031  1
  O  O42  1  0.69315356  0.08934038  0.93896791  1
  O  O43  1  0.68735046  0.08670320  0.55858814  1
  O  O44  1  0.69315356  0.58934038  0.56103209  1
  O  O45  1  0.68735046  0.58670320  0.94141186  1
  O  O46  1  0.84639702  0.24426271  0.23527217  1
  O  O47  1  0.89655668  0.31714734  0.74970160  1
  O  O48  1  0.84639702  0.74426271  0.26472783  1
  O  O49  1  0.93013443  0.02221749  0.26042575  1
  O  O50  1  0.89655668  0.81714734  0.75029840  1
  O  O51  1  0.93013443  0.52221749  0.23957425  1
