# generated using pymatgen
data_LiFeSiO4
_symmetry_space_group_name_H-M   'P 1'
_cell_length_a   5.27585601
_cell_length_b   5.96096175
_cell_length_c   11.32490605
_cell_angle_alpha   90.00266506
_cell_angle_beta   89.99850730
_cell_angle_gamma   91.37317813
_symmetry_Int_Tables_number   1
_chemical_formula_structural   LiFeSiO4
_chemical_formula_sum   'Li4 Fe4 Si4 O16'
_cell_volume   356.05667924
_cell_formula_units_Z   4
loop_
 _symmetry_equiv_pos_site_id
 _symmetry_equiv_pos_as_xyz
  1  'x, y, z'
loop_
 _atom_site_type_symbol
 _atom_site_label
 _atom_site_symmetry_multiplicity
 _atom_site_fract_x
 _atom_site_fract_y
 _atom_site_fract_z
 _atom_site_occupancy
  Li  Li0  1  0.19433062  0.49386618  0.67059199  1
  Li  Li1  1  0.30565019  0.00614718  0.17058793  1
  Li  Li2  1  0.68115353  0.47106618  0.32899157  1
  Li  Li3  1  0.81882882  0.02892295  0.82899149  1
  Fe  Fe4  1  0.17087264  0.24541064  0.42342265  1
  Fe  Fe5  1  0.32913814  0.25461234  0.92340313  1
  Fe  Fe6  1  0.68126683  0.73793639  0.07697285  1
  Fe  Fe7  1  0.81872228  0.76205705  0.57700580  1
  Si  Si8  1  0.17947077  0.75048371  0.91697928  1
  Si  Si9  1  0.32057100  0.74949161  0.41706995  1
  Si  Si10  1  0.67675424  0.25840608  0.58338498  1
  Si  Si11  1  0.82332057  0.24159148  0.08330360  1
  O  O12  1  0.13280780  0.22397843  0.06500821  1
  O  O13  1  0.17276639  0.74911990  0.54513549  1
  O  O14  1  0.24024592  0.98457728  0.84233966  1
  O  O15  1  0.24811251  0.97542262  0.34128673  1
  O  O16  1  0.25190199  0.52463820  0.84131715  1
  O  O17  1  0.25977171  0.51539653  0.34231855  1
  O  O18  1  0.32728932  0.75089231  0.04520067  1
  O  O19  1  0.36711818  0.27601398  0.56498301  1
  O  O20  1  0.63064578  0.74100099  0.43699020  1
  O  O21  1  0.71011431  0.02080410  0.15609626  1
  O  O22  1  0.68521844  0.24423713  0.95168403  1
  O  O23  1  0.74705749  0.03171180  0.65916162  1
  O  O24  1  0.75293117  0.46832650  0.15917479  1
  O  O25  1  0.81483762  0.25574280  0.45163880  1
  O  O26  1  0.78986626  0.47913803  0.65607271  1
  O  O27  1  0.86926950  0.75898960  0.93701190  1
