# generated using pymatgen
data_Li2Ni(CO3)2
_symmetry_space_group_name_H-M   'P 1'
_cell_length_a   5.39692723
_cell_length_b   6.16095262
_cell_length_c   8.38904406
_cell_angle_alpha   82.00735062
_cell_angle_beta   74.59313027
_cell_angle_gamma   64.50021828
_symmetry_Int_Tables_number   1
_chemical_formula_structural   Li2Ni(CO3)2
_chemical_formula_sum   'Li4 Ni2 C4 O12'
_cell_volume   242.62020404
_cell_formula_units_Z   2
loop_
 _symmetry_equiv_pos_site_id
 _symmetry_equiv_pos_as_xyz
  1  'x, y, z'
loop_
 _atom_site_type_symbol
 _atom_site_label
 _atom_site_symmetry_multiplicity
 _atom_site_fract_x
 _atom_site_fract_y
 _atom_site_fract_z
 _atom_site_occupancy
  Li  Li0  1  0.96131739  0.46078342  0.82743199  1
  Li  Li1  1  0.53722635  0.95684267  0.66333872  1
  Li  Li2  1  0.13778765  0.01338328  0.34645554  1
  Li  Li3  1  0.31965259  0.40290952  0.14727781  1
  Ni  Ni4  1  0.63221411  0.50034796  0.49749003  1
  Ni  Ni5  1  0.97193113  0.98509215  0.99421911  1
  C  C6  1  0.37399174  0.58832683  0.79445827  1
  C  C7  1  0.90185373  0.08851148  0.70957899  1
  C  C8  1  0.66208794  0.91975406  0.29196344  1
  C  C9  1  0.76262494  0.39830774  0.20071697  1
  O  O10  1  0.22741460  0.62728905  0.94514836  1
  O  O11  1  0.73377186  0.02387097  0.82548018  1
  O  O12  1  0.61704327  0.60061759  0.74403178  1
  O  O13  1  0.11267173  0.10161545  0.75048682  1
  O  O14  1  0.27915829  0.53745529  0.68501439  1
  O  O15  1  0.85840395  0.13706169  0.56257333  1
  O  O16  1  0.57716480  0.85102654  0.44318567  1
  O  O17  1  0.92017055  0.90185622  0.23957297  1
  O  O18  1  0.95743251  0.39583067  0.26360750  1
  O  O19  1  0.51473495  0.45399053  0.29757376  1
  O  O20  1  0.49275099  0.00410098  0.19556580  1
  O  O21  1  0.80772892  0.34373291  0.04887556  1
