# generated using pymatgen
data_Mn2Fe3Cu(PO4)6
_symmetry_space_group_name_H-M   'P 1'
_cell_length_a   8.54793025
_cell_length_b   8.54793086
_cell_length_c   8.54792989
_cell_angle_alpha   60.82612337
_cell_angle_beta   60.82612519
_cell_angle_gamma   60.82612380
_symmetry_Int_Tables_number   1
_chemical_formula_structural   Mn2Fe3Cu(PO4)6
_chemical_formula_sum   'Mn2 Fe3 Cu1 P6 O24'
_cell_volume   449.86731167
_cell_formula_units_Z   1
loop_
 _symmetry_equiv_pos_site_id
 _symmetry_equiv_pos_as_xyz
  1  'x, y, z'
loop_
 _atom_site_type_symbol
 _atom_site_label
 _atom_site_symmetry_multiplicity
 _atom_site_fract_x
 _atom_site_fract_y
 _atom_site_fract_z
 _atom_site_occupancy
  Mn  Mn0  1  0.99934876  0.99934876  0.99934876  1
  Mn  Mn1  1  0.49967621  0.49967621  0.49967621  1
  Fe  Fe2  1  0.14491571  0.14491571  0.14491571  1
  Fe  Fe3  1  0.35377114  0.35377114  0.35377114  1
  Fe  Fe4  1  0.64524578  0.64524578  0.64524578  1
  Cu  Cu5  1  0.85487735  0.85487735  0.85487735  1
  P  P6  1  0.04557602  0.74988663  0.45486620  1
  P  P7  1  0.45486620  0.04557602  0.74988663  1
  P  P8  1  0.74988663  0.45486620  0.04557602  1
  P  P9  1  0.24968111  0.54447004  0.95408158  1
  P  P10  1  0.54447004  0.95408158  0.24968111  1
  P  P11  1  0.95408158  0.24968111  0.54447004  1
  O  O12  1  0.10957079  0.31821616  0.50362388  1
  O  O13  1  0.31821616  0.50362388  0.10957079  1
  O  O14  1  0.05845924  0.91014491  0.25756783  1
  O  O15  1  0.50362388  0.10957079  0.31821616  1
  O  O16  1  0.01685003  0.81320159  0.60929025  1
  O  O17  1  0.24361085  0.58957341  0.43705110  1
  O  O18  1  0.25756783  0.05845924  0.91014491  1
  O  O19  1  0.43705110  0.24361085  0.58957341  1
  O  O20  1  0.18309142  0.38876774  0.99382607  1
  O  O21  1  0.58957341  0.43705110  0.24361085  1
  O  O22  1  0.08925471  0.74152913  0.94490536  1
  O  O23  1  0.38876774  0.99382607  0.18309142  1
  O  O24  1  0.60929025  0.01685003  0.81320159  1
  O  O25  1  0.91014491  0.25756783  0.05845924  1
  O  O26  1  0.40945643  0.55982608  0.75654845  1
  O  O27  1  0.81320159  0.60929025  0.01685003  1
  O  O28  1  0.55982608  0.75654845  0.40945643  1
  O  O29  1  0.74152913  0.94490536  0.08925471  1
  O  O30  1  0.75654845  0.40945643  0.55982608  1
  O  O31  1  0.99382607  0.18309142  0.38876774  1
  O  O32  1  0.49687262  0.88879050  0.68357693  1
  O  O33  1  0.94490536  0.08925471  0.74152913  1
  O  O34  1  0.68357693  0.49687262  0.88879050  1
  O  O35  1  0.88879050  0.68357693  0.49687262  1
