# generated using pymatgen
data_LiLaTi2O6
_symmetry_space_group_name_H-M   'P 1'
_cell_length_a   5.55185542
_cell_length_b   5.55939938
_cell_length_c   7.76769348
_cell_angle_alpha   90.00007501
_cell_angle_beta   90.00076092
_cell_angle_gamma   90.00005869
_symmetry_Int_Tables_number   1
_chemical_formula_structural   LiLaTi2O6
_chemical_formula_sum   'Li2 La2 Ti4 O12'
_cell_volume   239.74971596
_cell_formula_units_Z   2
loop_
 _symmetry_equiv_pos_site_id
 _symmetry_equiv_pos_as_xyz
  1  'x, y, z'
loop_
 _atom_site_type_symbol
 _atom_site_label
 _atom_site_symmetry_multiplicity
 _atom_site_fract_x
 _atom_site_fract_y
 _atom_site_fract_z
 _atom_site_occupancy
  Li  Li0  1  0.00000000  0.50000000  0.50000000  1
  Li  Li1  1  0.00000000  0.50000000  0.00000000  1
  La  La2  1  0.49999259  0.99092131  0.74999958  1
  La  La3  1  0.50000741  0.00907869  0.25000042  1
  Ti  Ti4  1  0.50000000  0.50000000  0.50000000  1
  Ti  Ti5  1  0.00000000  0.00000000  0.50000000  1
  Ti  Ti6  1  0.00000000  0.00000000  0.00000000  1
  Ti  Ti7  1  0.50000000  0.50000000  0.00000000  1
  O  O8  1  0.73096156  0.23143731  0.98215200  1
  O  O9  1  0.24999979  0.25049781  0.98027021  1
  O  O10  1  0.75000031  0.25050128  0.51973036  1
  O  O11  1  0.49999726  0.54456125  0.74999750  1
  O  O12  1  0.26904341  0.23143877  0.51785199  1
  O  O13  1  0.73095659  0.76856123  0.48214801  1
  O  O14  1  0.99999828  0.96220106  0.75000041  1
  O  O15  1  0.50000274  0.45543875  0.25000250  1
  O  O16  1  0.00000172  0.03779894  0.24999959  1
  O  O17  1  0.24999969  0.74949872  0.48026964  1
  O  O18  1  0.75000021  0.74950219  0.01972979  1
  O  O19  1  0.26903844  0.76856269  0.01784800  1
