# generated using pymatgen
data_Li3MnPCO7
_symmetry_space_group_name_H-M   'P 1'
_cell_length_a   9.56719020
_cell_length_b   9.84107649
_cell_length_c   6.47858506
_cell_angle_alpha   90.00000000
_cell_angle_beta   90.00000000
_cell_angle_gamma   63.69605408
_symmetry_Int_Tables_number   1
_chemical_formula_structural   Li3MnPCO7
_chemical_formula_sum   'Li12 Mn4 P4 C4 O28'
_cell_volume   546.80958295
_cell_formula_units_Z   4
loop_
 _symmetry_equiv_pos_site_id
 _symmetry_equiv_pos_as_xyz
  1  'x, y, z'
loop_
 _atom_site_type_symbol
 _atom_site_label
 _atom_site_symmetry_multiplicity
 _atom_site_fract_x
 _atom_site_fract_y
 _atom_site_fract_z
 _atom_site_occupancy
  Li  Li0  1  0.89726703  0.43770403  0.75076793  1
  Li  Li1  1  0.89726703  0.93770403  0.74923207  1
  Li  Li2  1  0.71375367  0.26004651  0.51223503  1
  Li  Li3  1  0.71375367  0.76004651  0.98776497  1
  Li  Li4  1  0.64716750  0.06600524  0.25434013  1
  Li  Li5  1  0.64716750  0.56600524  0.24565987  1
  Li  Li6  1  0.35283250  0.43399476  0.75434013  1
  Li  Li7  1  0.35283250  0.93399476  0.74565987  1
  Li  Li8  1  0.28624633  0.23995349  0.01223503  1
  Li  Li9  1  0.28624633  0.73995349  0.48776497  1
  Li  Li10  1  0.10273297  0.06229597  0.25076793  1
  Li  Li11  1  0.10273297  0.56229597  0.24923207  1
  Mn  Mn12  1  0.73126701  0.26420287  0.99817280  1
  Mn  Mn13  1  0.73126701  0.76420287  0.50182720  1
  Mn  Mn14  1  0.26873299  0.23579713  0.49817280  1
  Mn  Mn15  1  0.26873299  0.73579713  0.00182720  1
  P  P16  1  0.59252934  0.06364060  0.75219353  1
  P  P17  1  0.59252934  0.56364060  0.74780647  1
  P  P18  1  0.40747066  0.43635940  0.25219453  1
  P  P19  1  0.40747066  0.93635940  0.24780647  1
  C  C20  1  0.95837045  0.37330913  0.24776261  1
  C  C21  1  0.95837045  0.87330913  0.25223739  1
  C  C22  1  0.04162955  0.12669087  0.74776261  1
  C  C23  1  0.04162955  0.62669087  0.75223739  1
  O  O24  1  0.93035068  0.01239866  0.23998137  1
  O  O25  1  0.93035068  0.51239866  0.26001863  1
  O  O26  1  0.89587481  0.23464605  0.74964797  1
  O  O27  1  0.84709278  0.33194253  0.23506724  1
  O  O28  1  0.89587481  0.73464605  0.75035203  1
  O  O29  1  0.84709278  0.83194253  0.26493276  1
  O  O30  1  0.68955630  0.06780308  0.94350730  1
  O  O31  1  0.69033082  0.06594378  0.56279815  1
  O  O32  1  0.69033082  0.56594378  0.93720185  1
  O  O33  1  0.68955630  0.56780308  0.55649270  1
  O  O34  1  0.57419452  0.30313601  0.25558982  1
  O  O35  1  0.57735396  0.41158735  0.75026440  1
  O  O36  1  0.57419452  0.80313601  0.24441018  1
  O  O37  1  0.57735396  0.91158735  0.74973560  1
  O  O38  1  0.42264604  0.08841265  0.25026440  1
  O  O39  1  0.42580548  0.19686399  0.75558982  1
  O  O40  1  0.42264604  0.58841265  0.24973560  1
  O  O41  1  0.42580548  0.69686399  0.74441018  1
  O  O42  1  0.30966918  0.43405622  0.06279815  1
  O  O43  1  0.31044370  0.43219692  0.44350730  1
  O  O44  1  0.31044370  0.93219692  0.05649270  1
  O  O45  1  0.30966918  0.93405622  0.43720185  1
  O  O46  1  0.15290722  0.16805747  0.73506724  1
  O  O47  1  0.10412519  0.26535395  0.24964797  1
  O  O48  1  0.15290722  0.66805747  0.76493276  1
  O  O49  1  0.10412519  0.76535395  0.25035203  1
  O  O50  1  0.06964932  0.48760134  0.73998137  1
  O  O51  1  0.06964932  0.98760134  0.76001863  1
