# generated using pymatgen
data_LiMn2(PO5)2
_symmetry_space_group_name_H-M   'P 1'
_cell_length_a   6.69799839
_cell_length_b   6.97364066
_cell_length_c   7.97266311
_cell_angle_alpha   89.85291293
_cell_angle_beta   91.02688779
_cell_angle_gamma   116.69209547
_symmetry_Int_Tables_number   1
_chemical_formula_structural   LiMn2(PO5)2
_chemical_formula_sum   'Li2 Mn4 P4 O20'
_cell_volume   332.65361562
_cell_formula_units_Z   2
loop_
 _symmetry_equiv_pos_site_id
 _symmetry_equiv_pos_as_xyz
  1  'x, y, z'
loop_
 _atom_site_type_symbol
 _atom_site_label
 _atom_site_symmetry_multiplicity
 _atom_site_fract_x
 _atom_site_fract_y
 _atom_site_fract_z
 _atom_site_occupancy
  Li  Li0  1  0.22063744  0.27242561  0.07052231  1
  Li  Li1  1  0.70321691  0.20010076  0.56921848  1
  Mn  Mn2  1  0.24556876  0.99581432  0.75260624  1
  Mn  Mn3  1  0.24892346  0.49823886  0.74678963  1
  Mn  Mn4  1  0.75534362  0.50354196  0.24933091  1
  Mn  Mn5  1  0.75145080  0.00046948  0.24906136  1
  P  P6  1  0.24054028  0.75415166  0.08425443  1
  P  P7  1  0.26187525  0.24414024  0.41885086  1
  P  P8  1  0.74048305  0.75465256  0.58390899  1
  P  P9  1  0.75990367  0.24627942  0.91811580  1
  O  O10  1  0.14667047  0.87732015  0.97074989  1
  O  O11  1  0.07305362  0.63865333  0.22411374  1
  O  O12  1  0.23011329  0.74171329  0.67007535  1
  O  O13  1  0.28393387  0.58591521  0.98428356  1
  O  O14  1  0.19145126  0.39068159  0.52022793  1
  O  O15  1  0.06074088  0.08458506  0.31097143  1
  O  O16  1  0.45292316  0.92278401  0.17368172  1
  O  O17  1  0.26527919  0.25508299  0.82991129  1
  O  O18  1  0.65418778  0.88750600  0.47224691  1
  O  O19  1  0.42998282  0.36952088  0.27911813  1
  O  O20  1  0.56609761  0.63228580  0.71771378  1
  O  O21  1  0.36314353  0.12882644  0.53275272  1
  O  O22  1  0.73366832  0.74475273  0.16955299  1
  O  O23  1  0.55518567  0.08017203  0.81674378  1
  O  O24  1  0.94731893  0.92026815  0.68112103  1
  O  O25  1  0.79457575  0.59695807  0.48148498  1
  O  O26  1  0.69957843  0.39972435  0.01927791  1
  O  O27  1  0.76784897  0.25731440  0.32910444  1
  O  O28  1  0.92295851  0.36127671  0.77306197  1
  O  O29  1  0.86724468  0.13544694  0.03204946  1
