# generated using pymatgen
data_V4Si4O13
_symmetry_space_group_name_H-M   'P 1'
_cell_length_a   10.17811340
_cell_length_b   7.82975274
_cell_length_c   6.96106432
_cell_angle_alpha   77.60808739
_cell_angle_beta   89.44583115
_cell_angle_gamma   113.11779011
_symmetry_Int_Tables_number   1
_chemical_formula_structural   V4Si4O13
_chemical_formula_sum   'V8 Si8 O26'
_cell_volume   495.57798716
_cell_formula_units_Z   2
loop_
 _symmetry_equiv_pos_site_id
 _symmetry_equiv_pos_as_xyz
  1  'x, y, z'
loop_
 _atom_site_type_symbol
 _atom_site_label
 _atom_site_symmetry_multiplicity
 _atom_site_fract_x
 _atom_site_fract_y
 _atom_site_fract_z
 _atom_site_occupancy
  V  V0  1  0.00786261  0.80931645  0.91960476  1
  V  V1  1  0.01254561  0.81622416  0.42421450  1
  V  V2  1  0.37427415  0.81848416  0.42341284  1
  V  V3  1  0.37812200  0.82702080  0.92273976  1
  V  V4  1  0.62187800  0.17297920  0.07726024  1
  V  V5  1  0.62572585  0.18151584  0.57658716  1
  V  V6  1  0.98745439  0.18377584  0.57578550  1
  V  V7  1  0.99213739  0.19068355  0.08039524  1
  Si  Si8  1  0.17421627  0.58487699  0.73430469  1
  Si  Si9  1  0.28261479  0.42776543  0.27168249  1
  Si  Si10  1  0.28865041  0.13571317  0.62183601  1
  Si  Si11  1  0.29090568  0.13396562  0.06750230  1
  Si  Si12  1  0.70909432  0.86603438  0.93249770  1
  Si  Si13  1  0.71134959  0.86428683  0.37816399  1
  Si  Si14  1  0.71738521  0.57223457  0.72831751  1
  Si  Si15  1  0.82578373  0.41512301  0.26569531  1
  O  O16  1  0.11519611  0.00572597  0.62852875  1
  O  O17  1  0.11471032  0.01155141  0.12245611  1
  O  O18  1  0.07844655  0.35334025  0.80627726  1
  O  O19  1  0.15076568  0.70188633  0.89803233  1
  O  O20  1  0.16019145  0.69155161  0.50517188  1
  O  O21  1  0.10743951  0.33826013  0.28096173  1
  O  O22  1  0.39698885  0.03134197  0.58409187  1
  O  O23  1  0.38817272  0.01335128  0.14954262  1
  O  O24  1  0.34998965  0.65205879  0.71411669  1
  O  O25  1  0.36014142  0.66041758  0.22312824  1
  O  O26  1  0.32281977  0.17791013  0.83389613  1
  O  O27  1  0.33187884  0.34651597  0.48139573  1
  O  O28  1  0.34404006  0.34321029  0.11341023  1
  O  O29  1  0.65595994  0.65678971  0.88658977  1
  O  O30  1  0.66812116  0.65348403  0.51860427  1
  O  O31  1  0.67718023  0.82208987  0.16610387  1
  O  O32  1  0.63985858  0.33958242  0.77687176  1
  O  O33  1  0.65001035  0.34794121  0.28588331  1
  O  O34  1  0.61182728  0.98664872  0.85045738  1
  O  O35  1  0.60301115  0.96865803  0.41590813  1
  O  O36  1  0.89256049  0.66173987  0.71903827  1
  O  O37  1  0.83980855  0.30844839  0.49482812  1
  O  O38  1  0.84923432  0.29811367  0.10196767  1
  O  O39  1  0.92155345  0.64665975  0.19372274  1
  O  O40  1  0.88528968  0.98844859  0.87754389  1
  O  O41  1  0.88480389  0.99427403  0.37147125  1
