# generated using pymatgen
data_Ca(MoO2)2
_symmetry_space_group_name_H-M   'P 1'
_cell_length_a   6.66434905
_cell_length_b   6.58554840
_cell_length_c   6.58554866
_cell_angle_alpha   59.99999510
_cell_angle_beta   60.39037864
_cell_angle_gamma   60.39037503
_symmetry_Int_Tables_number   1
_chemical_formula_structural   Ca(MoO2)2
_chemical_formula_sum   'Ca2 Mo4 O8'
_cell_volume   205.57209380
_cell_formula_units_Z   2
loop_
 _symmetry_equiv_pos_site_id
 _symmetry_equiv_pos_as_xyz
  1  'x, y, z'
loop_
 _atom_site_type_symbol
 _atom_site_label
 _atom_site_symmetry_multiplicity
 _atom_site_fract_x
 _atom_site_fract_y
 _atom_site_fract_z
 _atom_site_occupancy
  Ca  Ca0  1  0.99353432  0.00215523  0.00215523  1
  Ca  Ca1  1  0.11437553  0.62854082  0.62854082  1
  Mo  Mo2  1  0.33577085  0.22140972  0.22140972  1
  Mo  Mo3  1  0.62764228  0.12243521  0.62496126  1
  Mo  Mo4  1  0.62764228  0.62496126  0.12243521  1
  Mo  Mo5  1  0.62764228  0.62496126  0.62496126  1
  O  O6  1  0.39495511  0.37658326  0.37658326  1
  O  O7  1  0.39495511  0.37658326  0.85187738  1
  O  O8  1  0.39495511  0.85187738  0.37658326  1
  O  O9  1  0.81929191  0.39356936  0.39356936  1
  O  O10  1  0.41762325  0.86079158  0.86079158  1
  O  O11  1  0.83387132  0.41720859  0.87445954  1
  O  O12  1  0.83387132  0.87445954  0.41720859  1
  O  O13  1  0.83387132  0.87445954  0.87445954  1
