# generated using pymatgen
data_LiSn2(SO4)3
_symmetry_space_group_name_H-M   'P 1'
_cell_length_a   8.94153686
_cell_length_b   9.42520510
_cell_length_c   12.90353982
_cell_angle_alpha   90.00000000
_cell_angle_beta   89.41482118
_cell_angle_gamma   90.00000000
_symmetry_Int_Tables_number   1
_chemical_formula_structural   LiSn2(SO4)3
_chemical_formula_sum   'Li4 Sn8 S12 O48'
_cell_volume   1087.39966795
_cell_formula_units_Z   4
loop_
 _symmetry_equiv_pos_site_id
 _symmetry_equiv_pos_as_xyz
  1  'x, y, z'
loop_
 _atom_site_type_symbol
 _atom_site_label
 _atom_site_symmetry_multiplicity
 _atom_site_fract_x
 _atom_site_fract_y
 _atom_site_fract_z
 _atom_site_occupancy
  Li  Li0  1  0.19041980  0.72136099  0.81619279  1
  Li  Li1  1  0.30958020  0.22136099  0.68380721  1
  Li  Li2  1  0.69041980  0.77863901  0.31619279  1
  Li  Li3  1  0.80958020  0.27863901  0.18380721  1
  Sn  Sn4  1  0.24697761  0.96784852  0.38155871  1
  Sn  Sn5  1  0.23872361  0.54374402  0.59627561  1
  Sn  Sn6  1  0.25302239  0.46784852  0.11844129  1
  Sn  Sn7  1  0.26127639  0.04374402  0.90372439  1
  Sn  Sn8  1  0.73872361  0.95625598  0.09627561  1
  Sn  Sn9  1  0.74697761  0.53215148  0.88155871  1
  Sn  Sn10  1  0.76127639  0.45625498  0.40372439  1
  Sn  Sn11  1  0.75302239  0.03215148  0.61844129  1
  S  S12  1  0.05078681  0.23518223  0.51228822  1
  S  S13  1  0.09635017  0.12913282  0.15961293  1
  S  S14  1  0.11235890  0.39508188  0.85443898  1
  S  S15  1  0.38764110  0.89508188  0.64556102  1
  S  S16  1  0.40364983  0.62913282  0.34038707  1
  S  S17  1  0.44921219  0.73518223  0.98771178  1
  S  S18  1  0.55078681  0.26481777  0.01228822  1
  S  S19  1  0.59635017  0.37086718  0.65961293  1
  S  S20  1  0.61235890  0.10491812  0.35443898  1
  S  S21  1  0.88764110  0.60491812  0.14556102  1
  S  S22  1  0.90364983  0.87086718  0.84038707  1
  S  S23  1  0.94921319  0.76481777  0.48771178  1
  O  O24  1  0.00279236  0.63858441  0.54451940  1
  O  O25  1  0.04978007  0.62627749  0.11978000  1
  O  O26  1  0.06112775  0.89800981  0.80772377  1
  O  O27  1  0.05813696  0.80519185  0.40350012  1
  O  O28  1  0.06839343  0.11576386  0.43636071  1
  O  O29  1  0.12914788  0.28037263  0.18903631  1
  O  O30  1  0.11164316  0.10893057  0.04593747  1
  O  O31  1  0.13208036  0.52235122  0.78729452  1
  O  O32  1  0.19699254  0.27026913  0.56032943  1
  O  O33  1  0.16949996  0.26546499  0.80060005  1
  O  O34  1  0.20058756  0.41330391  0.95132744  1
  O  O35  1  0.20110134  0.02932592  0.21252264  1
  O  O36  1  0.29889866  0.52932592  0.28747736  1
  O  O37  1  0.29941244  0.91330391  0.54867256  1
  O  O38  1  0.33050004  0.76546499  0.69939995  1
  O  O39  1  0.30300746  0.77026913  0.93967057  1
  O  O40  1  0.38835684  0.60893057  0.45406253  1
  O  O41  1  0.36791964  0.02235122  0.71270548  1
  O  O42  1  0.37085212  0.78037263  0.31096369  1
  O  O43  1  0.43160657  0.61576386  0.06363929  1
  O  O44  1  0.44186304  0.30519185  0.09649988  1
  O  O45  1  0.45021993  0.12627749  0.38022000  1
  O  O46  1  0.43887225  0.39800981  0.69227623  1
  O  O47  1  0.49720764  0.13858441  0.95548060  1
  O  O48  1  0.50279236  0.86141559  0.04451940  1
  O  O49  1  0.56112775  0.60199019  0.30772377  1
  O  O50  1  0.54978007  0.87372251  0.61978000  1
  O  O51  1  0.55813696  0.69480815  0.90350012  1
  O  O52  1  0.56839343  0.38423614  0.93636071  1
  O  O53  1  0.62914788  0.21962737  0.68903631  1
  O  O54  1  0.63208036  0.97764878  0.28729452  1
  O  O55  1  0.61164316  0.39106943  0.54593747  1
  O  O56  1  0.69699254  0.22973087  0.06032943  1
  O  O57  1  0.66949996  0.23453501  0.30060005  1
  O  O58  1  0.70058756  0.08669609  0.45132744  1
  O  O59  1  0.70110134  0.47067308  0.71252264  1
  O  O60  1  0.79889866  0.97067408  0.78747736  1
  O  O61  1  0.79941244  0.58669609  0.04867256  1
  O  O62  1  0.83050004  0.73453501  0.19939995  1
  O  O63  1  0.80300746  0.72973087  0.43967057  1
  O  O64  1  0.86791964  0.47764878  0.21270548  1
  O  O65  1  0.88835684  0.89106943  0.95406253  1
  O  O66  1  0.87085212  0.71962737  0.81096369  1
  O  O67  1  0.93160657  0.88423614  0.56363929  1
  O  O68  1  0.94186304  0.19480815  0.59649988  1
  O  O69  1  0.93887225  0.10199019  0.19227623  1
  O  O70  1  0.95021993  0.37372251  0.88022000  1
  O  O71  1  0.99720764  0.36141559  0.45548060  1
