# generated using pymatgen
data_Ba2YI7
_symmetry_space_group_name_H-M   'P 1'
_cell_length_a   8.38660183
_cell_length_b   18.83387489
_cell_length_c   13.67234418
_cell_angle_alpha   90.00000000
_cell_angle_beta   86.76103246
_cell_angle_gamma   90.00000000
_symmetry_Int_Tables_number   1
_chemical_formula_structural   Ba2YI7
_chemical_formula_sum   'Ba8 Y4 I28'
_cell_volume   2156.12719655
_cell_formula_units_Z   4
loop_
 _symmetry_equiv_pos_site_id
 _symmetry_equiv_pos_as_xyz
  1  'x, y, z'
loop_
 _atom_site_type_symbol
 _atom_site_label
 _atom_site_symmetry_multiplicity
 _atom_site_fract_x
 _atom_site_fract_y
 _atom_site_fract_z
 _atom_site_occupancy
  Ba  Ba0  1  0.17811101  0.52562540  0.81324249  1
  Ba  Ba1  1  0.24297189  0.77001262  0.96771759  1
  Ba  Ba2  1  0.25702811  0.27001262  0.53228241  1
  Ba  Ba3  1  0.32188899  0.02562540  0.68675751  1
  Ba  Ba4  1  0.67811101  0.97437460  0.31324249  1
  Ba  Ba5  1  0.74297189  0.72998738  0.46771759  1
  Ba  Ba6  1  0.75702811  0.22998738  0.03228241  1
  Ba  Ba7  1  0.82188899  0.47437460  0.18675751  1
  Y  Y8  1  0.23076484  0.84068248  0.35124258  1
  Y  Y9  1  0.26923516  0.34068248  0.14875742  1
  Y  Y10  1  0.73076484  0.65931752  0.85124258  1
  Y  Y11  1  0.76923516  0.15931752  0.64875742  1
  I  I12  1  0.04808622  0.71024266  0.75745636  1
  I  I13  1  0.15446568  0.69861444  0.44114309  1
  I  I14  1  0.05963472  0.10359146  0.52504050  1
  I  I15  1  0.21112009  0.48539891  0.23829781  1
  I  I16  1  0.02342129  0.81083968  0.18376052  1
  I  I17  1  0.05372168  0.38401184  0.97890213  1
  I  I18  1  0.18806917  0.93292011  0.88060779  1
  I  I19  1  0.31193083  0.43292011  0.61939221  1
  I  I20  1  0.44627832  0.88401184  0.52109787  1
  I  I21  1  0.47657871  0.31083968  0.31623948  1
  I  I22  1  0.44036528  0.60359146  0.97495950  1
  I  I23  1  0.28887991  0.98539891  0.26170219  1
  I  I24  1  0.45191378  0.21024266  0.74254364  1
  I  I25  1  0.34553432  0.19861444  0.05885691  1
  I  I26  1  0.65446568  0.80138556  0.94114309  1
  I  I27  1  0.54808622  0.78975734  0.25745636  1
  I  I28  1  0.71112009  0.01460109  0.73829781  1
  I  I29  1  0.55963472  0.39640854  0.02504050  1
  I  I30  1  0.52342129  0.68916032  0.68376052  1
  I  I31  1  0.55372168  0.11598816  0.47890213  1
  I  I32  1  0.68806917  0.56707989  0.38060779  1
  I  I33  1  0.81193083  0.06707989  0.11939221  1
  I  I34  1  0.94627832  0.61598816  0.02109787  1
  I  I35  1  0.97657871  0.18916032  0.81623948  1
  I  I36  1  0.78887991  0.51460109  0.76170219  1
  I  I37  1  0.94036528  0.89640854  0.47495950  1
  I  I38  1  0.84553432  0.30138556  0.55885691  1
  I  I39  1  0.95191378  0.28975734  0.24254364  1
