# generated using pymatgen
data_LiCuCSO7
_symmetry_space_group_name_H-M   'P 1'
_cell_length_a   8.91677969
_cell_length_b   6.20733467
_cell_length_c   5.16277037
_cell_angle_alpha   90.00000000
_cell_angle_beta   86.59240564
_cell_angle_gamma   90.00000000
_symmetry_Int_Tables_number   1
_chemical_formula_structural   LiCuCSO7
_chemical_formula_sum   'Li2 Cu2 C2 S2 O14'
_cell_volume   285.25119752
_cell_formula_units_Z   2
loop_
 _symmetry_equiv_pos_site_id
 _symmetry_equiv_pos_as_xyz
  1  'x, y, z'
loop_
 _atom_site_type_symbol
 _atom_site_label
 _atom_site_symmetry_multiplicity
 _atom_site_fract_x
 _atom_site_fract_y
 _atom_site_fract_z
 _atom_site_occupancy
  Li  Li0  1  0.21204419  0.49837718  0.23224912  1
  Li  Li1  1  0.78795581  0.99837718  0.76775088  1
  Cu  Cu2  1  0.34986057  0.75413012  0.77368224  1
  Cu  Cu3  1  0.65013943  0.25413012  0.22631776  1
  C  C4  1  0.07136715  0.74356537  0.72627531  1
  C  C5  1  0.92863285  0.24356537  0.27372469  1
  S  S6  1  0.42595170  0.25134770  0.72153578  1
  S  S7  1  0.57404830  0.75134770  0.27846422  1
  O  O8  1  0.06630677  0.27131595  0.29779691  1
  O  O9  1  0.13200616  0.73787674  0.94970536  1
  O  O10  1  0.16836317  0.72400334  0.52672939  1
  O  O11  1  0.32606493  0.06592243  0.79171755  1
  O  O12  1  0.33717868  0.44006210  0.82807045  1
  O  O13  1  0.42658323  0.73756839  0.16413095  1
  O  O14  1  0.44826072  0.27368069  0.43300365  1
  O  O15  1  0.55173928  0.77368069  0.56699635  1
  O  O16  1  0.57341677  0.23756839  0.83586905  1
  O  O17  1  0.66282132  0.94006210  0.17192955  1
  O  O18  1  0.67393507  0.56592243  0.20828245  1
  O  O19  1  0.83163683  0.22400334  0.47327061  1
  O  O20  1  0.86799384  0.23787674  0.05029464  1
  O  O21  1  0.93369323  0.77131595  0.70220309  1
