# generated using pymatgen
data_Li6Fe(SiO4)2
_symmetry_space_group_name_H-M   'P 1'
_cell_length_a   5.56973265
_cell_length_b   5.14628463
_cell_length_c   6.21964569
_cell_angle_alpha   79.14345153
_cell_angle_beta   88.13299137
_cell_angle_gamma   85.96617711
_symmetry_Int_Tables_number   1
_chemical_formula_structural   Li6Fe(SiO4)2
_chemical_formula_sum   'Li6 Fe1 Si2 O8'
_cell_volume   174.61781505
_cell_formula_units_Z   1
loop_
 _symmetry_equiv_pos_site_id
 _symmetry_equiv_pos_as_xyz
  1  'x, y, z'
loop_
 _atom_site_type_symbol
 _atom_site_label
 _atom_site_symmetry_multiplicity
 _atom_site_fract_x
 _atom_site_fract_y
 _atom_site_fract_z
 _atom_site_occupancy
  Li  Li0  1  0.42382233  0.17131114  0.80760809  1
  Li  Li1  1  0.24004953  0.61272511  0.03757279  1
  Li  Li2  1  0.35343906  0.78707914  0.61774749  1
  Li  Li3  1  0.64656094  0.21292086  0.38225251  1
  Li  Li4  1  0.75995047  0.38727489  0.96242721  1
  Li  Li5  1  0.57617767  0.82868886  0.19239191  1
  Fe  Fe6  1  0.00000000  0.50000000  0.50000000  1
  Si  Si7  1  0.20895383  0.12586435  0.28051726  1
  Si  Si8  1  0.79104617  0.87413565  0.71948274  1
  O  O9  1  0.21715765  0.79980437  0.29759955  1
  O  O10  1  0.04480355  0.69644634  0.77946782  1
  O  O11  1  0.28969847  0.18950171  0.52072671  1
  O  O12  1  0.42635753  0.23563074  0.10601837  1
  O  O13  1  0.57364247  0.76436926  0.89398163  1
  O  O14  1  0.71030153  0.81049829  0.47927329  1
  O  O15  1  0.95519645  0.30355366  0.22053218  1
  O  O16  1  0.78284235  0.20019563  0.70240045  1
