# generated using pymatgen
data_B2TeO5
_symmetry_space_group_name_H-M   'P 1'
_cell_length_a   7.22592018
_cell_length_b   7.22592018
_cell_length_c   11.21566877
_cell_angle_alpha   65.00977961
_cell_angle_beta   114.99022039
_cell_angle_gamma   90.65070783
_symmetry_Int_Tables_number   1
_chemical_formula_structural   B2TeO5
_chemical_formula_sum   'B8 Te4 O20'
_cell_volume   471.03684200
_cell_formula_units_Z   4
loop_
 _symmetry_equiv_pos_site_id
 _symmetry_equiv_pos_as_xyz
  1  'x, y, z'
loop_
 _atom_site_type_symbol
 _atom_site_label
 _atom_site_symmetry_multiplicity
 _atom_site_fract_x
 _atom_site_fract_y
 _atom_site_fract_z
 _atom_site_occupancy
  B  B0  1  0.24043544  0.77068300  0.86904710  1
  B  B1  1  0.25877552  0.39315997  0.00436608  1
  B  B2  1  0.22931700  0.75956456  0.36904710  1
  B  B3  1  0.60684003  0.74122448  0.50436608  1
  B  B4  1  0.39315997  0.25877552  0.49563392  1
  B  B5  1  0.77068300  0.24043544  0.63095290  1
  B  B6  1  0.74122448  0.60684003  0.99563392  1
  B  B7  1  0.75956456  0.22931700  0.13095290  1
  Te  Te8  1  0.05450873  0.55614965  0.67350015  1
  Te  Te9  1  0.44385035  0.94549127  0.17350015  1
  Te  Te10  1  0.55614965  0.05450873  0.82649985  1
  Te  Te11  1  0.94549127  0.44385035  0.32649985  1
  O  O12  1  0.33399114  0.92931229  0.88974931  1
  O  O13  1  0.12678427  0.78726333  0.73146831  1
  O  O14  1  0.07068771  0.66600886  0.38974931  1
  O  O15  1  0.15614154  0.35266472  0.88363930  1
  O  O16  1  0.64141876  0.77658642  0.85616683  1
  O  O17  1  0.21273667  0.87321573  0.23146831  1
  O  O18  1  0.41387531  0.72302398  0.49766705  1
  O  O19  1  0.72302398  0.41387531  0.00233295  1
  O  O20  1  0.64733528  0.84385846  0.38363930  1
  O  O21  1  0.22341358  0.35858124  0.35616683  1
  O  O22  1  0.77658642  0.64141876  0.64383317  1
  O  O23  1  0.35266472  0.15614154  0.61636070  1
  O  O24  1  0.27697602  0.58612469  0.99766705  1
  O  O25  1  0.58612469  0.27697602  0.50233295  1
  O  O26  1  0.78726333  0.12678427  0.76853169  1
  O  O27  1  0.35858124  0.22341358  0.14383317  1
  O  O28  1  0.84385846  0.64733528  0.11636070  1
  O  O29  1  0.92931229  0.33399114  0.61025069  1
  O  O30  1  0.87321573  0.21273667  0.26853169  1
  O  O31  1  0.66600886  0.07068771  0.11025069  1
