# generated using pymatgen
data_Li2SbPCO7
_symmetry_space_group_name_H-M   'P 1'
_cell_length_a   8.84518325
_cell_length_b   5.14644211
_cell_length_c   6.98902934
_cell_angle_alpha   90.00000000
_cell_angle_beta   90.00000000
_cell_angle_gamma   83.14201349
_symmetry_Int_Tables_number   1
_chemical_formula_structural   Li2SbPCO7
_chemical_formula_sum   'Li4 Sb2 P2 C2 O14'
_cell_volume   315.87286309
_cell_formula_units_Z   2
loop_
 _symmetry_equiv_pos_site_id
 _symmetry_equiv_pos_as_xyz
  1  'x, y, z'
loop_
 _atom_site_type_symbol
 _atom_site_label
 _atom_site_symmetry_multiplicity
 _atom_site_fract_x
 _atom_site_fract_y
 _atom_site_fract_z
 _atom_site_occupancy
  Li  Li0  1  0.09652047  0.76919811  0.25128597  1
  Li  Li1  1  0.27658178  0.24584535  0.06622596  1
  Li  Li2  1  0.72341822  0.75415465  0.56622596  1
  Li  Li3  1  0.90347953  0.23080189  0.75128597  1
  Sb  Sb4  1  0.32624291  0.79015078  0.73313253  1
  Sb  Sb5  1  0.67375709  0.20984922  0.23313253  1
  P  P6  1  0.40528240  0.71621767  0.24871298  1
  P  P7  1  0.59471760  0.28378233  0.74871298  1
  C  C8  1  0.03141512  0.68477746  0.74416613  1
  C  C9  1  0.96858488  0.31522254  0.24416613  1
  O  O10  1  0.05817538  0.93054012  0.73632426  1
  O  O11  1  0.09890182  0.38720939  0.21195125  1
  O  O12  1  0.14911292  0.51034303  0.78249496  1
  O  O13  1  0.31107921  0.85981622  0.08446402  1
  O  O14  1  0.29508419  0.76119812  0.42620577  1
  O  O15  1  0.43778132  0.19161741  0.78565075  1
  O  O16  1  0.43183858  0.41657644  0.20137143  1
  O  O17  1  0.56816142  0.58342356  0.70137143  1
  O  O18  1  0.56221868  0.80838259  0.28565075  1
  O  O19  1  0.70491581  0.23880188  0.92620577  1
  O  O20  1  0.68892079  0.14018378  0.58446402  1
  O  O21  1  0.85088708  0.48965697  0.28249496  1
  O  O22  1  0.90109818  0.61279061  0.71195125  1
  O  O23  1  0.94182462  0.06945988  0.23632426  1
