# generated using pymatgen
data_Li3SbS3
_symmetry_space_group_name_H-M   'P 1'
_cell_length_a   6.21629540
_cell_length_b   14.92073003
_cell_length_c   6.62996272
_cell_angle_alpha   90.00000000
_cell_angle_beta   96.82315580
_cell_angle_gamma   90.00000000
_symmetry_Int_Tables_number   1
_chemical_formula_structural   Li3SbS3
_chemical_formula_sum   'Li12 Sb4 S12'
_cell_volume   610.58481699
_cell_formula_units_Z   4
loop_
 _symmetry_equiv_pos_site_id
 _symmetry_equiv_pos_as_xyz
  1  'x, y, z'
loop_
 _atom_site_type_symbol
 _atom_site_label
 _atom_site_symmetry_multiplicity
 _atom_site_fract_x
 _atom_site_fract_y
 _atom_site_fract_z
 _atom_site_occupancy
  Li  Li0  1  0.17713611  0.64604073  0.52639673  1
  Li  Li1  1  0.11083922  0.42536333  0.15296425  1
  Li  Li2  1  0.38916078  0.92536333  0.34703575  1
  Li  Li3  1  0.32286389  0.14604073  0.97360327  1
  Li  Li4  1  0.12044680  0.73769595  0.10421750  1
  Li  Li5  1  0.37955320  0.23769595  0.39578250  1
  Li  Li6  1  0.62044680  0.76230405  0.60421750  1
  Li  Li7  1  0.87955320  0.26230405  0.89578250  1
  Li  Li8  1  0.67713611  0.85395927  0.02639673  1
  Li  Li9  1  0.61083922  0.07463667  0.65296425  1
  Li  Li10  1  0.88916078  0.57463667  0.84703575  1
  Li  Li11  1  0.82286389  0.35395927  0.47360327  1
  Sb  Sb12  1  0.07537066  0.90295311  0.76438772  1
  Sb  Sb13  1  0.42462934  0.40295311  0.73561228  1
  Sb  Sb14  1  0.57537066  0.59704689  0.26438772  1
  Sb  Sb15  1  0.92462934  0.09704689  0.23561128  1
  S  S16  1  0.04226765  0.89819317  0.13168567  1
  S  S17  1  0.99923558  0.26203892  0.25695654  1
  S  S18  1  0.02871028  0.41629593  0.77316601  1
  S  S19  1  0.50076442  0.76203892  0.24304346  1
  S  S20  1  0.47128972  0.91629593  0.72683399  1
  S  S21  1  0.45773235  0.39819317  0.36831433  1
  S  S22  1  0.54226765  0.60180683  0.63168567  1
  S  S23  1  0.52871028  0.08370407  0.27316601  1
  S  S24  1  0.49923558  0.23796108  0.75695654  1
  S  S25  1  0.97128972  0.58370407  0.22683399  1
  S  S26  1  0.00076442  0.73796108  0.74304346  1
  S  S27  1  0.95773235  0.10180683  0.86831433  1
