# generated using pymatgen
data_Li2AsPCO7
_symmetry_space_group_name_H-M   'P 1'
_cell_length_a   8.94338738
_cell_length_b   6.54174130
_cell_length_c   5.09745307
_cell_angle_alpha   90.00000000
_cell_angle_beta   93.92856431
_cell_angle_gamma   90.00000000
_symmetry_Int_Tables_number   1
_chemical_formula_structural   Li2AsPCO7
_chemical_formula_sum   'Li4 As2 P2 C2 O14'
_cell_volume   297.52739390
_cell_formula_units_Z   2
loop_
 _symmetry_equiv_pos_site_id
 _symmetry_equiv_pos_as_xyz
  1  'x, y, z'
loop_
 _atom_site_type_symbol
 _atom_site_label
 _atom_site_symmetry_multiplicity
 _atom_site_fract_x
 _atom_site_fract_y
 _atom_site_fract_z
 _atom_site_occupancy
  Li  Li0  1  0.23155174  0.45785618  0.24037619  1
  Li  Li1  1  0.23155174  0.04214382  0.24037619  1
  Li  Li2  1  0.76844826  0.54214382  0.75962381  1
  Li  Li3  1  0.76844826  0.95785618  0.75962381  1
  As  As4  1  0.35308906  0.75000000  0.82040190  1
  As  As5  1  0.64691094  0.25000000  0.17959810  1
  P  P6  1  0.39556475  0.25000000  0.74602063  1
  P  P7  1  0.60443525  0.75000000  0.25397937  1
  C  C8  1  0.06967770  0.75000000  0.72456805  1
  C  C9  1  0.93032230  0.25000000  0.27543195  1
  O  O10  1  0.06917002  0.25000000  0.25777880  1
  O  O11  1  0.16094304  0.75000000  0.95308449  1
  O  O12  1  0.14141742  0.75000000  0.51406614  1
  O  O13  1  0.32822454  0.06297169  0.88457450  1
  O  O14  1  0.32822454  0.43702831  0.88457450  1
  O  O15  1  0.42683212  0.75000000  0.18987293  1
  O  O16  1  0.36545849  0.25000000  0.44904631  1
  O  O17  1  0.63454151  0.75000000  0.55095369  1
  O  O18  1  0.57316788  0.25000000  0.81012707  1
  O  O19  1  0.67177546  0.56297169  0.11542550  1
  O  O20  1  0.67177546  0.93702831  0.11542550  1
  O  O21  1  0.85858258  0.25000000  0.48593386  1
  O  O22  1  0.83905696  0.25000000  0.04691551  1
  O  O23  1  0.93082998  0.75000000  0.74222120  1
