# generated using pymatgen
data_Ba2YCl7
_symmetry_space_group_name_H-M   'P 1'
_cell_length_a   12.10923177
_cell_length_b   7.68799096
_cell_length_c   14.30365402
_cell_angle_alpha   90.00000000
_cell_angle_beta   90.00000000
_cell_angle_gamma   80.36298235
_symmetry_Int_Tables_number   1
_chemical_formula_structural   Ba2YCl7
_chemical_formula_sum   'Ba8 Y4 Cl28'
_cell_volume   1312.81663268
_cell_formula_units_Z   4
loop_
 _symmetry_equiv_pos_site_id
 _symmetry_equiv_pos_as_xyz
  1  'x, y, z'
loop_
 _atom_site_type_symbol
 _atom_site_label
 _atom_site_symmetry_multiplicity
 _atom_site_fract_x
 _atom_site_fract_y
 _atom_site_fract_z
 _atom_site_occupancy
  Ba  Ba0  1  0.17055623  0.32828949  0.56562554  1
  Ba  Ba1  1  0.20924339  0.19463253  0.87860378  1
  Ba  Ba2  1  0.29075661  0.80536747  0.37860378  1
  Ba  Ba3  1  0.32944377  0.67171051  0.06562554  1
  Ba  Ba4  1  0.67055623  0.32828949  0.93437446  1
  Ba  Ba5  1  0.70924339  0.19463253  0.62139622  1
  Ba  Ba6  1  0.79075661  0.80536747  0.12139622  1
  Ba  Ba7  1  0.82944377  0.67171051  0.43437446  1
  Y  Y8  1  0.01520482  0.16276807  0.20641615  1
  Y  Y9  1  0.48479518  0.83723193  0.70641615  1
  Y  Y10  1  0.51520482  0.16276807  0.29358385  1
  Y  Y11  1  0.98479518  0.83723193  0.79358385  1
  Cl  Cl12  1  0.11331123  0.82710091  0.18829762  1
  Cl  Cl13  1  0.10849718  0.15154632  0.37429364  1
  Cl  Cl14  1  0.09202308  0.63538147  0.43523368  1
  Cl  Cl15  1  0.11445364  0.85844917  0.94232130  1
  Cl  Cl16  1  0.14033372  0.32127886  0.09018891  1
  Cl  Cl17  1  0.13780155  0.99854096  0.70299812  1
  Cl  Cl18  1  0.11558564  0.52569027  0.75651458  1
  Cl  Cl19  1  0.38441436  0.47430973  0.25651458  1
  Cl  Cl20  1  0.36219845  0.00145904  0.20299812  1
  Cl  Cl21  1  0.35966628  0.67872114  0.59018891  1
  Cl  Cl22  1  0.38554636  0.14155083  0.44232130  1
  Cl  Cl23  1  0.40797692  0.36461853  0.93523368  1
  Cl  Cl24  1  0.39150282  0.84845368  0.87429364  1
  Cl  Cl25  1  0.38668877  0.17289909  0.68829762  1
  Cl  Cl26  1  0.61331123  0.82710091  0.31170238  1
  Cl  Cl27  1  0.60849718  0.15154632  0.12570636  1
  Cl  Cl28  1  0.59202308  0.63538147  0.06476632  1
  Cl  Cl29  1  0.61445364  0.85844917  0.55767870  1
  Cl  Cl30  1  0.64033372  0.32127886  0.40981109  1
  Cl  Cl31  1  0.63780155  0.99854096  0.79700188  1
  Cl  Cl32  1  0.61558564  0.52569027  0.74348542  1
  Cl  Cl33  1  0.88441436  0.47430973  0.24348542  1
  Cl  Cl34  1  0.86219845  0.00145904  0.29700188  1
  Cl  Cl35  1  0.85966628  0.67872114  0.90981109  1
  Cl  Cl36  1  0.88554636  0.14155083  0.05767870  1
  Cl  Cl37  1  0.90797692  0.36461853  0.56476632  1
  Cl  Cl38  1  0.89150282  0.84845368  0.62570636  1
  Cl  Cl39  1  0.88668877  0.17289909  0.81170238  1
