# generated using pymatgen
data_Li2AlCoO4
_symmetry_space_group_name_H-M   'P 1'
_cell_length_a   5.01307831
_cell_length_b   6.34719447
_cell_length_c   5.46340727
_cell_angle_alpha   90.00000000
_cell_angle_beta   90.00000000
_cell_angle_gamma   89.57293292
_symmetry_Int_Tables_number   1
_chemical_formula_structural   Li2AlCoO4
_chemical_formula_sum   'Li4 Al2 Co2 O8'
_cell_volume   173.83523341
_cell_formula_units_Z   2
loop_
 _symmetry_equiv_pos_site_id
 _symmetry_equiv_pos_as_xyz
  1  'x, y, z'
loop_
 _atom_site_type_symbol
 _atom_site_label
 _atom_site_symmetry_multiplicity
 _atom_site_fract_x
 _atom_site_fract_y
 _atom_site_fract_z
 _atom_site_occupancy
  Li  Li0  1  0.49634694  0.24627554  0.33550180  1
  Li  Li1  1  0.49732135  0.99615745  0.83082597  1
  Li  Li2  1  0.99634694  0.74627554  0.66449820  1
  Li  Li3  1  0.99732135  0.49615745  0.16917403  1
  Al  Al4  1  0.00249770  0.24641620  0.67372579  1
  Al  Al5  1  0.50249770  0.74641620  0.32627421  1
  Co  Co6  1  0.99824768  0.00280125  0.16686975  1
  Co  Co7  1  0.49824768  0.50280125  0.83313025  1
  O  O8  1  0.35818246  0.26113227  0.68170735  1
  O  O9  1  0.37582114  0.97708161  0.18084828  1
  O  O10  1  0.40529959  0.51534716  0.16269879  1
  O  O11  1  0.40058214  0.73188753  0.63797792  1
  O  O12  1  0.85818246  0.76113227  0.31829265  1
  O  O13  1  0.87582114  0.47708161  0.81915172  1
  O  O14  1  0.90529959  0.01534716  0.83730121  1
  O  O15  1  0.90058214  0.23188753  0.36202208  1
