# generated using pymatgen
data_Li5Mn5V2O12
_symmetry_space_group_name_H-M   'P 1'
_cell_length_a   5.24712643
_cell_length_b   5.24712673
_cell_length_c   9.95928942
_cell_angle_alpha   85.53190081
_cell_angle_beta   94.46809627
_cell_angle_gamma   59.88299053
_symmetry_Int_Tables_number   1
_chemical_formula_structural   Li5Mn5V2O12
_chemical_formula_sum   'Li5 Mn5 V2 O12'
_cell_volume   234.27885564
_cell_formula_units_Z   1
loop_
 _symmetry_equiv_pos_site_id
 _symmetry_equiv_pos_as_xyz
  1  'x, y, z'
loop_
 _atom_site_type_symbol
 _atom_site_label
 _atom_site_symmetry_multiplicity
 _atom_site_fract_x
 _atom_site_fract_y
 _atom_site_fract_z
 _atom_site_occupancy
  Li  Li0  1  0.16555593  0.66175299  0.50431094  1
  Li  Li1  1  0.32392287  0.84678281  0.99587472  1
  Li  Li2  1  0.66175299  0.16555593  0.99568906  1
  Li  Li3  1  0.84678281  0.32392287  0.50412528  1
  Li  Li4  1  0.91461285  0.91461285  0.75000000  1
  Mn  Mn5  1  0.07894586  0.07894586  0.25000000  1
  Mn  Mn6  1  0.99873072  0.50605838  0.99709027  1
  Mn  Mn7  1  0.50605838  0.99873072  0.50290973  1
  Mn  Mn8  1  0.42391315  0.42391315  0.25000000  1
  Mn  Mn9  1  0.57579146  0.57579146  0.75000000  1
  V  V10  1  0.24832610  0.24832610  0.75000000  1
  V  V11  1  0.75139090  0.75139090  0.25000000  1
  O  O12  1  0.96588527  0.23163015  0.87535267  1
  O  O13  1  0.23163015  0.96588527  0.62464733  1
  O  O14  1  0.10661397  0.39698723  0.36684497  1
  O  O15  1  0.39698723  0.10661397  0.13315503  1
  O  O16  1  0.27519689  0.52785578  0.87280519  1
  O  O17  1  0.52785578  0.27519689  0.62719481  1
  O  O18  1  0.47100302  0.72248669  0.37874599  1
  O  O19  1  0.72248669  0.47100302  0.12125401  1
  O  O20  1  0.57900657  0.91281213  0.86111174  1
  O  O21  1  0.91281213  0.57900657  0.63888826  1
  O  O22  1  0.78244305  0.03229321  0.38008162  1
  O  O23  1  0.03229321  0.78244305  0.11991838  1
