# generated using pymatgen
data_Li4Ti4Mn5O18
_symmetry_space_group_name_H-M   'P 1'
_cell_length_a   9.12685087
_cell_length_b   26.23829777
_cell_length_c   2.91091281
_cell_angle_alpha   90.00002494
_cell_angle_beta   90.00004532
_cell_angle_gamma   89.99055806
_symmetry_Int_Tables_number   1
_chemical_formula_structural   Li4Ti4Mn5O18
_chemical_formula_sum   'Li8 Ti8 Mn10 O36'
_cell_volume   697.08510368
_cell_formula_units_Z   2
loop_
 _symmetry_equiv_pos_site_id
 _symmetry_equiv_pos_as_xyz
  1  'x, y, z'
loop_
 _atom_site_type_symbol
 _atom_site_label
 _atom_site_symmetry_multiplicity
 _atom_site_fract_x
 _atom_site_fract_y
 _atom_site_fract_z
 _atom_site_occupancy
  Li  Li0  1  0.19644795  0.98500795  0.00000056  1
  Li  Li1  1  0.20372714  0.18370774  0.00000084  1
  Li  Li2  1  0.29625749  0.68370542  0.99999968  1
  Li  Li3  1  0.30361962  0.48502624  0.00000017  1
  Li  Li4  1  0.69638253  0.51496983  0.00000011  1
  Li  Li5  1  0.70375288  0.31629456  0.00000063  1
  Li  Li6  1  0.79626520  0.81628605  0.00000011  1
  Li  Li7  1  0.80355464  0.01498415  0.00000053  1
  Ti  Ti8  1  0.99510680  0.10146972  0.00000006  1
  Ti  Ti9  1  0.14780875  0.80783934  0.50000131  1
  Ti  Ti10  1  0.35219205  0.30789263  0.49999994  1
  Ti  Ti11  1  0.50488116  0.60144196  0.00000257  1
  Ti  Ti12  1  0.49512022  0.39855565  0.99999768  1
  Ti  Ti13  1  0.64779686  0.69210569  0.50000281  1
  Ti  Ti14  1  0.85219252  0.19215802  0.50000086  1
  Ti  Ti15  1  0.00489213  0.89852579  0.00000291  1
  Mn  Mn16  1  0.00000920  0.50000503  0.00000082  1
  Mn  Mn17  1  0.01071888  0.30926104  0.99999778  1
  Mn  Mn18  1  0.15289320  0.58544949  0.49999773  1
  Mn  Mn19  1  0.34711799  0.08548299  0.50000042  1
  Mn  Mn20  1  0.48929664  0.80920312  0.00000044  1
  Mn  Mn21  1  0.49999731  -0.00000291  -0.00000105  1
  Mn  Mn22  1  0.51069940  0.19079745  0.99999873  1
  Mn  Mn23  1  0.65289149  0.91451567  0.50000231  1
  Mn  Mn24  1  0.84710537  0.41456476  0.50000041  1
  Mn  Mn25  1  0.98929699  0.69075887  0.00000071  1
  O  O26  1  0.98641621  0.42590902  0.00000003  1
  O  O27  1  0.01358849  0.57410013  0.99999951  1
  O  O28  1  0.05990357  0.94201955  0.50000154  1
  O  O29  1  0.04916623  0.15521791  0.49999944  1
  O  O30  1  0.11820273  0.66694255  0.50000309  1
  O  O31  1  0.09930335  0.76346672  0.00000133  1
  O  O32  1  0.14278235  0.49954106  0.49999862  1
  O  O33  1  0.14279961  0.29114459  0.49999756  1
  O  O34  1  0.18346841  0.85858477  0.00000055  1
  O  O35  1  0.20353879  0.08384328  -0.00000023  1
  O  O36  1  0.29649079  0.58380504  0.99999723  1
  O  O37  1  0.31652689  0.35863883  0.00000002  1
  O  O38  1  0.35722378  0.79110152  0.49999565  1
  O  O39  1  0.35723050  0.99955428  0.49999868  1
  O  O40  1  0.40074261  0.26352272  0.00000010  1
  O  O41  1  0.38180759  0.16697777  0.49999746  1
  O  O42  1  0.45080153  0.65519241  0.50000064  1
  O  O43  1  0.44005796  0.44204656  0.49999895  1
  O  O44  1  0.48642234  0.07409526  0.99999907  1
  O  O45  1  0.51358289  0.92590117  0.00000164  1
  O  O46  1  0.55993654  0.55795041  0.50000134  1
  O  O47  1  0.54919357  0.34480716  0.49999965  1
  O  O48  1  0.61818925  0.83302136  0.49999705  1
  O  O49  1  0.59924042  0.73647721  0.00000287  1
  O  O50  1  0.64276497  0.00044004  0.49999991  1
  O  O51  1  0.64277076  0.20889835  0.49999874  1
  O  O52  1  0.68346115  0.64136022  0.00000145  1
  O  O53  1  0.70350589  0.41620706  0.00000182  1
  O  O54  1  0.79646604  0.91615118  0.00000293  1
  O  O55  1  0.81653167  0.14140960  0.99999871  1
  O  O56  1  0.85719352  0.70885476  0.49999992  1
  O  O57  1  0.85723427  0.50046661  0.49999981  1
  O  O58  1  0.90069918  0.23653054  -0.00000041  1
  O  O59  1  0.88179900  0.33306457  0.49999701  1
  O  O60  1  0.95083382  0.84477592  0.50000037  1
  O  O61  1  0.94009892  0.05797360  0.49999889  1
