# generated using pymatgen
data_Mg2CoO4
_symmetry_space_group_name_H-M   'P 1'
_cell_length_a   5.94614370
_cell_length_b   5.94614370
_cell_length_c   5.94614370
_cell_angle_alpha   60.00000000
_cell_angle_beta   60.00000000
_cell_angle_gamma   60.00000000
_symmetry_Int_Tables_number   1
_chemical_formula_structural   Mg2CoO4
_chemical_formula_sum   'Mg4 Co2 O8'
_cell_volume   148.65899867
_cell_formula_units_Z   2
loop_
 _symmetry_equiv_pos_site_id
 _symmetry_equiv_pos_as_xyz
  1  'x, y, z'
loop_
 _atom_site_type_symbol
 _atom_site_label
 _atom_site_symmetry_multiplicity
 _atom_site_fract_x
 _atom_site_fract_y
 _atom_site_fract_z
 _atom_site_occupancy
  Mg  Mg0  1  0.50000000  0.50000000  0.00000000  1
  Mg  Mg1  1  0.50000000  0.00000000  0.50000000  1
  Mg  Mg2  1  0.00000000  0.50000000  0.50000000  1
  Mg  Mg3  1  0.50000000  0.50000000  0.50000000  1
  Co  Co4  1  0.12500000  0.12500000  0.12500000  1
  Co  Co5  1  0.87500000  0.87500000  0.87500000  1
  O  O6  1  0.25080079  0.25080079  0.25080079  1
  O  O7  1  0.74759664  0.25080079  0.25080079  1
  O  O8  1  0.74919921  0.74919921  0.25240336  1
  O  O9  1  0.74919921  0.25240336  0.74919921  1
  O  O10  1  0.25080079  0.74759664  0.25080079  1
  O  O11  1  0.25080079  0.25080079  0.74759664  1
  O  O12  1  0.25240336  0.74919921  0.74919921  1
  O  O13  1  0.74919921  0.74919921  0.74919921  1
