# generated using pymatgen
data_Li4V5CuClO15
_symmetry_space_group_name_H-M   'P 1'
_cell_length_a   8.96325136
_cell_length_b   8.96325136
_cell_length_c   5.50150258
_cell_angle_alpha   90.00000000
_cell_angle_beta   90.00000000
_cell_angle_gamma   90.00000000
_symmetry_Int_Tables_number   1
_chemical_formula_structural   Li4V5CuClO15
_chemical_formula_sum   'Li4 V5 Cu1 Cl1 O15'
_cell_volume   441.99002927
_cell_formula_units_Z   1
loop_
 _symmetry_equiv_pos_site_id
 _symmetry_equiv_pos_as_xyz
  1  'x, y, z'
loop_
 _atom_site_type_symbol
 _atom_site_label
 _atom_site_symmetry_multiplicity
 _atom_site_fract_x
 _atom_site_fract_y
 _atom_site_fract_z
 _atom_site_occupancy
  Li  Li0  1  0.17576317  0.19007420  0.43703706  1
  Li  Li1  1  0.19007420  0.82423683  0.43703706  1
  Li  Li2  1  0.80992580  0.17576317  0.43703706  1
  Li  Li3  1  0.82423683  0.80992580  0.43703706  1
  V  V4  1  0.14012183  0.64050000  0.90125942  1
  V  V5  1  0.35950000  0.14012183  0.90125942  1
  V  V6  1  0.50000000  0.50000000  0.86539257  1
  V  V7  1  0.64050000  0.85987817  0.90125942  1
  V  V8  1  0.85987817  0.35950000  0.90125942  1
  Cu  Cu9  1  0.00000000  0.00000000  0.80360723  1
  Cl  Cl10  1  0.00000000  0.00000000  0.27041921  1
  O  O11  1  0.00000000  0.50000000  0.84439568  1
  O  O12  1  0.08708535  0.80156291  0.74575881  1
  O  O13  1  0.15463925  0.67444857  0.19855016  1
  O  O14  1  0.19843709  0.08708535  0.74575881  1
  O  O15  1  0.31275320  0.58486991  0.77802117  1
  O  O16  1  0.32555143  0.15463925  0.19855016  1
  O  O17  1  0.41513009  0.31275320  0.77802117  1
  O  O18  1  0.50000000  0.00000000  0.84439568  1
  O  O19  1  0.50000000  0.50000000  0.15835217  1
  O  O20  1  0.58486991  0.68724680  0.77802117  1
  O  O21  1  0.67444857  0.84536075  0.19855016  1
  O  O22  1  0.68724680  0.41513009  0.77802117  1
  O  O23  1  0.80156291  0.91291465  0.74575881  1
  O  O24  1  0.84536075  0.32555143  0.19855016  1
  O  O25  1  0.91291465  0.19843709  0.74575881  1
