# generated using pymatgen
data_TaNb2Zn2O8
_symmetry_space_group_name_H-M   'P 1'
_cell_length_a   5.28303431
_cell_length_b   5.97531417
_cell_length_c   10.13288000
_cell_angle_alpha   103.47572470
_cell_angle_beta   91.81457417
_cell_angle_gamma   91.92598115
_symmetry_Int_Tables_number   1
_chemical_formula_structural   TaNb2Zn2O8
_chemical_formula_sum   'Ta2 Nb4 Zn4 O16'
_cell_volume   310.63358564
_cell_formula_units_Z   2
loop_
 _symmetry_equiv_pos_site_id
 _symmetry_equiv_pos_as_xyz
  1  'x, y, z'
loop_
 _atom_site_type_symbol
 _atom_site_label
 _atom_site_symmetry_multiplicity
 _atom_site_fract_x
 _atom_site_fract_y
 _atom_site_fract_z
 _atom_site_occupancy
  Ta  Ta0  1  0.75681586  0.65253371  0.99533283  1
  Ta  Ta1  1  0.24162227  0.34453248  0.00366758  1
  Nb  Nb2  1  0.70706193  0.23974900  0.24193453  1
  Nb  Nb3  1  0.72705314  0.00710037  0.76707860  1
  Nb  Nb4  1  0.29088778  0.76109428  0.75671504  1
  Nb  Nb5  1  0.27421582  0.99125377  0.23085166  1
  Zn  Zn6  1  0.77950727  0.42651805  0.56179942  1
  Zn  Zn7  1  0.73628231  0.85787161  0.43945158  1
  Zn  Zn8  1  0.21801794  0.57372962  0.43663212  1
  Zn  Zn9  1  0.26614624  0.14685918  0.55802095  1
  O  O10  1  0.06495087  0.19715009  0.13013638  1
  O  O11  1  0.40230414  0.09287640  0.88482956  1
  O  O12  1  0.93275195  0.79800291  0.86721212  1
  O  O13  1  0.60420887  0.90820159  0.11338643  1
  O  O14  1  0.58346551  0.44192559  0.10949912  1
  O  O15  1  0.91421846  0.32681537  0.89594859  1
  O  O16  1  0.41805056  0.55778908  0.88909824  1
  O  O17  1  0.08857519  0.66784924  0.10118760  1
  O  O18  1  0.40934452  0.29581479  0.36594317  1
  O  O19  1  0.07954343  0.93290275  0.64815811  1
  O  O20  1  0.36608384  0.84448016  0.38354024  1
  O  O21  1  0.14485962  0.46069871  0.61385817  1
  O  O22  1  0.63649361  0.14986402  0.61207499  1
  O  O23  1  0.85208581  0.54176898  0.38594138  1
  O  O24  1  0.92462983  0.06955686  0.34973067  1
  O  O25  1  0.58935722  0.70154739  0.63526590  1
