# generated using pymatgen
data_LiFeBO3
_symmetry_space_group_name_H-M   'P 1'
_cell_length_a   8.88925810
_cell_length_b   9.64459287
_cell_length_c   3.18751600
_cell_angle_alpha   90.00000000
_cell_angle_beta   90.80401786
_cell_angle_gamma   90.00000000
_symmetry_Int_Tables_number   1
_chemical_formula_structural   LiFeBO3
_chemical_formula_sum   'Li4 Fe4 B4 O12'
_cell_volume   273.24928100
_cell_formula_units_Z   4
loop_
 _symmetry_equiv_pos_site_id
 _symmetry_equiv_pos_as_xyz
  1  'x, y, z'
loop_
 _atom_site_type_symbol
 _atom_site_label
 _atom_site_symmetry_multiplicity
 _atom_site_fract_x
 _atom_site_fract_y
 _atom_site_fract_z
 _atom_site_occupancy
  Li  Li0  1  0.12761445  0.72387212  0.23899954  1
  Li  Li1  1  0.37238555  0.22387212  0.26100046  1
  Li  Li2  1  0.62761445  0.77612788  0.73899954  1
  Li  Li3  1  0.87238555  0.27612788  0.76100046  1
  Fe  Fe4  1  0.27308631  0.44845549  0.73958298  1
  Fe  Fe5  1  0.22691369  0.94845549  0.76041702  1
  Fe  Fe6  1  0.77308631  0.05154451  0.23958298  1
  Fe  Fe7  1  0.72691369  0.55154451  0.26041702  1
  B  B8  1  0.10460058  0.20440776  0.25950547  1
  B  B9  1  0.39539942  0.70440776  0.24049453  1
  B  B10  1  0.60460058  0.29559224  0.75950547  1
  B  B11  1  0.89539942  0.79559224  0.74049453  1
  O  O12  1  0.04845073  0.81140887  0.73033048  1
  O  O13  1  0.16601390  0.33768280  0.24662271  1
  O  O14  1  0.20512546  0.09223231  0.26279283  1
  O  O15  1  0.29487454  0.59223231  0.23720717  1
  O  O16  1  0.45154927  0.31140887  0.76966952  1
  O  O17  1  0.33398610  0.83768280  0.25337729  1
  O  O18  1  0.66601390  0.16231720  0.74662271  1
  O  O19  1  0.54845073  0.68859113  0.23033048  1
  O  O20  1  0.70512546  0.40776769  0.76279283  1
  O  O21  1  0.79487454  0.90776769  0.73720717  1
  O  O22  1  0.83398610  0.66231720  0.75337729  1
  O  O23  1  0.95154927  0.18859113  0.26966952  1
