# generated using pymatgen
data_BaLaI5
_symmetry_space_group_name_H-M   'P 1'
_cell_length_a   8.80637386
_cell_length_b   15.85232159
_cell_length_c   12.11670030
_cell_angle_alpha   90.00000000
_cell_angle_beta   109.80090802
_cell_angle_gamma   90.00000000
_symmetry_Int_Tables_number   1
_chemical_formula_structural   BaLaI5
_chemical_formula_sum   'Ba4 La4 I20'
_cell_volume   1591.49937640
_cell_formula_units_Z   4
loop_
 _symmetry_equiv_pos_site_id
 _symmetry_equiv_pos_as_xyz
  1  'x, y, z'
loop_
 _atom_site_type_symbol
 _atom_site_label
 _atom_site_symmetry_multiplicity
 _atom_site_fract_x
 _atom_site_fract_y
 _atom_site_fract_z
 _atom_site_occupancy
  Ba  Ba0  1  0.46379696  0.02465250  0.74064440  1
  Ba  Ba1  1  0.53620304  0.52465250  0.75935560  1
  Ba  Ba2  1  0.46379696  0.47534750  0.24064440  1
  Ba  Ba3  1  0.53620304  0.97534750  0.25935560  1
  La  La4  1  0.10713207  0.25349483  0.90048608  1
  La  La5  1  0.10713207  0.24650517  0.40048608  1
  La  La6  1  0.89286793  0.75349483  0.59951392  1
  La  La7  1  0.89286793  0.74650517  0.09951392  1
  I  I8  1  0.12345002  0.90494022  0.69439145  1
  I  I9  1  0.16136371  0.19320059  0.66503084  1
  I  I10  1  0.17938808  0.63084304  0.63770512  1
  I  I11  1  0.36981437  0.10621992  0.99939171  1
  I  I12  1  0.40215004  0.38598148  0.94548801  1
  I  I13  1  0.12345002  0.59505978  0.19439145  1
  I  I14  1  0.16136371  0.30679941  0.16503084  1
  I  I15  1  0.17938808  0.86915696  0.13770512  1
  I  I16  1  0.36981437  0.39378008  0.49939171  1
  I  I17  1  0.40215004  0.11401852  0.44548801  1
  I  I18  1  0.59784996  0.88598148  0.55451199  1
  I  I19  1  0.63018563  0.60621992  0.50060829  1
  I  I20  1  0.82061192  0.13084304  0.86229488  1
  I  I21  1  0.83863629  0.69320059  0.83496916  1
  I  I22  1  0.87654998  0.40494022  0.80560855  1
  I  I23  1  0.59784996  0.61401852  0.05451199  1
  I  I24  1  0.63018563  0.89378008  0.00060829  1
  I  I25  1  0.82061192  0.36915696  0.36229488  1
  I  I26  1  0.83863629  0.80679941  0.33496916  1
  I  I27  1  0.87654998  0.09505978  0.30560855  1
