# generated using pymatgen
data_Li5MnO5
_symmetry_space_group_name_H-M   'P 1'
_cell_length_a   3.92354496
_cell_length_b   5.14719223
_cell_length_c   5.78243193
_cell_angle_alpha   72.60035481
_cell_angle_beta   89.99703547
_cell_angle_gamma   67.59014367
_symmetry_Int_Tables_number   1
_chemical_formula_structural   Li5MnO5
_chemical_formula_sum   'Li5 Mn1 O5'
_cell_volume   102.15564580
_cell_formula_units_Z   1
loop_
 _symmetry_equiv_pos_site_id
 _symmetry_equiv_pos_as_xyz
  1  'x, y, z'
loop_
 _atom_site_type_symbol
 _atom_site_label
 _atom_site_symmetry_multiplicity
 _atom_site_fract_x
 _atom_site_fract_y
 _atom_site_fract_z
 _atom_site_occupancy
  Li  Li0  1  0.67809139  0.64390813  0.87997111  1
  Li  Li1  1  0.69099692  0.60956934  0.34694281  1
  Li  Li2  1  0.28844321  0.41447399  0.68339468  1
  Li  Li3  1  0.30974057  0.38049354  0.15116021  1
  Li  Li4  1  -0.00300463  0.01115246  0.51504847  1
  Mn  Mn5  1  0.99180095  0.01209013  0.01544672  1
  O  O6  1  0.13518730  0.72752274  0.84268365  1
  O  O7  1  0.49167148  0.01187447  0.01525490  1
  O  O8  1  0.14508186  0.70342154  0.32873197  1
  O  O9  1  0.83650348  0.32015761  0.70181596  1
  O  O10  1  0.85057747  0.29651505  0.18768053  1
