# generated using pymatgen
data_ZnSn2P2O9
_symmetry_space_group_name_H-M   'P 1'
_cell_length_a   6.44205687
_cell_length_b   8.16937107
_cell_length_c   16.27933653
_cell_angle_alpha   89.99080393
_cell_angle_beta   89.99999537
_cell_angle_gamma   89.99999592
_symmetry_Int_Tables_number   1
_chemical_formula_structural   ZnSn2P2O9
_chemical_formula_sum   'Zn4 Sn8 P8 O36'
_cell_volume   856.74163569
_cell_formula_units_Z   4
loop_
 _symmetry_equiv_pos_site_id
 _symmetry_equiv_pos_as_xyz
  1  'x, y, z'
loop_
 _atom_site_type_symbol
 _atom_site_label
 _atom_site_symmetry_multiplicity
 _atom_site_fract_x
 _atom_site_fract_y
 _atom_site_fract_z
 _atom_site_occupancy
  Zn  Zn0  1  0.75000275  0.01328559  0.81213129  1
  Zn  Zn1  1  0.74999963  0.48667141  0.31218402  1
  Zn  Zn2  1  0.24999964  0.51323360  0.68789147  1
  Zn  Zn3  1  0.25000291  0.98665114  0.18783152  1
  Sn  Sn4  1  0.75000033  0.37912264  0.88545673  1
  Sn  Sn5  1  0.25000021  0.62084399  0.11450061  1
  Sn  Sn6  1  0.25000176  0.87904132  0.61455255  1
  Sn  Sn7  1  0.74999982  0.12087750  0.38549194  1
  Sn  Sn8  1  0.49999218  0.00003883  0.99997823  1
  Sn  Sn9  1  0.49997228  0.49994640  0.50002407  1
  Sn  Sn10  1  0.00002751  0.49994784  0.50002521  1
  Sn  Sn11  1  0.00000913  0.00000974  0.99999353  1
  P  P12  1  0.25000033  0.38767039  0.93638824  1
  P  P13  1  0.75000036  0.61247270  0.06353664  1
  P  P14  1  0.75000183  0.88757526  0.56357762  1
  P  P15  1  0.25000135  0.11242572  0.43648184  1
  P  P16  1  0.74999964  0.40063601  0.71031560  1
  P  P17  1  0.75000000  0.09942597  0.21034478  1
  P  P18  1  0.24999910  0.90055294  0.78967412  1
  P  P19  1  0.24999960  0.59934385  0.28966572  1
  O  O20  1  0.04891364  0.57546696  0.34206493  1
  O  O21  1  0.54890709  0.42448915  0.65792247  1
  O  O22  1  0.95110124  0.07556106  0.15792589  1
  O  O23  1  0.45111218  0.92438996  0.84208863  1
  O  O24  1  0.95109073  0.42449085  0.65792211  1
  O  O25  1  0.45108425  0.57546612  0.34206525  1
  O  O26  1  0.04888476  0.92438820  0.84208700  1
  O  O27  1  0.54889749  0.07556423  0.15792711  1
  O  O28  1  0.25000388  0.27713241  0.48353001  1
  O  O29  1  0.75000400  0.72285834  0.51653051  1
  O  O30  1  0.75000374  0.77718237  0.01651897  1
  O  O31  1  0.25000229  0.22296873  0.98341437  1
  O  O32  1  0.74999510  0.14226074  0.91947551  1
  O  O33  1  0.24999531  0.85771090  0.08048747  1
  O  O34  1  0.24999835  0.64217865  0.58052912  1
  O  O35  1  0.74999745  0.35771173  0.41953025  1
  O  O36  1  0.75000054  0.23179597  0.75603574  1
  O  O37  1  0.25000050  0.76819472  0.24395785  1
  O  O38  1  0.25000174  0.73172604  0.74398026  1
  O  O39  1  0.75000354  0.26825191  0.25602651  1
  O  O40  1  0.43607028  0.09676073  0.37703768  1
  O  O41  1  0.93607543  0.90325761  0.62302083  1
  O  O42  1  0.56392378  0.59668268  0.12296759  1
  O  O43  1  0.06391261  0.40344832  0.87695401  1
  O  O44  1  0.56392865  0.90325333  0.62302144  1
  O  O45  1  0.06392977  0.09676265  0.37703938  1
  O  O46  1  0.43608705  0.40344880  0.87695314  1
  O  O47  1  0.93607631  0.59667909  0.12296779  1
  O  O48  1  0.74999814  0.46692427  0.00247885  1
  O  O49  1  0.25000148  0.02782175  0.71675640  1
  O  O50  1  0.25000117  0.47209017  0.21672624  1
  O  O51  1  0.74999992  0.52791219  0.78324139  1
  O  O52  1  0.74999781  0.03313289  0.50255037  1
  O  O53  1  0.25000206  0.96687133  0.49751219  1
  O  O54  1  0.25000033  0.53323341  0.99743592  1
  O  O55  1  0.75000205  0.97215891  0.28327011  1
