# generated using pymatgen
data_BaLaCl5
_symmetry_space_group_name_H-M   'P 1'
_cell_length_a   7.13334650
_cell_length_b   12.46689363
_cell_length_c   9.97785972
_cell_angle_alpha   90.00000000
_cell_angle_beta   87.12192384
_cell_angle_gamma   90.00000000
_symmetry_Int_Tables_number   1
_chemical_formula_structural   BaLaCl5
_chemical_formula_sum   'Ba4 La4 Cl20'
_cell_volume   886.21852151
_cell_formula_units_Z   4
loop_
 _symmetry_equiv_pos_site_id
 _symmetry_equiv_pos_as_xyz
  1  'x, y, z'
loop_
 _atom_site_type_symbol
 _atom_site_label
 _atom_site_symmetry_multiplicity
 _atom_site_fract_x
 _atom_site_fract_y
 _atom_site_fract_z
 _atom_site_occupancy
  Ba  Ba0  1  0.03399664  0.02749537  0.82393064  1
  Ba  Ba1  1  0.44935850  0.36313310  0.62501422  1
  Ba  Ba2  1  0.55064150  0.86313310  0.37498578  1
  Ba  Ba3  1  0.96600336  0.52749537  0.17606936  1
  La  La4  1  0.98613007  0.62106040  0.61268188  1
  La  La5  1  0.52511282  0.21370572  0.10580176  1
  La  La6  1  0.47488718  0.71370572  0.89419824  1
  La  La7  1  0.01386993  0.12106040  0.38731812  1
  Cl  Cl8  1  0.95503797  0.77061931  0.41112397  1
  Cl  Cl9  1  0.18890238  0.52880512  0.82832519  1
  Cl  Cl10  1  0.14778301  0.28964301  0.21470327  1
  Cl  Cl11  1  0.23012963  0.51462789  0.43076089  1
  Cl  Cl12  1  0.31080394  0.22179990  0.87797789  1
  Cl  Cl13  1  0.26814543  0.01982609  0.55226653  1
  Cl  Cl14  1  0.20273320  0.72429694  0.09485913  1
  Cl  Cl15  1  0.35181771  0.73856009  0.62545064  1
  Cl  Cl16  1  0.31502943  0.03202504  0.21372388  1
  Cl  Cl17  1  0.42882178  0.93290203  0.88814611  1
  Cl  Cl18  1  0.57117822  0.43290203  0.11185389  1
  Cl  Cl19  1  0.68497057  0.53202504  0.78627612  1
  Cl  Cl20  1  0.64818229  0.23856009  0.37454936  1
  Cl  Cl21  1  0.79726680  0.22429694  0.90514087  1
  Cl  Cl22  1  0.73185457  0.51982609  0.44773347  1
  Cl  Cl23  1  0.68919606  0.72179990  0.12202211  1
  Cl  Cl24  1  0.76987037  0.01462789  0.56923911  1
  Cl  Cl25  1  0.85221699  0.78964301  0.78529673  1
  Cl  Cl26  1  0.81109762  0.02880512  0.17167481  1
  Cl  Cl27  1  0.04496203  0.27061931  0.58887603  1
