# generated using pymatgen
data_Li4Mn3V2Cr3O16
_symmetry_space_group_name_H-M   'P 1'
_cell_length_a   5.88593099
_cell_length_b   5.86221719
_cell_length_c   9.50950769
_cell_angle_alpha   90.05653933
_cell_angle_beta   90.46434627
_cell_angle_gamma   119.24952337
_symmetry_Int_Tables_number   1
_chemical_formula_structural   Li4Mn3V2Cr3O16
_chemical_formula_sum   'Li4 Mn3 V2 Cr3 O16'
_cell_volume   286.27230353
_cell_formula_units_Z   1
loop_
 _symmetry_equiv_pos_site_id
 _symmetry_equiv_pos_as_xyz
  1  'x, y, z'
loop_
 _atom_site_type_symbol
 _atom_site_label
 _atom_site_symmetry_multiplicity
 _atom_site_fract_x
 _atom_site_fract_y
 _atom_site_fract_z
 _atom_site_occupancy
  Li  Li0  1  0.33665346  0.66617061  0.89903221  1
  Li  Li1  1  0.99280568  0.99793336  0.99570773  1
  Li  Li2  1  0.99582965  0.99924244  0.49407382  1
  Li  Li3  1  0.67609019  0.33640730  0.39497866  1
  Mn  Mn4  1  0.65865572  0.82931040  0.21497348  1
  Mn  Mn5  1  0.82872826  0.66311743  0.71331294  1
  Mn  Mn6  1  0.83198312  0.17162561  0.71453839  1
  V  V7  1  0.32237716  0.66911094  0.48733551  1
  V  V8  1  0.65278168  0.33030439  0.99051804  1
  Cr  Cr9  1  0.16984486  0.83064561  0.21261007  1
  Cr  Cr10  1  0.16989265  0.33848619  0.21291848  1
  Cr  Cr11  1  0.34060553  0.17133661  0.71424756  1
  O  O12  1  0.19465804  0.84503427  0.58830211  1
  O  O13  1  0.04457277  0.52361925  0.34380506  1
  O  O14  1  0.34277864  0.67015076  0.10731013  1
  O  O15  1  0.98993683  0.99623941  0.30771012  1
  O  O16  1  0.99794061  -0.00003902  0.80754553  1
  O  O17  1  0.15918990  0.32940598  0.59828081  1
  O  O18  1  0.48567376  0.96190315  0.33834527  1
  O  O19  1  0.48800287  0.52973404  0.34168334  1
  O  O20  1  0.32839582  0.16260832  0.09624820  1
  O  O21  1  0.67422449  0.83786501  0.60049243  1
  O  O22  1  0.50676802  0.46038474  0.85497079  1
  O  O23  1  0.53103503  0.03937700  0.83802182  1
  O  O24  1  0.67290859  0.33535708  0.60870621  1
  O  O25  1  0.82405834  0.66461936  0.09763202  1
  O  O26  1  0.96116992  0.47736681  0.83764772  1
  O  O27  1  0.82243741  0.16298293  0.09688855  1
