# generated using pymatgen
data_Mn3V2Co3O16
_symmetry_space_group_name_H-M   'P 1'
_cell_length_a   5.70018679
_cell_length_b   5.71169066
_cell_length_c   8.83426054
_cell_angle_alpha   89.85822118
_cell_angle_beta   90.81867791
_cell_angle_gamma   120.18588715
_symmetry_Int_Tables_number   1
_chemical_formula_structural   Mn3V2Co3O16
_chemical_formula_sum   'Mn3 V2 Co3 O16'
_cell_volume   248.59207514
_cell_formula_units_Z   1
loop_
 _symmetry_equiv_pos_site_id
 _symmetry_equiv_pos_as_xyz
  1  'x, y, z'
loop_
 _atom_site_type_symbol
 _atom_site_label
 _atom_site_symmetry_multiplicity
 _atom_site_fract_x
 _atom_site_fract_y
 _atom_site_fract_z
 _atom_site_occupancy
  Mn  Mn0  1  0.66259293  0.83319296  0.21306103  1
  Mn  Mn1  1  0.83056681  0.66208912  0.71438862  1
  Mn  Mn2  1  0.83078627  0.16894117  0.71435710  1
  V  V3  1  0.32299624  0.66393914  0.49856850  1
  V  V4  1  0.65614392  0.33058478  0.00085314  1
  Co  Co5  1  0.17060723  0.83016540  0.21183782  1
  Co  Co6  1  0.17137112  0.33966033  0.21460840  1
  Co  Co7  1  0.33982523  0.17018000  0.71167559  1
  O  O8  1  0.17241308  0.82940886  0.59492659  1
  O  O9  1  0.04630456  0.52166455  0.33578703  1
  O  O10  1  0.32408542  0.65807470  0.10552748  1
  O  O11  1  0.01180620  0.00952518  0.31108589  1
  O  O12  1  0.00358508  0.00173007  0.81650267  1
  O  O13  1  0.17309233  0.34400590  0.59547144  1
  O  O14  1  0.48030498  0.95872386  0.33811560  1
  O  O15  1  0.47788746  0.51725292  0.33749142  1
  O  O16  1  0.34215866  0.17062548  0.09749588  1
  O  O17  1  0.65733708  0.82837937  0.59359465  1
  O  O18  1  0.51989585  0.47654922  0.83826057  1
  O  O19  1  0.51998416  0.04318005  0.83839555  1
  O  O20  1  0.66632254  0.33347023  0.60202215  1
  O  O21  1  0.82709685  0.65481216  0.09592143  1
  O  O22  1  0.96442661  0.48225411  0.83940552  1
  O  O23  1  0.82840740  0.17179043  0.09636691  1
