# generated using pymatgen
data_Li4Mn5Ni3O16
_symmetry_space_group_name_H-M   'P 1'
_cell_length_a   5.80790990
_cell_length_b   5.74849072
_cell_length_c   9.36856887
_cell_angle_alpha   89.99861456
_cell_angle_beta   91.64162111
_cell_angle_gamma   119.66275016
_symmetry_Int_Tables_number   1
_chemical_formula_structural   Li4Mn5Ni3O16
_chemical_formula_sum   'Li4 Mn5 Ni3 O16'
_cell_volume   271.64863015
_cell_formula_units_Z   1
loop_
 _symmetry_equiv_pos_site_id
 _symmetry_equiv_pos_as_xyz
  1  'x, y, z'
loop_
 _atom_site_type_symbol
 _atom_site_label
 _atom_site_symmetry_multiplicity
 _atom_site_fract_x
 _atom_site_fract_y
 _atom_site_fract_z
 _atom_site_occupancy
  Li  Li0  1  0.32622232  0.66311350  0.89699880  1
  Li  Li1  1  0.98831654  0.99415041  0.99096289  1
  Li  Li2  1  0.00282596  0.00143802  0.49664795  1
  Li  Li3  1  0.66627659  0.33315173  0.39922138  1
  Mn  Mn4  1  0.17077831  0.83172393  0.21357852  1
  Mn  Mn5  1  0.34308730  0.67155899  0.48709847  1
  Mn  Mn6  1  0.17079295  0.33906220  0.21357577  1
  Mn  Mn7  1  0.34514920  0.17258983  0.71506882  1
  Mn  Mn8  1  0.67464699  0.33732226  0.98308610  1
  Ni  Ni9  1  0.65950496  0.82976318  0.21190745  1
  Ni  Ni10  1  0.83103228  0.66203826  0.71155525  1
  Ni  Ni11  1  0.83103151  0.16903756  0.71155743  1
  O  O12  1  0.18289960  0.84104562  0.59772670  1
  O  O13  1  0.03831941  0.51915240  0.33722597  1
  O  O14  1  0.31599563  0.65800865  0.10589370  1
  O  O15  1  0.01033508  0.00516710  0.30735356  1
  O  O16  1  0.00758944  0.00379269  0.80119957  1
  O  O17  1  0.18290392  0.34189535  0.59773028  1
  O  O18  1  0.46997272  0.96129873  0.34619310  1
  O  O19  1  0.46998969  0.50871717  0.34619383  1
  O  O20  1  0.32601403  0.16301119  0.10208144  1
  O  O21  1  0.67450886  0.83727618  0.59321552  1
  O  O22  1  0.50712555  0.47195631  0.84740218  1
  O  O23  1  0.50712042  0.03518300  0.84740130  1
  O  O24  1  0.66158939  0.33084618  0.61040946  1
  O  O25  1  0.84163099  0.66697121  0.09572238  1
  O  O26  1  0.95269865  0.47637464  0.84511751  1
  O  O27  1  0.84164072  0.17465069  0.09571571  1
