# generated using pymatgen
data_Mn2AlO4
_symmetry_space_group_name_H-M   'P 1'
_cell_length_a   10.42931653
_cell_length_b   6.28723202
_cell_length_c   4.96629573
_cell_angle_alpha   90.00000000
_cell_angle_beta   90.00000000
_cell_angle_gamma   90.00000000
_symmetry_Int_Tables_number   1
_chemical_formula_structural   Mn2AlO4
_chemical_formula_sum   'Mn8 Al4 O16'
_cell_volume   325.64762352
_cell_formula_units_Z   4
loop_
 _symmetry_equiv_pos_site_id
 _symmetry_equiv_pos_as_xyz
  1  'x, y, z'
loop_
 _atom_site_type_symbol
 _atom_site_label
 _atom_site_symmetry_multiplicity
 _atom_site_fract_x
 _atom_site_fract_y
 _atom_site_fract_z
 _atom_site_occupancy
  Mn  Mn0  1  0.00000000  0.00000000  0.00000000  1
  Mn  Mn1  1  0.00000000  0.50000000  0.00000000  1
  Mn  Mn2  1  0.22169203  0.75000000  0.47259437  1
  Mn  Mn3  1  0.27830797  0.25000000  0.97259437  1
  Mn  Mn4  1  0.50000000  0.00000000  0.50000000  1
  Mn  Mn5  1  0.50000000  0.50000000  0.50000000  1
  Mn  Mn6  1  0.72169203  0.75000000  0.02740563  1
  Mn  Mn7  1  0.77830797  0.25000000  0.52740563  1
  Al  Al8  1  0.09002078  0.25000000  0.42374646  1
  Al  Al9  1  0.40997922  0.75000000  0.92374646  1
  Al  Al10  1  0.59002078  0.25000000  0.07625354  1
  Al  Al11  1  0.90997922  0.75000000  0.57625354  1
  O  O12  1  0.06354410  0.75000000  0.75157551  1
  O  O13  1  0.09479100  0.25000000  0.77146548  1
  O  O14  1  0.14988139  0.02071651  0.24937821  1
  O  O15  1  0.14988139  0.47928349  0.24937821  1
  O  O16  1  0.35011861  0.52071651  0.74937821  1
  O  O17  1  0.35011861  0.97928349  0.74937821  1
  O  O18  1  0.40520900  0.75000000  0.27146548  1
  O  O19  1  0.43645590  0.25000000  0.25157551  1
  O  O20  1  0.56354410  0.75000000  0.74842449  1
  O  O21  1  0.59479100  0.25000000  0.72853452  1
  O  O22  1  0.64988139  0.02071651  0.25062179  1
  O  O23  1  0.64988139  0.47928349  0.25062179  1
  O  O24  1  0.85011861  0.52071651  0.75062179  1
  O  O25  1  0.85011861  0.97928349  0.75062179  1
  O  O26  1  0.90520900  0.75000000  0.22853452  1
  O  O27  1  0.93645590  0.25000000  0.24842449  1
