# generated using pymatgen
data_Li6Cr3Co(PO4)6
_symmetry_space_group_name_H-M   'P 1'
_cell_length_a   8.48080850
_cell_length_b   8.51519018
_cell_length_c   8.51326309
_cell_angle_alpha   61.42202575
_cell_angle_beta   61.44284680
_cell_angle_gamma   61.45099985
_symmetry_Int_Tables_number   1
_chemical_formula_structural   Li6Cr3Co(PO4)6
_chemical_formula_sum   'Li6 Cr3 Co1 P6 O24'
_cell_volume   448.76771033
_cell_formula_units_Z   1
loop_
 _symmetry_equiv_pos_site_id
 _symmetry_equiv_pos_as_xyz
  1  'x, y, z'
loop_
 _atom_site_type_symbol
 _atom_site_label
 _atom_site_symmetry_multiplicity
 _atom_site_fract_x
 _atom_site_fract_y
 _atom_site_fract_z
 _atom_site_occupancy
  Li  Li0  1  0.02320698  0.00188265  0.99237173  1
  Li  Li1  1  0.75018667  0.15065138  0.34924167  1
  Li  Li2  1  0.47572367  0.50544587  0.49737696  1
  Li  Li3  1  0.23580776  0.84999458  0.65537376  1
  Li  Li4  1  0.65671883  0.23448939  0.84728084  1
  Li  Li5  1  0.84802123  0.65815770  0.23253298  1
  Cr  Cr6  1  0.14008087  0.14347812  0.13801572  1
  Cr  Cr7  1  0.35966825  0.36224885  0.35623537  1
  Cr  Cr8  1  0.64239794  0.64473335  0.64391338  1
  Co  Co9  1  0.85793924  0.85638457  0.85572962  1
  P  P10  1  0.04490041  0.75049235  0.45823488  1
  P  P11  1  0.45783342  0.04490160  0.75026209  1
  P  P12  1  0.75036150  0.46198511  0.04153018  1
  P  P13  1  0.24747444  0.54057673  0.95981334  1
  P  P14  1  0.54268165  0.96371058  0.24741357  1
  P  P15  1  0.95809148  0.24704004  0.53730657  1
  O  O16  1  0.12967858  0.28835196  0.49998467  1
  O  O17  1  0.29864355  0.51381157  0.12064356  1
  O  O18  1  0.04354617  0.92268764  0.27251971  1
  O  O19  1  0.53266627  0.12193042  0.29422868  1
  O  O20  1  0.23709902  0.59133202  0.43534724  1
  O  O21  1  0.02088462  0.80173397  0.62249694  1
  O  O22  1  0.26520105  0.06568027  0.90907877  1
  O  O23  1  0.45767359  0.23017307  0.57742824  1
  O  O24  1  0.59274025  0.43703333  0.23831167  1
  O  O25  1  0.20174535  0.37671889  0.98682842  1
  O  O26  1  0.07932679  0.73579869  0.94307103  1
  O  O27  1  0.36790743  0.00123346  0.21209347  1
  O  O28  1  0.62269464  0.01667278  0.80413153  1
  O  O29  1  0.90767823  0.26490713  0.06383256  1
  O  O30  1  0.80433036  0.62347260  0.01694474  1
  O  O31  1  0.40668219  0.56984607  0.76247144  1
  O  O32  1  0.56934249  0.76706696  0.40646657  1
  O  O33  1  0.73403983  0.94365470  0.07669491  1
  O  O34  1  0.96785624  0.20604490  0.37593816  1
  O  O35  1  0.76454033  0.40842260  0.57087638  1
  O  O36  1  0.48429850  0.88334768  0.69627443  1
  O  O37  1  0.94406032  0.07870389  0.73136003  1
  O  O38  1  0.69379900  0.48964347  0.88247808  1
  O  O39  1  0.88246985  0.69455910  0.48886912  1
