# generated using pymatgen
data_Na6Cu2As(CO4)4
_symmetry_space_group_name_H-M   'P 1'
_cell_length_a   9.85479104
_cell_length_b   9.85479104
_cell_length_c   9.85479160
_cell_angle_alpha   120.00000016
_cell_angle_beta   59.99999984
_cell_angle_gamma   120.00000026
_symmetry_Int_Tables_number   1
_chemical_formula_structural   Na6Cu2As(CO4)4
_chemical_formula_sum   'Na12 Cu4 As2 C8 O32'
_cell_volume   676.74847316
_cell_formula_units_Z   2
loop_
 _symmetry_equiv_pos_site_id
 _symmetry_equiv_pos_as_xyz
  1  'x, y, z'
loop_
 _atom_site_type_symbol
 _atom_site_label
 _atom_site_symmetry_multiplicity
 _atom_site_fract_x
 _atom_site_fract_y
 _atom_site_fract_z
 _atom_site_occupancy
  Na  Na0  1  0.08689528  0.41310472  0.66310472  1
  Na  Na1  1  0.33689528  0.16310472  0.91310472  1
  Na  Na2  1  0.33689528  0.58689528  0.33689528  1
  Na  Na3  1  0.08689528  0.83689528  0.08689528  1
  Na  Na4  1  0.08689528  0.83689528  0.66310472  1
  Na  Na5  1  0.33689528  0.58689528  0.91310472  1
  Na  Na6  1  0.91310472  0.16310472  0.91310472  1
  Na  Na7  1  0.91310472  0.16310472  0.33689528  1
  Na  Na8  1  0.66310472  0.41310472  0.08689528  1
  Na  Na9  1  0.66310472  0.41310472  0.66310472  1
  Na  Na10  1  0.91310472  0.58689528  0.33689528  1
  Na  Na11  1  0.66310472  0.83689528  0.08689528  1
  Cu  Cu12  1  0.00000000  0.00000000  0.50000000  1
  Cu  Cu13  1  0.50000000  0.00000000  0.50000000  1
  Cu  Cu14  1  0.50000000  0.00000000  0.00000000  1
  Cu  Cu15  1  0.50000000  0.50000000  0.50000000  1
  As  As16  1  0.12500000  0.37500000  0.12500000  1
  As  As17  1  0.87500000  0.62500000  0.87500000  1
  C  C18  1  0.28314853  0.21685147  0.65055340  1
  C  C19  1  0.28314853  0.21685147  0.28314853  1
  C  C20  1  0.65055340  0.21685147  0.28314853  1
  C  C21  1  0.71685147  0.15055340  0.71685147  1
  C  C22  1  0.34944660  0.78314853  0.71685147  1
  C  C23  1  0.28314853  0.84944660  0.28314853  1
  C  C24  1  0.71685147  0.78314853  0.71685147  1
  C  C25  1  0.71685147  0.78314853  0.34944660  1
  O  O26  1  0.14059574  0.10011417  0.65333990  1
  O  O27  1  0.05402805  0.16208314  0.05402805  1
  O  O28  1  0.14059574  0.19382248  0.39988583  1
  O  O29  1  0.30617752  0.10011417  0.14059574  1
  O  O30  1  0.05402805  0.44597195  0.33791686  1
  O  O31  1  0.05402805  0.44597195  0.05402805  1
  O  O32  1  0.39988583  0.19382248  0.65333990  1
  O  O33  1  0.30617752  0.35940426  0.65333990  1
  O  O34  1  0.33791686  0.44597195  0.05402805  1
  O  O35  1  0.60011417  0.15333990  0.85940426  1
  O  O36  1  0.65333990  0.10011417  0.30617752  1
  O  O37  1  0.39988583  0.35940426  0.30617752  1
  O  O38  1  0.65333990  0.19382248  0.14059574  1
  O  O39  1  0.69382248  0.15333990  0.60011417  1
  O  O40  1  0.14059574  0.84666010  0.30617752  1
  O  O41  1  0.34666010  0.64059574  0.60011417  1
  O  O42  1  0.65333990  0.35940426  0.39988583  1
  O  O43  1  0.85940426  0.15333990  0.69382248  1
  O  O44  1  0.30617752  0.84666010  0.39988583  1
  O  O45  1  0.34666010  0.80617752  0.85940426  1
  O  O46  1  0.60011417  0.64059574  0.69382248  1
  O  O47  1  0.39988583  0.84666010  0.14059574  1
  O  O48  1  0.34666010  0.89988583  0.69382248  1
  O  O49  1  0.66208314  0.55402805  0.94597195  1
  O  O50  1  0.69382248  0.64059574  0.34666010  1
  O  O51  1  0.60011417  0.80617752  0.34666010  1
  O  O52  1  0.94597195  0.55402805  0.94597195  1
  O  O53  1  0.94597195  0.55402805  0.66208314  1
  O  O54  1  0.69382248  0.89988583  0.85940426  1
  O  O55  1  0.85940426  0.80617752  0.60011417  1
  O  O56  1  0.94597195  0.83791686  0.94597195  1
  O  O57  1  0.85940426  0.89988583  0.34666010  1
