# generated using pymatgen
data_Li4Co3Sb5O16
_symmetry_space_group_name_H-M   'P 1'
_cell_length_a   6.25199727
_cell_length_b   6.19236246
_cell_length_c   10.26463345
_cell_angle_alpha   90.00340342
_cell_angle_beta   90.38929799
_cell_angle_gamma   119.68329316
_symmetry_Int_Tables_number   1
_chemical_formula_structural   Li4Co3Sb5O16
_chemical_formula_sum   'Li4 Co3 Sb5 O16'
_cell_volume   345.23354257
_cell_formula_units_Z   1
loop_
 _symmetry_equiv_pos_site_id
 _symmetry_equiv_pos_as_xyz
  1  'x, y, z'
loop_
 _atom_site_type_symbol
 _atom_site_label
 _atom_site_symmetry_multiplicity
 _atom_site_fract_x
 _atom_site_fract_y
 _atom_site_fract_z
 _atom_site_occupancy
  Li  Li0  1  0.32386536  0.66194467  0.88954490  1
  Li  Li1  1  0.98774207  0.99388416  0.98756909  1
  Li  Li2  1  0.99457856  0.99732944  0.50348480  1
  Li  Li3  1  0.64652543  0.32325685  0.39958066  1
  Co  Co4  1  0.66074586  0.83035344  0.21367259  1
  Co  Co5  1  0.83574522  0.66442121  0.71365922  1
  Co  Co6  1  0.83579548  0.17136939  0.71366544  1
  Sb  Sb7  1  0.16529812  0.83077404  0.21564793  1
  Sb  Sb8  1  0.35810756  0.67905082  0.51075700  1
  Sb  Sb9  1  0.16525540  0.33451260  0.21562091  1
  Sb  Sb10  1  0.34245402  0.17120926  0.71763316  1
  Sb  Sb11  1  0.69374764  0.34693779  0.97382510  1
  O  O12  1  0.17819582  0.85517920  0.60427971  1
  O  O13  1  0.01046939  0.50527851  0.32032885  1
  O  O14  1  0.30930529  0.65463301  0.10588770  1
  O  O15  1  0.01358981  0.00686872  0.32025955  1
  O  O16  1  0.01865848  0.00939413  0.80789066  1
  O  O17  1  0.17827144  0.32306683  0.60427026  1
  O  O18  1  0.47008721  0.96789218  0.32381887  1
  O  O19  1  0.47008427  0.50224996  0.32379680  1
  O  O20  1  0.29803793  0.14894739  0.10616319  1
  O  O21  1  0.68869615  0.84434992  0.59942542  1
  O  O22  1  0.50791913  0.47477815  0.83906799  1
  O  O23  1  0.50790575  0.03316084  0.83912135  1
  O  O24  1  0.64841232  0.32414492  0.60991114  1
  O  O25  1  0.86100571  0.69920618  0.10323808  1
  O  O26  1  0.96857521  0.48428411  0.84246607  1
  O  O27  1  0.86092538  0.16182229  0.10325658  1
