# generated using pymatgen
data_Na6Fe2B4AsO16
_symmetry_space_group_name_H-M   'P 1'
_cell_length_a   10.06416002
_cell_length_b   10.06416073
_cell_length_c   10.06416036
_cell_angle_alpha   90.00000100
_cell_angle_beta   60.00000113
_cell_angle_gamma   60.00000232
_symmetry_Int_Tables_number   1
_chemical_formula_structural   Na6Fe2B4AsO16
_chemical_formula_sum   'Na12 Fe4 B8 As2 O32'
_cell_volume   720.80479416
_cell_formula_units_Z   2
loop_
 _symmetry_equiv_pos_site_id
 _symmetry_equiv_pos_as_xyz
  1  'x, y, z'
loop_
 _atom_site_type_symbol
 _atom_site_label
 _atom_site_symmetry_multiplicity
 _atom_site_fract_x
 _atom_site_fract_y
 _atom_site_fract_z
 _atom_site_occupancy
  Na  Na0  1  0.75000000  0.65990549  0.90990549  1
  Na  Na1  1  0.68018902  0.90990549  0.65990549  1
  Na  Na2  1  0.75000000  0.65990549  0.34009451  1
  Na  Na3  1  0.75000000  0.09009451  0.90990549  1
  Na  Na4  1  0.25000000  0.90990549  0.65990549  1
  Na  Na5  1  0.81981098  0.34009451  0.09009451  1
  Na  Na6  1  0.18018902  0.65990549  0.90990549  1
  Na  Na7  1  0.75000000  0.09009451  0.34009451  1
  Na  Na8  1  0.25000000  0.34009451  0.65990549  1
  Na  Na9  1  0.25000000  0.90990549  0.09009451  1
  Na  Na10  1  0.31981098  0.09009451  0.34009451  1
  Na  Na11  1  0.25000000  0.34009451  0.09009451  1
  Fe  Fe12  1  0.50000000  0.50000000  0.50000000  1
  Fe  Fe13  1  0.50000000  0.50000000  0.00000000  1
  Fe  Fe14  1  0.00000000  0.50000000  0.50000000  1
  Fe  Fe15  1  0.00000000  0.00000000  0.50000000  1
  B  B16  1  0.92360084  0.28819908  0.71180092  1
  B  B17  1  0.57639916  0.63540177  0.71180092  1
  B  B18  1  0.92360084  0.28819908  0.36459823  1
  B  B19  1  0.57639916  0.28819908  0.71180092  1
  B  B20  1  0.42360084  0.71180092  0.28819908  1
  B  B21  1  0.42360084  0.36459823  0.28819908  1
  B  B22  1  0.07639916  0.71180092  0.63540177  1
  B  B23  1  0.07639916  0.71180092  0.28819908  1
  As  As24  1  0.75000000  0.87500000  0.12500000  1
  As  As25  1  0.25000000  0.12500000  0.87500000  1
  O  O26  1  0.95395554  0.86273676  0.63945431  1
  O  O27  1  0.95395554  0.68330670  0.40659015  1
  O  O28  1  0.77671754  0.40659015  0.86273676  1
  O  O29  1  0.72328246  0.63945431  0.68330670  1
  O  O30  1  0.95614761  0.13726324  0.68330670  1
  O  O31  1  0.89025214  0.94512557  0.05487443  1
  O  O32  1  0.95614761  0.40659015  0.36054569  1
  O  O33  1  0.89025214  0.66462229  0.05487443  1
  O  O34  1  0.60974786  0.94512557  0.33537771  1
  O  O35  1  0.45395554  0.63945431  0.86273676  1
  O  O36  1  0.54385239  0.63945431  0.59340985  1
  O  O37  1  0.60974786  0.94512557  0.05487443  1
  O  O38  1  0.54385239  0.31669330  0.86273676  1
  O  O39  1  0.77671754  0.31669330  0.36054569  1
  O  O40  1  0.72328246  0.13726324  0.59340985  1
  O  O41  1  0.54604446  0.59340985  0.31669330  1
  O  O42  1  0.45395554  0.40659015  0.68330670  1
  O  O43  1  0.27671754  0.86273676  0.40659015  1
  O  O44  1  0.22328246  0.68330670  0.63945431  1
  O  O45  1  0.45614761  0.68330670  0.13726324  1
  O  O46  1  0.39025214  0.05487443  0.94512557  1
  O  O47  1  0.45614761  0.36054569  0.40659015  1
  O  O48  1  0.54604446  0.36054569  0.13726324  1
  O  O49  1  0.10974786  0.33537771  0.94512557  1
  O  O50  1  0.39025214  0.05487443  0.66462229  1
  O  O51  1  0.04385239  0.59340985  0.63945431  1
  O  O52  1  0.10974786  0.05487443  0.94512557  1
  O  O53  1  0.04385239  0.86273676  0.31669330  1
  O  O54  1  0.27671754  0.36054569  0.31669330  1
  O  O55  1  0.22328246  0.59340985  0.13726324  1
  O  O56  1  0.04604446  0.31669330  0.59340985  1
  O  O57  1  0.04604446  0.13726324  0.36054569  1
