# generated using pymatgen
data_Li3Al(FeO3)2
_symmetry_space_group_name_H-M   'P 1'
_cell_length_a   5.94677438
_cell_length_b   10.34856208
_cell_length_c   8.21578486
_cell_angle_alpha   90.00000000
_cell_angle_beta   90.61073206
_cell_angle_gamma   90.00000000
_symmetry_Int_Tables_number   1
_chemical_formula_structural   Li3Al(FeO3)2
_chemical_formula_sum   'Li12 Al4 Fe8 O24'
_cell_volume   505.57530987
_cell_formula_units_Z   4
loop_
 _symmetry_equiv_pos_site_id
 _symmetry_equiv_pos_as_xyz
  1  'x, y, z'
loop_
 _atom_site_type_symbol
 _atom_site_label
 _atom_site_symmetry_multiplicity
 _atom_site_fract_x
 _atom_site_fract_y
 _atom_site_fract_z
 _atom_site_occupancy
  Li  Li0  1  0.15725070  0.99777857  0.63607020  1
  Li  Li1  1  0.18079301  0.65798048  0.62393261  1
  Li  Li2  1  0.15140651  0.99708406  0.11610083  1
  Li  Li3  1  0.31920699  0.15798048  0.87606739  1
  Li  Li4  1  0.34859349  0.49708406  0.38389917  1
  Li  Li5  1  0.34274930  0.49777857  0.86392980  1
  Li  Li6  1  0.65725070  0.50222143  0.13607020  1
  Li  Li7  1  0.65140651  0.50291594  0.61610083  1
  Li  Li8  1  0.68079301  0.84201952  0.12393261  1
  Li  Li9  1  0.84859349  0.00291594  0.88389917  1
  Li  Li10  1  0.81920699  0.34201952  0.37606739  1
  Li  Li11  1  0.84274930  0.00222143  0.36392980  1
  Al  Al12  1  0.16590374  0.33247562  0.12646129  1
  Al  Al13  1  0.33409626  0.83247562  0.37353871  1
  Al  Al14  1  0.66590374  0.16752438  0.62646129  1
  Al  Al15  1  0.83409626  0.66752438  0.87353871  1
  Fe  Fe16  1  0.17052065  0.33380968  0.62138522  1
  Fe  Fe17  1  0.17418933  0.65345057  0.12692320  1
  Fe  Fe18  1  0.32947935  0.83380968  0.87861478  1
  Fe  Fe19  1  0.32581067  0.15345057  0.37307680  1
  Fe  Fe20  1  0.67418933  0.84654943  0.62692320  1
  Fe  Fe21  1  0.67052065  0.16619032  0.12138522  1
  Fe  Fe22  1  0.82581067  0.34654943  0.87307680  1
  Fe  Fe23  1  0.82947935  0.66619032  0.37861478  1
  O  O24  1  0.15144263  0.33048127  0.88354585  1
  O  O25  1  0.16641225  0.68186883  0.37084381  1
  O  O26  1  0.17989139  0.98774298  0.87648464  1
  O  O27  1  0.18970589  0.98539304  0.37109600  1
  O  O28  1  0.15931918  0.31695772  0.36691286  1
  O  O29  1  0.14672408  0.67182002  0.88055831  1
  O  O30  1  0.35327592  0.17182002  0.61944169  1
  O  O31  1  0.34068082  0.81695772  0.13308714  1
  O  O32  1  0.31029411  0.48539304  0.12890400  1
  O  O33  1  0.32010861  0.48774298  0.62351536  1
  O  O34  1  0.34855737  0.83048127  0.61645415  1
  O  O35  1  0.33358775  0.18186883  0.12915619  1
  O  O36  1  0.66641225  0.81813117  0.87084381  1
  O  O37  1  0.65144263  0.16951873  0.38354585  1
  O  O38  1  0.67989139  0.51225702  0.37648464  1
  O  O39  1  0.68970589  0.51460696  0.87109600  1
  O  O40  1  0.65931918  0.18304228  0.86691286  1
  O  O41  1  0.64672408  0.82817998  0.38055831  1
  O  O42  1  0.85327592  0.32817998  0.11944169  1
  O  O43  1  0.84068082  0.68304228  0.63308714  1
  O  O44  1  0.81029411  0.01460696  0.62890400  1
  O  O45  1  0.82010861  0.01225702  0.12351536  1
  O  O46  1  0.83358775  0.31813117  0.62915619  1
  O  O47  1  0.84855737  0.66951873  0.11645415  1
