# generated using pymatgen
data_Mn3Co3(SnO8)2
_symmetry_space_group_name_H-M   'P 1'
_cell_length_a   5.72433248
_cell_length_b   5.73978114
_cell_length_c   9.42607293
_cell_angle_alpha   89.97979168
_cell_angle_beta   90.91909192
_cell_angle_gamma   120.08646569
_symmetry_Int_Tables_number   1
_chemical_formula_structural   Mn3Co3(SnO8)2
_chemical_formula_sum   'Mn3 Co3 Sn2 O16'
_cell_volume   267.93504870
_cell_formula_units_Z   1
loop_
 _symmetry_equiv_pos_site_id
 _symmetry_equiv_pos_as_xyz
  1  'x, y, z'
loop_
 _atom_site_type_symbol
 _atom_site_label
 _atom_site_symmetry_multiplicity
 _atom_site_fract_x
 _atom_site_fract_y
 _atom_site_fract_z
 _atom_site_occupancy
  Mn  Mn0  1  0.66510749  0.83253646  0.21540471  1
  Mn  Mn1  1  0.83271812  0.66485761  0.71484505  1
  Mn  Mn2  1  0.83273411  0.16789009  0.71485763  1
  Co  Co3  1  0.16781423  0.83282538  0.21148030  1
  Co  Co4  1  0.16785918  0.33500365  0.21154183  1
  Co  Co5  1  0.33460343  0.16729298  0.71055112  1
  Sn  Sn6  1  0.33140269  0.66573590  0.48999835  1
  Sn  Sn7  1  0.66425983  0.33219948  0.99221526  1
  O  O8  1  0.16201687  0.84429575  0.60690503  1
  O  O9  1  0.03471378  0.51733567  0.32191049  1
  O  O10  1  0.33021467  0.66514796  0.10959190  1
  O  O11  1  0.00562007  0.00270669  0.31382971  1
  O  O12  1  0.00489774  0.00234130  0.81460977  1
  O  O13  1  0.16192396  0.31769596  0.60687075  1
  O  O14  1  0.47950482  0.96722662  0.32853201  1
  O  O15  1  0.47957188  0.51225267  0.32860397  1
  O  O16  1  0.31517992  0.15765178  0.11153326  1
  O  O17  1  0.68281856  0.84151726  0.60353941  1
  O  O18  1  0.51131100  0.47858318  0.82737313  1
  O  O19  1  0.51142342  0.03280025  0.82745994  1
  O  O20  1  0.66511323  0.33266409  0.60898337  1
  O  O21  1  0.84490656  0.68443055  0.10635358  1
  O  O22  1  0.96934333  0.48459215  0.83231600  1
  O  O23  1  0.84494211  0.16061655  0.10641343  1
