# generated using pymatgen
data_MnPO4
_symmetry_space_group_name_H-M   'P 1'
_cell_length_a   4.96728108
_cell_length_b   9.46011329
_cell_length_c   14.45885590
_cell_angle_alpha   78.88313625
_cell_angle_beta   80.04316414
_cell_angle_gamma   74.76574917
_symmetry_Int_Tables_number   1
_chemical_formula_structural   MnPO4
_chemical_formula_sum   'Mn8 P8 O32'
_cell_volume   637.87555136
_cell_formula_units_Z   8
loop_
 _symmetry_equiv_pos_site_id
 _symmetry_equiv_pos_as_xyz
  1  'x, y, z'
loop_
 _atom_site_type_symbol
 _atom_site_label
 _atom_site_symmetry_multiplicity
 _atom_site_fract_x
 _atom_site_fract_y
 _atom_site_fract_z
 _atom_site_occupancy
  Mn  Mn0  1  0.17486078  0.23165240  0.97333366  1
  Mn  Mn1  1  0.38353574  0.26760510  0.52616019  1
  Mn  Mn2  1  0.82104989  0.76708135  0.02659241  1
  Mn  Mn3  1  0.49618292  0.49942252  0.00056906  1
  Mn  Mn4  1  0.61678526  0.73111169  0.47358989  1
  Mn  Mn5  1  0.65874170  0.75068045  0.25023096  1
  Mn  Mn6  1  0.33741572  0.24784477  0.74991127  1
  Mn  Mn7  1  0.00232235  0.99893811  0.49955412  1
  P  P8  1  0.04533738  0.56998942  0.86340355  1
  P  P9  1  0.77910117  0.40747998  0.61869326  1
  P  P10  1  0.94855927  0.42890852  0.13715158  1
  P  P11  1  0.19054151  0.90860356  0.11879524  1
  P  P12  1  0.51955727  0.07015026  0.36284530  1
  P  P13  1  0.48542518  0.92840293  0.63681411  1
  P  P14  1  0.21770669  0.59126651  0.38132221  1
  P  P15  1  0.80605626  0.09019222  0.88164818  1
  O  O16  1  0.70434371  0.39130689  0.09912992  1
  O  O17  1  0.86643439  0.92732862  0.92846737  1
  O  O18  1  0.80540524  0.88886988  0.59842932  1
  O  O19  1  0.75568030  0.30090121  0.55333031  1
  O  O20  1  0.20553511  0.38732784  0.05405271  1
  O  O21  1  0.57369538  0.39151051  0.71145214  1
  O  O22  1  0.60888028  0.19714277  0.94639096  1
  O  O23  1  0.89768090  0.86334976  0.13934863  1
  O  O24  1  0.24235483  0.69841646  0.44607661  1
  O  O25  1  0.72205006  0.57053229  0.57213143  1
  O  O26  1  0.89075778  0.60390356  0.13085506  1
  O  O27  1  0.60675207  0.14019886  0.26597943  1
  O  O28  1  0.13215973  0.07126575  0.07160267  1
  O  O29  1  0.09624772  0.36174079  0.63963907  1
  O  O30  1  0.28643279  0.60870180  0.90271050  1
  O  O31  1  0.10646064  0.39495579  0.86919115  1
  O  O32  1  0.99146667  0.64132062  0.76619856  1
  O  O33  1  0.38786010  0.80102675  0.05439803  1
  O  O34  1  0.37834533  0.10361278  0.63054072  1
  O  O35  1  0.39957724  0.85891075  0.73397680  1
  O  O36  1  0.89943347  0.63550643  0.36124249  1
  O  O37  1  0.35137001  0.88806455  0.55378365  1
  O  O38  1  0.09889849  0.13573994  0.86103702  1
  O  O39  1  0.31696021  0.89416077  0.21173617  1
  O  O40  1  0.27693221  0.42827660  0.42796448  1
  O  O41  1  0.19918933  0.10982685  0.40104618  1
  O  O42  1  0.00584831  0.35810085  0.23417030  1
  O  O43  1  0.65284185  0.10980267  0.44617374  1
  O  O44  1  0.78683535  0.61063265  0.94609859  1
  O  O45  1  0.67972707  0.10513243  0.78867144  1
  O  O46  1  0.42018138  0.60774139  0.28787321  1
  O  O47  1  0.62472295  0.89483542  0.36903232  1
