# generated using pymatgen
data_Li3MnO3
_symmetry_space_group_name_H-M   'P 1'
_cell_length_a   9.62515747
_cell_length_b   9.62627042
_cell_length_c   9.79392361
_cell_angle_alpha   89.97825504
_cell_angle_beta   90.02279805
_cell_angle_gamma   120.02270239
_symmetry_Int_Tables_number   1
_chemical_formula_structural   Li3MnO3
_chemical_formula_sum   'Li36 Mn12 O36'
_cell_volume   785.69466600
_cell_formula_units_Z   12
loop_
 _symmetry_equiv_pos_site_id
 _symmetry_equiv_pos_as_xyz
  1  'x, y, z'
loop_
 _atom_site_type_symbol
 _atom_site_label
 _atom_site_symmetry_multiplicity
 _atom_site_fract_x
 _atom_site_fract_y
 _atom_site_fract_z
 _atom_site_occupancy
  Li  Li0  1  0.08394789  0.86181891  0.42298866  1
  Li  Li1  1  0.14650365  0.91660747  0.92287204  1
  Li  Li2  1  0.09332361  0.52208718  0.92284771  1
  Li  Li3  1  0.18560671  0.75205760  0.08005709  1
  Li  Li4  1  0.10078492  0.58249603  0.42014843  1
  Li  Li5  1  0.23857929  0.81316678  0.57825814  1
  Li  Li6  1  0.18624103  0.43703078  0.57773308  1
  Li  Li7  1  0.47101538  0.88959742  0.42297327  1
  Li  Li8  1  0.09455774  0.24141266  0.92172418  1
  Li  Li9  1  0.14936830  0.23311728  0.41984922  1
  Li  Li10  1  0.24920998  0.44484732  0.07739751  1
  Li  Li11  1  0.41732224  0.89736858  0.92245931  1
  Li  Li12  1  0.56397481  0.81293017  0.07945849  1
  Li  Li13  1  0.23216986  0.14848909  0.07985658  1
  Li  Li14  1  0.48151128  0.58357428  0.92277557  1
  Li  Li15  1  0.56433769  0.75025058  0.57713076  1
  Li  Li16  1  0.24104331  0.09469277  0.57826328  1
  Li  Li17  1  0.41719080  0.52082389  0.42064300  1
  Li  Li18  1  0.58237685  0.48120994  0.57738820  1
  Li  Li19  1  0.76925915  0.91556033  0.42042408  1
  Li  Li20  1  0.44450706  0.24900788  0.42265334  1
  Li  Li21  1  0.51994250  0.41711117  0.07956556  1
  Li  Li22  1  0.76886154  0.85076418  0.92272964  1
  Li  Li23  1  0.43584015  0.18636230  0.92188021  1
  Li  Li24  1  0.58218986  0.10125162  0.07957440  1
  Li  Li25  1  0.74925561  0.56329452  0.92311619  1
  Li  Li26  1  0.85071839  0.76747320  0.57754153  1
  Li  Li27  1  0.91567249  0.76833195  0.07990505  1
  Li  Li28  1  0.52201516  0.09353644  0.57714996  1
  Li  Li29  1  0.81209936  0.56295151  0.42073340  1
  Li  Li30  1  0.75201932  0.18488156  0.41968149  1
  Li  Li31  1  0.89657130  0.41612649  0.57741517  1
  Li  Li32  1  0.81311343  0.23854771  0.92205695  1
  Li  Li33  1  0.88947471  0.47098714  0.07729792  1
  Li  Li34  1  0.86189148  0.08396069  0.07713332  1
  Li  Li35  1  0.91789872  0.14679012  0.57681302  1
  Mn  Mn36  1  0.00081958  0.66700832  0.74973037  1
  Mn  Mn37  1  0.00051535  0.33350865  0.24975976  1
  Mn  Mn38  1  0.33256044  0.66746171  0.25009341  1
  Mn  Mn39  1  0.00024935  0.00028507  0.24995647  1
  Mn  Mn40  1  0.99714728  0.99756165  0.74989875  1
  Mn  Mn41  1  0.33531789  0.66669968  0.75033213  1
  Mn  Mn42  1  0.33212210  0.33261668  0.74987457  1
  Mn  Mn43  1  0.33341013  0.00041964  0.25017643  1
  Mn  Mn44  1  0.66623789  0.66616458  0.25009232  1
  Mn  Mn45  1  0.66745388  0.33237330  0.24981068  1
  Mn  Mn46  1  0.66730434  0.33550918  0.74971589  1
  Mn  Mn47  1  0.66694080  0.00063675  0.74995904  1
  O  O48  1  0.07823661  0.88856245  0.62900212  1
  O  O49  1  0.14034595  0.92054426  0.13004368  1
  O  O50  1  0.19513723  0.74800169  0.87022513  1
  O  O51  1  0.24609107  0.80751722  0.36998977  1
  O  O52  1  0.11217683  0.58652471  0.62923662  1
  O  O53  1  0.10604821  0.52700642  0.13046322  1
  O  O54  1  0.08748618  0.22823113  0.12984996  1
  O  O55  1  0.19285695  0.44675894  0.37023060  1
  O  O56  1  0.41321246  0.88741257  0.12969707  1
  O  O57  1  0.44450321  0.85702629  0.62925875  1
  O  O58  1  0.25395575  0.47701280  0.87097070  1
  O  O59  1  0.14097347  0.22158798  0.62875251  1
  O  O60  1  0.21817150  0.13822909  0.86969402  1
  O  O61  1  0.41451518  0.53227301  0.62964868  1
  O  O62  1  0.47376290  0.58503003  0.13002645  1
  O  O63  1  0.55145799  0.80365571  0.87132330  1
  O  O64  1  0.22784807  0.08721252  0.36997748  1
  O  O65  1  0.55518432  0.74864881  0.36995724  1
  O  O66  1  0.47676565  0.25432281  0.62901816  1
  O  O67  1  0.78423107  0.91849614  0.62967305  1
  O  O68  1  0.44609228  0.19260279  0.12959642  1
  O  O69  1  0.52893747  0.41418610  0.87151221  1
  O  O70  1  0.58426540  0.47359920  0.37016385  1
  O  O71  1  0.77802505  0.85893927  0.12994588  1
  O  O72  1  0.85892668  0.77723938  0.37048248  1
  O  O73  1  0.74808317  0.55452844  0.13051115  1
  O  O74  1  0.52686848  0.10613752  0.36951014  1
  O  O75  1  0.58657635  0.11488340  0.86953778  1
  O  O76  1  0.80046317  0.54828395  0.62979932  1
  O  O77  1  0.91866195  0.78085813  0.87154787  1
  O  O78  1  0.85706935  0.44405853  0.87080261  1
  O  O79  1  0.88704718  0.41273967  0.37026785  1
  O  O80  1  0.74811632  0.19227616  0.62862379  1
  O  O81  1  0.80735000  0.24592271  0.13000126  1
  O  O82  1  0.88895796  0.07859919  0.87098624  1
  O  O83  1  0.92102502  0.14032324  0.36977211  1
