# generated using pymatgen
data_Li4Ti3Mn3(NiO8)2
_symmetry_space_group_name_H-M   'P 1'
_cell_length_a   5.85282103
_cell_length_b   5.86542182
_cell_length_c   9.64504526
_cell_angle_alpha   90.00791833
_cell_angle_beta   89.87069661
_cell_angle_gamma   120.06302202
_symmetry_Int_Tables_number   1
_chemical_formula_structural   Li4Ti3Mn3(NiO8)2
_chemical_formula_sum   'Li4 Ti3 Mn3 Ni2 O16'
_cell_volume   286.56414834
_cell_formula_units_Z   1
loop_
 _symmetry_equiv_pos_site_id
 _symmetry_equiv_pos_as_xyz
  1  'x, y, z'
loop_
 _atom_site_type_symbol
 _atom_site_label
 _atom_site_symmetry_multiplicity
 _atom_site_fract_x
 _atom_site_fract_y
 _atom_site_fract_z
 _atom_site_occupancy
  Li  Li0  1  0.33841330  0.66922247  0.88531694  1
  Li  Li1  1  0.99212703  0.99606053  0.99776522  1
  Li  Li2  1  0.99264183  0.99634371  0.49959466  1
  Li  Li3  1  0.67210804  0.33606126  0.38773751  1
  Ti  Ti4  1  0.16966179  0.83167597  0.21483263  1
  Ti  Ti5  1  0.16967629  0.33799133  0.21481016  1
  Ti  Ti6  1  0.33955831  0.16979312  0.71400524  1
  Mn  Mn7  1  0.66143990  0.83072203  0.21516553  1
  Mn  Mn8  1  0.83122084  0.66266264  0.71514128  1
  Mn  Mn9  1  0.83117572  0.16855621  0.71518397  1
  Ni  Ni10  1  0.33275407  0.66637887  0.49028929  1
  Ni  Ni11  1  0.66699702  0.33350448  0.98763630  1
  O  O12  1  0.15787580  0.83977660  0.60704521  1
  O  O13  1  0.03700594  0.51858453  0.33124515  1
  O  O14  1  0.33762050  0.66877312  0.10390858  1
  O  O15  1  0.99171948  0.99593491  0.31426421  1
  O  O16  1  0.99181004  0.99590206  0.81235645  1
  O  O17  1  0.15787837  0.31810326  0.60704671  1
  O  O18  1  0.48543922  0.96475142  0.33280788  1
  O  O19  1  0.48550675  0.52079590  0.33278634  1
  O  O20  1  0.31974917  0.15985609  0.10577718  1
  O  O21  1  0.68084892  0.84043311  0.60915911  1
  O  O22  1  0.52090498  0.48477266  0.83123101  1
  O  O23  1  0.52092841  0.03617935  0.83125348  1
  O  O24  1  0.67434091  0.33714272  0.60605472  1
  O  O25  1  0.83825159  0.68097398  0.10769813  1
  O  O26  1  0.96415227  0.48207923  0.82999019  1
  O  O27  1  0.83819654  0.15726741  0.10773793  1
