# generated using pymatgen
data_Na6Cr2As(CO4)4
_symmetry_space_group_name_H-M   'P 1'
_cell_length_a   9.98206975
_cell_length_b   9.98206989
_cell_length_c   9.98206986
_cell_angle_alpha   60.00000022
_cell_angle_beta   60.00000035
_cell_angle_gamma   60.00000045
_symmetry_Int_Tables_number   1
_chemical_formula_structural   Na6Cr2As(CO4)4
_chemical_formula_sum   'Na12 Cr4 As2 C8 O32'
_cell_volume   703.31004020
_cell_formula_units_Z   2
loop_
 _symmetry_equiv_pos_site_id
 _symmetry_equiv_pos_as_xyz
  1  'x, y, z'
loop_
 _atom_site_type_symbol
 _atom_site_label
 _atom_site_symmetry_multiplicity
 _atom_site_fract_x
 _atom_site_fract_y
 _atom_site_fract_z
 _atom_site_occupancy
  Na  Na0  1  0.16619194  0.08380806  0.08380806  1
  Na  Na1  1  0.16619194  0.66619194  0.08380806  1
  Na  Na2  1  0.16619194  0.08380806  0.66619194  1
  Na  Na3  1  0.41619194  0.33380806  0.33380806  1
  Na  Na4  1  0.58380806  0.66619194  0.08380806  1
  Na  Na5  1  0.58380806  0.08380806  0.66619194  1
  Na  Na6  1  0.41619194  0.33380806  0.91619194  1
  Na  Na7  1  0.41619194  0.91619194  0.33380806  1
  Na  Na8  1  0.58380806  0.66619194  0.66619194  1
  Na  Na9  1  0.83380806  0.33380806  0.91619194  1
  Na  Na10  1  0.83380806  0.91619194  0.33380806  1
  Na  Na11  1  0.83380806  0.91619194  0.91619194  1
  Cr  Cr12  1  0.00000000  0.00000000  0.50000000  1
  Cr  Cr13  1  0.00000000  0.50000000  0.00000000  1
  Cr  Cr14  1  0.00000000  0.50000000  0.50000000  1
  Cr  Cr15  1  0.50000000  0.50000000  0.50000000  1
  As  As16  1  0.62500000  0.12500000  0.12500000  1
  As  As17  1  0.37500000  0.87500000  0.87500000  1
  C  C18  1  0.14423230  0.28525623  0.28525623  1
  C  C19  1  0.21474377  0.71474377  0.35576770  1
  C  C20  1  0.21474377  0.35576770  0.71474377  1
  C  C21  1  0.21474377  0.71474377  0.71474377  1
  C  C22  1  0.78525623  0.28525623  0.28525623  1
  C  C23  1  0.78525623  0.28525623  0.64423230  1
  C  C24  1  0.78525623  0.64423230  0.28525623  1
  C  C25  1  0.85576770  0.71474377  0.71474377  1
  O  O26  1  0.14686488  0.31170560  0.14261408  1
  O  O27  1  0.14686488  0.14261408  0.39881644  1
  O  O28  1  0.14686488  0.39881644  0.31170560  1
  O  O29  1  0.10118356  0.68829440  0.35313512  1
  O  O30  1  0.55447493  0.05447493  0.05447493  1
  O  O31  1  0.18829440  0.35313512  0.60118356  1
  O  O32  1  0.10118356  0.35313512  0.85738592  1
  O  O33  1  0.55447493  0.05447493  0.33657421  1
  O  O34  1  0.55447493  0.33657421  0.05447493  1
  O  O35  1  0.18829440  0.85738592  0.35313512  1
  O  O36  1  0.35738592  0.60118356  0.35313512  1
  O  O37  1  0.83657421  0.05447493  0.05447493  1
  O  O38  1  0.10118356  0.85738592  0.68829440  1
  O  O39  1  0.35738592  0.35313512  0.68829440  1
  O  O40  1  0.18829440  0.60118356  0.85738592  1
  O  O41  1  0.64261408  0.31170560  0.39881644  1
  O  O42  1  0.35738592  0.68829440  0.60118356  1
  O  O43  1  0.81170560  0.39881644  0.14261408  1
  O  O44  1  0.64261408  0.64686488  0.31170560  1
  O  O45  1  0.89881644  0.14261408  0.31170560  1
  O  O46  1  0.16342579  0.94552507  0.94552507  1
  O  O47  1  0.64261408  0.39881644  0.64686488  1
  O  O48  1  0.81170560  0.14261408  0.64686488  1
  O  O49  1  0.44552507  0.94552507  0.66342579  1
  O  O50  1  0.44552507  0.66342579  0.94552507  1
  O  O51  1  0.89881644  0.64686488  0.14261408  1
  O  O52  1  0.81170560  0.64686488  0.39881644  1
  O  O53  1  0.44552507  0.94552507  0.94552507  1
  O  O54  1  0.89881644  0.31170560  0.64686488  1
  O  O55  1  0.85313512  0.60118356  0.68829440  1
  O  O56  1  0.85313512  0.85738592  0.60118356  1
  O  O57  1  0.85313512  0.68829440  0.85738592  1
