# generated using pymatgen
data_Li2Ti3O7
_symmetry_space_group_name_H-M   'P 1'
_cell_length_a   7.84633241
_cell_length_b   3.79495763
_cell_length_c   9.33044307
_cell_angle_alpha   90.00000000
_cell_angle_beta   99.25777036
_cell_angle_gamma   90.00000000
_symmetry_Int_Tables_number   1
_chemical_formula_structural   Li2Ti3O7
_chemical_formula_sum   'Li4 Ti6 O14'
_cell_volume   274.20909746
_cell_formula_units_Z   2
loop_
 _symmetry_equiv_pos_site_id
 _symmetry_equiv_pos_as_xyz
  1  'x, y, z'
loop_
 _atom_site_type_symbol
 _atom_site_label
 _atom_site_symmetry_multiplicity
 _atom_site_fract_x
 _atom_site_fract_y
 _atom_site_fract_z
 _atom_site_occupancy
  Li  Li0  1  0.30178709  0.75000000  0.41484456  1
  Li  Li1  1  0.50931377  0.75000000  0.85666201  1
  Li  Li2  1  0.49068623  0.25000000  0.14333799  1
  Li  Li3  1  0.69821291  0.25000000  0.58515544  1
  Ti  Ti4  1  0.15737518  0.25000000  0.97578515  1
  Ti  Ti5  1  0.04369529  0.25000000  0.27808317  1
  Ti  Ti6  1  0.27467871  0.25000000  0.66896234  1
  Ti  Ti7  1  0.72532129  0.75000000  0.33103766  1
  Ti  Ti8  1  0.95630471  0.75000000  0.72191683  1
  Ti  Ti9  1  0.84262482  0.75000000  0.02421485  1
  O  O10  1  0.09054750  0.75000000  0.94821398  1
  O  O11  1  0.99237345  0.75000000  0.24980639  1
  O  O12  1  0.18096345  0.25000000  0.45240598  1
  O  O13  1  0.20843446  0.75000000  0.67402411  1
  O  O14  1  0.35640253  0.25000000  0.89910276  1
  O  O15  1  0.23982021  0.25000000  0.17056919  1
  O  O16  1  0.48902618  0.25000000  0.65276105  1
  O  O17  1  0.51097382  0.75000000  0.34723895  1
  O  O18  1  0.76017979  0.75000000  0.82943081  1
  O  O19  1  0.64359747  0.75000000  0.10089724  1
  O  O20  1  0.79156554  0.25000000  0.32597589  1
  O  O21  1  0.81903655  0.75000000  0.54759402  1
  O  O22  1  0.00762655  0.25000000  0.75019361  1
  O  O23  1  0.90945250  0.25000000  0.05178602  1
