# generated using pymatgen
data_Fe5Co(PO4)6
_symmetry_space_group_name_H-M   'P 1'
_cell_length_a   8.36496947
_cell_length_b   8.60186343
_cell_length_c   8.60186350
_cell_angle_alpha   59.99999957
_cell_angle_beta   59.05868616
_cell_angle_gamma   59.05868137
_symmetry_Int_Tables_number   1
_chemical_formula_structural   Fe5Co(PO4)6
_chemical_formula_sum   'Fe5 Co1 P6 O24'
_cell_volume   431.32686182
_cell_formula_units_Z   1
loop_
 _symmetry_equiv_pos_site_id
 _symmetry_equiv_pos_as_xyz
  1  'x, y, z'
loop_
 _atom_site_type_symbol
 _atom_site_label
 _atom_site_symmetry_multiplicity
 _atom_site_fract_x
 _atom_site_fract_y
 _atom_site_fract_z
 _atom_site_occupancy
  Fe  Fe0  1  0.00459380  0.99846907  0.99846907  1
  Fe  Fe1  1  0.05969825  0.64676758  0.64676758  1
  Fe  Fe2  1  0.49716380  0.50094573  0.50094573  1
  Fe  Fe3  1  0.43578707  0.85473798  0.85473798  1
  Fe  Fe4  1  0.93775467  0.35408144  0.35408144  1
  Co  Co5  1  0.57997791  0.14000736  0.14000736  1
  P  P6  1  0.25534686  0.25013801  0.53824246  1
  P  P7  1  0.25534686  0.95627266  0.25013801  1
  P  P8  1  0.25534686  0.53824246  0.95627266  1
  P  P9  1  0.74451297  0.45114999  0.04993049  1
  P  P10  1  0.74451297  0.04993049  0.75440756  1
  P  P11  1  0.74451297  0.75440756  0.45114999  1
  O  O12  1  0.06472577  0.10728061  0.32630376  1
  O  O13  1  0.06472577  0.50168986  0.10728061  1
  O  O14  1  0.06472577  0.32630376  0.50168986  1
  O  O15  1  0.21823479  0.09425588  0.74408636  1
  O  O16  1  0.44318623  0.18346075  0.38085073  1
  O  O17  1  0.28512097  0.40444779  0.55984271  1
  O  O18  1  0.21823479  0.94342297  0.09425588  1
  O  O19  1  0.28512097  0.75058853  0.40444779  1
  O  O20  1  0.55966030  0.60786412  0.00719284  1
  O  O21  1  0.28512097  0.55984271  0.75058853  1
  O  O22  1  0.77667576  0.24748003  0.06266836  1
  O  O23  1  0.55966030  0.00719284  0.82528174  1
  O  O24  1  0.44318623  0.99250130  0.18346075  1
  O  O25  1  0.21823479  0.74408636  0.94342297  1
  O  O26  1  0.71405701  0.43477858  0.25230083  1
  O  O27  1  0.44318623  0.38085073  0.99250130  1
  O  O28  1  0.71405701  0.25230083  0.59886357  1
  O  O29  1  0.77667576  0.06266836  0.91317584  1
  O  O30  1  0.71405701  0.59886357  0.43477858  1
  O  O31  1  0.55966030  0.82528174  0.60786412  1
  O  O32  1  0.77667576  0.91317584  0.24748003  1
  O  O33  1  0.93348652  0.68593622  0.48817385  1
  O  O34  1  0.93348652  0.48817385  0.89240341  1
  O  O35  1  0.93348652  0.89240341  0.68593622  1
