# generated using pymatgen
data_TiP2O7
_symmetry_space_group_name_H-M   'P 1'
_cell_length_a   6.90017617
_cell_length_b   8.69302728
_cell_length_c   9.62651549
_cell_angle_alpha   90.00000000
_cell_angle_beta   74.11222067
_cell_angle_gamma   90.00000000
_symmetry_Int_Tables_number   1
_chemical_formula_structural   TiP2O7
_chemical_formula_sum   'Ti4 P8 O28'
_cell_volume   555.37328139
_cell_formula_units_Z   4
loop_
 _symmetry_equiv_pos_site_id
 _symmetry_equiv_pos_as_xyz
  1  'x, y, z'
loop_
 _atom_site_type_symbol
 _atom_site_label
 _atom_site_symmetry_multiplicity
 _atom_site_fract_x
 _atom_site_fract_y
 _atom_site_fract_z
 _atom_site_occupancy
  Ti  Ti0  1  0.70120221  0.07774895  0.20017079  1
  Ti  Ti1  1  0.70120221  0.42225105  0.70017079  1
  Ti  Ti2  1  0.29879779  0.57774895  0.29982921  1
  Ti  Ti3  1  0.29879779  0.92225105  0.79982921  1
  P  P4  1  0.52630020  0.71711613  0.53693096  1
  P  P5  1  0.10634965  0.24913622  0.23235085  1
  P  P6  1  0.89365035  0.74913622  0.26764915  1
  P  P7  1  0.10634965  0.25086378  0.73235085  1
  P  P8  1  0.52630020  0.78288387  0.03693096  1
  P  P9  1  0.89365035  0.75086378  0.76764915  1
  P  P10  1  0.47369980  0.21711613  0.96306904  1
  P  P11  1  0.47369980  0.28288387  0.46306904  1
  O  O12  1  0.53262968  0.12818865  0.37886824  1
  O  O13  1  0.25941755  0.23727353  0.06965502  1
  O  O14  1  0.89934375  0.27205105  0.69746831  1
  O  O15  1  0.12336925  0.07702870  0.77145590  1
  O  O16  1  0.46737032  0.87181135  0.62113176  1
  O  O17  1  0.74058245  0.76272647  0.93034498  1
  O  O18  1  0.62965482  0.19122106  0.04796104  1
  O  O19  1  0.53740304  0.91079565  0.14238422  1
  O  O20  1  0.87663075  0.57702870  0.72854410  1
  O  O21  1  0.37034518  0.69122106  0.45203896  1
  O  O22  1  0.53262968  0.37181135  0.87886824  1
  O  O23  1  0.84738904  0.86265559  0.66742862  1
  O  O24  1  0.46737032  0.62818865  0.12113176  1
  O  O25  1  0.10065625  0.72794895  0.30253169  1
  O  O26  1  0.46259696  0.41079565  0.35761578  1
  O  O27  1  0.37034518  0.80877894  0.95203896  1
  O  O28  1  0.87663075  0.92297130  0.22854410  1
  O  O29  1  0.89934375  0.22794895  0.19746831  1
  O  O30  1  0.15261096  0.13734441  0.33257138  1
  O  O31  1  0.53740304  0.58920435  0.64238422  1
  O  O32  1  0.25941755  0.26272647  0.56965502  1
  O  O33  1  0.62965482  0.30877894  0.54796104  1
  O  O34  1  0.46259696  0.08920435  0.85761578  1
  O  O35  1  0.12336925  0.42297130  0.27145590  1
  O  O36  1  0.74058245  0.73727353  0.43034498  1
  O  O37  1  0.84738904  0.63734441  0.16742862  1
  O  O38  1  0.10065625  0.77205105  0.80253169  1
  O  O39  1  0.15261096  0.36265559  0.83257138  1
