# generated using pymatgen
data_Na5Ni2As(CO4)4
_symmetry_space_group_name_H-M   'P 1'
_cell_length_a   9.96996066
_cell_length_b   9.90115847
_cell_length_c   9.96996066
_cell_angle_alpha   60.33869804
_cell_angle_beta   89.46239726
_cell_angle_gamma   119.66130196
_symmetry_Int_Tables_number   1
_chemical_formula_structural   Na5Ni2As(CO4)4
_chemical_formula_sum   'Na10 Ni4 As2 C8 O32'
_cell_volume   699.74862455
_cell_formula_units_Z   2
loop_
 _symmetry_equiv_pos_site_id
 _symmetry_equiv_pos_as_xyz
  1  'x, y, z'
loop_
 _atom_site_type_symbol
 _atom_site_label
 _atom_site_symmetry_multiplicity
 _atom_site_fract_x
 _atom_site_fract_y
 _atom_site_fract_z
 _atom_site_occupancy
  Na  Na0  1  0.90374333  0.23703325  0.35162596  1
  Na  Na1  1  0.64979346  0.31712086  0.09525864  1
  Na  Na2  1  0.64837404  0.73703325  0.09625667  1
  Na  Na3  1  0.90474136  0.81712086  0.35020654  1
  Na  Na4  1  0.91044338  0.25000000  0.91044338  1
  Na  Na5  1  0.08955662  0.75000000  0.08955662  1
  Na  Na6  1  0.09525864  0.18287914  0.64979346  1
  Na  Na7  1  0.35162596  0.26296675  0.90374333  1
  Na  Na8  1  0.35020654  0.68287914  0.90474136  1
  Na  Na9  1  0.09625667  0.76296675  0.64837404  1
  Ni  Ni10  1  0.50000000  0.00000000  0.00000000  1
  Ni  Ni11  1  0.50000000  0.00000000  0.50000000  1
  Ni  Ni12  1  0.50000000  0.50000000  0.50000000  1
  Ni  Ni13  1  0.00000000  0.50000000  0.50000000  1
  As  As14  1  0.12714768  0.25000000  0.12714768  1
  As  As15  1  0.87285232  0.75000000  0.87285232  1
  C  C16  1  0.71390413  0.07420880  0.71374860  1
  C  C17  1  0.71751849  0.43160796  0.35680926  1
  C  C18  1  0.35680926  0.06839204  0.71751849  1
  C  C19  1  0.71374860  0.42579120  0.71390413  1
  C  C20  1  0.28625140  0.57420880  0.28609587  1
  C  C21  1  0.64319074  0.93160796  0.28248151  1
  C  C22  1  0.28609587  0.92579120  0.28625140  1
  C  C23  1  0.28248151  0.56839204  0.64319074  1
  O  O24  1  0.64711523  0.04756966  0.13970953  1
  O  O25  1  0.69184129  0.29229116  0.35307906  1
  O  O26  1  0.85724355  0.20981483  0.60155501  1
  O  O27  1  0.40422708  0.03458185  0.31290089  1
  O  O28  1  0.86029047  0.54756966  0.35288477  1
  O  O29  1  0.33730188  0.39393488  0.04631324  1
  O  O30  1  0.05599591  0.10734728  0.05694062  1
  O  O31  1  0.60540363  0.46129246  0.35432123  1
  O  O32  1  0.68991993  0.04103774  0.85833250  1
  O  O33  1  0.35432123  0.03870754  0.60540363  1
  O  O34  1  0.85833250  0.45896226  0.68991993  1
  O  O35  1  0.05694062  0.39265272  0.05599591  1
  O  O36  1  0.04631324  0.10606512  0.33730188  1
  O  O37  1  0.39844499  0.70981483  0.14275645  1
  O  O38  1  0.64692094  0.79229116  0.30815871  1
  O  O39  1  0.68709911  0.53458185  0.59577292  1
  O  O40  1  0.31290089  0.46541815  0.40422708  1
  O  O41  1  0.35307906  0.20770884  0.69184129  1
  O  O42  1  0.60155501  0.29018517  0.85724355  1
  O  O43  1  0.94305938  0.60734728  0.94400409  1
  O  O44  1  0.95368676  0.89393488  0.66269812  1
  O  O45  1  0.14166750  0.54103774  0.31008007  1
  O  O46  1  0.64567877  0.96129246  0.39459637  1
  O  O47  1  0.31008007  0.95896226  0.14166750  1
  O  O48  1  0.39459637  0.53870754  0.64567877  1
  O  O49  1  0.94400409  0.89265272  0.94305938  1
  O  O50  1  0.66269812  0.60606512  0.95368676  1
  O  O51  1  0.13970953  0.45243034  0.64711523  1
  O  O52  1  0.59577292  0.96541815  0.68709911  1
  O  O53  1  0.30815871  0.70770884  0.64692094  1
  O  O54  1  0.14275645  0.79018517  0.39844499  1
  O  O55  1  0.35288477  0.95243034  0.86029047  1
