# generated using pymatgen
data_Cs2CeO3
_symmetry_space_group_name_H-M   'P 1'
_cell_length_a   6.90814979
_cell_length_b   7.49048486
_cell_length_c   14.66094280
_cell_angle_alpha   89.94088295
_cell_angle_beta   90.09276384
_cell_angle_gamma   117.41384877
_symmetry_Int_Tables_number   1
_chemical_formula_structural   Cs2CeO3
_chemical_formula_sum   'Cs8 Ce4 O12'
_cell_volume   673.44358791
_cell_formula_units_Z   4
loop_
 _symmetry_equiv_pos_site_id
 _symmetry_equiv_pos_as_xyz
  1  'x, y, z'
loop_
 _atom_site_type_symbol
 _atom_site_label
 _atom_site_symmetry_multiplicity
 _atom_site_fract_x
 _atom_site_fract_y
 _atom_site_fract_z
 _atom_site_occupancy
  Cs  Cs0  1  0.37055103  0.73846931  0.08071498  1
  Cs  Cs1  1  0.05426461  0.10924994  0.13301853  1
  Cs  Cs2  1  0.12972326  0.25549219  0.58379513  1
  Cs  Cs3  1  0.44479299  0.88976308  0.63311456  1
  Cs  Cs4  1  0.55347649  0.10154660  0.36251188  1
  Cs  Cs5  1  0.87884551  0.74595570  0.41854547  1
  Cs  Cs6  1  0.94164810  0.88949672  0.86554059  1
  Cs  Cs7  1  0.62416997  0.25161065  0.92059499  1
  Ce  Ce8  1  0.23755468  0.47657291  0.34062376  1
  Ce  Ce9  1  0.25845207  0.52046922  0.83962754  1
  Ce  Ce10  1  0.75800564  0.52207623  0.66064949  1
  Ce  Ce11  1  0.73962432  0.47769690  0.16209456  1
  O  O12  1  0.02246361  0.54514828  0.25146249  1
  O  O13  1  0.34048937  0.68291535  0.44435796  1
  O  O14  1  0.08247794  0.17602902  0.36739436  1
  O  O15  1  0.16186138  0.32358100  0.94707925  1
  O  O16  1  0.40801156  0.82115476  0.86697684  1
  O  O17  1  0.47568335  0.45426347  0.75133271  1
  O  O18  1  0.51646960  0.53444882  0.25082035  1
  O  O19  1  0.83789226  0.68010565  0.05692488  1
  O  O20  1  0.59464985  0.17770659  0.13213317  1
  O  O21  1  0.90609971  0.82319464  0.63394319  1
  O  O22  1  0.66564150  0.32690149  0.55355347  1
  O  O23  1  0.98254121  0.46205949  0.74760983  1
