# generated using pymatgen
data_Li5Mn5O12
_symmetry_space_group_name_H-M   'P 1'
_cell_length_a   5.03860736
_cell_length_b   5.10477879
_cell_length_c   10.37023465
_cell_angle_alpha   94.36185500
_cell_angle_beta   97.62907348
_cell_angle_gamma   61.20450485
_symmetry_Int_Tables_number   1
_chemical_formula_structural   Li5Mn5O12
_chemical_formula_sum   'Li5 Mn5 O12'
_cell_volume   231.65803479
_cell_formula_units_Z   1
loop_
 _symmetry_equiv_pos_site_id
 _symmetry_equiv_pos_as_xyz
  1  'x, y, z'
loop_
 _atom_site_type_symbol
 _atom_site_label
 _atom_site_symmetry_multiplicity
 _atom_site_fract_x
 _atom_site_fract_y
 _atom_site_fract_z
 _atom_site_occupancy
  Li  Li0  1  0.95867785  0.67790176  0.79336268  1
  Li  Li1  1  0.36283224  0.68944130  0.20889733  1
  Li  Li2  1  0.00007106  0.00000628  0.99999863  1
  Li  Li3  1  0.63736430  0.31054109  0.79108824  1
  Li  Li4  1  0.04148997  0.32213088  0.20663175  1
  Mn  Mn5  1  0.16393794  0.66738982  0.50020714  1
  Mn  Mn6  1  0.66304727  0.67510654  0.00011886  1
  Mn  Mn7  1  0.33713676  0.32486450  0.99985650  1
  Mn  Mn8  1  0.83580057  0.33262566  0.49982352  1
  Mn  Mn9  1  0.49985145  0.00001529  0.50000359  1
  O  O10  1  0.03778734  0.63114925  0.10416115  1
  O  O11  1  0.33731445  0.62439737  0.89520275  1
  O  O12  1  0.10992037  0.36019480  0.39687573  1
  O  O13  1  0.47500002  0.65693715  0.40310176  1
  O  O14  1  0.52475820  0.34305504  0.59691481  1
  O  O15  1  0.18455343  0.00529628  0.59312940  1
  O  O16  1  0.88982483  0.63982614  0.60313982  1
  O  O17  1  0.66288309  0.37558143  0.10477970  1
  O  O18  1  0.36935209  0.00258855  0.10227361  1
  O  O19  1  0.96240043  0.36884287  0.89582037  1
  O  O20  1  0.63081564  0.99739992  0.89770999  1
  O  O21  1  0.81517871  0.99471108  0.40690068  1
