# generated using pymatgen
data_Li6Cr2O7
_symmetry_space_group_name_H-M   'P 1'
_cell_length_a   9.07221427
_cell_length_b   5.05893361
_cell_length_c   7.87024394
_cell_angle_alpha   90.00000000
_cell_angle_beta   115.45133909
_cell_angle_gamma   90.00000000
_symmetry_Int_Tables_number   1
_chemical_formula_structural   Li6Cr2O7
_chemical_formula_sum   'Li12 Cr4 O14'
_cell_volume   326.15531378
_cell_formula_units_Z   2
loop_
 _symmetry_equiv_pos_site_id
 _symmetry_equiv_pos_as_xyz
  1  'x, y, z'
loop_
 _atom_site_type_symbol
 _atom_site_label
 _atom_site_symmetry_multiplicity
 _atom_site_fract_x
 _atom_site_fract_y
 _atom_site_fract_z
 _atom_site_occupancy
  Li  Li0  1  0.11736038  0.79900417  0.78159798  1
  Li  Li1  1  0.14387942  0.19036657  0.56311526  1
  Li  Li2  1  0.16558200  0.19110999  0.09542798  1
  Li  Li3  1  0.35612058  0.19036657  0.93688474  1
  Li  Li4  1  0.38263962  0.79900417  0.71840202  1
  Li  Li5  1  0.33441800  0.19110999  0.40457202  1
  Li  Li6  1  0.66558200  0.80888901  0.59542798  1
  Li  Li7  1  0.61736038  0.20099583  0.28159798  1
  Li  Li8  1  0.64387942  0.80963343  0.06311526  1
  Li  Li9  1  0.83441800  0.80888901  0.90457202  1
  Li  Li10  1  0.85612058  0.80963343  0.43688474  1
  Li  Li11  1  0.88263962  0.20099583  0.21840202  1
  Cr  Cr12  1  0.09583362  0.68737027  0.31523206  1
  Cr  Cr13  1  0.40416638  0.68737027  0.18476794  1
  Cr  Cr14  1  0.59583362  0.31262973  0.81523206  1
  Cr  Cr15  1  0.90416638  0.31262973  0.68476794  1
  O  O16  1  0.10624562  0.19665803  0.82591964  1
  O  O17  1  0.14287947  0.78574006  0.54782448  1
  O  O18  1  0.10630370  0.33440048  0.29537397  1
  O  O19  1  0.35712053  0.78574006  0.95217552  1
  O  O20  1  0.25000000  0.84799414  0.25000000  1
  O  O21  1  0.39375438  0.19665803  0.67408036  1
  O  O22  1  0.39369630  0.33440048  0.20462603  1
  O  O23  1  0.60630370  0.66559952  0.79537397  1
  O  O24  1  0.60624562  0.80334197  0.32591964  1
  O  O25  1  0.75000000  0.15200586  0.75000000  1
  O  O26  1  0.64287947  0.21425994  0.04782448  1
  O  O27  1  0.89369630  0.66559952  0.70462603  1
  O  O28  1  0.85712053  0.21425994  0.45217552  1
  O  O29  1  0.89375438  0.80334197  0.17408036  1
