# generated using pymatgen
data_Li3Ni(BO2)5
_symmetry_space_group_name_H-M   'P 1'
_cell_length_a   6.88949922
_cell_length_b   7.07119607
_cell_length_c   9.29176832
_cell_angle_alpha   79.99740432
_cell_angle_beta   68.64427348
_cell_angle_gamma   61.59285411
_symmetry_Int_Tables_number   1
_chemical_formula_structural   Li3Ni(BO2)5
_chemical_formula_sum   'Li6 Ni2 B10 O20'
_cell_volume   370.82229366
_cell_formula_units_Z   2
loop_
 _symmetry_equiv_pos_site_id
 _symmetry_equiv_pos_as_xyz
  1  'x, y, z'
loop_
 _atom_site_type_symbol
 _atom_site_label
 _atom_site_symmetry_multiplicity
 _atom_site_fract_x
 _atom_site_fract_y
 _atom_site_fract_z
 _atom_site_occupancy
  Li  Li0  1  0.24406928  0.49203000  0.24664141  1
  Li  Li1  1  0.82120407  0.99275386  0.15878317  1
  Li  Li2  1  0.02001381  0.19300774  0.46407990  1
  Li  Li3  1  0.97998619  0.80699226  0.53592010  1
  Li  Li4  1  0.17879593  0.00724614  0.84121683  1
  Li  Li5  1  0.75593072  0.50797000  0.75335859  1
  Ni  Ni6  1  0.21913454  0.51391806  0.88225077  1
  Ni  Ni7  1  0.78086546  0.48608194  0.11774923  1
  B  B8  1  0.30519820  0.80238669  0.07011324  1
  B  B9  1  0.41162073  0.85716696  0.28858065  1
  B  B10  1  0.36209227  0.74684417  0.56899511  1
  B  B11  1  0.21362840  0.16814320  0.13033906  1
  B  B12  1  0.74643176  0.71398621  0.39725474  1
  B  B13  1  0.25356824  0.28601379  0.60274526  1
  B  B14  1  0.78637160  0.83185680  0.86966094  1
  B  B15  1  0.63790773  0.25315583  0.43100489  1
  B  B16  1  0.58837927  0.14283304  0.71141935  1
  B  B17  1  0.69480180  0.19761331  0.92988676  1
  O  O18  1  0.26815146  0.69431640  0.99102459  1
  O  O19  1  0.27154672  0.84027346  0.44760669  1
  O  O20  1  0.41256128  0.71734371  0.18407699  1
  O  O21  1  0.21513904  0.73300249  0.70630498  1
  O  O22  1  0.12868491  0.37937346  0.09717501  1
  O  O23  1  0.65947825  0.77795667  0.27142443  1
  O  O24  1  0.04510725  0.30498478  0.62252017  1
  O  O25  1  0.69274077  0.91319860  0.75124017  1
  O  O26  1  0.59956954  0.68121047  0.54168055  1
  O  O27  1  0.77966519  0.97482422  0.95979398  1
  O  O28  1  0.22033481  0.02517578  0.04020602  1
  O  O29  1  0.40043046  0.31878953  0.45831945  1
  O  O30  1  0.30725923  0.08680140  0.24875983  1
  O  O31  1  0.95489275  0.69501522  0.37747983  1
  O  O32  1  0.34052175  0.22204333  0.72857557  1
  O  O33  1  0.87131509  0.62062654  0.90282499  1
  O  O34  1  0.78486096  0.26699751  0.29369502  1
  O  O35  1  0.58743872  0.28265629  0.81592301  1
  O  O36  1  0.72845328  0.15972654  0.55239331  1
  O  O37  1  0.73184854  0.30568360  0.00897541  1
