# generated using pymatgen
data_Li4Ni5SnO12
_symmetry_space_group_name_H-M   'P 1'
_cell_length_a   5.12134163
_cell_length_b   5.04482460
_cell_length_c   10.04394207
_cell_angle_alpha   89.49962831
_cell_angle_beta   88.24413576
_cell_angle_gamma   59.48913554
_symmetry_Int_Tables_number   1
_chemical_formula_structural   Li4Ni5SnO12
_chemical_formula_sum   'Li4 Ni5 Sn1 O12'
_cell_volume   223.45407909
_cell_formula_units_Z   1
loop_
 _symmetry_equiv_pos_site_id
 _symmetry_equiv_pos_as_xyz
  1  'x, y, z'
loop_
 _atom_site_type_symbol
 _atom_site_label
 _atom_site_symmetry_multiplicity
 _atom_site_fract_x
 _atom_site_fract_y
 _atom_site_fract_z
 _atom_site_occupancy
  Li  Li0  1  0.15406810  0.50169289  0.74766219  1
  Li  Li1  1  0.34690786  0.49815006  0.25344466  1
  Li  Li2  1  0.65529347  0.50459769  0.74648669  1
  Li  Li3  1  0.84685175  0.50044793  0.25234032  1
  Ni  Ni4  1  0.16220272  0.67350917  0.49996486  1
  Ni  Ni5  1  0.66578981  0.67023573  0.00064894  1
  Ni  Ni6  1  0.33838051  0.32508918  -0.00000658  1
  Ni  Ni7  1  0.83380772  0.33031508  0.49954604  1
  Ni  Ni8  1  0.49789656  0.00198908  0.49989700  1
  Sn  Sn9  1  0.00186980  0.99798725  0.00020746  1
  O  O10  1  0.03001216  0.63745416  0.11230679  1
  O  O11  1  0.33729311  0.63391840  0.88842980  1
  O  O12  1  0.14458361  0.36130681  0.39866279  1
  O  O13  1  0.50554088  0.63935473  0.39888475  1
  O  O14  1  0.49075100  0.36505113  0.60077585  1
  O  O15  1  0.13599478  0.00431410  0.59686519  1
  O  O16  1  0.85216783  0.64208166  0.60104620  1
  O  O17  1  0.66712894  0.36161818  0.11234390  1
  O  O18  1  0.35088859  0.00044878  0.10245370  1
  O  O19  1  0.97442887  0.35865913  0.88833154  1
  O  O20  1  0.65316001  0.99455166  0.89803046  1
  O  O21  1  0.85946891  0.99957421  0.40270645  1
