# generated using pymatgen
data_Li3MnAsCO7
_symmetry_space_group_name_H-M   'P 1'
_cell_length_a   8.71613102
_cell_length_b   6.80668582
_cell_length_c   5.03340424
_cell_angle_alpha   90.00000000
_cell_angle_beta   87.88032298
_cell_angle_gamma   90.00000000
_symmetry_Int_Tables_number   1
_chemical_formula_structural   Li3MnAsCO7
_chemical_formula_sum   'Li6 Mn2 As2 C2 O14'
_cell_volume   298.41730086
_cell_formula_units_Z   2
loop_
 _symmetry_equiv_pos_site_id
 _symmetry_equiv_pos_as_xyz
  1  'x, y, z'
loop_
 _atom_site_type_symbol
 _atom_site_label
 _atom_site_symmetry_multiplicity
 _atom_site_fract_x
 _atom_site_fract_y
 _atom_site_fract_z
 _atom_site_occupancy
  Li  Li0  1  0.07738641  0.25000000  0.74001390  1
  Li  Li1  1  0.26186568  0.02909922  0.22167810  1
  Li  Li2  1  0.26186568  0.47090078  0.22167810  1
  Li  Li3  1  0.73813432  0.52909922  0.77832190  1
  Li  Li4  1  0.73813432  0.97090078  0.77832190  1
  Li  Li5  1  0.92261359  0.75000000  0.25998610  1
  Mn  Mn6  1  0.33864628  0.75000000  0.77117434  1
  Mn  Mn7  1  0.66135372  0.25000000  0.22882566  1
  As  As8  1  0.40993121  0.25000000  0.70809111  1
  As  As9  1  0.59006879  0.75000000  0.29190889  1
  C  C10  1  0.03127923  0.75000000  0.72160045  1
  C  C11  1  0.96872077  0.25000000  0.27839955  1
  O  O12  1  0.11371613  0.25000000  0.33396318  1
  O  O13  1  0.07470816  0.75000000  0.96489732  1
  O  O14  1  0.13269906  0.75000000  0.52510751  1
  O  O15  1  0.29854860  0.05613621  0.81950148  1
  O  O16  1  0.29854860  0.44386379  0.81950148  1
  O  O17  1  0.42332523  0.25000000  0.36334489  1
  O  O18  1  0.40246672  0.75000000  0.19536544  1
  O  O19  1  0.59753328  0.25000000  0.80463456  1
  O  O20  1  0.57667477  0.75000000  0.63665511  1
  O  O21  1  0.70145140  0.55613621  0.18049852  1
  O  O22  1  0.70145140  0.94386379  0.18049852  1
  O  O23  1  0.86730094  0.25000000  0.47489249  1
  O  O24  1  0.92529184  0.25000000  0.03510268  1
  O  O25  1  0.88628387  0.75000000  0.66603682  1
