# generated using pymatgen
data_Y2Bi2O7
_symmetry_space_group_name_H-M   'P 1'
_cell_length_a   8.23469343
_cell_length_b   14.02065136
_cell_length_c   5.76184435
_cell_angle_alpha   90.00000000
_cell_angle_beta   90.00000000
_cell_angle_gamma   99.30285604
_symmetry_Int_Tables_number   1
_chemical_formula_structural   Y2Bi2O7
_chemical_formula_sum   'Y8 Bi8 O28'
_cell_volume   656.48871234
_cell_formula_units_Z   4
loop_
 _symmetry_equiv_pos_site_id
 _symmetry_equiv_pos_as_xyz
  1  'x, y, z'
loop_
 _atom_site_type_symbol
 _atom_site_label
 _atom_site_symmetry_multiplicity
 _atom_site_fract_x
 _atom_site_fract_y
 _atom_site_fract_z
 _atom_site_occupancy
  Y  Y0  1  0.13358534  0.55742762  0.30987070  1
  Y  Y1  1  0.24780153  0.93211978  0.77654055  1
  Y  Y2  1  0.29391975  0.13161795  0.23952290  1
  Y  Y3  1  0.36379420  0.38820042  0.78573599  1
  Y  Y4  1  0.63620580  0.61179958  0.28573599  1
  Y  Y5  1  0.70608025  0.86838205  0.73952290  1
  Y  Y6  1  0.75219847  0.06788022  0.27654055  1
  Y  Y7  1  0.86641466  0.44257238  0.80987070  1
  Bi  Bi8  1  0.07841607  0.31771626  0.26161256  1
  Bi  Bi9  1  0.02336230  0.11758060  0.76078154  1
  Bi  Bi10  1  0.40713880  0.66923896  0.77921396  1
  Bi  Bi11  1  0.45884135  0.86882766  0.26281111  1
  Bi  Bi12  1  0.54115865  0.13117234  0.76281111  1
  Bi  Bi13  1  0.59286120  0.33076104  0.27921396  1
  Bi  Bi14  1  0.97663770  0.88241940  0.26078154  1
  Bi  Bi15  1  0.92158393  0.68228374  0.76161256  1
  O  O16  1  0.06754136  0.41696987  0.54795413  1
  O  O17  1  0.98908889  0.17572803  0.38513643  1
  O  O18  1  0.16039171  0.65289733  0.63556467  1
  O  O19  1  0.21657834  0.87080736  0.42365463  1
  O  O20  1  0.16758015  0.43997779  0.04741453  1
  O  O21  1  0.09800306  0.02206094  0.04937051  1
  O  O22  1  0.16112884  0.24495926  0.96732218  1
  O  O23  1  0.36373336  0.62742387  0.12713683  1
  O  O24  1  0.41405424  0.82201242  0.86985701  1
  O  O25  1  0.27034756  0.07790027  0.60021816  1
  O  O26  1  0.32386019  0.30167847  0.42956681  1
  O  O27  1  0.42108795  0.53898979  0.58607843  1
  O  O28  1  0.56658283  0.97766385  0.55753933  1
  O  O29  1  0.53270165  0.74115438  0.48958803  1
  O  O30  1  0.46729835  0.25884562  0.98958803  1
  O  O31  1  0.43341717  0.02233615  0.05753933  1
  O  O32  1  0.57891205  0.46101021  0.08607843  1
  O  O33  1  0.67613981  0.69832153  0.92956681  1
  O  O34  1  0.72965244  0.92209973  0.10021816  1
  O  O35  1  0.58594576  0.17798758  0.36985701  1
  O  O36  1  0.63626664  0.37257613  0.62713683  1
  O  O37  1  0.83887116  0.75504074  0.46732218  1
  O  O38  1  0.90199694  0.97793906  0.54937051  1
  O  O39  1  0.83241985  0.56002221  0.54741453  1
  O  O40  1  0.78342166  0.12919264  0.92365463  1
  O  O41  1  0.83960829  0.34710267  0.13556467  1
  O  O42  1  0.01091111  0.82427197  0.88513643  1
  O  O43  1  0.93245864  0.58303013  0.04795413  1
