# generated using pymatgen
data_Li3Fe3TeO8
_symmetry_space_group_name_H-M   'P 1'
_cell_length_a   10.48902652
_cell_length_b   10.48938704
_cell_length_c   14.81115192
_cell_angle_alpha   19.81447058
_cell_angle_beta   19.81472335
_cell_angle_gamma   33.97635293
_symmetry_Int_Tables_number   1
_chemical_formula_structural   Li3Fe3TeO8
_chemical_formula_sum   'Li3 Fe3 Te1 O8'
_cell_volume   163.66327232
_cell_formula_units_Z   1
loop_
 _symmetry_equiv_pos_site_id
 _symmetry_equiv_pos_as_xyz
  1  'x, y, z'
loop_
 _atom_site_type_symbol
 _atom_site_label
 _atom_site_symmetry_multiplicity
 _atom_site_fract_x
 _atom_site_fract_y
 _atom_site_fract_z
 _atom_site_occupancy
  Li  Li0  1  0.00000714  0.49997475  0.50002358  1
  Li  Li1  1  0.50002756  0.00004867  0.49994774  1
  Li  Li2  1  0.49997291  0.50000881  0.50000846  1
  Fe  Fe3  1  -0.00002529  0.50009025  -0.00005212  1
  Fe  Fe4  1  0.49986884  -0.00026982  0.00025286  1
  Fe  Fe5  1  0.50015793  0.49990871  -0.00002946  1
  Te  Te6  1  0.00015106  0.00086726  -0.00071188  1
  O  O7  1  0.97593698  0.97597946  0.29495471  1
  O  O8  1  0.01478634  0.55227420  0.21289470  1
  O  O9  1  0.55244219  0.01475232  0.21283472  1
  O  O10  1  0.02405850  0.02404176  0.70503081  1
  O  O11  1  0.44214975  0.44211763  0.33582110  1
  O  O12  1  0.98519600  0.44745512  0.78725367  1
  O  O13  1  0.44765625  0.98516843  0.78718152  1
  O  O14  1  0.55761585  0.55758244  0.66458960  1
