# generated using pymatgen
data_LiFePO4
_symmetry_space_group_name_H-M   'P 1'
_cell_length_a   4.36951109
_cell_length_b   5.56293476
_cell_length_c   4.36951109
_cell_angle_alpha   66.87525985
_cell_angle_beta   90.00000000
_cell_angle_gamma   113.12474015
_symmetry_Int_Tables_number   1
_chemical_formula_structural   LiFePO4
_chemical_formula_sum   'Li1 Fe1 P1 O4'
_cell_volume   88.32261279
_cell_formula_units_Z   1
loop_
 _symmetry_equiv_pos_site_id
 _symmetry_equiv_pos_as_xyz
  1  'x, y, z'
loop_
 _atom_site_type_symbol
 _atom_site_label
 _atom_site_symmetry_multiplicity
 _atom_site_fract_x
 _atom_site_fract_y
 _atom_site_fract_z
 _atom_site_occupancy
  Li  Li0  1  0.50000000  0.00000000  0.50000000  1
  Fe  Fe1  1  0.75000000  0.50000000  0.75000000  1
  P  P2  1  0.00000000  0.00000000  0.00000000  1
  O  O3  1  0.32178210  0.19333866  0.08950311  1
  O  O4  1  0.71715823  0.80666134  0.32178210  1
  O  O5  1  0.87155656  0.19333866  0.71715823  1
  O  O6  1  0.08950311  0.80666134  0.87155656  1
