# generated using pymatgen
data_Mn5Co(PO4)6
_symmetry_space_group_name_H-M   'P 1'
_cell_length_a   8.56447167
_cell_length_b   8.51321839
_cell_length_c   8.51321892
_cell_angle_alpha   60.00000131
_cell_angle_beta   60.19776702
_cell_angle_gamma   60.19776807
_symmetry_Int_Tables_number   1
_chemical_formula_structural   Mn5Co(PO4)6
_chemical_formula_sum   'Mn5 Co1 P6 O24'
_cell_volume   440.21509376
_cell_formula_units_Z   1
loop_
 _symmetry_equiv_pos_site_id
 _symmetry_equiv_pos_as_xyz
  1  'x, y, z'
loop_
 _atom_site_type_symbol
 _atom_site_label
 _atom_site_symmetry_multiplicity
 _atom_site_fract_x
 _atom_site_fract_y
 _atom_site_fract_z
 _atom_site_occupancy
  Mn  Mn0  1  0.99570277  0.00143241  0.00143241  1
  Mn  Mn1  1  0.06896720  0.64367727  0.64367727  1
  Mn  Mn2  1  0.50045023  0.49985026  0.49985026  1
  Mn  Mn3  1  0.42843600  0.85718767  0.85718767  1
  Mn  Mn4  1  0.93078846  0.35640351  0.35640351  1
  Co  Co5  1  0.57531401  0.14156200  0.14156200  1
  P  P6  1  0.25357906  0.24879253  0.53491505  1
  P  P7  1  0.25357906  0.96271336  0.24879253  1
  P  P8  1  0.25357906  0.53491505  0.96271336  1
  P  P9  1  0.74818683  0.45924309  0.03975667  1
  P  P10  1  0.74818683  0.03975667  0.75281342  1
  P  P11  1  0.74818683  0.75281342  0.45924309  1
  O  O12  1  0.06612614  0.12163650  0.30064386  1
  O  O13  1  0.06612614  0.51159351  0.12163650  1
  O  O14  1  0.06612614  0.30064386  0.51159351  1
  O  O15  1  0.23776231  0.08330577  0.73472862  1
  O  O16  1  0.43658026  0.19864481  0.37462384  1
  O  O17  1  0.26291376  0.41841772  0.55378813  1
  O  O18  1  0.23776231  0.94420430  0.08330577  1
  O  O19  1  0.26291376  0.76487939  0.41841772  1
  O  O20  1  0.56505707  0.62261853  0.01176982  1
  O  O21  1  0.26291376  0.55378813  0.76487939  1
  O  O22  1  0.75954824  0.26332769  0.05639070  1
  O  O23  1  0.56505707  0.01176982  0.80055357  1
  O  O24  1  0.43658026  0.99015009  0.19864481  1
  O  O25  1  0.23776231  0.73472862  0.94420430  1
  O  O26  1  0.73714938  0.44352842  0.23592707  1
  O  O27  1  0.43658026  0.37462384  0.99015009  1
  O  O28  1  0.73714938  0.23592707  0.58339513  1
  O  O29  1  0.75954824  0.05639070  0.92073337  1
  O  O30  1  0.73714938  0.58339513  0.44352842  1
  O  O31  1  0.56505707  0.80055357  0.62261853  1
  O  O32  1  0.75954824  0.92073337  0.26332769  1
  O  O33  1  0.93320906  0.69955438  0.48841886  1
  O  O34  1  0.93320906  0.48841886  0.87881770  1
  O  O35  1  0.93320906  0.87881770  0.69955438  1
