# generated using pymatgen
data_Ca(CoO2)2
_symmetry_space_group_name_H-M   'P 1'
_cell_length_a   6.26336239
_cell_length_b   6.22564537
_cell_length_c   18.62228290
_cell_angle_alpha   60.50429870
_cell_angle_beta   60.00935616
_cell_angle_gamma   59.45188906
_symmetry_Int_Tables_number   1
_chemical_formula_structural   Ca(CoO2)2
_chemical_formula_sum   'Ca6 Co12 O24'
_cell_volume   513.24341872
_cell_formula_units_Z   6
loop_
 _symmetry_equiv_pos_site_id
 _symmetry_equiv_pos_as_xyz
  1  'x, y, z'
loop_
 _atom_site_type_symbol
 _atom_site_label
 _atom_site_symmetry_multiplicity
 _atom_site_fract_x
 _atom_site_fract_y
 _atom_site_fract_z
 _atom_site_occupancy
  Ca  Ca0  1  0.12603820  0.12539235  0.04142975  1
  Ca  Ca1  1  0.11871681  0.12041787  0.38149721  1
  Ca  Ca2  1  0.50262978  0.50140457  0.99902735  1
  Ca  Ca3  1  0.11874093  0.11721053  0.71563083  1
  Ca  Ca4  1  0.88036121  0.87937921  0.28588996  1
  Ca  Ca5  1  0.87352153  0.87394228  0.62599410  1
  Co  Co6  1  0.99663413  0.49594575  0.17005093  1
  Co  Co7  1  0.49473082  0.49508790  0.17039799  1
  Co  Co8  1  -0.00127122  0.50074358  0.50094558  1
  Co  Co9  1  0.49664993  0.99625959  0.17010458  1
  Co  Co10  1  0.49192123  0.49614664  0.33608525  1
  Co  Co11  1  0.49868516  0.50076192  0.49988376  1
  Co  Co12  1  0.00614183  0.49974646  0.83060916  1
  Co  Co13  1  0.50028033  0.99903701  0.50056553  1
  Co  Co14  1  0.50096298  0.00876499  0.82973330  1
  Co  Co15  1  0.50420061  0.50331367  0.66457386  1
  Co  Co16  1  0.50243265  0.50011174  0.83074231  1
  Co  Co17  1  0.88179890  0.88184235  0.95203017  1
  O  O18  1  0.24256046  0.24259250  0.10685041  1
  O  O19  1  0.25955454  0.26053396  0.23981988  1
  O  O20  1  0.24743377  0.69623715  0.10904715  1
  O  O21  1  0.69637166  0.24522108  0.10809344  1
  O  O22  1  0.31248744  0.72494848  0.24319815  1
  O  O23  1  0.27392746  0.27126722  0.42116007  1
  O  O24  1  0.72143275  0.31241995  0.24328081  1
  O  O25  1  0.74604491  0.74676314  0.08760572  1
  O  O26  1  0.26427184  0.69108338  0.42361679  1
  O  O27  1  0.26231447  0.26294482  0.56786760  1
  O  O28  1  0.72725701  0.72682950  0.24362827  1
  O  O29  1  0.68963363  0.27117989  0.42474869  1
  O  O30  1  0.30669505  0.73424049  0.57190555  1
  O  O31  1  0.27390393  0.27382578  0.75306226  1
  O  O32  1  0.73440222  0.30824185  0.57532277  1
  O  O33  1  0.73818662  0.73704261  0.43184475  1
  O  O34  1  0.26813741  0.27076205  0.89717488  1
  O  O35  1  0.27541127  0.69207176  0.75009362  1
  O  O36  1  0.72987054  0.73419571  0.57780968  1
  O  O37  1  0.69321505  0.27077380  0.75390004  1
  O  O38  1  0.27688425  0.76423477  0.89817844  1
  O  O39  1  0.73192083  0.73083266  0.76898006  1
  O  O40  1  0.76811852  0.27423237  0.89862407  1
  O  O41  1  0.76678553  0.76201668  0.89899429  1
