# generated using pymatgen
data_Ba3YI9
_symmetry_space_group_name_H-M   'P 1'
_cell_length_a   14.30238239
_cell_length_b   8.26189151
_cell_length_c   20.41597432
_cell_angle_alpha   90.00000000
_cell_angle_beta   90.00000000
_cell_angle_gamma   90.00000000
_symmetry_Int_Tables_number   1
_chemical_formula_structural   Ba3YI9
_chemical_formula_sum   'Ba12 Y4 I36'
_cell_volume   2412.44812671
_cell_formula_units_Z   4
loop_
 _symmetry_equiv_pos_site_id
 _symmetry_equiv_pos_as_xyz
  1  'x, y, z'
loop_
 _atom_site_type_symbol
 _atom_site_label
 _atom_site_symmetry_multiplicity
 _atom_site_fract_x
 _atom_site_fract_y
 _atom_site_fract_z
 _atom_site_occupancy
  Ba  Ba0  1  0.04940842  0.75000000  0.90145849  1
  Ba  Ba1  1  0.19022315  0.75000000  0.47236190  1
  Ba  Ba2  1  0.23448981  0.25000000  0.67505974  1
  Ba  Ba3  1  0.26551019  0.75000000  0.17505974  1
  Ba  Ba4  1  0.30977685  0.25000000  0.97236190  1
  Ba  Ba5  1  0.45059158  0.25000000  0.40145849  1
  Ba  Ba6  1  0.54940842  0.75000000  0.59854151  1
  Ba  Ba7  1  0.69022315  0.75000000  0.02763810  1
  Ba  Ba8  1  0.73448981  0.25000000  0.82494026  1
  Ba  Ba9  1  0.76551019  0.75000000  0.32494026  1
  Ba  Ba10  1  0.80977685  0.25000000  0.52763810  1
  Ba  Ba11  1  0.95059158  0.25000000  0.09854151  1
  Y  Y12  1  0.02109109  0.25000000  0.32446391  1
  Y  Y13  1  0.47890891  0.75000000  0.82446391  1
  Y  Y14  1  0.52109109  0.25000000  0.17553609  1
  Y  Y15  1  0.97890891  0.75000000  0.67553609  1
  I  I16  1  0.06699899  0.49089810  0.58628211  1
  I  I17  1  0.06699899  0.00910190  0.58628211  1
  I  I18  1  0.08168189  0.50549376  0.23152374  1
  I  I19  1  0.08168189  0.99450624  0.23152374  1
  I  I20  1  0.16151912  0.75000000  0.74737131  1
  I  I21  1  0.16889189  0.25000000  0.83931288  1
  I  I22  1  0.13722165  0.50261848  0.03831819  1
  I  I23  1  0.13722165  0.99738152  0.03831819  1
  I  I24  1  0.18632220  0.25000000  0.41587111  1
  I  I25  1  0.31367780  0.75000000  0.91587111  1
  I  I26  1  0.36277835  0.00261848  0.53831819  1
  I  I27  1  0.36277835  0.49738152  0.53831819  1
  I  I28  1  0.33110811  0.75000000  0.33931288  1
  I  I29  1  0.33848088  0.25000000  0.24737131  1
  I  I30  1  0.41831811  0.49450624  0.73152374  1
  I  I31  1  0.41831811  0.00549376  0.73152374  1
  I  I32  1  0.43300101  0.99089810  0.08628211  1
  I  I33  1  0.43300101  0.50910190  0.08628211  1
  I  I34  1  0.56699899  0.49089810  0.91371789  1
  I  I35  1  0.56699899  0.00910190  0.91371789  1
  I  I36  1  0.58168189  0.99450624  0.26847626  1
  I  I37  1  0.58168189  0.50549376  0.26847626  1
  I  I38  1  0.66151912  0.75000000  0.75262869  1
  I  I39  1  0.66889189  0.25000000  0.66068712  1
  I  I40  1  0.63722165  0.50261848  0.46168181  1
  I  I41  1  0.63722165  0.99738152  0.46168181  1
  I  I42  1  0.68632220  0.25000000  0.08412889  1
  I  I43  1  0.81367780  0.75000000  0.58412889  1
  I  I44  1  0.86277835  0.00261848  0.96168181  1
  I  I45  1  0.86277835  0.49738152  0.96168181  1
  I  I46  1  0.83110811  0.75000000  0.16068712  1
  I  I47  1  0.83848088  0.25000000  0.25262869  1
  I  I48  1  0.91831811  0.49450624  0.76847626  1
  I  I49  1  0.91831811  0.00549376  0.76847626  1
  I  I50  1  0.93300101  0.99089810  0.41371789  1
  I  I51  1  0.93300101  0.50910190  0.41371789  1
