# generated using pymatgen
data_BaLaCl5
_symmetry_space_group_name_H-M   'P 1'
_cell_length_a   10.02385400
_cell_length_b   15.77385479
_cell_length_c   10.53784348
_cell_angle_alpha   90.00000000
_cell_angle_beta   102.87294817
_cell_angle_gamma   90.00000000
_symmetry_Int_Tables_number   1
_chemical_formula_structural   BaLaCl5
_chemical_formula_sum   'Ba8 La8 Cl40'
_cell_volume   1624.31201809
_cell_formula_units_Z   8
loop_
 _symmetry_equiv_pos_site_id
 _symmetry_equiv_pos_as_xyz
  1  'x, y, z'
loop_
 _atom_site_type_symbol
 _atom_site_label
 _atom_site_symmetry_multiplicity
 _atom_site_fract_x
 _atom_site_fract_y
 _atom_site_fract_z
 _atom_site_occupancy
  Ba  Ba0  1  0.21595871  0.02967196  0.70126414  1
  Ba  Ba1  1  0.28489395  0.48281935  0.67470258  1
  Ba  Ba2  1  0.21595871  0.47032804  0.20126414  1
  Ba  Ba3  1  0.28489395  0.01718065  0.17470258  1
  Ba  Ba4  1  0.71510605  0.98281935  0.82529742  1
  Ba  Ba5  1  0.78404129  0.52967196  0.79873586  1
  Ba  Ba6  1  0.71510605  0.51718065  0.32529742  1
  Ba  Ba7  1  0.78404129  0.97032804  0.29873586  1
  La  La8  1  0.01450449  0.76526204  0.61092803  1
  La  La9  1  0.01450449  0.73473796  0.11092803  1
  La  La10  1  0.43809372  0.74263395  0.96214424  1
  La  La11  1  0.43809372  0.75736605  0.46214424  1
  La  La12  1  0.56190628  0.24263395  0.53785576  1
  La  La13  1  0.56190628  0.25736605  0.03785576  1
  La  La14  1  0.98549551  0.26526204  0.88907197  1
  La  La15  1  0.98549551  0.23473796  0.38907197  1
  Cl  Cl16  1  0.05805316  0.08411467  0.92939315  1
  Cl  Cl17  1  0.08448884  0.43831858  0.87702062  1
  Cl  Cl18  1  0.05805316  0.41588533  0.42939315  1
  Cl  Cl19  1  0.07711454  0.21070848  0.66605019  1
  Cl  Cl20  1  0.08448884  0.06168142  0.37702062  1
  Cl  Cl21  1  0.19558897  0.85299512  0.85470028  1
  Cl  Cl22  1  0.07711454  0.28929152  0.16605019  1
  Cl  Cl23  1  0.27568989  0.25706268  0.96681645  1
  Cl  Cl24  1  0.19558897  0.64700488  0.35470028  1
  Cl  Cl25  1  0.21956827  0.86566435  0.51804933  1
  Cl  Cl26  1  0.26864514  0.67893558  0.69604395  1
  Cl  Cl27  1  0.27568989  0.24293732  0.46681645  1
  Cl  Cl28  1  0.21956827  0.63433565  0.01804933  1
  Cl  Cl29  1  0.26864514  0.82106442  0.19604395  1
  Cl  Cl30  1  0.47709820  0.32763829  0.76052725  1
  Cl  Cl31  1  0.47085630  0.09184879  0.93507817  1
  Cl  Cl32  1  0.52176478  0.57654560  0.89584064  1
  Cl  Cl33  1  0.47823522  0.07654560  0.60415936  1
  Cl  Cl34  1  0.52914370  0.59184879  0.56492183  1
  Cl  Cl35  1  0.52290180  0.82763829  0.73947275  1
  Cl  Cl36  1  0.47709820  0.17236171  0.26052725  1
  Cl  Cl37  1  0.47085630  0.40815121  0.43507817  1
  Cl  Cl38  1  0.52176478  0.92345440  0.39584064  1
  Cl  Cl39  1  0.47823522  0.42345440  0.10415936  1
  Cl  Cl40  1  0.52914370  0.90815121  0.06492183  1
  Cl  Cl41  1  0.52290180  0.67236171  0.23947275  1
  Cl  Cl42  1  0.73135486  0.17893558  0.80395605  1
  Cl  Cl43  1  0.78043173  0.36566435  0.98195067  1
  Cl  Cl44  1  0.72431011  0.75706268  0.53318355  1
  Cl  Cl45  1  0.73135486  0.32106442  0.30395605  1
  Cl  Cl46  1  0.78043173  0.13433565  0.48195067  1
  Cl  Cl47  1  0.80441103  0.35299512  0.64529972  1
  Cl  Cl48  1  0.72431011  0.74293732  0.03318355  1
  Cl  Cl49  1  0.92288546  0.71070848  0.83394981  1
  Cl  Cl50  1  0.80441103  0.14700488  0.14529972  1
  Cl  Cl51  1  0.91551116  0.93831858  0.62297938  1
  Cl  Cl52  1  0.92288546  0.78929152  0.33394981  1
  Cl  Cl53  1  0.94194684  0.58411467  0.57060685  1
  Cl  Cl54  1  0.91551116  0.56168142  0.12297938  1
  Cl  Cl55  1  0.94194684  0.91588533  0.07060685  1
