# generated using pymatgen
data_Li3MnSiBO7
_symmetry_space_group_name_H-M   'P 1'
_cell_length_a   8.32577083
_cell_length_b   6.28164267
_cell_length_c   5.07535045
_cell_angle_alpha   90.00000000
_cell_angle_beta   84.34861735
_cell_angle_gamma   90.00000000
_symmetry_Int_Tables_number   1
_chemical_formula_structural   Li3MnSiBO7
_chemical_formula_sum   'Li6 Mn2 Si2 B2 O14'
_cell_volume   264.14821230
_cell_formula_units_Z   2
loop_
 _symmetry_equiv_pos_site_id
 _symmetry_equiv_pos_as_xyz
  1  'x, y, z'
loop_
 _atom_site_type_symbol
 _atom_site_label
 _atom_site_symmetry_multiplicity
 _atom_site_fract_x
 _atom_site_fract_y
 _atom_site_fract_z
 _atom_site_occupancy
  Li  Li0  1  0.10406599  0.25000000  0.75164713  1
  Li  Li1  1  0.24717587  0.99887672  0.24789472  1
  Li  Li2  1  0.24717587  0.50112328  0.24789472  1
  Li  Li3  1  0.75282413  0.49887672  0.75210528  1
  Li  Li4  1  0.75282413  0.00112328  0.75210528  1
  Li  Li5  1  0.89593401  0.75000000  0.24835287  1
  Mn  Mn6  1  0.31871707  0.75000000  0.79676648  1
  Mn  Mn7  1  0.68128293  0.25000000  0.20323352  1
  Si  Si8  1  0.42862638  0.25000000  0.72541604  1
  Si  Si9  1  0.57137362  0.75000000  0.27458396  1
  B  B10  1  0.03859610  0.75000000  0.71591353  1
  B  B11  1  0.96140390  0.25000000  0.28408647  1
  O  O12  1  0.11310346  0.25000000  0.35214301  1
  O  O13  1  0.08878435  0.75000000  0.97098208  1
  O  O14  1  0.17315413  0.75000000  0.52462363  1
  O  O15  1  0.30363038  0.05451091  0.81816683  1
  O  O16  1  0.30363038  0.44548909  0.81816683  1
  O  O17  1  0.47483292  0.25000000  0.40247590  1
  O  O18  1  0.40369506  0.75000000  0.13561891  1
  O  O19  1  0.59630494  0.25000000  0.86438109  1
  O  O20  1  0.52516708  0.75000000  0.59752410  1
  O  O21  1  0.69636962  0.55451091  0.18183317  1
  O  O22  1  0.69636962  0.94548909  0.18183317  1
  O  O23  1  0.82684587  0.25000000  0.47537637  1
  O  O24  1  0.91121565  0.25000000  0.02901792  1
  O  O25  1  0.88689654  0.75000000  0.64785699  1
