# generated using pymatgen
data_Li4Mn(TeO4)3
_symmetry_space_group_name_H-M   'P 1'
_cell_length_a   5.48608014
_cell_length_b   11.00189624
_cell_length_c   9.72215660
_cell_angle_alpha   28.20689534
_cell_angle_beta   51.61165191
_cell_angle_gamma   56.80642746
_symmetry_Int_Tables_number   1
_chemical_formula_structural   Li4Mn(TeO4)3
_chemical_formula_sum   'Li4 Mn1 Te3 O12'
_cell_volume   217.39740878
_cell_formula_units_Z   1
loop_
 _symmetry_equiv_pos_site_id
 _symmetry_equiv_pos_as_xyz
  1  'x, y, z'
loop_
 _atom_site_type_symbol
 _atom_site_label
 _atom_site_symmetry_multiplicity
 _atom_site_fract_x
 _atom_site_fract_y
 _atom_site_fract_z
 _atom_site_occupancy
  Li  Li0  1  0.28596762  0.00706913  0.21646240  1
  Li  Li1  1  0.21580974  0.49562061  0.27524426  1
  Li  Li2  1  0.74776916  0.99354007  0.77878145  1
  Li  Li3  1  0.75693578  0.50235601  0.72267802  1
  Mn  Mn4  1  0.97398346  0.99843567  0.96562457  1
  Te  Te5  1  0.46058933  0.99782482  0.46453633  1
  Te  Te6  1  0.46257020  0.50235816  0.45940828  1
  Te  Te7  1  0.95643572  0.50046436  0.96374945  1
  O  O8  1  0.20956623  0.12727155  0.56360938  1
  O  O9  1  0.84676673  0.19555680  0.18400453  1
  O  O10  1  0.70518583  0.36075470  0.33827551  1
  O  O11  1  0.17503390  0.63455403  0.58681371  1
  O  O12  1  0.58980763  0.19525680  0.81099297  1
  O  O13  1  0.82005666  0.69029606  0.20485333  1
  O  O14  1  0.33804701  0.30754507  0.07114360  1
  O  O15  1  0.65931079  0.87357241  0.35906564  1
  O  O16  1  0.10503637  0.33526716  0.67324871  1
  O  O17  1  0.57208984  0.67184641  0.85252062  1
  O  O18  1  0.35323999  0.79242782  0.09699664  1
  O  O19  1  0.06339901  0.81798237  0.70959260  1
