# generated using pymatgen
data_Fe(SO4)2
_symmetry_space_group_name_H-M   'P 1'
_cell_length_a   8.94592667
_cell_length_b   8.94592691
_cell_length_c   8.94592658
_cell_angle_alpha   55.71331945
_cell_angle_beta   55.71332174
_cell_angle_gamma   55.71332411
_symmetry_Int_Tables_number   1
_chemical_formula_structural   Fe(SO4)2
_chemical_formula_sum   'Fe3 S6 O24'
_cell_volume   455.90595781
_cell_formula_units_Z   3
loop_
 _symmetry_equiv_pos_site_id
 _symmetry_equiv_pos_as_xyz
  1  'x, y, z'
loop_
 _atom_site_type_symbol
 _atom_site_label
 _atom_site_symmetry_multiplicity
 _atom_site_fract_x
 _atom_site_fract_y
 _atom_site_fract_z
 _atom_site_occupancy
  Fe  Fe0  1  0.14884136  0.14884136  0.14884136  1
  Fe  Fe1  1  0.64391304  0.64391304  0.64391304  1
  Fe  Fe2  1  0.84933360  0.84933360  0.84933360  1
  S  S3  1  0.04146945  0.75237582  0.45883937  1
  S  S4  1  0.45883937  0.04146945  0.75237582  1
  S  S5  1  0.75237582  0.45883937  0.04146945  1
  S  S6  1  0.24870069  0.54194144  0.95765265  1
  S  S7  1  0.54194144  0.95765265  0.24870069  1
  S  S8  1  0.95765265  0.24870069  0.54194144  1
  O  O9  1  0.11118319  0.28917887  0.51280167  1
  O  O10  1  0.28917887  0.51280167  0.11118319  1
  O  O11  1  0.00620808  0.96120635  0.33089365  1
  O  O12  1  0.51280167  0.11118319  0.28917887  1
  O  O13  1  0.02191818  0.72101493  0.65281623  1
  O  O14  1  0.23755576  0.62736110  0.37993777  1
  O  O15  1  0.37993777  0.23755576  0.62736110  1
  O  O16  1  0.33089365  0.00620808  0.96120635  1
  O  O17  1  0.62736110  0.37993777  0.23755576  1
  O  O18  1  0.04405712  0.67771869  0.97783493  1
  O  O19  1  0.27531541  0.35234178  0.97484919  1
  O  O20  1  0.35234178  0.97484919  0.27531541  1
  O  O21  1  0.65281623  0.02191818  0.72101493  1
  O  O22  1  0.72101493  0.65281623  0.02191818  1
  O  O23  1  0.96120635  0.33089365  0.00620808  1
  O  O24  1  0.38099165  0.62387973  0.75975373  1
  O  O25  1  0.67771869  0.97783493  0.04405712  1
  O  O26  1  0.62387973  0.75975373  0.38099165  1
  O  O27  1  0.75975373  0.38099165  0.62387973  1
  O  O28  1  0.97484919  0.27531541  0.35234178  1
  O  O29  1  0.48903532  0.89004155  0.70399770  1
  O  O30  1  0.97783493  0.04405712  0.67771869  1
  O  O31  1  0.70399770  0.48903532  0.89004155  1
  O  O32  1  0.89004155  0.70399770  0.48903532  1
