# generated using pymatgen
data_ScP2O7
_symmetry_space_group_name_H-M   'P 1'
_cell_length_a   7.23299687
_cell_length_b   8.40385860
_cell_length_c   5.10186066
_cell_angle_alpha   90.00000000
_cell_angle_beta   110.54252515
_cell_angle_gamma   90.00000000
_symmetry_Int_Tables_number   1
_chemical_formula_structural   ScP2O7
_chemical_formula_sum   'Sc2 P4 O14'
_cell_volume   290.39730371
_cell_formula_units_Z   2
loop_
 _symmetry_equiv_pos_site_id
 _symmetry_equiv_pos_as_xyz
  1  'x, y, z'
loop_
 _atom_site_type_symbol
 _atom_site_label
 _atom_site_symmetry_multiplicity
 _atom_site_fract_x
 _atom_site_fract_y
 _atom_site_fract_z
 _atom_site_occupancy
  Sc  Sc0  1  0.27878382  0.00697310  0.79202011  1
  Sc  Sc1  1  0.72121618  0.50697310  0.20797989  1
  P  P2  1  0.07955197  0.78352129  0.20582963  1
  P  P3  1  0.46624491  0.67828165  0.59130152  1
  P  P4  1  0.53375509  0.17828165  0.40869848  1
  P  P5  1  0.92044803  0.28352129  0.79417037  1
  O  O6  1  0.13435281  0.83514218  0.95524085  1
  O  O7  1  0.11540832  0.19463166  0.87347165  1
  O  O8  1  0.08763316  0.92875054  0.39281686  1
  O  O9  1  0.24086029  0.65321942  0.38332737  1
  O  O10  1  0.40217312  0.16752859  0.58634774  1
  O  O11  1  0.51148072  0.54211894  0.80385173  1
  O  O12  1  0.47670836  0.83943163  0.73319927  1
  O  O13  1  0.52329164  0.33943163  0.26680073  1
  O  O14  1  0.48851928  0.04211894  0.19614827  1
  O  O15  1  0.59782688  0.66752859  0.41365226  1
  O  O16  1  0.75913971  0.15321942  0.61667263  1
  O  O17  1  0.91236684  0.42875054  0.60718314  1
  O  O18  1  0.88459168  0.69463166  0.12652835  1
  O  O19  1  0.86564719  0.33514218  0.04475915  1
