# generated using pymatgen
data_RbLi2V2(BO3)3
_symmetry_space_group_name_H-M   'P 1'
_cell_length_a   6.46423840
_cell_length_b   5.12370309
_cell_length_c   13.12012159
_cell_angle_alpha   90.00000000
_cell_angle_beta   91.44439547
_cell_angle_gamma   90.00000000
_symmetry_Int_Tables_number   1
_chemical_formula_structural   RbLi2V2(BO3)3
_chemical_formula_sum   'Rb2 Li4 V4 B6 O18'
_cell_volume   434.41135083
_cell_formula_units_Z   2
loop_
 _symmetry_equiv_pos_site_id
 _symmetry_equiv_pos_as_xyz
  1  'x, y, z'
loop_
 _atom_site_type_symbol
 _atom_site_label
 _atom_site_symmetry_multiplicity
 _atom_site_fract_x
 _atom_site_fract_y
 _atom_site_fract_z
 _atom_site_occupancy
  Rb  Rb0  1  0.00000000  0.20537241  0.75000000  1
  Rb  Rb1  1  0.00000000  0.79462759  0.25000000  1
  Li  Li2  1  0.49661281  0.17142283  0.86432959  1
  Li  Li3  1  0.50338719  0.17142283  0.63567041  1
  Li  Li4  1  0.49661281  0.82857717  0.36432959  1
  Li  Li5  1  0.50338719  0.82857717  0.13567041  1
  V  V6  1  0.23614435  0.67980789  0.56239776  1
  V  V7  1  0.23614435  0.32019211  0.06239776  1
  V  V8  1  0.76385565  0.67980789  0.93760224  1
  V  V9  1  0.76385565  0.32019211  0.43760224  1
  B  B10  1  0.19877785  0.82137980  0.95676162  1
  B  B11  1  0.19877785  0.17862020  0.45676162  1
  B  B12  1  0.50000000  0.66884962  0.75000000  1
  B  B13  1  0.50000000  0.33115038  0.25000000  1
  B  B14  1  0.80122215  0.82137980  0.54323838  1
  B  B15  1  0.80122215  0.17862020  0.04323838  1
  O  O16  1  0.04803438  0.70170370  0.89594066  1
  O  O17  1  0.04803438  0.29829630  0.39594066  1
  O  O18  1  0.24161855  0.08511891  0.94510858  1
  O  O19  1  0.24161855  0.91488109  0.44510858  1
  O  O20  1  0.30633115  0.31925730  0.53155655  1
  O  O21  1  0.30633115  0.68074270  0.03155655  1
  O  O22  1  0.40486490  0.81926582  0.67202197  1
  O  O23  1  0.40486490  0.18073418  0.17202197  1
  O  O24  1  0.50000000  0.40527092  0.75000000  1
  O  O25  1  0.50000000  0.59472908  0.25000000  1
  O  O26  1  0.59513510  0.81926582  0.82797803  1
  O  O27  1  0.59513510  0.18073418  0.32797803  1
  O  O28  1  0.69366885  0.31925730  0.96844345  1
  O  O29  1  0.69366885  0.68074270  0.46844345  1
  O  O30  1  0.75838145  0.08511891  0.55489142  1
  O  O31  1  0.75838145  0.91488109  0.05489142  1
  O  O32  1  0.95196562  0.70170370  0.60405934  1
  O  O33  1  0.95196562  0.29829630  0.10405934  1
