# generated using pymatgen
data_LiCoCSO7
_symmetry_space_group_name_H-M   'P 1'
_cell_length_a   8.82199281
_cell_length_b   6.46534294
_cell_length_c   5.13256544
_cell_angle_alpha   90.00000000
_cell_angle_beta   86.45863215
_cell_angle_gamma   90.00000000
_symmetry_Int_Tables_number   1
_chemical_formula_structural   LiCoCSO7
_chemical_formula_sum   'Li2 Co2 C2 S2 O14'
_cell_volume   292.18819491
_cell_formula_units_Z   2
loop_
 _symmetry_equiv_pos_site_id
 _symmetry_equiv_pos_as_xyz
  1  'x, y, z'
loop_
 _atom_site_type_symbol
 _atom_site_label
 _atom_site_symmetry_multiplicity
 _atom_site_fract_x
 _atom_site_fract_y
 _atom_site_fract_z
 _atom_site_occupancy
  Li  Li0  1  0.20012977  0.51192792  0.22076893  1
  Li  Li1  1  0.79987023  0.01192792  0.77923107  1
  Co  Co2  1  0.34496982  0.76635870  0.78371013  1
  Co  Co3  1  0.65503018  0.26635870  0.21628987  1
  C  C4  1  0.07027803  0.74089725  0.72783061  1
  C  C5  1  0.92972197  0.24089725  0.27216939  1
  S  S6  1  0.42529317  0.25198185  0.72942971  1
  S  S7  1  0.57470683  0.75198285  0.27057029  1
  O  O8  1  0.06604990  0.27817461  0.30394101  1
  O  O9  1  0.12923979  0.73296762  0.95548328  1
  O  O10  1  0.17459615  0.71525389  0.53525518  1
  O  O11  1  0.32894503  0.06680919  0.78912013  1
  O  O12  1  0.33663970  0.43226263  0.83048957  1
  O  O13  1  0.42651151  0.73484273  0.14925357  1
  O  O14  1  0.45543917  0.26637260  0.43984971  1
  O  O15  1  0.54456083  0.76637260  0.56015029  1
  O  O16  1  0.57348849  0.23484273  0.85074643  1
  O  O17  1  0.66336030  0.93226263  0.16951043  1
  O  O18  1  0.67105497  0.56680919  0.21087987  1
  O  O19  1  0.82540385  0.21525389  0.46474482  1
  O  O20  1  0.87076021  0.23296762  0.04451672  1
  O  O21  1  0.93395010  0.77817461  0.69605899  1
