# generated using pymatgen
data_ZnCu2(BiO4)2
_symmetry_space_group_name_H-M   'P 1'
_cell_length_a   6.43188543
_cell_length_b   8.60732728
_cell_length_c   13.79293615
_cell_angle_alpha   90.00000000
_cell_angle_beta   93.34374117
_cell_angle_gamma   90.00000000
_symmetry_Int_Tables_number   1
_chemical_formula_structural   ZnCu2(BiO4)2
_chemical_formula_sum   'Zn4 Cu8 Bi8 O32'
_cell_volume   762.29550786
_cell_formula_units_Z   4
loop_
 _symmetry_equiv_pos_site_id
 _symmetry_equiv_pos_as_xyz
  1  'x, y, z'
loop_
 _atom_site_type_symbol
 _atom_site_label
 _atom_site_symmetry_multiplicity
 _atom_site_fract_x
 _atom_site_fract_y
 _atom_site_fract_z
 _atom_site_occupancy
  Zn  Zn0  1  0.10516067  0.14767452  0.04814937  1
  Zn  Zn1  1  0.89483933  0.85232548  0.95185063  1
  Zn  Zn2  1  0.89483933  0.64767452  0.45185063  1
  Zn  Zn3  1  0.10516067  0.35232548  0.54814937  1
  Cu  Cu4  1  0.74951611  0.19467300  0.88986211  1
  Cu  Cu5  1  0.35553303  0.06322050  0.61326185  1
  Cu  Cu6  1  0.64446697  0.93677950  0.38673815  1
  Cu  Cu7  1  0.25048389  0.80532700  0.11013789  1
  Cu  Cu8  1  0.74951611  0.30532700  0.38986211  1
  Cu  Cu9  1  0.35553303  0.43677950  0.11326185  1
  Cu  Cu10  1  0.25048389  0.69467300  0.61013789  1
  Cu  Cu11  1  0.64446697  0.56322050  0.88673815  1
  Bi  Bi12  1  0.10286412  0.44066356  0.83359723  1
  Bi  Bi13  1  0.10286412  0.05933644  0.33359723  1
  Bi  Bi14  1  0.62997755  0.09865916  0.13778895  1
  Bi  Bi15  1  0.89713588  0.94066356  0.66640277  1
  Bi  Bi16  1  0.37002245  0.90134084  0.86221105  1
  Bi  Bi17  1  0.37002245  0.59865916  0.36221105  1
  Bi  Bi18  1  0.62997755  0.40134084  0.63778895  1
  Bi  Bi19  1  0.89713588  0.55933644  0.16640277  1
  O  O20  1  0.03311603  0.26392948  0.40770916  1
  O  O21  1  0.63592987  0.03964582  0.59425674  1
  O  O22  1  0.19736342  0.56965672  0.49613788  1
  O  O23  1  0.80263658  0.06965672  0.00386212  1
  O  O24  1  0.03311603  0.23607052  0.90770916  1
  O  O25  1  0.96688397  0.73607052  0.59229084  1
  O  O26  1  0.07771568  0.11915505  0.60935995  1
  O  O27  1  0.51423284  0.87142749  0.14325565  1
  O  O28  1  0.51423284  0.62857251  0.64325565  1
  O  O29  1  0.28526805  0.88166301  0.68120980  1
  O  O30  1  0.71473195  0.38166301  0.81879020  1
  O  O31  1  0.48576716  0.12857251  0.85674435  1
  O  O32  1  0.92228432  0.88084495  0.39064005  1
  O  O33  1  0.88269948  0.54176333  0.31381863  1
  O  O34  1  0.38917255  0.26188933  0.56468766  1
  O  O35  1  0.38917255  0.23811067  0.06468766  1
  O  O36  1  0.11730052  0.04176333  0.18618137  1
  O  O37  1  0.48576716  0.37142749  0.35674435  1
  O  O38  1  0.11730052  0.45823667  0.68618137  1
  O  O39  1  0.80263658  0.43034328  0.50386212  1
  O  O40  1  0.63592987  0.46035418  0.09425674  1
  O  O41  1  0.71473195  0.11833699  0.31879020  1
  O  O42  1  0.96688397  0.76392948  0.09229084  1
  O  O43  1  0.07771568  0.38084495  0.10935995  1
  O  O44  1  0.19736342  0.93034328  0.99613788  1
  O  O45  1  0.61082745  0.76188933  0.93531234  1
  O  O46  1  0.36407013  0.96035418  0.40574326  1
  O  O47  1  0.36407013  0.53964582  0.90574326  1
  O  O48  1  0.92228432  0.61915505  0.89064005  1
  O  O49  1  0.61082745  0.73811067  0.43531234  1
  O  O50  1  0.28526805  0.61833699  0.18120980  1
  O  O51  1  0.88269948  0.95823667  0.81381863  1
