# generated using pymatgen
data_Cr4P2O9
_symmetry_space_group_name_H-M   'P 1'
_cell_length_a   6.53634978
_cell_length_b   12.06953723
_cell_length_c   9.59937704
_cell_angle_alpha   90.00000000
_cell_angle_beta   105.04808611
_cell_angle_gamma   90.00000000
_symmetry_Int_Tables_number   1
_chemical_formula_structural   Cr4P2O9
_chemical_formula_sum   'Cr16 P8 O36'
_cell_volume   731.33254985
_cell_formula_units_Z   4
loop_
 _symmetry_equiv_pos_site_id
 _symmetry_equiv_pos_as_xyz
  1  'x, y, z'
loop_
 _atom_site_type_symbol
 _atom_site_label
 _atom_site_symmetry_multiplicity
 _atom_site_fract_x
 _atom_site_fract_y
 _atom_site_fract_z
 _atom_site_occupancy
  Cr  Cr0  1  0.07218107  0.61060342  0.88901575  1
  Cr  Cr1  1  0.07218107  0.88939658  0.38901575  1
  Cr  Cr2  1  0.22572876  0.38307056  0.75352643  1
  Cr  Cr3  1  0.18132994  0.60102763  0.53616736  1
  Cr  Cr4  1  0.22572876  0.11692944  0.25352643  1
  Cr  Cr5  1  0.18132994  0.89897237  0.03616736  1
  Cr  Cr6  1  0.45830485  0.13113254  0.69108466  1
  Cr  Cr7  1  0.54169515  0.63113254  0.80891534  1
  Cr  Cr8  1  0.45830485  0.36886746  0.19108466  1
  Cr  Cr9  1  0.54169515  0.86886746  0.30891534  1
  Cr  Cr10  1  0.81867006  0.10102763  0.96383264  1
  Cr  Cr11  1  0.77427124  0.88307056  0.74647357  1
  Cr  Cr12  1  0.81867006  0.39897237  0.46383264  1
  Cr  Cr13  1  0.77427124  0.61692944  0.24647357  1
  Cr  Cr14  1  0.92781893  0.11060342  0.61098425  1
  Cr  Cr15  1  0.92781893  0.38939658  0.11098425  1
  P  P16  1  0.29347230  0.17564129  0.92409216  1
  P  P17  1  0.23882766  0.87510619  0.68423726  1
  P  P18  1  0.29347230  0.32435871  0.42409216  1
  P  P19  1  0.23882766  0.62489381  0.18423726  1
  P  P20  1  0.76117234  0.37510619  0.81576274  1
  P  P21  1  0.70652770  0.67564129  0.57590784  1
  P  P22  1  0.76117234  0.12489381  0.31576274  1
  P  P23  1  0.70652770  0.82435871  0.07590784  1
  O  O24  1  0.11074719  0.88822597  0.80064443  1
  O  O25  1  0.18073459  0.19952199  0.75654457  1
  O  O26  1  0.12806431  0.78708132  0.57166066  1
  O  O27  1  0.24536198  0.55456543  0.75678017  1
  O  O28  1  0.15135938  0.39682189  0.49215725  1
  O  O29  1  0.34938989  0.29036139  0.99104775  1
  O  O30  1  0.11074719  0.61177403  0.30064443  1
  O  O31  1  0.22221373  0.98296188  0.58891459  1
  O  O32  1  0.18073459  0.30047801  0.25654457  1
  O  O33  1  0.12806431  0.71291868  0.07166066  1
  O  O34  1  0.24536198  0.94543457  0.25678017  1
  O  O35  1  0.15135938  0.10317811  0.99215725  1
  O  O36  1  0.34938989  0.20963861  0.49104775  1
  O  O37  1  0.48994096  0.10735201  0.91194149  1
  O  O38  1  0.22221373  0.51703812  0.08891459  1
  O  O39  1  0.46838902  0.84567419  0.75805320  1
  O  O40  1  0.53161098  0.34567419  0.74194680  1
  O  O41  1  0.51005904  0.60735201  0.58805851  1
  O  O42  1  0.48994096  0.39264799  0.41194149  1
  O  O43  1  0.46838902  0.65432581  0.25805320  1
  O  O44  1  0.53161098  0.15432581  0.24194680  1
  O  O45  1  0.77778627  0.48296188  0.91108541  1
  O  O46  1  0.51005904  0.89264799  0.08805851  1
  O  O47  1  0.65061011  0.79036139  0.50895225  1
  O  O48  1  0.84864062  0.89682189  0.00784275  1
  O  O49  1  0.75463802  0.05456543  0.74321983  1
  O  O50  1  0.87193569  0.28708132  0.92833934  1
  O  O51  1  0.81926541  0.69952199  0.74345543  1
  O  O52  1  0.77778627  0.01703812  0.41108541  1
  O  O53  1  0.88925281  0.38822597  0.69935557  1
  O  O54  1  0.65061011  0.70963861  0.00895225  1
  O  O55  1  0.84864062  0.60317811  0.50784275  1
  O  O56  1  0.75463802  0.44543457  0.24321983  1
  O  O57  1  0.87193569  0.21291868  0.42833934  1
  O  O58  1  0.81926541  0.80047801  0.24345543  1
  O  O59  1  0.88925281  0.11177403  0.19935557  1
