# generated using pymatgen
data_Mn3Cr2Co3O16
_symmetry_space_group_name_H-M   'P 1'
_cell_length_a   5.68466930
_cell_length_b   5.71105796
_cell_length_c   8.80085219
_cell_angle_alpha   90.00287799
_cell_angle_beta   90.69609769
_cell_angle_gamma   120.15681364
_symmetry_Int_Tables_number   1
_chemical_formula_structural   Mn3Cr2Co3O16
_chemical_formula_sum   'Mn3 Cr2 Co3 O16'
_cell_volume   247.02769952
_cell_formula_units_Z   1
loop_
 _symmetry_equiv_pos_site_id
 _symmetry_equiv_pos_as_xyz
  1  'x, y, z'
loop_
 _atom_site_type_symbol
 _atom_site_label
 _atom_site_symmetry_multiplicity
 _atom_site_fract_x
 _atom_site_fract_y
 _atom_site_fract_z
 _atom_site_occupancy
  Mn  Mn0  1  0.66420166  0.83211303  0.21210890  1
  Mn  Mn1  1  0.83350152  0.66415623  0.71221774  1
  Mn  Mn2  1  0.83350647  0.16936059  0.71221785  1
  Cr  Cr3  1  0.33491563  0.66745741  0.48776918  1
  Cr  Cr4  1  0.66467841  0.33235988  0.99024636  1
  Co  Co5  1  0.16793418  0.83230911  0.20899012  1
  Co  Co6  1  0.16791124  0.33562806  0.20897157  1
  Co  Co7  1  0.33408509  0.16704709  0.70777185  1
  O  O8  1  0.17054687  0.83891465  0.60334343  1
  O  O9  1  0.04541626  0.52271159  0.33105420  1
  O  O10  1  0.32842837  0.66423220  0.10034281  1
  O  O11  1  0.00676756  0.00339659  0.31644590  1
  O  O12  1  0.00398979  0.00201844  0.81862922  1
  O  O13  1  0.17055781  0.33163987  0.60334713  1
  O  O14  1  0.47426419  0.95900792  0.33743533  1
  O  O15  1  0.47423793  0.51526511  0.33742328  1
  O  O16  1  0.33052495  0.16526957  0.10672284  1
  O  O17  1  0.66225886  0.83112384  0.59946125  1
  O  O18  1  0.51534195  0.47272403  0.83666898  1
  O  O19  1  0.51532624  0.04262863  0.83666034  1
  O  O20  1  0.66570004  0.33283877  0.59972745  1
  O  O21  1  0.83710094  0.66636369  0.10349817  1
  O  O22  1  0.96170841  0.48088207  0.84117437  1
  O  O23  1  0.83709563  0.17075263  0.10349273  1
