# generated using pymatgen
data_Li2Mn3(PO4)3
_symmetry_space_group_name_H-M   'P 1'
_cell_length_a   8.53395000
_cell_length_b   9.05413393
_cell_length_c   9.05413394
_cell_angle_alpha   59.15060204
_cell_angle_beta   58.51114207
_cell_angle_gamma   58.51114208
_symmetry_Int_Tables_number   1
_chemical_formula_structural   Li2Mn3(PO4)3
_chemical_formula_sum   'Li4 Mn6 P6 O24'
_cell_volume   480.22556034
_cell_formula_units_Z   2
loop_
 _symmetry_equiv_pos_site_id
 _symmetry_equiv_pos_as_xyz
  1  'x, y, z'
loop_
 _atom_site_type_symbol
 _atom_site_label
 _atom_site_symmetry_multiplicity
 _atom_site_fract_x
 _atom_site_fract_y
 _atom_site_fract_z
 _atom_site_occupancy
  Li  Li0  1  0.25000000  0.85571172  0.64428828  1
  Li  Li1  1  0.75000000  0.15876978  0.34123022  1
  Li  Li2  1  0.75096369  0.74608936  0.15208968  1
  Li  Li3  1  0.74903631  0.34791032  0.75391064  1
  Mn  Mn4  1  0.00057603  0.99798836  0.00975138  1
  Mn  Mn5  1  0.05949716  0.64965363  0.64435712  1
  Mn  Mn6  1  0.53419060  0.15296499  0.15634876  1
  Mn  Mn7  1  0.49942397  0.49024862  0.50201164  1
  Mn  Mn8  1  0.44050284  0.85564288  0.85034637  1
  Mn  Mn9  1  0.96580940  0.34365124  0.34703501  1
  P  P10  1  0.25734466  0.24936686  0.56015318  1
  P  P11  1  0.24265534  0.93984682  0.25063314  1
  P  P12  1  0.25000000  0.55956093  0.94043907  1
  P  P13  1  0.75000000  0.46265544  0.03734456  1
  P  P14  1  0.76301599  0.04410042  0.74919842  1
  P  P15  1  0.73698401  0.75080158  0.45589958  1
  O  O16  1  0.05619221  0.09763472  0.30714905  1
  O  O17  1  0.06185259  0.52840491  0.09400850  1
  O  O18  1  0.06604694  0.30357791  0.53697587  1
  O  O19  1  0.24405914  0.08174829  0.74767442  1
  O  O20  1  0.44380779  0.19285095  0.40236528  1
  O  O21  1  0.26927348  0.40085241  0.58255791  1
  O  O22  1  0.23072652  0.91744209  0.09914759  1
  O  O23  1  0.25594086  0.75232558  0.41825171  1
  O  O24  1  0.56636412  0.61349498  0.99267460  1
  O  O25  1  0.27464316  0.58273188  0.74515518  1
  O  O26  1  0.77777771  0.26837675  0.05655107  1
  O  O27  1  0.59095231  0.98978035  0.81314963  1
  O  O28  1  0.43395306  0.96302413  0.19642209  1
  O  O29  1  0.22535684  0.75484482  0.91726812  1
  O  O30  1  0.72222229  0.44344893  0.23162325  1
  O  O31  1  0.43814741  0.40599150  0.97159509  1
  O  O32  1  0.73142816  0.23940324  0.59653151  1
  O  O33  1  0.77262568  0.07097453  0.90279178  1
  O  O34  1  0.72737432  0.59720822  0.42902547  1
  O  O35  1  0.53961764  0.81666593  0.60038834  1
  O  O36  1  0.76857184  0.90346849  0.26059676  1
  O  O37  1  0.90904769  0.68685037  0.51021965  1
  O  O38  1  0.93363588  0.50732540  0.88650502  1
  O  O39  1  0.96038236  0.89961166  0.68333407  1
