# generated using pymatgen
data_Li2VCr3O8
_symmetry_space_group_name_H-M   'P 1'
_cell_length_a   5.92272980
_cell_length_b   5.92255079
_cell_length_c   9.34439362
_cell_angle_alpha   89.99811291
_cell_angle_beta   90.00094672
_cell_angle_gamma   119.99899869
_symmetry_Int_Tables_number   1
_chemical_formula_structural   Li2VCr3O8
_chemical_formula_sum   'Li4 V2 Cr6 O16'
_cell_volume   283.86827033
_cell_formula_units_Z   2
loop_
 _symmetry_equiv_pos_site_id
 _symmetry_equiv_pos_as_xyz
  1  'x, y, z'
loop_
 _atom_site_type_symbol
 _atom_site_label
 _atom_site_symmetry_multiplicity
 _atom_site_fract_x
 _atom_site_fract_y
 _atom_site_fract_z
 _atom_site_occupancy
  Li  Li0  1  0.33332191  0.66668524  0.89675990  1
  Li  Li1  1  0.00001294  0.00001888  0.99483898  1
  Li  Li2  1  0.99998706  0.00000594  0.49483898  1
  Li  Li3  1  0.66667809  0.33336333  0.39675990  1
  V  V4  1  0.33333411  0.66668630  0.49377177  1
  V  V5  1  0.66666589  0.33335219  0.99377177  1
  Cr  Cr6  1  0.17143981  0.82858509  0.21472963  1
  Cr  Cr7  1  0.17144289  0.34286852  0.21473113  1
  Cr  Cr8  1  0.65715813  0.82858922  0.21473565  1
  Cr  Cr9  1  0.34284187  0.17143209  0.71473565  1
  Cr  Cr10  1  0.82856019  0.65714528  0.71472963  1
  Cr  Cr11  1  0.82855711  0.17142663  0.71473113  1
  O  O12  1  0.17458864  0.82541622  0.59187725  1
  O  O13  1  0.04549341  0.52274319  0.34589985  1
  O  O14  1  0.33336006  0.66670795  0.10399203  1
  O  O15  1  0.00000004  0.99999120  0.30704800  1
  O  O16  1  -0.00000004  0.99999115  0.80704800  1
  O  O17  1  0.17458169  0.34919394  0.59187169  1
  O  O18  1  0.47725781  0.95453622  0.34589916  1
  O  O19  1  0.47724629  0.52272763  0.34590055  1
  O  O20  1  0.34917984  0.17460766  0.09186441  1
  O  O21  1  0.65082016  0.82542783  0.59186441  1
  O  O22  1  0.52274219  0.47727842  0.84589916  1
  O  O23  1  0.52275371  0.04548134  0.84590055  1
  O  O24  1  0.66663994  0.33334689  0.60399203  1
  O  O25  1  0.82541136  0.65082758  0.09187725  1
  O  O26  1  0.95450659  0.47725078  0.84589985  1
  O  O27  1  0.82541831  0.17461225  0.09187169  1
