# generated using pymatgen
data_Li2V2(SiO3)3
_symmetry_space_group_name_H-M   'P 1'
_cell_length_a   10.08846916
_cell_length_b   10.08846849
_cell_length_c   12.57626833
_cell_angle_alpha   90.00000000
_cell_angle_beta   90.00000000
_cell_angle_gamma   120.00000002
_symmetry_Int_Tables_number   1
_chemical_formula_structural   Li2V2(SiO3)3
_chemical_formula_sum   'Li12 V12 Si18 O54'
_cell_volume   1108.49295970
_cell_formula_units_Z   6
loop_
 _symmetry_equiv_pos_site_id
 _symmetry_equiv_pos_as_xyz
  1  'x, y, z'
loop_
 _atom_site_type_symbol
 _atom_site_label
 _atom_site_symmetry_multiplicity
 _atom_site_fract_x
 _atom_site_fract_y
 _atom_site_fract_z
 _atom_site_occupancy
  Li  Li0  1  0.14107217  0.96981067  0.18487635  1
  Li  Li1  1  0.29412255  0.82554441  0.01538354  1
  Li  Li2  1  0.17445559  0.46857814  0.68205054  1
  Li  Li3  1  0.03018933  0.17126050  0.85154335  1
  Li  Li4  1  0.53142186  0.70587745  0.34871654  1
  Li  Li5  1  0.16453054  0.03147623  0.67977567  1
  Li  Li6  1  0.34036439  0.32916526  0.74765179  1
  Li  Li7  1  0.82873950  0.85892783  0.51820935  1
  Li  Li8  1  0.86694570  0.83546946  0.01310867  1
  Li  Li9  1  0.67083474  0.01119913  0.41431879  1
  Li  Li10  1  0.98880087  0.65963561  0.08098479  1
  Li  Li11  1  0.96852377  0.13305430  0.34644167  1
  V  V12  1  0.33590104  0.83113819  0.49350681  1
  V  V13  1  0.16886181  0.50476284  0.16017381  1
  V  V14  1  0.49523716  0.66409896  0.82684081  1
  V  V15  1  0.33915244  0.32737484  0.24441974  1
  V  V16  1  0.37048485  0.33518716  0.00234278  1
  V  V17  1  0.48725932  0.15934740  0.83936408  1
  V  V18  1  0.67208808  0.51274068  0.17269808  1
  V  V19  1  0.98822240  0.66084756  0.57775274  1
  V  V20  1  0.96470230  0.62951515  0.33567578  1
  V  V21  1  0.66481284  0.03529770  0.66900878  1
  V  V22  1  0.67262516  0.01177760  0.91108574  1
  V  V23  1  0.84065260  0.32791192  0.50603108  1
  Si  Si24  1  0.13629905  0.95629004  0.91648930  1
  Si  Si25  1  0.28887738  0.81603481  0.76226889  1
  Si  Si26  1  0.17717843  0.51423222  0.90187516  1
  Si  Si27  1  0.33705379  0.82282157  0.23520816  1
  Si  Si28  1  0.04370996  0.18000901  0.58315630  1
  Si  Si29  1  0.18396519  0.47284257  0.42893489  1
  Si  Si30  1  0.17337125  0.00837794  0.43679806  1
  Si  Si31  1  0.48576778  0.66294621  0.56854216  1
  Si  Si32  1  0.52715743  0.71112262  0.09560189  1
  Si  Si33  1  0.62023864  0.49440149  0.44798936  1
  Si  Si34  1  0.46958509  0.18995599  0.57091021  1
  Si  Si35  1  0.81999099  0.86370095  0.24982230  1
  Si  Si36  1  0.83500669  0.82662875  0.77013106  1
  Si  Si37  1  0.72037090  0.53041491  0.90424421  1
  Si  Si38  1  0.50559851  0.12583715  0.11465636  1
  Si  Si39  1  0.87416285  0.37976136  0.78132336  1
  Si  Si40  1  0.81004401  0.27962910  0.23757721  1
  Si  Si41  1  0.99162206  0.16499331  0.10346506  1
  O  O42  1  0.09178750  0.82115602  0.43928960  1
  O  O43  1  0.09644654  0.88790288  0.03525961  1
  O  O44  1  0.18686724  0.85061104  0.84675384  1
  O  O45  1  0.15384571  0.69929083  0.23209261  1
  O  O46  1  0.05711840  0.52545060  0.44651360  1
  O  O47  1  0.02247339  0.37851735  0.84145203  1
  O  O48  1  0.21897435  0.78672091  0.64356425  1
  O  O49  1  0.14389895  0.58379417  0.00683688  1
  O  O50  1  0.35604496  0.97752661  0.17478503  1
  O  O51  1  0.26633524  0.65128802  0.80870258  1
  O  O52  1  0.14938896  0.33625720  0.51341984  1
  O  O53  1  0.43989522  0.85610105  0.34016988  1
  O  O54  1  0.11209712  0.20854366  0.70192661  1
  O  O55  1  0.21327909  0.43225344  0.31023125  1
  O  O56  1  0.46833219  0.94288160  0.77984660  1
  O  O57  1  0.38495278  0.73366476  0.14203658  1
  O  O58  1  0.30070917  0.45455388  0.89875961  1
  O  O59  1  0.17884398  0.27063148  0.10595660  1
  O  O60  1  0.07627960  0.04906788  0.52599432  1
  O  O61  1  0.34871198  0.61504722  0.47536958  1
  O  O62  1  0.19406462  0.09874242  0.32725888  1
  O  O63  1  0.41620583  0.56010478  0.67350288  1
  O  O64  1  0.54544612  0.84615429  0.56542661  1
  O  O65  1  0.56774656  0.78102565  0.97689725  1
  O  O66  1  0.26259176  0.13454419  0.89816811  1
  O  O67  1  0.47454940  0.53166781  0.11317960  1
  O  O68  1  0.66374280  0.81313276  0.18008684  1
  O  O69  1  0.62148265  0.64395504  0.50811803  1
  O  O70  1  0.33866357  0.04806085  0.49496611  1
  O  O71  1  0.72936852  0.90821250  0.77262260  1
  O  O72  1  0.55792478  0.48817517  0.32733017  1
  O  O73  1  0.39547662  0.17667687  0.68727937  1
  O  O74  1  0.79145634  0.90355346  0.36859261  1
  O  O75  1  0.49253508  0.34473107  0.51253910  1
  O  O76  1  0.47942746  0.27194255  0.13086655  1
  O  O77  1  0.55214124  0.38159656  0.89542466  1
  O  O78  1  0.70939828  0.66133643  0.82830011  1
  O  O79  1  0.51182483  0.06974960  0.99399717  1
  O  O80  1  0.78120025  0.60452338  0.02061237  1
  O  O81  1  0.90467781  0.80593538  0.66059188  1
  O  O82  1  0.87195143  0.73740824  0.23150211  1
  O  O83  1  0.61840344  0.17054368  0.56209166  1
  O  O84  1  0.79251509  0.52057254  0.46419955  1
  O  O85  1  0.97278829  0.92372040  0.85932732  1
  O  O86  1  0.65526893  0.14780401  0.17920610  1
  O  O87  1  0.85219599  0.50746492  0.84587310  1
  O  O88  1  0.82945632  0.44785876  0.22875766  1
  O  O89  1  0.72805745  0.20748491  0.79753355  1
  O  O90  1  0.82332313  0.21879975  0.35394637  1
  O  O91  1  0.93025040  0.44207522  0.66066317  1
  O  O92  1  0.86545581  0.12804857  0.56483511  1
  O  O93  1  0.95193915  0.29060172  0.16163311  1
  O  O94  1  0.90125758  0.09532219  0.99392488  1
  O  O95  1  0.95093212  0.02721171  0.19266032  1
