# generated using pymatgen
data_Cr(SO4)2
_symmetry_space_group_name_H-M   'P 1'
_cell_length_a   8.83688294
_cell_length_b   8.83688338
_cell_length_c   8.83688338
_cell_angle_alpha   55.96842204
_cell_angle_beta   55.96843076
_cell_angle_gamma   55.96842771
_symmetry_Int_Tables_number   1
_chemical_formula_structural   Cr(SO4)2
_chemical_formula_sum   'Cr3 S6 O24'
_cell_volume   442.37627935
_cell_formula_units_Z   3
loop_
 _symmetry_equiv_pos_site_id
 _symmetry_equiv_pos_as_xyz
  1  'x, y, z'
loop_
 _atom_site_type_symbol
 _atom_site_label
 _atom_site_symmetry_multiplicity
 _atom_site_fract_x
 _atom_site_fract_y
 _atom_site_fract_z
 _atom_site_occupancy
  Cr  Cr0  1  0.14950790  0.14950790  0.14950790  1
  Cr  Cr1  1  0.64378283  0.64378283  0.64378283  1
  Cr  Cr2  1  0.85036936  0.85036936  0.85036936  1
  S  S3  1  0.04514097  0.74887419  0.45929557  1
  S  S4  1  0.45929557  0.04514097  0.74887419  1
  S  S5  1  0.74887419  0.45929557  0.04514097  1
  S  S6  1  0.25337338  0.53802338  0.95943952  1
  S  S7  1  0.53802338  0.95943952  0.25337338  1
  S  S8  1  0.95943952  0.25337338  0.53802338  1
  O  O9  1  0.11150528  0.29638177  0.51029873  1
  O  O10  1  0.29638177  0.51029873  0.11150528  1
  O  O11  1  0.00749136  0.96029956  0.32948885  1
  O  O12  1  0.51029873  0.11150528  0.29638177  1
  O  O13  1  0.02065545  0.71918511  0.65624668  1
  O  O14  1  0.24043612  0.62223816  0.37767390  1
  O  O15  1  0.37767390  0.24043612  0.62223816  1
  O  O16  1  0.32948885  0.00749136  0.96029956  1
  O  O17  1  0.62223816  0.37767390  0.24043612  1
  O  O18  1  0.04529299  0.67285913  0.98196225  1
  O  O19  1  0.28233450  0.34632801  0.97363753  1
  O  O20  1  0.34632801  0.97363753  0.28233450  1
  O  O21  1  0.65624668  0.02065545  0.71918511  1
  O  O22  1  0.71918511  0.65624668  0.02065545  1
  O  O23  1  0.96029956  0.32948885  0.00749136  1
  O  O24  1  0.38244636  0.62164508  0.75738006  1
  O  O25  1  0.67285913  0.98196225  0.04529299  1
  O  O26  1  0.62164508  0.75738006  0.38244636  1
  O  O27  1  0.75738006  0.38244636  0.62164508  1
  O  O28  1  0.97363753  0.28233450  0.34632801  1
  O  O29  1  0.48696285  0.89094172  0.70346041  1
  O  O30  1  0.98196225  0.04529299  0.67285913  1
  O  O31  1  0.70346041  0.48696285  0.89094172  1
  O  O32  1  0.89094172  0.70346041  0.48696285  1
