# generated using pymatgen
data_Li7FeO5F
_symmetry_space_group_name_H-M   'P 1'
_cell_length_a   5.45175780
_cell_length_b   5.66842253
_cell_length_c   5.53134397
_cell_angle_alpha   90.54680874
_cell_angle_beta   63.76581152
_cell_angle_gamma   62.36366881
_symmetry_Int_Tables_number   1
_chemical_formula_structural   Li7FeO5F
_chemical_formula_sum   'Li7 Fe1 O5 F1'
_cell_volume   130.78778687
_cell_formula_units_Z   1
loop_
 _symmetry_equiv_pos_site_id
 _symmetry_equiv_pos_as_xyz
  1  'x, y, z'
loop_
 _atom_site_type_symbol
 _atom_site_label
 _atom_site_symmetry_multiplicity
 _atom_site_fract_x
 _atom_site_fract_y
 _atom_site_fract_z
 _atom_site_occupancy
  Li  Li0  1  0.40663356  0.31390348  0.11936279  1
  Li  Li1  1  0.12642594  0.35583092  0.75550517  1
  Li  Li2  1  0.26573284  0.68596171  0.49099087  1
  Li  Li3  1  0.80027295  0.32299425  0.47446196  1
  Li  Li4  1  0.83585972  0.67306969  0.23358683  1
  Li  Li5  1  0.57921265  0.65074312  0.92737176  1
  Li  Li6  1  0.69679068  0.96405197  0.66347221  1
  Fe  Fe7  1  0.05329469  0.97349815  0.95798980  1
  O  O8  1  0.11488425  0.24232777  0.08374002  1
  O  O9  1  0.13707966  0.76829322  0.21703670  1
  O  O10  1  0.50051256  0.75575361  0.62328459  1
  O  O11  1  0.81951388  0.23805967  0.80694357  1
  O  O12  1  0.89660602  0.76109936  0.87864179  1
  F  F13  1  0.48747760  0.27958509  0.42550096  1
