# generated using pymatgen
data_Sn2N2O
_symmetry_space_group_name_H-M   'P 1'
_cell_length_a   8.85043269
_cell_length_b   8.86796290
_cell_length_c   8.79997384
_cell_angle_alpha   109.34357423
_cell_angle_beta   109.20802608
_cell_angle_gamma   109.53461930
_symmetry_Int_Tables_number   1
_chemical_formula_structural   Sn2N2O
_chemical_formula_sum   'Sn16 N16 O8'
_cell_volume   533.81143363
_cell_formula_units_Z   8
loop_
 _symmetry_equiv_pos_site_id
 _symmetry_equiv_pos_as_xyz
  1  'x, y, z'
loop_
 _atom_site_type_symbol
 _atom_site_label
 _atom_site_symmetry_multiplicity
 _atom_site_fract_x
 _atom_site_fract_y
 _atom_site_fract_z
 _atom_site_occupancy
  Sn  Sn0  1  0.49916594  0.99919682  0.99015207  1
  Sn  Sn1  1  0.75247242  0.28688990  0.53475362  1
  Sn  Sn2  1  0.71752549  0.47327293  0.24471128  1
  Sn  Sn3  1  0.21328870  0.96099116  0.24476245  1
  Sn  Sn4  1  0.24471639  0.21582187  0.95688929  1
  Sn  Sn5  1  0.01125752  0.50712390  0.00434457  1
  Sn  Sn6  1  0.53166015  0.75408290  0.28790582  1
  Sn  Sn7  1  0.97553844  0.24981047  0.21375644  1
  Sn  Sn8  1  0.50725699  0.51494952  0.51273970  1
  Sn  Sn9  1  0.00246722  0.00055621  0.49998886  1
  Sn  Sn10  1  0.02024306  0.73313291  0.76451299  1
  Sn  Sn11  1  0.46758541  0.26213626  0.72911394  1
  Sn  Sn12  1  0.76063531  0.78726923  0.03553551  1
  Sn  Sn13  1  0.79051036  0.02544420  0.75918662  1
  Sn  Sn14  1  0.27523322  0.52606189  0.73797552  1
  Sn  Sn15  1  0.25176506  0.71162451  0.46691819  1
  N  N16  1  0.73021826  0.99555392  0.96609084  1
  N  N17  1  0.50754258  0.24010032  0.97268266  1
  N  N18  1  0.75992637  0.73288230  0.26433400  1
  N  N19  1  0.75370408  0.52500361  0.51624557  1
  N  N20  1  0.01588896  0.04362203  0.27696149  1
  N  N21  1  0.04063219  0.27060688  0.99673361  1
  N  N22  1  0.96262752  0.73057685  0.98653489  1
  N  N23  1  0.95746143  0.50047441  0.23327708  1
  N  N24  1  0.27631304  0.74264438  0.23652327  1
  N  N25  1  0.23366638  0.45514233  0.45717771  1
  N  N26  1  0.54617786  0.54274542  0.78069127  1
  N  N27  1  0.54825167  0.77983181  0.54710016  1
  N  N28  1  0.99820902  0.95099944  0.72768792  1
  N  N29  1  0.22495492  0.26814960  0.72717345  1
  N  N30  1  0.02890855  0.48333945  0.75571206  1
  N  N31  1  0.26474893  0.77210266  0.73044947  1
  O  O32  1  0.29443875  0.02946373  0.06771869  1
  O  O33  1  0.76710660  0.04747844  0.49817407  1
  O  O34  1  0.72776645  0.20820054  0.27277072  1
  O  O35  1  0.48070891  0.77053269  0.04120591  1
  O  O36  1  0.46079054  0.21858241  0.46003403  1
  O  O37  1  0.71422340  0.25513615  0.76178146  1
  O  O38  1  0.44023841  0.46226936  0.22198823  1
  O  O39  1  0.24417552  0.96619658  0.51770557  1
