# generated using pymatgen
data_LiCrPO4
_symmetry_space_group_name_H-M   'P 1'
_cell_length_a   10.10027449
_cell_length_b   10.17492123
_cell_length_c   16.85277106
_cell_angle_alpha   81.44243989
_cell_angle_beta   90.00000000
_cell_angle_gamma   60.24239236
_symmetry_Int_Tables_number   1
_chemical_formula_structural   LiCrPO4
_chemical_formula_sum   'Li16 Cr16 P16 O64'
_cell_volume   1481.31157854
_cell_formula_units_Z   16
loop_
 _symmetry_equiv_pos_site_id
 _symmetry_equiv_pos_as_xyz
  1  'x, y, z'
loop_
 _atom_site_type_symbol
 _atom_site_label
 _atom_site_symmetry_multiplicity
 _atom_site_fract_x
 _atom_site_fract_y
 _atom_site_fract_z
 _atom_site_occupancy
  Li  Li0  1  0.81528598  0.98644352  0.99653025  1
  Li  Li1  1  0.19827049  0.98644352  0.49653025  1
  Li  Li2  1  0.57478455  0.72548730  0.74780699  1
  Li  Li3  1  0.08175547  0.66592186  0.74850184  1
  Li  Li4  1  0.31321758  0.54420438  0.99673743  1
  Li  Li5  1  0.69972714  0.72548730  0.24780699  1
  Li  Li6  1  0.81281268  0.48603078  0.99620268  1
  Li  Li7  1  0.25232267  0.66592186  0.24850184  1
  Li  Li8  1  0.14257905  0.54420438  0.49673743  1
  Li  Li9  1  0.70115654  0.48603078  0.49620268  1
  Li  Li10  1  0.57569323  0.22616177  0.74805772  1
  Li  Li11  1  0.08046242  0.16441541  0.74642934  1
  Li  Li12  1  0.31337575  0.04541944  0.99543083  1
  Li  Li13  1  0.19814500  0.22616177  0.24805772  1
  Li  Li14  1  0.75512217  0.16441541  0.24642934  1
  Li  Li15  1  0.64120381  0.04541944  0.49543083  1
  Cr  Cr16  1  0.26606144  0.84447084  0.87188581  1
  Cr  Cr17  1  0.76617857  0.79445080  0.86958786  1
  Cr  Cr18  1  0.88946772  0.84447084  0.37188581  1
  Cr  Cr19  1  0.43937063  0.79445080  0.36958786  1
  Cr  Cr20  1  0.33931167  0.66472920  0.61778947  1
  Cr  Cr21  1  0.88376445  0.60685408  0.62259831  1
  Cr  Cr22  1  0.99595913  0.66472920  0.11778947  1
  Cr  Cr23  1  0.50938147  0.60685408  0.12259831  1
  Cr  Cr24  1  0.26519012  0.34680175  0.87160306  1
  Cr  Cr25  1  0.77112518  0.29303831  0.87003587  1
  Cr  Cr26  1  0.38800713  0.34680175  0.37160306  1
  Cr  Cr27  1  0.93583651  0.29303831  0.37003587  1
  Cr  Cr28  1  0.83861467  0.15924601  0.61729456  1
  Cr  Cr29  1  0.38392737  0.11415329  0.62098276  1
  Cr  Cr30  1  0.00214032  0.15924601  0.11729456  1
  Cr  Cr31  1  0.50191934  0.11415329  0.12098276  1
  P  P32  1  0.91872818  0.98265801  0.80921048  1
  P  P33  1  0.09861381  0.98265801  0.30921048  1
  P  P34  1  0.98484569  0.84496836  0.56246483  1
  P  P35  1  0.53627832  0.79714703  0.56097200  1
  P  P36  1  0.17018595  0.84496836  0.06246483  1
  P  P37  1  0.66657465  0.79714703  0.06097200  1
  P  P38  1  0.42038700  0.53992665  0.81002761  1
  P  P39  1  0.91549505  0.48447568  0.80825893  1
  P  P40  1  0.03968636  0.53992665  0.31002761  1
  P  P41  1  0.60003027  0.48447568  0.30825893  1
  P  P42  1  0.48511628  0.34822819  0.56220665  1
  P  P43  1  0.03871246  0.29403278  0.56032334  1
  P  P44  1  0.16665553  0.34822819  0.06220665  1
  P  P45  1  0.66725376  0.29403278  0.06032334  1
  P  P46  1  0.41618342  0.04394660  0.80955244  1
  P  P47  1  0.53986998  0.04394660  0.30955244  1
  O  O48  1  0.34097353  0.00590959  0.88296438  1
  O  O49  1  0.07678580  0.97243643  0.79647739  1
  O  O50  1  0.56934174  0.89934880  0.79638151  1
  O  O51  1  0.75266881  0.82782216  0.99039467  1
  O  O52  1  0.65311588  0.00590959  0.38296438  1
  O  O53  1  0.55316097  0.93966393  0.56395276  1
  O  O54  1  0.24253705  0.76790135  0.98842675  1
  O  O55  1  0.93878444  0.81983493  0.81511535  1
  O  O56  1  0.95077876  0.97243643  0.29647739  1
  O  O57  1  0.12311073  0.86991403  0.56929447  1
  O  O58  1  0.53131045  0.89934880  0.29638151  1
  O  O59  1  0.41950903  0.82782216  0.49039467  1
  O  O60  1  0.50717510  0.93966393  0.06395276  1
  O  O61  1  0.47059342  0.76313300  0.64052188  1
  O  O62  1  0.99070439  0.73281982  0.63818633  1
  O  O63  1  0.45060062  0.67124366  0.82204772  1
  O  O64  1  0.98956161  0.76790135  0.48842675  1
  O  O65  1  0.24138063  0.81983493  0.31511535  1
  O  O66  1  0.00697424  0.86991403  0.06929447  1
  O  O67  1  0.69234533  0.65594267  0.54981419  1
  O  O68  1  0.85056470  0.54715295  0.88618931  1
  O  O69  1  0.30838657  0.58770267  0.73419401  1
  O  O70  1  0.80159148  0.59939590  0.73554994  1
  O  O71  1  0.76627358  0.76313300  0.14052188  1
  O  O72  1  0.27647579  0.73281982  0.13818633  1
  O  O73  1  0.87815573  0.67124366  0.32204772  1
  O  O74  1  0.34542021  0.50327967  0.88423034  1
  O  O75  1  0.07336724  0.47530976  0.79661431  1
  O  O76  1  0.33683950  0.50889127  0.55221771  1
  O  O77  1  0.65171200  0.65594267  0.04981419  1
  O  O78  1  0.60228235  0.54715295  0.38618931  1
  O  O79  1  0.10391077  0.58770267  0.23419401  1
  O  O80  1  0.59901362  0.59939590  0.23554994  1
  O  O81  1  0.57443269  0.39700870  0.79768570  1
  O  O82  1  0.74763764  0.32891580  0.98825011  1
  O  O83  1  0.15130111  0.50327967  0.38423034  1
  O  O84  1  0.05480309  0.43633001  0.56590219  1
  O  O85  1  0.24596533  0.26923375  0.98967469  1
  O  O86  1  0.93867382  0.32079840  0.81213483  1
  O  O87  1  0.45132300  0.47530976  0.29661431  1
  O  O88  1  0.15426922  0.50889127  0.05221771  1
  O  O89  1  0.62790135  0.36634179  0.56699914  1
  O  O90  1  0.02855961  0.39700870  0.29768570  1
  O  O91  1  0.92344657  0.32891580  0.48825011  1
  O  O92  1  0.50886690  0.43633001  0.06590219  1
  O  O93  1  0.48901399  0.24096325  0.63990055  1
  O  O94  1  0.97166425  0.25571462  0.63812472  1
  O  O95  1  0.48480193  0.26923375  0.48967469  1
  O  O96  1  0.45082247  0.17146318  0.82311784  1
  O  O97  1  0.74052678  0.32079840  0.31213483  1
  O  O98  1  0.00575685  0.36634179  0.06699914  1
  O  O99  1  0.19563270  0.15424968  0.54920465  1
  O  O100  1  0.85639091  0.04696447  0.88734175  1
  O  O101  1  0.80590583  0.09492940  0.73636547  1
  O  O102  1  0.30213900  0.09897434  0.73341634  1
  O  O103  1  0.27002276  0.24096325  0.13990055  1
  O  O104  1  0.77262114  0.25571462  0.13812472  1
  O  O105  1  0.37771435  0.17146318  0.32311784  1
  O  O106  1  0.65011761  0.15424968  0.04920465  1
  O  O107  1  0.83369430  0.00332196  0.55330394  1
  O  O108  1  0.09664462  0.04696447  0.38734175  1
  O  O109  1  0.09916477  0.09492940  0.23636547  1
  O  O110  1  0.59888765  0.09897434  0.23341634  1
  O  O111  1  0.16298374  0.00332196  0.05330394  1
