# generated using pymatgen
data_Li3Fe2(SiO4)2
_symmetry_space_group_name_H-M   'P 1'
_cell_length_a   6.32692712
_cell_length_b   10.96495116
_cell_length_c   5.06805205
_cell_angle_alpha   89.95372316
_cell_angle_beta   90.00000000
_cell_angle_gamma   90.00000000
_symmetry_Int_Tables_number   1
_chemical_formula_structural   Li3Fe2(SiO4)2
_chemical_formula_sum   'Li6 Fe4 Si4 O16'
_cell_volume   351.59319269
_cell_formula_units_Z   2
loop_
 _symmetry_equiv_pos_site_id
 _symmetry_equiv_pos_as_xyz
  1  'x, y, z'
loop_
 _atom_site_type_symbol
 _atom_site_label
 _atom_site_symmetry_multiplicity
 _atom_site_fract_x
 _atom_site_fract_y
 _atom_site_fract_z
 _atom_site_occupancy
  Li  Li0  1  0.01436410  0.82595039  0.76211081  1
  Li  Li1  1  0.48563590  0.32595039  0.76211081  1
  Li  Li2  1  0.49302478  0.67376458  0.25974650  1
  Li  Li3  1  0.74557854  0.90670106  0.25649792  1
  Li  Li4  1  0.75442146  0.40670106  0.25649792  1
  Li  Li5  1  0.00697522  0.17376458  0.25974650  1
  Fe  Fe6  1  0.24424019  0.42195717  0.25973138  1
  Fe  Fe7  1  0.25575981  0.92195717  0.25973138  1
  Fe  Fe8  1  0.73745042  0.08597068  0.76246576  1
  Fe  Fe9  1  0.76254958  0.58597068  0.76246576  1
  Si  Si10  1  0.00592009  0.66907270  0.26295530  1
  Si  Si11  1  0.49407991  0.16907270  0.26295530  1
  Si  Si12  1  0.50638182  0.83117581  0.76572834  1
  Si  Si13  1  0.99361818  0.33117581  0.76572834  1
  O  O14  1  -0.00311107  0.81037914  0.15374449  1
  O  O15  1  0.97868374  0.66903960  0.58783004  1
  O  O16  1  0.21115229  0.38626485  0.64377377  1
  O  O17  1  0.22439094  0.59858808  0.18590356  1
  O  O18  1  0.27560906  0.09858808  0.18590356  1
  O  O19  1  0.28884771  0.88626485  0.64377377  1
  O  O20  1  0.52131626  0.16903960  0.58783004  1
  O  O21  1  0.50311107  0.31037914  0.15374449  1
  O  O22  1  0.54036685  0.69045220  0.65342779  1
  O  O23  1  0.50594818  0.83167367  0.08829942  1
  O  O24  1  0.70904812  0.09392727  0.14332075  1
  O  O25  1  0.71793436  0.91541279  0.66338519  1
  O  O26  1  0.78206564  0.41541279  0.66338519  1
  O  O27  1  0.79095188  0.59392727  0.14332075  1
  O  O28  1  0.99405182  0.33167367  0.08829942  1
  O  O29  1  0.95963315  0.19045220  0.65342779  1
