# generated using pymatgen
data_Mn2O3F
_symmetry_space_group_name_H-M   'P 1'
_cell_length_a   4.57351662
_cell_length_b   9.62393267
_cell_length_c   6.05903159
_cell_angle_alpha   71.57485705
_cell_angle_beta   90.00441426
_cell_angle_gamma   89.03144234
_symmetry_Int_Tables_number   1
_chemical_formula_structural   Mn2O3F
_chemical_formula_sum   'Mn8 O12 F4'
_cell_volume   252.97810477
_cell_formula_units_Z   4
loop_
 _symmetry_equiv_pos_site_id
 _symmetry_equiv_pos_as_xyz
  1  'x, y, z'
loop_
 _atom_site_type_symbol
 _atom_site_label
 _atom_site_symmetry_multiplicity
 _atom_site_fract_x
 _atom_site_fract_y
 _atom_site_fract_z
 _atom_site_occupancy
  Mn  Mn0  1  0.47120634  0.23848968  0.62830639  1
  Mn  Mn1  1  0.52181186  0.26311888  0.12142839  1
  Mn  Mn2  1  0.50891302  0.74391855  0.38399236  1
  Mn  Mn3  1  0.52952872  0.75390232  0.86422872  1
  Mn  Mn4  1  0.99099704  0.99496365  0.50407359  1
  Mn  Mn5  1  0.01097085  0.49750398  0.74778333  1
  Mn  Mn6  1  0.96979974  0.00546563  0.99614503  1
  Mn  Mn7  1  0.00269247  0.50091454  0.25289377  1
  O  O8  1  0.81211769  0.40858596  0.04588591  1
  O  O9  1  0.80433579  0.90165175  0.79791225  1
  O  O10  1  0.80652037  0.90214912  0.29818137  1
  O  O11  1  0.68377460  0.15606053  0.92406356  1
  O  O12  1  0.68979170  0.15395656  0.42154729  1
  O  O13  1  0.70020451  0.65086792  0.67296611  1
  O  O14  1  0.69427772  0.65550902  0.17130584  1
  O  O15  1  0.30579788  0.34322092  0.82846989  1
  O  O16  1  0.31486536  0.84483951  0.57646892  1
  O  O17  1  0.30436608  0.34487729  0.32759660  1
  O  O18  1  0.19223741  0.59659418  0.45149637  1
  O  O19  1  0.18572902  0.09052525  0.70551759  1
  F  F20  1  0.77949950  0.38961646  0.55563664  1
  F  F21  1  0.30175960  0.85170838  0.07630201  1
  F  F22  1  0.21567808  0.60967178  0.94668364  1
  F  F23  1  0.20312364  0.10188713  0.20111042  1
