# generated using pymatgen
data_Mn6Zn3O16
_symmetry_space_group_name_H-M   'P 1'
_cell_length_a   8.29311202
_cell_length_b   8.30202949
_cell_length_c   8.29529653
_cell_angle_alpha   90.00000000
_cell_angle_beta   90.00000000
_cell_angle_gamma   89.60737403
_symmetry_Int_Tables_number   1
_chemical_formula_structural   Mn6Zn3O16
_chemical_formula_sum   'Mn12 Zn6 O32'
_cell_volume   571.11494071
_cell_formula_units_Z   2
loop_
 _symmetry_equiv_pos_site_id
 _symmetry_equiv_pos_as_xyz
  1  'x, y, z'
loop_
 _atom_site_type_symbol
 _atom_site_label
 _atom_site_symmetry_multiplicity
 _atom_site_fract_x
 _atom_site_fract_y
 _atom_site_fract_z
 _atom_site_occupancy
  Mn  Mn0  1  0.12280034  0.12513994  0.62581526  1
  Mn  Mn1  1  0.12139986  0.62647906  0.12564777  1
  Mn  Mn2  1  0.12346333  0.37387326  0.87575764  1
  Mn  Mn3  1  0.37860014  0.37352094  0.62564777  1
  Mn  Mn4  1  0.37653667  0.62612674  0.37575764  1
  Mn  Mn5  1  0.37719966  0.87486006  0.12581526  1
  Mn  Mn6  1  0.62436696  0.12277693  0.12213716  1
  Mn  Mn7  1  0.62563070  0.38141565  0.37959314  1
  Mn  Mn8  1  0.62453366  0.87812911  0.87740211  1
  Mn  Mn9  1  0.87546634  0.12187089  0.37740211  1
  Mn  Mn10  1  0.87436930  0.61858435  0.87959314  1
  Mn  Mn11  1  0.87563304  0.87722307  0.62213716  1
  Zn  Zn12  1  0.99670910  0.00141908  0.00212300  1
  Zn  Zn13  1  0.99121626  0.50410000  0.49717058  1
  Zn  Zn14  1  0.24650676  0.24784806  0.24682626  1
  Zn  Zn15  1  0.25349324  0.75215194  0.74682626  1
  Zn  Zn16  1  0.50329090  0.99858092  0.50212300  1
  Zn  Zn17  1  0.50878374  0.49590000  0.99717058  1
  O  O18  1  0.10037202  0.13637088  0.39316328  1
  O  O19  1  0.13463790  0.39443044  0.10074886  1
  O  O20  1  0.11531765  0.14858560  0.85827442  1
  O  O21  1  0.13626691  0.36288515  0.63750925  1
  O  O22  1  0.14177442  0.61371398  0.35061710  1
  O  O23  1  0.14875769  0.85639926  0.11325644  1
  O  O24  1  0.11531401  0.61229046  0.88712045  1
  O  O25  1  0.10645378  0.89931655  0.63661378  1
  O  O26  1  0.39354622  0.10068345  0.13661378  1
  O  O27  1  0.38468599  0.38770954  0.38712045  1
  O  O28  1  0.35124231  0.14360074  0.61325644  1
  O  O29  1  0.35822558  0.38628602  0.85061710  1
  O  O30  1  0.36373309  0.63711485  0.13750925  1
  O  O31  1  0.38468235  0.85141440  0.35827442  1
  O  O32  1  0.36536210  0.60556956  0.60074886  1
  O  O33  1  0.39962798  0.86362912  0.89316328  1
  O  O34  1  0.63836710  0.13753485  0.36246515  1
  O  O35  1  0.63971429  0.10243387  0.90199172  1
  O  O36  1  0.61096373  0.34876205  0.14664127  1
  O  O37  1  0.59891820  0.36020504  0.59975522  1
  O  O38  1  0.60313344  0.59750729  0.36256176  1
  O  O39  1  0.65059679  0.64267988  0.88578123  1
  O  O40  1  0.60992389  0.88875901  0.11151198  1
  O  O41  1  0.64439816  0.88449070  0.64951715  1
  O  O42  1  0.85560184  0.11550930  0.14951715  1
  O  O43  1  0.89007611  0.11124099  0.61151198  1
  O  O44  1  0.84940321  0.35732012  0.38578123  1
  O  O45  1  0.89686656  0.40249271  0.86256176  1
  O  O46  1  0.90108180  0.63979496  0.09975522  1
  O  O47  1  0.88903627  0.65123795  0.64664127  1
  O  O48  1  0.86028571  0.89756613  0.40199172  1
  O  O49  1  0.86163290  0.86246515  0.86246515  1
