# generated using pymatgen
data_Na2Sb4O11
_symmetry_space_group_name_H-M   'P 1'
_cell_length_a   7.64499221
_cell_length_b   10.58553472
_cell_length_c   7.26848639
_cell_angle_alpha   85.03600031
_cell_angle_beta   89.98563009
_cell_angle_gamma   68.88616068
_symmetry_Int_Tables_number   1
_chemical_formula_structural   Na2Sb4O11
_chemical_formula_sum   'Na4 Sb8 O22'
_cell_volume   546.36250522
_cell_formula_units_Z   2
loop_
 _symmetry_equiv_pos_site_id
 _symmetry_equiv_pos_as_xyz
  1  'x, y, z'
loop_
 _atom_site_type_symbol
 _atom_site_label
 _atom_site_symmetry_multiplicity
 _atom_site_fract_x
 _atom_site_fract_y
 _atom_site_fract_z
 _atom_site_occupancy
  Na  Na0  1  0.01353597  0.94452279  0.28378737  1
  Na  Na1  1  0.73783591  0.52410557  0.06653856  1
  Na  Na2  1  0.26431575  0.47274187  0.93169813  1
  Na  Na3  1  0.96229493  0.05319731  0.72250598  1
  Sb  Sb4  1  0.57691426  0.84727934  0.61688986  1
  Sb  Sb5  1  0.57278417  0.85674434  0.09608855  1
  Sb  Sb6  1  0.41647133  0.65116819  0.43460096  1
  Sb  Sb7  1  0.93384359  0.65071491  0.43523247  1
  Sb  Sb8  1  0.58526096  0.34800745  0.56419744  1
  Sb  Sb9  1  0.06851416  0.34742336  0.56464126  1
  Sb  Sb10  1  0.42973557  0.14169477  0.90297731  1
  Sb  Sb11  1  0.42455713  0.15149619  0.38210876  1
  O  O12  1  0.52450013  0.95254622  0.34348393  1
  O  O13  1  0.33147926  0.82516589  0.56526471  1
  O  O14  1  0.84466764  0.82590048  0.56478055  1
  O  O15  1  0.62236067  0.75969859  0.86798865  1
  O  O16  1  0.44142148  0.73420902  0.18377388  1
  O  O17  1  0.82743478  0.73724451  0.18523686  1
  O  O18  1  0.66875521  0.66429782  0.51241353  1
  O  O19  1  0.15566467  0.69012746  0.35150066  1
  O  O20  1  0.03191806  0.52656371  0.66719923  1
  O  O21  1  0.44379676  0.52683193  0.66720181  1
  O  O22  1  0.97091666  0.47200453  0.33223566  1
  O  O23  1  0.55861041  0.47212172  0.33212660  1
  O  O24  1  0.84633472  0.30856304  0.64798158  1
  O  O25  1  0.33376464  0.33436550  0.48672399  1
  O  O26  1  0.56317200  0.26278777  0.81452863  1
  O  O27  1  0.17582423  0.26406845  0.81551791  1
  O  O28  1  0.38160368  0.23878419  0.13097254  1
  O  O29  1  0.15712340  0.17361435  0.43398713  1
  O  O30  1  0.67079469  0.17303774  0.43425981  1
  O  O31  1  0.47717899  0.04613510  0.65566464  1
  O  O32  1  0.32746778  0.99894495  0.99967491  1
  O  O33  1  0.67622341  0.99960396  0.99941514  1
