# generated using pymatgen
data_NbV2O7
_symmetry_space_group_name_H-M   'P 1'
_cell_length_a   8.91529643
_cell_length_b   8.91528870
_cell_length_c   8.91531303
_cell_angle_alpha   90.00098538
_cell_angle_beta   89.99743139
_cell_angle_gamma   89.99813364
_symmetry_Int_Tables_number   1
_chemical_formula_structural   NbV2O7
_chemical_formula_sum   'Nb4 V8 O28'
_cell_volume   708.61084594
_cell_formula_units_Z   4
loop_
 _symmetry_equiv_pos_site_id
 _symmetry_equiv_pos_as_xyz
  1  'x, y, z'
loop_
 _atom_site_type_symbol
 _atom_site_label
 _atom_site_symmetry_multiplicity
 _atom_site_fract_x
 _atom_site_fract_y
 _atom_site_fract_z
 _atom_site_occupancy
  Nb  Nb0  1  0.00000032  0.00000143  0.99999884  1
  Nb  Nb1  1  0.99999873  0.49999810  0.49999747  1
  Nb  Nb2  1  0.50000069  0.00000039  0.50000138  1
  Nb  Nb3  1  0.50000092  0.49999707  -0.00000029  1
  V  V4  1  0.11558475  0.88441351  0.38440729  1
  V  V5  1  0.11559290  0.61558513  0.88441123  1
  V  V6  1  0.38440253  0.38440021  0.38440447  1
  V  V7  1  0.38440102  0.11560541  0.88439937  1
  V  V8  1  0.61559686  0.61560134  0.61559403  1
  V  V9  1  0.61559782  0.88439382  0.11560195  1
  V  V10  1  0.88441488  0.11558760  0.61559165  1
  V  V11  1  0.88440761  0.38441595  0.11559072  1
  O  O12  1  0.00000384  0.99999641  0.49999590  1
  O  O13  1  0.00000550  0.50000603  0.99999353  1
  O  O14  1  0.06148980  0.69822171  0.41037255  1
  O  O15  1  0.06148611  0.80180394  0.91037140  1
  O  O16  1  0.08962430  0.56148603  0.69819340  1
  O  O17  1  0.08962896  0.93850881  0.19822447  1
  O  O18  1  0.19819320  0.08962139  0.93851489  1
  O  O19  1  0.19819061  0.41037620  0.43851719  1
  O  O20  1  0.30179552  0.58963072  0.93851157  1
  O  O21  1  0.30177490  0.91037139  0.43850896  1
  O  O22  1  0.41037211  0.06148599  0.69820309  1
  O  O23  1  0.41037147  0.43851413  0.19819033  1
  O  O24  1  0.43851151  0.30179722  0.91037200  1
  O  O25  1  0.43851574  0.19819066  0.41037707  1
  O  O26  1  0.49999651  0.49999467  0.49999619  1
  O  O27  1  0.50000198  0.99999835  0.00000261  1
  O  O28  1  0.56149003  0.69820793  0.08962975  1
  O  O29  1  0.56148067  0.80181888  0.58962101  1
  O  O30  1  0.58962555  0.56148219  0.80181863  1
  O  O31  1  0.58962865  0.93851295  0.30179310  1
  O  O32  1  0.69821808  0.08962715  0.56148917  1
  O  O33  1  0.69818831  0.41037287  0.06148501  1
  O  O34  1  0.80182043  0.58962181  0.56148201  1
  O  O35  1  0.80180127  0.91037750  0.06148527  1
  O  O36  1  0.91037359  0.06148873  0.80177984  1
  O  O37  1  0.91038127  0.43851916  0.30182259  1
  O  O38  1  0.93851808  0.19818160  0.08962440  1
  O  O39  1  0.93851299  0.30178562  0.58962598  1
