# generated using pymatgen
data_Ca(CoO2)2
_symmetry_space_group_name_H-M   'P 1'
_cell_length_a   6.18593850
_cell_length_b   6.18365949
_cell_length_c   18.65390659
_cell_angle_alpha   60.14914436
_cell_angle_beta   60.12223984
_cell_angle_gamma   60.08191982
_symmetry_Int_Tables_number   1
_chemical_formula_structural   Ca(CoO2)2
_chemical_formula_sum   'Ca6 Co12 O24'
_cell_volume   505.89788454
_cell_formula_units_Z   6
loop_
 _symmetry_equiv_pos_site_id
 _symmetry_equiv_pos_as_xyz
  1  'x, y, z'
loop_
 _atom_site_type_symbol
 _atom_site_label
 _atom_site_symmetry_multiplicity
 _atom_site_fract_x
 _atom_site_fract_y
 _atom_site_fract_z
 _atom_site_occupancy
  Ca  Ca0  1  0.12410928  0.12409423  0.04242376  1
  Ca  Ca1  1  0.12151654  0.12147687  0.37852818  1
  Ca  Ca2  1  0.49642882  0.49672142  0.33675510  1
  Ca  Ca3  1  0.11052743  0.11055406  0.72274109  1
  Ca  Ca4  1  0.50594357  0.50588584  0.99392080  1
  Ca  Ca5  1  0.87915008  0.87919437  0.62089092  1
  Co  Co6  1  0.49832382  0.49834024  0.16533358  1
  Co  Co7  1  0.49804388  0.00732260  0.16541804  1
  Co  Co8  1  0.49253898  0.49261389  0.50671142  1
  Co  Co9  1  0.00735958  0.49800374  0.16543257  1
  Co  Co10  1  0.49232625  0.99482513  0.50683464  1
  Co  Co11  1  0.50076529  0.50037414  0.66614219  1
  Co  Co12  1  0.88436706  0.88441997  0.28228359  1
  Co  Co13  1  0.50338468  0.50335795  0.82755592  1
  Co  Co14  1  0.99508563  0.49221581  0.50681578  1
  Co  Co15  1  0.50215999  0.00931022  0.82847567  1
  Co  Co16  1  0.00929727  0.50218210  0.82846507  1
  Co  Co17  1  0.88144464  0.88147473  0.95205090  1
  O  O18  1  0.25201267  0.25198821  0.09999337  1
  O  O19  1  0.26369290  0.26355353  0.23632652  1
  O  O20  1  0.25200555  0.69576311  0.09992154  1
  O  O21  1  0.69578934  0.25208636  0.09991371  1
  O  O22  1  0.23254244  0.23434848  0.44646884  1
  O  O23  1  0.28162192  0.75676250  0.23514073  1
  O  O24  1  0.25491632  0.25506903  0.57820544  1
  O  O25  1  0.75685312  0.28161117  0.23514942  1
  O  O26  1  0.74725679  0.74738900  0.08590538  1
  O  O27  1  0.23325131  0.69368789  0.44636911  1
  O  O28  1  0.69344710  0.23316987  0.44645967  1
  O  O29  1  0.75679602  0.75675514  0.23497654  1
  O  O30  1  0.28335501  0.28346213  0.74880301  1
  O  O31  1  0.31301990  0.71968509  0.58286193  1
  O  O32  1  0.71929730  0.31316381  0.58291828  1
  O  O33  1  0.27116384  0.27129886  0.89600230  1
  O  O34  1  0.74414866  0.74392490  0.42267604  1
  O  O35  1  0.28340997  0.68655974  0.74867631  1
  O  O36  1  0.68654002  0.28325932  0.74872547  1
  O  O37  1  0.72003064  0.71826875  0.58281781  1
  O  O38  1  0.27576911  0.77354390  0.89331140  1
  O  O39  1  0.77352711  0.27568407  0.89332233  1
  O  O40  1  0.73415237  0.73403298  0.76520372  1
  O  O41  1  0.77262779  0.77256284  0.89307391  1
