# generated using pymatgen
data_Li5V5(CoO6)2
_symmetry_space_group_name_H-M   'P 1'
_cell_length_a   5.18629020
_cell_length_b   5.18628962
_cell_length_c   9.88702245
_cell_angle_alpha   85.06092625
_cell_angle_beta   94.93907079
_cell_angle_gamma   60.13231663
_symmetry_Int_Tables_number   1
_chemical_formula_structural   Li5V5(CoO6)2
_chemical_formula_sum   'Li5 V5 Co2 O12'
_cell_volume   227.18404128
_cell_formula_units_Z   1
loop_
 _symmetry_equiv_pos_site_id
 _symmetry_equiv_pos_as_xyz
  1  'x, y, z'
loop_
 _atom_site_type_symbol
 _atom_site_label
 _atom_site_symmetry_multiplicity
 _atom_site_fract_x
 _atom_site_fract_y
 _atom_site_fract_z
 _atom_site_occupancy
  Li  Li0  1  0.16397800  0.66019507  0.51244081  1
  Li  Li1  1  0.31763916  0.84975636  0.98588270  1
  Li  Li2  1  0.66019507  0.16397800  0.98755919  1
  Li  Li3  1  0.84975636  0.31763916  0.51411730  1
  Li  Li4  1  0.92015454  0.92015454  0.75000000  1
  V  V5  1  0.42298215  0.42298215  0.25000000  1
  V  V6  1  0.57618266  0.57618266  0.75000000  1
  V  V7  1  0.08279215  0.08279215  0.25000000  1
  V  V8  1  0.99690863  0.51377788  0.99107041  1
  V  V9  1  0.51377788  0.99690863  0.50892959  1
  Co  Co10  1  0.24589905  0.24589905  0.75000000  1
  Co  Co11  1  0.75249145  0.75249145  0.25000000  1
  O  O12  1  0.94195231  0.23566431  0.87167803  1
  O  O13  1  0.23566431  0.94195231  0.62832197  1
  O  O14  1  0.14692852  0.35972679  0.36907161  1
  O  O15  1  0.35972679  0.14692852  0.13092839  1
  O  O16  1  0.28392131  0.53526942  0.87541006  1
  O  O17  1  0.53526942  0.28392131  0.62458994  1
  O  O18  1  0.44409742  0.72972002  0.36780977  1
  O  O19  1  0.72972002  0.44409742  0.13219023  1
  O  O20  1  0.63339336  0.84737752  0.87853291  1
  O  O21  1  0.84737752  0.63339336  0.62146709  1
  O  O22  1  0.78141573  0.05777519  0.36851800  1
  O  O23  1  0.05777519  0.78141573  0.13148200  1
