# generated using pymatgen
data_MgTi3P3O13
_symmetry_space_group_name_H-M   'P 1'
_cell_length_a   6.41640774
_cell_length_b   7.73099341
_cell_length_c   10.24189834
_cell_angle_alpha   99.73559691
_cell_angle_beta   90.00000000
_cell_angle_gamma   90.00000000
_symmetry_Int_Tables_number   1
_chemical_formula_structural   MgTi3P3O13
_chemical_formula_sum   'Mg2 Ti6 P6 O26'
_cell_volume   500.73482356
_cell_formula_units_Z   2
loop_
 _symmetry_equiv_pos_site_id
 _symmetry_equiv_pos_as_xyz
  1  'x, y, z'
loop_
 _atom_site_type_symbol
 _atom_site_label
 _atom_site_symmetry_multiplicity
 _atom_site_fract_x
 _atom_site_fract_y
 _atom_site_fract_z
 _atom_site_occupancy
  Mg  Mg0  1  0.75000000  0.61485791  0.17009684  1
  Mg  Mg1  1  0.25000000  0.38514209  0.82990316  1
  Ti  Ti2  1  0.25000000  0.35219925  0.20313865  1
  Ti  Ti3  1  0.75000000  0.64780075  0.79686135  1
  Ti  Ti4  1  0.25000000  0.79158092  0.43156894  1
  Ti  Ti5  1  0.50000000  0.00000000  0.00000000  1
  Ti  Ti6  1  0.75000000  0.20841908  0.56843106  1
  Ti  Ti7  1  0.00000000  0.00000000  0.00000000  1
  P  P8  1  0.25000000  0.22291993  0.49898378  1
  P  P9  1  0.75000000  0.77708007  0.50101622  1
  P  P10  1  0.25000000  0.72666926  0.75997898  1
  P  P11  1  0.75000000  0.27333074  0.24002102  1
  P  P12  1  0.75000000  0.32096234  0.88756208  1
  P  P13  1  0.25000000  0.67903766  0.11243792  1
  O  O14  1  0.75000000  0.36895121  0.74490196  1
  O  O15  1  0.56011760  0.74627766  0.40724296  1
  O  O16  1  0.25000000  0.77223270  0.62079032  1
  O  O17  1  0.54532870  0.21903226  0.90157783  1
  O  O18  1  0.75000000  0.65627188  0.60480068  1
  O  O19  1  0.75000000  0.86830640  0.90116943  1
  O  O20  1  0.25000000  0.34372812  0.39519932  1
  O  O21  1  0.04532870  0.78096774  0.09842217  1
  O  O22  1  0.25000000  0.02891816  0.42203441  1
  O  O23  1  0.75000000  0.97108184  0.57796559  1
  O  O24  1  0.06516553  0.60626667  0.78601432  1
  O  O25  1  0.25000000  0.13169360  0.09883057  1
  O  O26  1  0.56516553  0.39373333  0.21398568  1
  O  O27  1  0.75000000  0.50756815  0.97292462  1
  O  O28  1  0.75000000  0.22776730  0.37920968  1
  O  O29  1  0.45467130  0.78096774  0.09842217  1
  O  O30  1  0.93988240  0.74627766  0.40724296  1
  O  O31  1  0.43988240  0.25372234  0.59275704  1
  O  O32  1  0.43483447  0.60626667  0.78601432  1
  O  O33  1  0.25000000  0.63104879  0.25509804  1
  O  O34  1  0.75000000  0.10124632  0.13570681  1
  O  O35  1  0.25000000  0.89875368  0.86429319  1
  O  O36  1  0.93483447  0.39373333  0.21398568  1
  O  O37  1  0.95467130  0.21903226  0.90157783  1
  O  O38  1  0.06011760  0.25372234  0.59275704  1
  O  O39  1  0.25000000  0.49243185  0.02707538  1
