# generated using pymatgen
data_CuH12C3SN6O7
_symmetry_space_group_name_H-M   'P 1'
_cell_length_a   13.11044928
_cell_length_b   9.38601307
_cell_length_c   9.07202069
_cell_angle_alpha   90.00000000
_cell_angle_beta   90.00000000
_cell_angle_gamma   90.00000000
_symmetry_Int_Tables_number   1
_chemical_formula_structural   CuH12C3SN6O7
_chemical_formula_sum   'Cu4 H48 C12 S4 N24 O28'
_cell_volume   1116.35612974
_cell_formula_units_Z   4
loop_
 _symmetry_equiv_pos_site_id
 _symmetry_equiv_pos_as_xyz
  1  'x, y, z'
loop_
 _atom_site_type_symbol
 _atom_site_label
 _atom_site_symmetry_multiplicity
 _atom_site_fract_x
 _atom_site_fract_y
 _atom_site_fract_z
 _atom_site_occupancy
  Cu  Cu0  1  0.00000000  0.50000000  0.00000000  1
  Cu  Cu1  1  0.00000000  0.50000000  0.50000000  1
  Cu  Cu2  1  0.50000000  0.00000000  0.00000000  1
  Cu  Cu3  1  0.50000000  0.00000000  0.50000000  1
  H  H4  1  0.03106034  0.03767477  0.85991936  1
  H  H5  1  0.03106034  0.96232523  0.35991936  1
  H  H6  1  0.05970564  0.81152708  0.45922135  1
  H  H7  1  0.05970564  0.18847292  0.95922135  1
  H  H8  1  0.14957783  0.20997823  0.48202634  1
  H  H9  1  0.14957783  0.79002177  0.98202634  1
  H  H10  1  0.16391389  0.51845633  0.27317584  1
  H  H11  1  0.16391389  0.48154367  0.77317584  1
  H  H12  1  0.20919969  0.17361756  0.64912485  1
  H  H13  1  0.20919969  0.82638244  0.14912485  1
  H  H14  1  0.21572073  0.10093534  0.26803178  1
  H  H15  1  0.21572073  0.89906466  0.76803178  1
  H  H16  1  0.28427927  0.60093534  0.26803178  1
  H  H17  1  0.28427927  0.39906466  0.76803178  1
  H  H18  1  0.29080031  0.32638244  0.14912485  1
  H  H19  1  0.29080031  0.67361756  0.64912485  1
  H  H20  1  0.33608611  0.01845633  0.27317584  1
  H  H21  1  0.33608611  0.98154367  0.77317584  1
  H  H22  1  0.35042217  0.70997823  0.48202634  1
  H  H23  1  0.35042217  0.29002177  0.98202634  1
  H  H24  1  0.44029436  0.31152708  0.45922135  1
  H  H25  1  0.44029436  0.68847292  0.95922135  1
  H  H26  1  0.46893966  0.46232523  0.35991936  1
  H  H27  1  0.46893966  0.53767477  0.85991936  1
  H  H28  1  0.53106034  0.46232523  0.14008064  1
  H  H29  1  0.53106034  0.53767477  0.64008064  1
  H  H30  1  0.55970564  0.31152708  0.04077865  1
  H  H31  1  0.55970564  0.68847292  0.54077865  1
  H  H32  1  0.64957783  0.29002177  0.51797366  1
  H  H33  1  0.64957783  0.70997823  0.01797366  1
  H  H34  1  0.66391389  0.01845633  0.22682416  1
  H  H35  1  0.66391389  0.98154367  0.72682416  1
  H  H36  1  0.70919969  0.32638244  0.35087515  1
  H  H37  1  0.70919969  0.67361756  0.85087515  1
  H  H38  1  0.71572073  0.39906466  0.73196822  1
  H  H39  1  0.71572073  0.60093534  0.23196822  1
  H  H40  1  0.78427927  0.10093534  0.23196822  1
  H  H41  1  0.78427927  0.89906466  0.73196822  1
  H  H42  1  0.79080031  0.17361756  0.85087515  1
  H  H43  1  0.79080031  0.82638244  0.35087515  1
  H  H44  1  0.83608611  0.48154367  0.72682416  1
  H  H45  1  0.83608611  0.51845633  0.22682416  1
  H  H46  1  0.85042217  0.20997823  0.01797366  1
  H  H47  1  0.85042217  0.79002177  0.51797366  1
  H  H48  1  0.94029436  0.18847292  0.54077865  1
  H  H49  1  0.94029436  0.81152708  0.04077865  1
  H  H50  1  0.96893966  0.03767477  0.64008064  1
  H  H51  1  0.96893966  0.96232523  0.14008064  1
  C  C52  1  0.00000000  0.22216937  0.75000000  1
  C  C53  1  0.00000000  0.77783063  0.25000000  1
  C  C54  1  0.21569049  0.40780695  0.97145597  1
  C  C55  1  0.21569049  0.59219305  0.47145597  1
  C  C56  1  0.28430951  0.09219305  0.47145597  1
  C  C57  1  0.28430951  0.90780695  0.97145597  1
  C  C58  1  0.50000000  0.72216937  0.75000000  1
  C  C59  1  0.50000000  0.27783063  0.25000000  1
  C  C60  1  0.71569049  0.09219305  0.02854403  1
  C  C61  1  0.71569049  0.90780695  0.52854403  1
  C  C62  1  0.78430951  0.40780695  0.52854403  1
  C  C63  1  0.78430951  0.59219305  0.02854403  1
  S  S64  1  0.00000000  0.25083439  0.25000000  1
  S  S65  1  0.00000000  0.74916561  0.75000000  1
  S  S66  1  0.50000000  0.24916561  0.75000000  1
  S  S67  1  0.50000000  0.75083439  0.25000000  1
  N  N68  1  0.04460660  0.14429729  0.85908384  1
  N  N69  1  0.04460660  0.85570271  0.35908484  1
  N  N70  1  0.20687597  0.16071912  0.53854921  1
  N  N71  1  0.20687597  0.83928088  0.03854921  1
  N  N72  1  0.22094765  0.57124503  0.32574964  1
  N  N73  1  0.22094765  0.42875497  0.82574964  1
  N  N74  1  0.27905235  0.07124503  0.32574964  1
  N  N75  1  0.27905235  0.92875497  0.82574964  1
  N  N76  1  0.29312403  0.33928088  0.03854921  1
  N  N77  1  0.29312403  0.66071912  0.53854921  1
  N  N78  1  0.45539340  0.35570271  0.35908484  1
  N  N79  1  0.45539340  0.64429729  0.85908384  1
  N  N80  1  0.54460660  0.35570271  0.14091516  1
  N  N81  1  0.54460660  0.64429729  0.64091616  1
  N  N82  1  0.70687597  0.33928088  0.46145079  1
  N  N83  1  0.70687597  0.66071912  0.96145079  1
  N  N84  1  0.72094765  0.07124503  0.17425036  1
  N  N85  1  0.72094765  0.92875497  0.67425036  1
  N  N86  1  0.77905235  0.42875497  0.67425036  1
  N  N87  1  0.77905235  0.57124503  0.17425036  1
  N  N88  1  0.79312403  0.16071912  0.96145079  1
  N  N89  1  0.79312403  0.83928088  0.46145079  1
  N  N90  1  0.95539340  0.14429729  0.64091616  1
  N  N91  1  0.95539340  0.85570271  0.14091516  1
  O  O92  1  0.00000000  0.64318807  0.25000000  1
  O  O93  1  0.00000000  0.35681193  0.75000000  1
  O  O94  1  0.05071092  0.34242762  0.36637231  1
  O  O95  1  0.05071092  0.65757238  0.86637231  1
  O  O96  1  0.08048400  0.16133512  0.18337221  1
  O  O97  1  0.08048400  0.83866488  0.68337221  1
  O  O98  1  0.14060379  0.54853387  0.55050717  1
  O  O99  1  0.14060379  0.45146613  0.05050717  1
  O  O100  1  0.35939621  0.04853387  0.55050717  1
  O  O101  1  0.35939621  0.95146613  0.05050717  1
  O  O102  1  0.41951600  0.33866488  0.68337221  1
  O  O103  1  0.41951600  0.66133512  0.18337221  1
  O  O104  1  0.44928908  0.15757238  0.86637231  1
  O  O105  1  0.44928908  0.84242762  0.36637231  1
  O  O106  1  0.50000000  0.85681193  0.75000000  1
  O  O107  1  0.50000000  0.14318807  0.25000000  1
  O  O108  1  0.55071092  0.15757238  0.63362769  1
  O  O109  1  0.55071092  0.84242762  0.13362769  1
  O  O110  1  0.58048400  0.33866488  0.81662779  1
  O  O111  1  0.58048400  0.66133512  0.31662779  1
  O  O112  1  0.64060379  0.04853387  0.94949283  1
  O  O113  1  0.64060379  0.95146613  0.44949283  1
  O  O114  1  0.85939621  0.45146613  0.44949283  1
  O  O115  1  0.85939621  0.54853387  0.94949283  1
  O  O116  1  0.91951600  0.16133512  0.31662779  1
  O  O117  1  0.91951600  0.83866488  0.81662779  1
  O  O118  1  0.94928908  0.34242762  0.13362769  1
  O  O119  1  0.94928908  0.65757238  0.63362769  1
