# generated using pymatgen
data_Li3Co2(SiO4)2
_symmetry_space_group_name_H-M   'P 1'
_cell_length_a   6.33896760
_cell_length_b   10.78668596
_cell_length_c   5.07078695
_cell_angle_alpha   90.08620375
_cell_angle_beta   90.00000000
_cell_angle_gamma   90.00000000
_symmetry_Int_Tables_number   1
_chemical_formula_structural   Li3Co2(SiO4)2
_chemical_formula_sum   'Li6 Co4 Si4 O16'
_cell_volume   346.72203240
_cell_formula_units_Z   2
loop_
 _symmetry_equiv_pos_site_id
 _symmetry_equiv_pos_as_xyz
  1  'x, y, z'
loop_
 _atom_site_type_symbol
 _atom_site_label
 _atom_site_symmetry_multiplicity
 _atom_site_fract_x
 _atom_site_fract_y
 _atom_site_fract_z
 _atom_site_occupancy
  Li  Li0  1  0.01717511  0.83073207  0.76191236  1
  Li  Li1  1  0.48282489  0.33073207  0.76191236  1
  Li  Li2  1  0.49648828  0.66935747  0.25907276  1
  Li  Li3  1  0.74930177  0.90995961  0.25555967  1
  Li  Li4  1  0.75069823  0.40995961  0.25555967  1
  Li  Li5  1  0.00351172  0.16935747  0.25907276  1
  Co  Co6  1  0.23979497  0.41673764  0.25993227  1
  Co  Co7  1  0.26020503  0.91673764  0.25993227  1
  Co  Co8  1  0.73323856  0.08782914  0.76258316  1
  Co  Co9  1  0.76676144  0.58782914  0.76258316  1
  Si  Si10  1  0.00791828  0.66752974  0.26177540  1
  Si  Si11  1  0.49208172  0.16752974  0.26177540  1
  Si  Si12  1  0.50739760  0.83254393  0.76421628  1
  Si  Si13  1  0.99260240  0.33254393  0.76421628  1
  O  O14  1  0.97794942  0.67017609  0.58659853  1
  O  O15  1  0.00677137  0.81265119  0.15597639  1
  O  O16  1  0.20935105  0.38668454  0.64095190  1
  O  O17  1  0.22416400  0.59417249  0.19122047  1
  O  O18  1  0.27583600  0.09417249  0.19122047  1
  O  O19  1  0.29064895  0.88668454  0.64095190  1
  O  O20  1  0.49322863  0.31265119  0.15597639  1
  O  O21  1  0.52205058  0.17017609  0.58659853  1
  O  O22  1  0.50550139  0.83281387  0.08784334  1
  O  O23  1  0.54604074  0.68868134  0.65512750  1
  O  O24  1  0.70829336  0.09545120  0.13831554  1
  O  O25  1  0.71978635  0.91729569  0.66812243  1
  O  O26  1  0.78021365  0.41729569  0.66812243  1
  O  O27  1  0.79170664  0.59545120  0.13831554  1
  O  O28  1  0.95395926  0.18868134  0.65512750  1
  O  O29  1  0.99449861  0.33281387  0.08784334  1
