# generated using pymatgen
data_Mn12O5F19
_symmetry_space_group_name_H-M   'P 1'
_cell_length_a   4.87664553
_cell_length_b   5.84058723
_cell_length_c   15.90876614
_cell_angle_alpha   89.48107125
_cell_angle_beta   89.96178479
_cell_angle_gamma   87.50434031
_symmetry_Int_Tables_number   1
_chemical_formula_structural   Mn12O5F19
_chemical_formula_sum   'Mn12 O5 F19'
_cell_volume   452.67265383
_cell_formula_units_Z   1
loop_
 _symmetry_equiv_pos_site_id
 _symmetry_equiv_pos_as_xyz
  1  'x, y, z'
loop_
 _atom_site_type_symbol
 _atom_site_label
 _atom_site_symmetry_multiplicity
 _atom_site_fract_x
 _atom_site_fract_y
 _atom_site_fract_z
 _atom_site_occupancy
  Mn  Mn0  1  0.98386519  0.16728442  0.41514813  1
  Mn  Mn1  1  0.01833448  0.83802073  0.23819957  1
  Mn  Mn2  1  0.99535510  0.16262567  0.07880662  1
  Mn  Mn3  1  0.04916222  0.19578778  0.75645511  1
  Mn  Mn4  1  0.01114192  0.81785716  0.59110842  1
  Mn  Mn5  1  0.98805866  0.83779340  0.91528985  1
  Mn  Mn6  1  0.49104201  0.34227797  0.58649313  1
  Mn  Mn7  1  0.50815529  0.35400146  0.92005556  1
  Mn  Mn8  1  0.51164200  0.33123322  0.25652128  1
  Mn  Mn9  1  0.48887668  0.65497510  0.08414833  1
  Mn  Mn10  1  0.51630352  0.65002226  0.41322939  1
  Mn  Mn11  1  0.48596255  0.63896329  0.74888012  1
  O  O12  1  0.22305174  0.88522350  0.12975574  1
  O  O13  1  0.28547322  0.59317318  0.64696646  1
  O  O14  1  0.30598335  0.40552243  0.81335356  1
  O  O15  1  0.70853972  0.39175183  0.02731127  1
  O  O16  1  0.71678581  0.39836840  0.36662160  1
  F  F17  1  0.21987397  0.11057831  0.30545691  1
  F  F18  1  0.23102856  0.09727801  0.63875804  1
  F  F19  1  0.21991560  0.12157553  0.96920898  1
  F  F20  1  0.24022924  0.88226987  0.46837481  1
  F  F21  1  0.23630082  0.89816793  0.80862077  1
  F  F22  1  0.25911077  0.39051865  0.14454385  1
  F  F23  1  0.26868520  0.62011469  0.30910173  1
  F  F24  1  0.26249067  0.39185386  0.47574728  1
  F  F25  1  0.26606337  0.61127477  0.97440846  1
  F  F26  1  0.71954840  0.61630872  0.19255345  1
  F  F27  1  0.73233373  0.61397473  0.52495660  1
  F  F28  1  0.72627409  0.62367619  0.85293449  1
  F  F29  1  0.75496954  0.37133350  0.68833213  1
  F  F30  1  0.77291622  0.11505571  0.18864454  1
  F  F31  1  0.76575322  0.10471205  0.53141880  1
  F  F32  1  0.77243148  0.88816311  0.35282415  1
  F  F33  1  0.74589487  0.88889658  0.02469479  1
  F  F34  1  0.77096812  0.12880611  0.86192574  1
  F  F35  1  0.74747968  0.86055590  0.69914834  1
