# generated using pymatgen
data_Li4Cr2Fe3Sb3O16
_symmetry_space_group_name_H-M   'P 1'
_cell_length_a   6.14625496
_cell_length_b   6.11979660
_cell_length_c   9.71155004
_cell_angle_alpha   90.45409528
_cell_angle_beta   91.35200633
_cell_angle_gamma   119.33915606
_symmetry_Int_Tables_number   1
_chemical_formula_structural   Li4Cr2Fe3Sb3O16
_chemical_formula_sum   'Li4 Cr2 Fe3 Sb3 O16'
_cell_volume   318.26647499
_cell_formula_units_Z   1
loop_
 _symmetry_equiv_pos_site_id
 _symmetry_equiv_pos_as_xyz
  1  'x, y, z'
loop_
 _atom_site_type_symbol
 _atom_site_label
 _atom_site_symmetry_multiplicity
 _atom_site_fract_x
 _atom_site_fract_y
 _atom_site_fract_z
 _atom_site_occupancy
  Li  Li0  1  0.32418318  0.65758327  0.88125983  1
  Li  Li1  1  0.97136210  0.98545079  0.98585628  1
  Li  Li2  1  0.97987562  0.98706450  0.50361753  1
  Li  Li3  1  0.64953900  0.32428183  0.40277590  1
  Cr  Cr4  1  0.34669513  0.67895696  0.49428273  1
  Cr  Cr5  1  0.69241442  0.34425905  0.97560499  1
  Fe  Fe6  1  0.66438322  0.83211198  0.21488240  1
  Fe  Fe7  1  0.83437128  0.66508608  0.71180194  1
  Fe  Fe8  1  0.83489956  0.17299995  0.71213006  1
  Sb  Sb9  1  0.16940487  0.83121389  0.21425154  1
  Sb  Sb10  1  0.17013216  0.33845790  0.21504017  1
  Sb  Sb11  1  0.34612662  0.17408405  0.71344915  1
  O  O12  1  0.18140393  0.85001042  0.59771239  1
  O  O13  1  0.03277532  0.51998330  0.33808045  1
  O  O14  1  0.31462485  0.65519268  0.10058111  1
  O  O15  1  0.01850496  0.01100166  0.31816467  1
  O  O16  1  0.02138507  0.02101325  0.80643556  1
  O  O17  1  0.17362776  0.33489456  0.59924910  1
  O  O18  1  0.46572022  0.95883691  0.34098018  1
  O  O19  1  0.46553527  0.50628380  0.34173611  1
  O  O20  1  0.31869831  0.15641029  0.10392329  1
  O  O21  1  0.67002674  0.84380634  0.59634047  1
  O  O22  1  0.51040890  0.46667532  0.84960739  1
  O  O23  1  0.52416152  0.04152550  0.84485920  1
  O  O24  1  0.65185553  0.31601350  0.60166739  1
  O  O25  1  0.85484953  0.68121109  0.09902544  1
  O  O26  1  0.95811170  0.47117864  0.84351522  1
  O  O27  1  0.85492423  0.17471251  0.10101151  1
