# generated using pymatgen
data_Li3Cr3(NiO6)2
_symmetry_space_group_name_H-M   'P 1'
_cell_length_a   8.78228874
_cell_length_b   12.39446566
_cell_length_c   9.22655841
_cell_angle_alpha   90.00000000
_cell_angle_beta   90.00000000
_cell_angle_gamma   91.39041114
_symmetry_Int_Tables_number   1
_chemical_formula_structural   Li3Cr3(NiO6)2
_chemical_formula_sum   'Li12 Cr12 Ni8 O48'
_cell_volume   1004.03156128
_cell_formula_units_Z   4
loop_
 _symmetry_equiv_pos_site_id
 _symmetry_equiv_pos_as_xyz
  1  'x, y, z'
loop_
 _atom_site_type_symbol
 _atom_site_label
 _atom_site_symmetry_multiplicity
 _atom_site_fract_x
 _atom_site_fract_y
 _atom_site_fract_z
 _atom_site_occupancy
  Li  Li0  1  0.07824500  0.69780182  0.08756254  1
  Li  Li1  1  0.06070966  0.34154419  0.50970976  1
  Li  Li2  1  0.16645932  0.17894039  0.77040229  1
  Li  Li3  1  0.33354068  0.32105961  0.27040229  1
  Li  Li4  1  0.42175500  0.80219818  0.58756254  1
  Li  Li5  1  0.43929034  0.15845581  0.00970976  1
  Li  Li6  1  0.56070966  0.84154419  0.99029024  1
  Li  Li7  1  0.57824500  0.19780182  0.41243746  1
  Li  Li8  1  0.66645932  0.67894039  0.72959771  1
  Li  Li9  1  0.83354068  0.82105961  0.22959771  1
  Li  Li10  1  0.93929034  0.65845581  0.49029024  1
  Li  Li11  1  0.92175500  0.30219818  0.91243746  1
  Cr  Cr12  1  0.04112236  0.49141150  0.24784718  1
  Cr  Cr13  1  0.11706637  0.85214914  0.38218961  1
  Cr  Cr14  1  0.11624099  0.14510616  0.11285060  1
  Cr  Cr15  1  0.38293363  0.64785086  0.88218961  1
  Cr  Cr16  1  0.38375901  0.35489384  0.61285060  1
  Cr  Cr17  1  0.45887764  0.00858850  0.74784718  1
  Cr  Cr18  1  0.54112236  0.99141150  0.25215282  1
  Cr  Cr19  1  0.61624099  0.64510616  0.38714940  1
  Cr  Cr20  1  0.61706637  0.35214914  0.11781039  1
  Cr  Cr21  1  0.88375901  0.85489384  0.88714940  1
  Cr  Cr22  1  0.88293363  0.14785086  0.61781039  1
  Cr  Cr23  1  0.95887764  0.50858850  0.75215282  1
  Ni  Ni24  1  0.24402221  0.88695619  0.03054347  1
  Ni  Ni25  1  0.25597779  0.61304381  0.53054347  1
  Ni  Ni26  1  0.26228132  0.38217667  0.96827588  1
  Ni  Ni27  1  0.23771868  0.11782333  0.46827588  1
  Ni  Ni28  1  0.76228132  0.88217667  0.53172412  1
  Ni  Ni29  1  0.73771868  0.61782333  0.03172412  1
  Ni  Ni30  1  0.74402221  0.38695619  0.46945653  1
  Ni  Ni31  1  0.75597779  0.11304381  0.96945653  1
  O  O32  1  0.05695085  0.44376605  0.87762093  1
  O  O33  1  0.05651334  0.90676454  0.88330880  1
  O  O34  1  0.05864184  0.60509440  0.66569605  1
  O  O35  1  0.07257566  0.19406958  0.57731330  1
  O  O36  1  0.09748339  0.58551620  0.36708023  1
  O  O37  1  0.11303413  0.83258565  0.19404981  1
  O  O38  1  0.13036464  0.98312025  0.41451670  1
  O  O39  1  0.12176467  0.24542160  0.98850975  1
  O  O40  1  0.17327521  0.19361155  0.27383907  1
  O  O41  1  0.19362277  0.43477005  0.17590715  1
  O  O42  1  0.24314274  0.77218736  0.47155788  1
  O  O43  1  0.25685726  0.72781264  0.97155788  1
  O  O44  1  0.24371019  0.05559953  0.05676788  1
  O  O45  1  0.25628981  0.44440047  0.55676788  1
  O  O46  1  0.30637723  0.06522995  0.67590715  1
  O  O47  1  0.32672479  0.30638845  0.77383907  1
  O  O48  1  0.36963536  0.51687975  0.91451670  1
  O  O49  1  0.37823533  0.25457840  0.48850975  1
  O  O50  1  0.38696587  0.66741435  0.69404981  1
  O  O51  1  0.40251661  0.91448380  0.86708023  1
  O  O52  1  0.44135816  0.89490560  0.16569605  1
  O  O53  1  0.44348666  0.59323546  0.38330880  1
  O  O54  1  0.42742434  0.30593042  0.07731330  1
  O  O55  1  0.44304915  0.05623395  0.37762093  1
  O  O56  1  0.55695085  0.94376605  0.62237907  1
  O  O57  1  0.57257566  0.69406958  0.92268670  1
  O  O58  1  0.55651334  0.40676454  0.61669120  1
  O  O59  1  0.55864184  0.10509440  0.83430395  1
  O  O60  1  0.59748339  0.08551620  0.13291977  1
  O  O61  1  0.61303413  0.33258565  0.30595019  1
  O  O62  1  0.62176467  0.74542160  0.51149025  1
  O  O63  1  0.63036464  0.48312025  0.08548330  1
  O  O64  1  0.67327521  0.69361155  0.22616093  1
  O  O65  1  0.69362277  0.93477005  0.32409285  1
  O  O66  1  0.74371019  0.55559953  0.44323212  1
  O  O67  1  0.75628981  0.94440047  0.94323212  1
  O  O68  1  0.74314274  0.27218736  0.02844212  1
  O  O69  1  0.75685726  0.22781264  0.52844212  1
  O  O70  1  0.80637723  0.56522995  0.82409285  1
  O  O71  1  0.82672479  0.80638845  0.72616093  1
  O  O72  1  0.87823533  0.75457840  0.01149025  1
  O  O73  1  0.86963536  0.01687975  0.58548330  1
  O  O74  1  0.88696587  0.16741435  0.80595019  1
  O  O75  1  0.90251661  0.41448380  0.63291977  1
  O  O76  1  0.92742434  0.80593042  0.42268670  1
  O  O77  1  0.94135816  0.39490560  0.33430395  1
  O  O78  1  0.94348666  0.09323546  0.11669120  1
  O  O79  1  0.94304915  0.55623395  0.12237907  1
