# generated using pymatgen
data_LiFe2O2F3
_symmetry_space_group_name_H-M   'P 1'
_cell_length_a   3.83628597
_cell_length_b   5.32375079
_cell_length_c   10.22395616
_cell_angle_alpha   90.00000000
_cell_angle_beta   90.00000000
_cell_angle_gamma   111.11857598
_symmetry_Int_Tables_number   1
_chemical_formula_structural   LiFe2O2F3
_chemical_formula_sum   'Li2 Fe4 O4 F6'
_cell_volume   194.78402061
_cell_formula_units_Z   2
loop_
 _symmetry_equiv_pos_site_id
 _symmetry_equiv_pos_as_xyz
  1  'x, y, z'
loop_
 _atom_site_type_symbol
 _atom_site_label
 _atom_site_symmetry_multiplicity
 _atom_site_fract_x
 _atom_site_fract_y
 _atom_site_fract_z
 _atom_site_occupancy
  Li  Li0  1  0.18515243  0.37030386  0.25000000  1
  Li  Li1  1  0.81484757  0.62969614  0.75000000  1
  Fe  Fe2  1  0.15235019  0.30470037  0.55729843  1
  Fe  Fe3  1  0.15235019  0.30470037  0.94270157  1
  Fe  Fe4  1  0.84764981  0.69529963  0.05729843  1
  Fe  Fe5  1  0.84764981  0.69529963  0.44270157  1
  O  O6  1  0.31278067  0.62556134  0.43637376  1
  O  O7  1  0.31278067  0.62556134  0.06362624  1
  O  O8  1  0.68721933  0.37443866  0.93637376  1
  O  O9  1  0.68721933  0.37443866  0.56362624  1
  F  F10  1  0.04083558  0.08167115  0.11551529  1
  F  F11  1  0.04083558  0.08167115  0.38448471  1
  F  F12  1  0.23544005  0.47088010  0.75000000  1
  F  F13  1  0.76455995  0.52911990  0.25000000  1
  F  F14  1  0.95916442  0.91832885  0.61551529  1
  F  F15  1  0.95916442  0.91832885  0.88448471  1
