# generated using pymatgen
data_H5C3N5O
_symmetry_space_group_name_H-M   'P 1'
_cell_length_a   4.85722852
_cell_length_b   9.74905637
_cell_length_c   11.79394784
_cell_angle_alpha   90.00000000
_cell_angle_beta   97.21066660
_cell_angle_gamma   90.00000000
_symmetry_Int_Tables_number   1
_chemical_formula_structural   H5C3N5O
_chemical_formula_sum   'H20 C12 N20 O4'
_cell_volume   554.06661717
_cell_formula_units_Z   4
loop_
 _symmetry_equiv_pos_site_id
 _symmetry_equiv_pos_as_xyz
  1  'x, y, z'
loop_
 _atom_site_type_symbol
 _atom_site_label
 _atom_site_symmetry_multiplicity
 _atom_site_fract_x
 _atom_site_fract_y
 _atom_site_fract_z
 _atom_site_occupancy
  H  H0  1  0.20933232  0.91426564  0.73206322  1
  H  H1  1  0.22213997  0.09479738  0.71966605  1
  H  H2  1  0.99003006  0.15909735  0.07545335  1
  H  H3  1  0.27786003  0.59479738  0.78033395  1
  H  H4  1  0.29066768  0.41426564  0.76793678  1
  H  H5  1  0.08499837  0.37951958  0.03833365  1
  H  H6  1  0.23810185  0.54022505  0.39322109  1
  H  H7  1  0.26189815  0.04022505  0.10677891  1
  H  H8  1  0.41500163  0.87951958  0.46166635  1
  H  H9  1  0.49003006  0.34090265  0.57545335  1
  H  H10  1  0.50996994  0.65909735  0.42454665  1
  H  H11  1  0.58499837  0.12048042  0.53833365  1
  H  H12  1  0.73810185  0.95977495  0.89322109  1
  H  H13  1  0.76189815  0.45977495  0.60677891  1
  H  H14  1  0.91500163  0.62048042  0.96166635  1
  H  H15  1  0.70933332  0.58573436  0.23206322  1
  H  H16  1  0.72213997  0.40520262  0.21966605  1
  H  H17  1  0.00996994  0.84090265  0.92454665  1
  H  H18  1  0.77786003  0.90520262  0.28033395  1
  H  H19  1  0.79066668  0.08573436  0.26793678  1
  C  C20  1  0.11176090  0.99403637  0.37159453  1
  C  C21  1  0.12026158  0.74055272  0.38440866  1
  C  C22  1  0.17342433  0.22814657  0.37703865  1
  C  C23  1  0.32657567  0.72814657  0.12296135  1
  C  C24  1  0.61176090  0.50596363  0.87159453  1
  C  C25  1  0.62026158  0.75944728  0.88440866  1
  C  C26  1  0.37973842  0.24055272  0.11559134  1
  C  C27  1  0.38823910  0.49403637  0.12840547  1
  C  C28  1  0.67342433  0.27185343  0.87703865  1
  C  C29  1  0.82657567  0.77185343  0.62296135  1
  C  C30  1  0.87973842  0.25944728  0.61559134  1
  C  C31  1  0.88823910  0.00596363  0.62840547  1
  N  N32  1  0.12779564  0.00361288  0.69617160  1
  N  N33  1  0.11501474  0.34349043  0.35554285  1
  N  N34  1  0.22706459  0.87162934  0.41057070  1
  N  N35  1  0.37220436  0.50361288  0.80382840  1
  N  N36  1  0.26045418  0.10514029  0.40797826  1
  N  N37  1  0.19717206  0.13884958  0.08873101  1
  N  N38  1  0.30282794  0.63884958  0.41126899  1
  N  N39  1  0.23954582  0.60514029  0.09202174  1
  N  N40  1  0.27293541  0.37162934  0.08942930  1
  N  N41  1  0.61501474  0.15650957  0.85554285  1
  N  N42  1  0.38498526  0.84349043  0.14445715  1
  N  N43  1  0.72706459  0.62837066  0.91057070  1
  N  N44  1  0.76045418  0.39485971  0.90797826  1
  N  N45  1  0.69717206  0.36115042  0.58873101  1
  N  N46  1  0.80282794  0.86115042  0.91126899  1
  N  N47  1  0.73954582  0.89485971  0.59202174  1
  N  N48  1  0.62779564  0.49638712  0.19617160  1
  N  N49  1  0.77293541  0.12837066  0.58942930  1
  N  N50  1  0.88498526  0.65650957  0.64445715  1
  N  N51  1  0.87220436  0.99638712  0.30382840  1
  O  O52  1  0.12665365  0.27817248  0.65803875  1
  O  O53  1  0.37334635  0.77817248  0.84196125  1
  O  O54  1  0.62665365  0.22182752  0.15803875  1
  O  O55  1  0.87334635  0.72182752  0.34196125  1
