# generated using pymatgen
data_Fe3Sb(PO4)6
_symmetry_space_group_name_H-M   'P 1'
_cell_length_a   8.93255792
_cell_length_b   8.93255839
_cell_length_c   8.93255854
_cell_angle_alpha   58.34223991
_cell_angle_beta   58.34223316
_cell_angle_gamma   58.34223779
_symmetry_Int_Tables_number   1
_chemical_formula_structural   Fe3Sb(PO4)6
_chemical_formula_sum   'Fe3 Sb1 P6 O24'
_cell_volume   484.85005947
_cell_formula_units_Z   1
loop_
 _symmetry_equiv_pos_site_id
 _symmetry_equiv_pos_as_xyz
  1  'x, y, z'
loop_
 _atom_site_type_symbol
 _atom_site_label
 _atom_site_symmetry_multiplicity
 _atom_site_fract_x
 _atom_site_fract_y
 _atom_site_fract_z
 _atom_site_occupancy
  Fe  Fe0  1  0.14318720  0.14318720  0.14318720  1
  Fe  Fe1  1  0.35642208  0.35642208  0.35642208  1
  Fe  Fe2  1  0.64264484  0.64264484  0.64264484  1
  Sb  Sb3  1  0.85592453  0.85592453  0.85592453  1
  P  P4  1  0.03577386  0.74917876  0.46366090  1
  P  P5  1  0.46366090  0.03577386  0.74917876  1
  P  P6  1  0.74917876  0.46366090  0.03577386  1
  P  P7  1  0.24881776  0.53599195  0.96436395  1
  P  P8  1  0.53599195  0.96436395  0.24881776  1
  P  P9  1  0.96436395  0.24881776  0.53599195  1
  O  O10  1  0.13442606  0.27387563  0.50939710  1
  O  O11  1  0.27387563  0.50939710  0.13442606  1
  O  O12  1  0.06254508  0.92113216  0.28689573  1
  O  O13  1  0.50939710  0.13442606  0.27387563  1
  O  O14  1  0.21186687  0.57705827  0.43956518  1
  O  O15  1  0.01458554  0.77222244  0.63688827  1
  O  O16  1  0.28689573  0.06254508  0.92113216  1
  O  O17  1  0.43956518  0.21186687  0.57705827  1
  O  O18  1  0.57705827  0.43956518  0.21186687  1
  O  O19  1  0.22090697  0.36751275  0.98991730  1
  O  O20  1  0.07437408  0.71901984  0.93914422  1
  O  O21  1  0.36751275  0.98991730  0.22090697  1
  O  O22  1  0.63688827  0.01458554  0.77222244  1
  O  O23  1  0.92113216  0.28689573  0.06254508  1
  O  O24  1  0.77222244  0.63688827  0.01458554  1
  O  O25  1  0.42077308  0.56181295  0.78727775  1
  O  O26  1  0.56181295  0.78727775  0.42077308  1
  O  O27  1  0.71901984  0.93914422  0.07437408  1
  O  O28  1  0.98991730  0.22090697  0.36751275  1
  O  O29  1  0.78727775  0.42077308  0.56181295  1
  O  O30  1  0.49350973  0.86223433  0.72709085  1
  O  O31  1  0.93914422  0.07437408  0.71901984  1
  O  O32  1  0.72709085  0.49350973  0.86223433  1
  O  O33  1  0.86223433  0.72709085  0.49350973  1
