# generated using pymatgen
data_Mn6O5F7
_symmetry_space_group_name_H-M   'P 1'
_cell_length_a   4.73795412
_cell_length_b   5.75561918
_cell_length_c   15.57763996
_cell_angle_alpha   90.44715229
_cell_angle_beta   89.34592003
_cell_angle_gamma   93.24870559
_symmetry_Int_Tables_number   1
_chemical_formula_structural   Mn6O5F7
_chemical_formula_sum   'Mn12 O10 F14'
_cell_volume   424.07884581
_cell_formula_units_Z   2
loop_
 _symmetry_equiv_pos_site_id
 _symmetry_equiv_pos_as_xyz
  1  'x, y, z'
loop_
 _atom_site_type_symbol
 _atom_site_label
 _atom_site_symmetry_multiplicity
 _atom_site_fract_x
 _atom_site_fract_y
 _atom_site_fract_z
 _atom_site_occupancy
  Mn  Mn0  1  0.04293116  0.15509624  0.41393244  1
  Mn  Mn1  1  0.97813177  0.84590768  0.24881093  1
  Mn  Mn2  1  0.02889160  0.16543390  0.07966863  1
  Mn  Mn3  1  0.99515344  0.18874354  0.74613171  1
  Mn  Mn4  1  0.02096296  0.86314765  0.58131039  1
  Mn  Mn5  1  0.05657228  0.83642516  0.92092177  1
  Mn  Mn6  1  0.48754704  0.33677208  0.58392831  1
  Mn  Mn7  1  0.47739341  0.35503985  0.91854231  1
  Mn  Mn8  1  0.47805725  0.35077020  0.24722852  1
  Mn  Mn9  1  0.50170747  0.63839426  0.08847242  1
  Mn  Mn10  1  0.46336617  0.65646142  0.42353380  1
  Mn  Mn11  1  0.50433830  0.62368327  0.74908969  1
  O  O12  1  0.21516863  0.11512490  0.30314058  1
  O  O13  1  0.21391098  0.12121459  0.63700253  1
  O  O14  1  0.23819769  0.12085715  0.97418867  1
  O  O15  1  0.22353736  0.88572064  0.47360633  1
  O  O16  1  0.27608797  0.38152383  0.13907287  1
  O  O17  1  0.27934877  0.38725221  0.47669206  1
  O  O18  1  0.28286652  0.38683209  0.81361953  1
  O  O19  1  0.30402424  0.60863787  0.97828338  1
  O  O20  1  0.70698831  0.61407513  0.19504036  1
  O  O21  1  0.69693135  0.38357812  0.69087185  1
  F  F22  1  0.23044713  0.88462720  0.14054367  1
  F  F23  1  0.26069176  0.86855063  0.80043457  1
  F  F24  1  0.23386960  0.61452083  0.30898963  1
  F  F25  1  0.25054582  0.61528594  0.64040474  1
  F  F26  1  0.73880539  0.36917260  0.01888712  1
  F  F27  1  0.70810969  0.39597862  0.35723821  1
  F  F28  1  0.73814174  0.62134057  0.53367769  1
  F  F29  1  0.76179555  0.60679270  0.86569051  1
  F  F30  1  0.77497654  0.12015088  0.18478887  1
  F  F31  1  0.77473011  0.13028562  0.51606310  1
  F  F32  1  0.74159731  0.88773395  0.36349155  1
  F  F33  1  0.77816930  0.87978624  0.03383720  1
  F  F34  1  0.76967701  0.11252864  0.86140438  1
  F  F35  1  0.76632738  0.87255481  0.69145867  1
