# generated using pymatgen
data_Li4Mn2Fe3Cu3O16
_symmetry_space_group_name_H-M   'P 1'
_cell_length_a   5.85727760
_cell_length_b   5.86602341
_cell_length_c   9.42063535
_cell_angle_alpha   89.98708730
_cell_angle_beta   90.14618452
_cell_angle_gamma   120.08143442
_symmetry_Int_Tables_number   1
_chemical_formula_structural   Li4Mn2Fe3Cu3O16
_chemical_formula_sum   'Li4 Mn2 Fe3 Cu3 O16'
_cell_volume   280.08621062
_cell_formula_units_Z   1
loop_
 _symmetry_equiv_pos_site_id
 _symmetry_equiv_pos_as_xyz
  1  'x, y, z'
loop_
 _atom_site_type_symbol
 _atom_site_label
 _atom_site_symmetry_multiplicity
 _atom_site_fract_x
 _atom_site_fract_y
 _atom_site_fract_z
 _atom_site_occupancy
  Li  Li0  1  0.32141799  0.66068750  0.89917094  1
  Li  Li1  1  0.00357483  0.00194364  0.99413789  1
  Li  Li2  1  0.01577557  0.00792296  0.49119463  1
  Li  Li3  1  0.66342826  0.33172536  0.39720012  1
  Mn  Mn4  1  0.33751676  0.66884009  0.48484966  1
  Mn  Mn5  1  0.66403996  0.33193258  0.98498870  1
  Fe  Fe6  1  0.66186794  0.83091039  0.21320056  1
  Fe  Fe7  1  0.83011440  0.65997979  0.71293897  1
  Fe  Fe8  1  0.83009580  0.17009216  0.71292227  1
  Cu  Cu9  1  0.17124157  0.82965461  0.21259667  1
  Cu  Cu10  1  0.17086708  0.34147016  0.21213338  1
  Cu  Cu11  1  0.34181903  0.17091636  0.71158772  1
  O  O12  1  0.16432680  0.82445248  0.59403050  1
  O  O13  1  0.04293988  0.52174548  0.34895975  1
  O  O14  1  0.32230820  0.66100132  0.10785989  1
  O  O15  1  0.01478564  0.00758922  0.30128699  1
  O  O16  1  0.01184046  0.00586550  0.80441049  1
  O  O17  1  0.16437757  0.33976311  0.59403052  1
  O  O18  1  0.48201646  0.96080765  0.34839882  1
  O  O19  1  0.48215226  0.52131573  0.34857249  1
  O  O20  1  0.33527405  0.16733795  0.09462928  1
  O  O21  1  0.66460530  0.83233920  0.59603516  1
  O  O22  1  0.51845783  0.48167482  0.85010334  1
  O  O23  1  0.51843922  0.03692618  0.85008995  1
  O  O24  1  0.65890195  0.32950886  0.60448311  1
  O  O25  1  0.82570115  0.66120865  0.09542138  1
  O  O26  1  0.95660718  0.47828332  0.84729079  1
  O  O27  1  0.82550587  0.16440494  0.09531401  1
