# generated using pymatgen
data_Ho(MoO3)2
_symmetry_space_group_name_H-M   'P 1'
_cell_length_a   5.37988086
_cell_length_b   5.63408311
_cell_length_c   7.83367614
_cell_angle_alpha   89.96879241
_cell_angle_beta   90.04358168
_cell_angle_gamma   89.85112492
_symmetry_Int_Tables_number   1
_chemical_formula_structural   Ho(MoO3)2
_chemical_formula_sum   'Ho2 Mo4 O12'
_cell_volume   237.44326991
_cell_formula_units_Z   2
loop_
 _symmetry_equiv_pos_site_id
 _symmetry_equiv_pos_as_xyz
  1  'x, y, z'
loop_
 _atom_site_type_symbol
 _atom_site_label
 _atom_site_symmetry_multiplicity
 _atom_site_fract_x
 _atom_site_fract_y
 _atom_site_fract_z
 _atom_site_occupancy
  Ho  Ho0  1  0.01733876  0.92431942  0.75007411  1
  Ho  Ho1  1  0.52449650  0.57119460  0.24985531  1
  Mo  Mo2  1  0.00737864  0.49049999  0.00105944  1
  Mo  Mo3  1  0.00726664  0.49051541  0.49968613  1
  Mo  Mo4  1  0.50350118  0.01415031  0.49951654  1
  Mo  Mo5  1  0.50377616  0.01426014  -0.00017362  1
  O  O6  1  0.12481743  0.47411150  0.25028163  1
  O  O7  1  0.16815278  0.19840473  0.94307048  1
  O  O8  1  0.16855521  0.19853236  0.55744179  1
  O  O9  1  0.28772873  0.71763745  0.95669375  1
  O  O10  1  0.28669251  0.71852021  0.54400225  1
  O  O11  1  0.42660829  0.96151976  0.24970605  1
  O  O12  1  0.61692843  0.02242563  0.74974744  1
  O  O13  1  0.68277717  0.31292483  0.44221902  1
  O  O14  1  0.68267580  0.31309807  0.05770929  1
  O  O15  1  0.79777737  0.77041470  0.04284697  1
  O  O16  1  0.79690302  0.76986510  0.45620651  1
  O  O17  1  0.92072738  0.53760780  0.75005891  1
