# generated using pymatgen
data_VCu3(PO4)4
_symmetry_space_group_name_H-M   'P 1'
_cell_length_a   4.85388526
_cell_length_b   9.78967227
_cell_length_c   5.91198429
_cell_angle_alpha   90.00000000
_cell_angle_beta   90.00000000
_cell_angle_gamma   89.39078943
_symmetry_Int_Tables_number   1
_chemical_formula_structural   VCu3(PO4)4
_chemical_formula_sum   'V1 Cu3 P4 O16'
_cell_volume   280.90947036
_cell_formula_units_Z   1
loop_
 _symmetry_equiv_pos_site_id
 _symmetry_equiv_pos_as_xyz
  1  'x, y, z'
loop_
 _atom_site_type_symbol
 _atom_site_label
 _atom_site_symmetry_multiplicity
 _atom_site_fract_x
 _atom_site_fract_y
 _atom_site_fract_z
 _atom_site_occupancy
  V  V0  1  0.97244517  0.27767891  0.25000000  1
  Cu  Cu1  1  0.03860090  0.72389865  0.75000000  1
  Cu  Cu2  1  0.42124250  0.21566310  0.75000000  1
  Cu  Cu3  1  0.56736526  0.77787243  0.25000000  1
  P  P4  1  0.08262887  0.60235258  0.25000000  1
  P  P5  1  0.40516528  0.09600454  0.25000000  1
  P  P6  1  0.58175950  0.90329726  0.75000000  1
  P  P7  1  0.93220288  0.40578617  0.75000000  1
  O  O8  1  0.14602486  0.43888573  0.25000000  1
  O  O9  1  0.22921763  0.66244085  0.04232628  1
  O  O10  1  0.22921763  0.66244085  0.45767372  1
  O  O11  1  0.24503303  0.38922610  0.75000000  1
  O  O12  1  0.26937525  0.88664699  0.75000000  1
  O  O13  1  0.24265182  0.17425125  0.05545783  1
  O  O14  1  0.24265182  0.17425125  0.44454217  1
  O  O15  1  0.35295783  0.94456165  0.25000000  1
  O  O16  1  0.64639078  0.05751654  0.75000000  1
  O  O17  1  0.73797246  0.82994682  0.54884760  1
  O  O18  1  0.73797246  0.82994682  0.95115240  1
  O  O19  1  0.71154455  0.13327332  0.25000000  1
  O  O20  1  0.76799014  0.60841130  0.25000000  1
  O  O21  1  0.80591892  0.32680351  0.53606563  1
  O  O22  1  0.80591892  0.32680351  0.96393437  1
  O  O23  1  0.82774853  0.55203986  0.75000000  1
