# generated using pymatgen
data_Li3MnV4O12
_symmetry_space_group_name_H-M   'P 1'
_cell_length_a   6.96086000
_cell_length_b   6.96085974
_cell_length_c   5.84011961
_cell_angle_alpha   74.16035115
_cell_angle_beta   105.83965261
_cell_angle_gamma   96.86658741
_symmetry_Int_Tables_number   1
_chemical_formula_structural   Li3MnV4O12
_chemical_formula_sum   'Li3 Mn1 V4 O12'
_cell_volume   261.58259750
_cell_formula_units_Z   1
loop_
 _symmetry_equiv_pos_site_id
 _symmetry_equiv_pos_as_xyz
  1  'x, y, z'
loop_
 _atom_site_type_symbol
 _atom_site_label
 _atom_site_symmetry_multiplicity
 _atom_site_fract_x
 _atom_site_fract_y
 _atom_site_fract_z
 _atom_site_occupancy
  Li  Li0  1  0.09976307  0.09976307  0.75000000  1
  Li  Li1  1  0.24507227  0.24507227  0.25000000  1
  Li  Li2  1  0.76238407  0.76238407  0.75000000  1
  Mn  Mn3  1  0.91458872  0.91458872  0.25000000  1
  V  V4  1  0.20135612  0.60707893  0.77147587  1
  V  V5  1  0.39009489  0.80274457  0.27190156  1
  V  V6  1  0.60707893  0.20135612  0.72852413  1
  V  V7  1  0.80274457  0.39009489  0.22809844  1
  O  O8  1  0.01587072  0.77764660  0.64614909  1
  O  O9  1  0.10306678  0.37102819  0.83086221  1
  O  O10  1  0.20927217  0.97988925  0.16321322  1
  O  O11  1  0.35696670  0.63767814  0.56290308  1
  O  O12  1  0.37102819  0.10306678  0.66913779  1
  O  O13  1  0.35312781  0.64281835  0.05909179  1
  O  O14  1  0.63767814  0.35696670  0.93709692  1
  O  O15  1  0.63264690  0.89690477  0.33785532  1
  O  O16  1  0.64281835  0.35312781  0.44090821  1
  O  O17  1  0.77764660  0.01587072  0.85385091  1
  O  O18  1  0.89690477  0.63264690  0.16214468  1
  O  O19  1  0.97988925  0.20927217  0.33678678  1
