# generated using pymatgen
data_Co3Cu(PO4)4
_symmetry_space_group_name_H-M   'P 1'
_cell_length_a   4.78818955
_cell_length_b   9.83444372
_cell_length_c   5.82810987
_cell_angle_alpha   90.00000000
_cell_angle_beta   90.00000000
_cell_angle_gamma   90.24338642
_symmetry_Int_Tables_number   1
_chemical_formula_structural   Co3Cu(PO4)4
_chemical_formula_sum   'Co3 Cu1 P4 O16'
_cell_volume   274.43844278
_cell_formula_units_Z   1
loop_
 _symmetry_equiv_pos_site_id
 _symmetry_equiv_pos_as_xyz
  1  'x, y, z'
loop_
 _atom_site_type_symbol
 _atom_site_label
 _atom_site_symmetry_multiplicity
 _atom_site_fract_x
 _atom_site_fract_y
 _atom_site_fract_z
 _atom_site_occupancy
  Co  Co0  1  0.05514665  0.72084996  0.75000000  1
  Co  Co1  1  0.44053793  0.21922861  0.75000000  1
  Co  Co2  1  0.55128897  0.77965500  0.25000000  1
  Cu  Cu3  1  0.93872388  0.28045415  0.25000000  1
  P  P4  1  0.08187166  0.59373678  0.25000000  1
  P  P5  1  0.42090413  0.09746682  0.25000000  1
  P  P6  1  0.58670903  0.90723055  0.75000000  1
  P  P7  1  0.90980078  0.40181112  0.75000000  1
  O  O8  1  0.16246082  0.44299294  0.25000000  1
  O  O9  1  0.23224611  0.67089259  0.04549100  1
  O  O10  1  0.23224611  0.67089259  0.45450900  1
  O  O11  1  0.22813655  0.38460228  0.75000000  1
  O  O12  1  0.27038247  0.88800071  0.75000000  1
  O  O13  1  0.27838136  0.17150776  0.04201350  1
  O  O14  1  0.27838136  0.17150776  0.45798650  1
  O  O15  1  0.33922924  0.94628823  0.25000000  1
  O  O16  1  0.66782072  0.05812934  0.75000000  1
  O  O17  1  0.73247282  0.83036340  0.54346658  1
  O  O18  1  0.73247282  0.83036340  0.95653342  1
  O  O19  1  0.74158325  0.11106078  0.25000000  1
  O  O20  1  0.76625465  0.61238674  0.25000000  1
  O  O21  1  0.75600922  0.32827297  0.54639102  1
  O  O22  1  0.75600922  0.32827297  0.95360898  1
  O  O23  1  0.84093024  0.55402954  0.75000000  1
