# generated using pymatgen
data_Li4Mn2Cr3Sn3O16
_symmetry_space_group_name_H-M   'P 1'
_cell_length_a   6.08768437
_cell_length_b   6.14059700
_cell_length_c   9.65565539
_cell_angle_alpha   89.87392776
_cell_angle_beta   90.78025917
_cell_angle_gamma   120.34111605
_symmetry_Int_Tables_number   1
_chemical_formula_structural   Li4Mn2Cr3Sn3O16
_chemical_formula_sum   'Li4 Mn2 Cr3 Sn3 O16'
_cell_volume   311.47655742
_cell_formula_units_Z   1
loop_
 _symmetry_equiv_pos_site_id
 _symmetry_equiv_pos_as_xyz
  1  'x, y, z'
loop_
 _atom_site_type_symbol
 _atom_site_label
 _atom_site_symmetry_multiplicity
 _atom_site_fract_x
 _atom_site_fract_y
 _atom_site_fract_z
 _atom_site_occupancy
  Li  Li0  1  0.34412436  0.67169734  0.89284653  1
  Li  Li1  1  0.97093104  0.98632276  0.99149776  1
  Li  Li2  1  0.97064074  0.98570519  0.49928241  1
  Li  Li3  1  0.67408334  0.33701687  0.40005590  1
  Mn  Mn4  1  0.34209186  0.67086985  0.49405697  1
  Mn  Mn5  1  0.67943838  0.33959389  0.97956251  1
  Cr  Cr6  1  0.65962657  0.82953036  0.21347880  1
  Cr  Cr7  1  0.82905228  0.66002659  0.71421990  1
  Cr  Cr8  1  0.82867951  0.16886544  0.71402905  1
  Sn  Sn9  1  0.17484588  0.83461016  0.21306699  1
  Sn  Sn10  1  0.17554718  0.34064459  0.21307735  1
  Sn  Sn11  1  0.33265952  0.16614435  0.71075623  1
  O  O12  1  0.14954865  0.83198586  0.59908179  1
  O  O13  1  0.05007019  0.52459872  0.35011368  1
  O  O14  1  0.33878859  0.67004540  0.09776388  1
  O  O15  1  0.99549200  0.99755877  0.31282693  1
  O  O16  1  0.98948502  0.99466155  0.81001592  1
  O  O17  1  0.15099263  0.32020483  0.59895803  1
  O  O18  1  0.49801056  0.96934384  0.33742117  1
  O  O19  1  0.49898585  0.52685184  0.33608451  1
  O  O20  1  0.32625809  0.16320114  0.08981315  1
  O  O21  1  0.65922858  0.82969310  0.60485805  1
  O  O22  1  0.53193269  0.48196744  0.84844385  1
  O  O23  1  0.53219254  0.04913103  0.84829277  1
  O  O24  1  0.67092824  0.33580365  0.60592629  1
  O  O25  1  0.83386482  0.66845160  0.09546513  1
  O  O26  1  0.95853461  0.47914186  0.84120803  1
  O  O27  1  0.83396429  0.16663398  0.09563641  1
