# generated using pymatgen
data_Li4Fe5(CoO6)2
_symmetry_space_group_name_H-M   'P 1'
_cell_length_a   5.22826744
_cell_length_b   8.91639067
_cell_length_c   9.81084937
_cell_angle_alpha   90.00000151
_cell_angle_beta   99.27531243
_cell_angle_gamma   90.00000671
_symmetry_Int_Tables_number   1
_chemical_formula_structural   Li4Fe5(CoO6)2
_chemical_formula_sum   'Li8 Fe10 Co4 O24'
_cell_volume   451.37526339
_cell_formula_units_Z   2
loop_
 _symmetry_equiv_pos_site_id
 _symmetry_equiv_pos_as_xyz
  1  'x, y, z'
loop_
 _atom_site_type_symbol
 _atom_site_label
 _atom_site_symmetry_multiplicity
 _atom_site_fract_x
 _atom_site_fract_y
 _atom_site_fract_z
 _atom_site_occupancy
  Li  Li0  1  0.23336033  0.09652917  0.99693190  1
  Li  Li1  1  0.76305024  0.08291159  0.50762163  1
  Li  Li2  1  0.48896894  0.41611768  0.75312354  1
  Li  Li3  1  0.75189788  0.41001842  0.50616357  1
  Li  Li4  1  0.26663967  0.59652917  0.50306810  1
  Li  Li5  1  0.73694976  0.58291159  0.99237837  1
  Li  Li6  1  0.01103106  0.91611768  0.74687646  1
  Li  Li7  1  0.74810212  0.91001842  0.99383643  1
  Fe  Fe8  1  0.99424250  0.08117418  0.25262265  1
  Fe  Fe9  1  0.49935776  0.07833347  0.74733755  1
  Fe  Fe10  1  0.25308640  0.24849504  0.50681556  1
  Fe  Fe11  1  0.00935481  0.42100121  0.24701468  1
  Fe  Fe12  1  0.73980637  0.25562857  0.99060301  1
  Fe  Fe13  1  0.00064224  0.57833347  0.75266245  1
  Fe  Fe14  1  0.50575750  0.58117418  0.24737735  1
  Fe  Fe15  1  0.24691360  0.74849504  0.99318444  1
  Fe  Fe16  1  0.76019363  0.75562857  0.50939699  1
  Fe  Fe17  1  0.49064519  0.92100121  0.25298532  1
  Co  Co18  1  0.00464483  0.25210316  0.75553681  1
  Co  Co19  1  0.49351950  0.25371137  0.24316648  1
  Co  Co20  1  0.00648050  0.75371137  0.25683352  1
  Co  Co21  1  0.49535517  0.75210316  0.74446319  1
  O  O22  1  0.12428325  0.10444832  0.63969414  1
  O  O23  1  0.35667660  0.09055586  0.36297366  1
  O  O24  1  0.09616549  0.24655228  0.13020776  1
  O  O25  1  0.39786781  0.23230241  0.87659835  1
  O  O26  1  0.86811172  0.09915238  0.86789166  1
  O  O27  1  0.63847339  0.08316858  0.13049840  1
  O  O28  1  0.59868173  0.23634008  0.61555427  1
  O  O29  1  0.11382329  0.40315687  0.63568430  1
  O  O30  1  0.36289691  0.41859600  0.37115855  1
  O  O31  1  0.89752969  0.25237600  0.37363886  1
  O  O32  1  0.86469732  0.40300546  0.85878142  1
  O  O33  1  0.37571675  0.60444832  0.86030586  1
  O  O34  1  0.14332340  0.59055586  0.13702634  1
  O  O35  1  0.65350694  0.41952390  0.13131863  1
  O  O36  1  0.10213219  0.73230241  0.62340165  1
  O  O37  1  0.63188828  0.59915238  0.63210834  1
  O  O38  1  0.86152661  0.58316858  0.36950160  1
  O  O39  1  0.40383451  0.74655228  0.36979224  1
  O  O40  1  0.60247031  0.75237600  0.12636114  1
  O  O41  1  0.90131827  0.73634008  0.88444573  1
  O  O42  1  0.38617671  0.90315687  0.86431570  1
  O  O43  1  0.13710309  0.91859600  0.12884145  1
  O  O44  1  0.63530268  0.90300546  0.64121858  1
  O  O45  1  0.84649306  0.91952390  0.36868137  1
