# generated using pymatgen
data_Li10Cr3Fe3(NiO8)2
_symmetry_space_group_name_H-M   'P 1'
_cell_length_a   5.96490126
_cell_length_b   5.96656216
_cell_length_c   9.83837754
_cell_angle_alpha   89.76643517
_cell_angle_beta   90.01475754
_cell_angle_gamma   119.72863173
_symmetry_Int_Tables_number   1
_chemical_formula_structural   Li10Cr3Fe3(NiO8)2
_chemical_formula_sum   'Li10 Cr3 Fe3 Ni2 O16'
_cell_volume   304.05918645
_cell_formula_units_Z   1
loop_
 _symmetry_equiv_pos_site_id
 _symmetry_equiv_pos_as_xyz
  1  'x, y, z'
loop_
 _atom_site_type_symbol
 _atom_site_label
 _atom_site_symmetry_multiplicity
 _atom_site_fract_x
 _atom_site_fract_y
 _atom_site_fract_z
 _atom_site_occupancy
  Li  Li0  1  0.18321762  0.79387842  0.05873934  1
  Li  Li1  1  0.98327636  0.98692092  0.98355607  1
  Li  Li2  1  0.98749323  0.98244817  0.48471945  1
  Li  Li3  1  0.59466327  0.78867877  0.05672648  1
  Li  Li4  1  0.32382448  0.64970190  0.28335185  1
  Li  Li5  1  0.18912789  0.38102155  0.05767056  1
  Li  Li6  1  0.38019525  0.19104707  0.55828727  1
  Li  Li7  1  0.64935321  0.32370870  0.78322155  1
  Li  Li8  1  0.78550151  0.59558132  0.55739559  1
  Li  Li9  1  0.79297086  0.18619549  0.55965960  1
  Cr  Cr10  1  0.15201503  0.82073359  0.78543204  1
  Cr  Cr11  1  0.64685559  0.82044600  0.78525824  1
  Cr  Cr12  1  0.82050784  0.64661219  0.28564932  1
  Fe  Fe13  1  0.15225101  0.32690015  0.78497177  1
  Fe  Fe14  1  0.32695358  0.15270429  0.28534473  1
  Fe  Fe15  1  0.82013846  0.15252279  0.28495881  1
  Ni  Ni16  1  0.31823348  0.65341973  0.52985513  1
  Ni  Ni17  1  0.65379436  0.31790684  0.02953628  1
  O  O18  1  0.14836265  0.81976105  0.40214029  1
  O  O19  1  0.47464043  0.97157554  0.66707744  1
  O  O20  1  0.31904849  0.65781573  0.90242638  1
  O  O21  1  0.00025210  0.49874018  0.66783177  1
  O  O22  1  0.98132949  0.98561837  0.67405566  1
  O  O23  1  0.98733979  0.97975073  0.17289664  1
  O  O24  1  0.66508273  0.81959857  0.40318490  1
  O  O25  1  0.47685297  0.49758406  0.66837324  1
  O  O26  1  0.82197476  0.66489657  0.90213141  1
  O  O27  1  0.15043028  0.30615223  0.40572919  1
  O  O28  1  0.49759203  0.47679028  0.16722180  1
  O  O29  1  0.97218474  0.47550124  0.16659760  1
  O  O30  1  0.65646156  0.31989876  0.40426628  1
  O  O31  1  0.30656117  0.14856307  0.90351464  1
  O  O32  1  0.49686119  0.99984166  0.16686527  1
  O  O33  1  0.82016158  0.14790707  0.90237940  1
