# generated using pymatgen
data_Ti3NbCo2(PO4)6
_symmetry_space_group_name_H-M   'P 1'
_cell_length_a   8.59385918
_cell_length_b   8.59385911
_cell_length_c   8.59385920
_cell_angle_alpha   61.29454995
_cell_angle_beta   61.29454253
_cell_angle_gamma   61.29454708
_symmetry_Int_Tables_number   1
_chemical_formula_structural   Ti3NbCo2(PO4)6
_chemical_formula_sum   'Ti3 Nb1 Co2 P6 O24'
_cell_volume   461.85709920
_cell_formula_units_Z   1
loop_
 _symmetry_equiv_pos_site_id
 _symmetry_equiv_pos_as_xyz
  1  'x, y, z'
loop_
 _atom_site_type_symbol
 _atom_site_label
 _atom_site_symmetry_multiplicity
 _atom_site_fract_x
 _atom_site_fract_y
 _atom_site_fract_z
 _atom_site_occupancy
  Ti  Ti0  1  0.14026485  0.14026485  0.14026485  1
  Ti  Ti1  1  0.35982617  0.35982617  0.35982617  1
  Ti  Ti2  1  0.64173988  0.64173988  0.64173988  1
  Nb  Nb3  1  0.85973103  0.85973103  0.85973103  1
  Co  Co4  1  0.00514970  0.00514970  0.00514970  1
  Co  Co5  1  0.49826103  0.49826103  0.49826103  1
  P  P6  1  0.04233737  0.74878675  0.45488231  1
  P  P7  1  0.45488231  0.04233737  0.74878675  1
  P  P8  1  0.25591115  0.53498510  0.95959157  1
  P  P9  1  0.53498510  0.95959157  0.25591115  1
  P  P10  1  0.95959157  0.25591115  0.53498510  1
  P  P11  1  0.74878675  0.45488231  0.04233737  1
  O  O12  1  0.11970251  0.31636394  0.49575989  1
  O  O13  1  0.31636394  0.49575989  0.11970251  1
  O  O14  1  0.05711482  0.91074063  0.26488629  1
  O  O15  1  0.49575989  0.11970251  0.31636394  1
  O  O16  1  0.00499513  0.81287526  0.61350338  1
  O  O17  1  0.23376390  0.58891264  0.44089684  1
  O  O18  1  0.26488629  0.05711482  0.91074063  1
  O  O19  1  0.44089684  0.23376390  0.58891264  1
  O  O20  1  0.18961907  0.37785264  0.00006244  1
  O  O21  1  0.58891264  0.44089684  0.23376390  1
  O  O22  1  0.09437546  0.72931904  0.94438172  1
  O  O23  1  0.37785264  0.00006244  0.18961907  1
  O  O24  1  0.61350338  0.00499513  0.81287526  1
  O  O25  1  0.91074063  0.26488629  0.05711482  1
  O  O26  1  0.41460111  0.55314661  0.76688162  1
  O  O27  1  0.81287526  0.61350338  0.00499513  1
  O  O28  1  0.55314661  0.76688162  0.41460111  1
  O  O29  1  0.72931904  0.94438172  0.09437546  1
  O  O30  1  0.76688162  0.41460111  0.55314661  1
  O  O31  1  0.00006244  0.18961907  0.37785264  1
  O  O32  1  0.50021863  0.87990096  0.68865758  1
  O  O33  1  0.94438172  0.09437546  0.72931904  1
  O  O34  1  0.68865758  0.50021863  0.87990096  1
  O  O35  1  0.87990096  0.68865758  0.50021863  1
