# generated using pymatgen
data_Li20Co21O40
_symmetry_space_group_name_H-M   'P 1'
_cell_length_a   9.95370811
_cell_length_b   8.12646328
_cell_length_c   9.95370811
_cell_angle_alpha   114.09261870
_cell_angle_beta   80.40761278
_cell_angle_gamma   114.09261870
_symmetry_Int_Tables_number   1
_chemical_formula_structural   Li20Co21O40
_chemical_formula_sum   'Li20 Co21 O40'
_cell_volume   670.97325481
_cell_formula_units_Z   1
loop_
 _symmetry_equiv_pos_site_id
 _symmetry_equiv_pos_as_xyz
  1  'x, y, z'
loop_
 _atom_site_type_symbol
 _atom_site_label
 _atom_site_symmetry_multiplicity
 _atom_site_fract_x
 _atom_site_fract_y
 _atom_site_fract_z
 _atom_site_occupancy
  Li  Li0  1  0.19855070  0.29656529  0.89873017  1
  Li  Li1  1  0.09873017  0.90216488  0.70144930  1
  Li  Li2  1  0.01006299  0.50880701  0.50404282  1
  Li  Li3  1  0.19447035  0.79099532  0.40479103  1
  Li  Li4  1  0.08993701  0.89470019  0.19595718  1
  Li  Li5  1  0.39595718  0.60125698  0.81006299  1
  Li  Li6  1  0.29366704  0.70703771  0.60162275  1
  Li  Li7  1  0.00126983  0.00198541  0.99855070  1
  Li  Li8  1  0.34641310  0.02181456  0.28198119  1
  Li  Li9  1  0.60479103  0.91379571  0.70552965  1
  Li  Li10  1  0.29837725  0.68662833  0.09366704  1
  Li  Li11  1  0.70404282  0.29523682  0.88993701  1
  Li  Li12  1  0.48198119  0.56016662  0.55358690  1
  Li  Li13  1  0.75358690  0.29342028  0.41801881  1
  Li  Li14  1  0.49520897  0.50347504  0.99447035  1
  Li  Li15  1  0.61801881  0.42459853  0.14641310  1
  Li  Li16  1  0.90144930  0.09928442  0.80126983  1
  Li  Li17  1  0.80162275  0.19458503  0.60633296  1
  Li  Li18  1  0.80633296  0.71174793  0.09837725  1
  Li  Li19  1  0.90552965  0.09173393  0.29520897  1
  Co  Co20  1  0.19971291  0.79881105  0.89792583  1
  Co  Co21  1  0.99809301  0.99924731  0.50089421  1
  Co  Co22  1  0.09792583  0.39911477  0.70028709  1
  Co  Co23  1  0.10190699  0.40026008  0.19910579  1
  Co  Co24  1  0.19762221  0.29881310  0.40034509  1
  Co  Co25  1  0.29764025  0.19996937  0.60084392  1
  Co  Co26  1  0.39910579  0.09884571  0.79809301  1
  Co  Co27  1  0.00207417  0.50090186  0.99971291  1
  Co  Co28  1  0.60034509  0.40153099  0.70237779  1
  Co  Co29  1  0.40020134  0.59982348  0.29971747  1
  Co  Co30  1  0.29915608  0.19767087  0.09764025  1
  Co  Co31  1  0.70089421  0.80164691  0.90190699  1
  Co  Co32  1  0.49971747  -0.00010501  0.49979866  1
  Co  Co33  1  0.55000000  0.32500000  0.35000000  1
  Co  Co34  1  0.80084392  0.70087454  0.60235975  1
  Co  Co35  1  0.90028709  0.60117231  0.80207417  1
  Co  Co36  1  0.69979866  0.79990467  0.40028253  1
  Co  Co37  1  0.60028253  0.90037786  0.20020134  1
  Co  Co38  1  0.49965491  0.99880911  0.99762221  1
  Co  Co39  1  0.80235975  0.20148521  0.09915608  1
  Co  Co40  1  0.90237779  0.60084580  0.29965491  1
  O  O41  1  0.00509818  0.73554081  0.98770671  1
  O  O42  1  0.09490182  0.64273592  0.71229329  1
  O  O43  1  0.18770771  0.55216590  0.89490182  1
  O  O44  1  0.10143680  0.15603319  0.68812577  1
  O  O45  1  0.21187423  0.04540360  0.90143680  1
  O  O46  1  0.00666628  0.24553973  0.50684251  1
  O  O47  1  0.48620708  0.22940343  0.99179602  1
  O  O48  1  0.39315749  0.86112655  0.80666628  1
  O  O49  1  0.09333372  0.63203094  0.19315749  1
  O  O50  1  0.28410217  0.43092357  0.59824266  1
  O  O51  1  0.19179602  0.06239259  0.41379292  1
  O  O52  1  0.20541683  0.53579406  0.38706601  1
  O  O53  1  0.31227055  0.96927872  0.60274528  1
  O  O54  1  0.40249772  0.33487054  0.78770423  1
  O  O55  1  0.11229577  0.16762718  0.20249772  1
  O  O56  1  0.38760036  0.35138617  0.29350405  1
  O  O57  1  0.58706601  0.15127295  0.69458317  1
  O  O58  1  0.69750228  0.04466859  0.91229577  1
  O  O59  1  0.29725472  0.44299182  0.11227055  1
  O  O60  1  0.49350405  0.24211788  0.51239964  1
  O  O61  1  0.30175734  0.95317859  0.08410217  1
  O  O62  1  0.41214939  0.84542101  0.30393678  1
  O  O63  1  0.50393678  0.75851577  0.48785061  1
  O  O64  1  0.70684251  0.56130278  0.89333372  1
  O  O65  1  0.61379292  0.65140034  0.70820398  1
  O  O66  1  0.68785061  0.02933484  0.39606322  1
  O  O67  1  0.59606322  0.66672838  0.21214939  1
  O  O68  1  0.88812577  0.83209157  0.79856320  1
  O  O69  1  0.79824266  0.46731909  0.61589783  1
  O  O70  1  0.91229229  0.36955638  0.80509818  1
  O  O71  1  0.71239964  0.57028276  0.40649595  1
  O  O72  1  0.80274528  0.93346655  0.58772945  1
  O  O73  1  0.60649595  0.13621419  0.18760036  1
  O  O74  1  0.51293399  0.76962278  0.00541683  1
  O  O75  1  0.98770423  0.75283369  0.49750228  1
  O  O76  1  0.78772945  0.95426290  0.09725472  1
  O  O77  1  0.89458317  0.84331022  0.31293399  1
  O  O78  1  0.90820398  0.35680365  0.28620708  1
  O  O79  1  0.81589783  0.44857775  0.10175734  1
  O  O80  1  0.99856320  0.26647163  0.01187423  1
