# generated using pymatgen
data_Ba2Ni2F11
_symmetry_space_group_name_H-M   'P 1'
_cell_length_a   7.60116420
_cell_length_b   7.60116353
_cell_length_c   13.93896183
_cell_angle_alpha   90.00000000
_cell_angle_beta   90.00000000
_cell_angle_gamma   119.99999620
_symmetry_Int_Tables_number   1
_chemical_formula_structural   Ba2Ni2F11
_chemical_formula_sum   'Ba6 Ni6 F33'
_cell_volume   697.46315051
_cell_formula_units_Z   3
loop_
 _symmetry_equiv_pos_site_id
 _symmetry_equiv_pos_as_xyz
  1  'x, y, z'
loop_
 _atom_site_type_symbol
 _atom_site_label
 _atom_site_symmetry_multiplicity
 _atom_site_fract_x
 _atom_site_fract_y
 _atom_site_fract_z
 _atom_site_occupancy
  Ba  Ba0  1  0.53000641  0.18136728  0.67569544  1
  Ba  Ba1  1  0.15370810  0.47749911  0.82763077  1
  Ba  Ba2  1  0.65136086  0.46999359  0.00902844  1
  Ba  Ba3  1  0.52250089  0.67620899  0.49429677  1
  Ba  Ba4  1  0.32379101  0.84629190  0.16096377  1
  Ba  Ba5  1  0.81863272  0.34863914  0.34236144  1
  Ni  Ni6  1  0.64928565  0.97589291  0.88180793  1
  Ni  Ni7  1  0.85634406  0.77511688  0.72628778  1
  Ni  Ni8  1  0.22488312  0.08122718  0.39295378  1
  Ni  Ni9  1  0.32660826  0.35071435  0.21514093  1
  Ni  Ni10  1  0.91877282  0.14365594  0.05962078  1
  Ni  Ni11  1  0.02410709  0.67339174  0.54847393  1
  F  F12  1  0.63210845  0.05091858  0.01548606  1
  F  F13  1  0.51882943  0.71166225  0.93027848  1
  F  F14  1  0.41881113  0.36789155  0.34881906  1
  F  F15  1  0.10922129  0.50531522  0.48601837  1
  F  F16  1  0.51862017  0.26995767  0.18122622  1
  F  F17  1  0.93730404  0.60485934  0.18539139  1
  F  F18  1  0.49468478  0.60390507  0.15268537  1
  F  F19  1  0.39514066  0.33244570  0.85205839  1
  F  F20  1  0.75133650  0.48137983  0.51455922  1
  F  F21  1  0.20825792  0.26768426  0.08966255  1
  F  F22  1  0.39609493  0.89077871  0.81935237  1
  F  F23  1  0.94908142  0.58118887  0.68215306  1
  F  F24  1  0.32786923  0.04338744  0.99904601  1
  F  F25  1  0.99230210  0.41456757  0.01418968  1
  F  F26  1  0.71551821  0.67213077  0.33237901  1
  F  F27  1  0.28833775  0.80716818  0.59694448  1
  F  F28  1  0.93682756  0.09163570  0.92099386  1
  F  F29  1  0.05942634  0.79174208  0.42299555  1
  F  F30  1  0.01207639  0.12660267  0.40589948  1
  F  F31  1  0.95661256  0.28448179  0.66571201  1
  F  F32  1  0.11452728  0.98792361  0.73923348  1
  F  F33  1  0.58543243  0.57773453  0.68085668  1
  F  F34  1  0.42226547  0.00769790  0.34752268  1
  F  F35  1  0.15480713  0.06317244  0.25432686  1
  F  F36  1  0.73231574  0.94057366  0.75632955  1
  F  F37  1  0.73004133  0.24866350  0.84789322  1
  F  F38  1  0.19283182  0.48117057  0.26361148  1
  F  F39  1  0.83718172  0.66816847  0.84645197  1
  F  F40  1  0.83098575  0.16281828  0.17978497  1
  F  F41  1  0.87339733  0.88547272  0.07256648  1
  F  F42  1  0.66755430  0.06269596  0.51872439  1
  F  F43  1  0.90836430  0.84519287  0.58765986  1
  F  F44  1  0.33183153  0.16901425  0.51311797  1
