# generated using pymatgen
data_V3P2O11
_symmetry_space_group_name_H-M   'P 1'
_cell_length_a   11.99354038
_cell_length_b   7.42157333
_cell_length_c   9.91557834
_cell_angle_alpha   90.00000000
_cell_angle_beta   100.78188827
_cell_angle_gamma   90.00000000
_symmetry_Int_Tables_number   1
_chemical_formula_structural   V3P2O11
_chemical_formula_sum   'V12 P8 O44'
_cell_volume   867.01399521
_cell_formula_units_Z   4
loop_
 _symmetry_equiv_pos_site_id
 _symmetry_equiv_pos_as_xyz
  1  'x, y, z'
loop_
 _atom_site_type_symbol
 _atom_site_label
 _atom_site_symmetry_multiplicity
 _atom_site_fract_x
 _atom_site_fract_y
 _atom_site_fract_z
 _atom_site_occupancy
  V  V0  1  0.16389839  0.79825465  0.51237821  1
  V  V1  1  0.26548882  0.13764649  0.93426310  1
  V  V2  1  0.16389839  0.70174535  0.01237821  1
  V  V3  1  0.26548882  0.36235351  0.43426310  1
  V  V4  1  0.31997847  0.68608936  0.82011966  1
  V  V5  1  0.31997847  0.81391064  0.32011966  1
  V  V6  1  0.68002153  0.18608936  0.67988034  1
  V  V7  1  0.68002153  0.31391064  0.17988034  1
  V  V8  1  0.73451118  0.63764649  0.56573690  1
  V  V9  1  0.83610161  0.29825465  0.98762179  1
  V  V10  1  0.73451118  0.86235351  0.06573690  1
  V  V11  1  0.83610161  0.20174535  0.48762179  1
  P  P12  1  0.09525688  0.19208481  0.64068663  1
  P  P13  1  0.09525688  0.30791519  0.14068663  1
  P  P14  1  0.42821535  0.29896826  0.74438177  1
  P  P15  1  0.42821535  0.20103174  0.24438177  1
  P  P16  1  0.57178465  0.79896826  0.75561823  1
  P  P17  1  0.57178465  0.70103174  0.25561823  1
  P  P18  1  0.90474312  0.69208481  0.85931337  1
  P  P19  1  0.90474312  0.80791519  0.35931337  1
  O  O20  1  0.03183983  0.75403734  0.88495508  1
  O  O21  1  0.14314826  0.21761679  0.79720489  1
  O  O22  1  0.03183983  0.74596266  0.38495508  1
  O  O23  1  0.09897628  0.99081833  0.60618485  1
  O  O24  1  0.14314826  0.28238321  0.29720489  1
  O  O25  1  0.15844794  0.31914377  0.55994851  1
  O  O26  1  0.09897628  0.50918167  0.10618485  1
  O  O27  1  0.15844794  0.18085623  0.05994851  1
  O  O28  1  0.25768768  0.88735378  0.92207249  1
  O  O29  1  0.26122743  0.55665085  0.96297414  1
  O  O30  1  0.21177793  0.67765003  0.68134791  1
  O  O31  1  0.25768768  0.61264622  0.42207249  1
  O  O32  1  0.26122743  0.94334915  0.46297414  1
  O  O33  1  0.21177793  0.82234997  0.18134791  1
  O  O34  1  0.37063335  0.13640465  0.80284568  1
  O  O35  1  0.37063335  0.36359535  0.30284568  1
  O  O36  1  0.38141650  0.31859387  0.58607931  1
  O  O37  1  0.40496391  0.46542372  0.82615919  1
  O  O38  1  0.38141650  0.18140613  0.08607931  1
  O  O39  1  0.40496391  0.03457628  0.32615919  1
  O  O40  1  0.44310703  0.78135229  0.74039663  1
  O  O41  1  0.55689297  0.28135229  0.75960337  1
  O  O42  1  0.44310703  0.71864771  0.24039663  1
  O  O43  1  0.55689297  0.21864771  0.25960337  1
  O  O44  1  0.59503609  0.96542372  0.67384081  1
  O  O45  1  0.61858350  0.81859387  0.91392069  1
  O  O46  1  0.59503609  0.53457628  0.17384081  1
  O  O47  1  0.61858350  0.68140613  0.41392069  1
  O  O48  1  0.62936665  0.63640465  0.69715432  1
  O  O49  1  0.62936665  0.86359535  0.19715432  1
  O  O50  1  0.78822207  0.17765003  0.81865209  1
  O  O51  1  0.73877257  0.05665085  0.53702586  1
  O  O52  1  0.74231232  0.38735378  0.57792751  1
  O  O53  1  0.78822207  0.32234997  0.31865209  1
  O  O54  1  0.73877257  0.44334915  0.03702586  1
  O  O55  1  0.74231232  0.11264622  0.07792751  1
  O  O56  1  0.84155206  0.81914377  0.94005149  1
  O  O57  1  0.90102372  0.49081833  0.89381515  1
  O  O58  1  0.84155206  0.68085623  0.44005149  1
  O  O59  1  0.85685174  0.71761679  0.70279511  1
  O  O60  1  0.90102372  0.00918167  0.39381515  1
  O  O61  1  0.96816017  0.25403734  0.61504492  1
  O  O62  1  0.85685174  0.78238321  0.20279511  1
  O  O63  1  0.96816017  0.24596266  0.11504492  1
