# generated using pymatgen
data_Li4Mn3Cr2Sn3O16
_symmetry_space_group_name_H-M   'P 1'
_cell_length_a   6.07373566
_cell_length_b   6.17538314
_cell_length_c   9.65281110
_cell_angle_alpha   89.95673435
_cell_angle_beta   89.83552020
_cell_angle_gamma   120.53708363
_symmetry_Int_Tables_number   1
_chemical_formula_structural   Li4Mn3Cr2Sn3O16
_chemical_formula_sum   'Li4 Mn3 Cr2 Sn3 O16'
_cell_volume   311.83515200
_cell_formula_units_Z   1
loop_
 _symmetry_equiv_pos_site_id
 _symmetry_equiv_pos_as_xyz
  1  'x, y, z'
loop_
 _atom_site_type_symbol
 _atom_site_label
 _atom_site_symmetry_multiplicity
 _atom_site_fract_x
 _atom_site_fract_y
 _atom_site_fract_z
 _atom_site_occupancy
  Li  Li0  1  0.34837752  0.67444168  0.88583263  1
  Li  Li1  1  0.97856183  0.98922432  0.99198554  1
  Li  Li2  1  0.96862072  0.98426851  0.49995617  1
  Li  Li3  1  0.66550576  0.33287261  0.39723097  1
  Mn  Mn4  1  0.66335083  0.83167588  0.21273745  1
  Mn  Mn5  1  0.83290768  0.65899472  0.71454880  1
  Mn  Mn6  1  0.83356045  0.17418643  0.71454381  1
  Cr  Cr7  1  0.33432787  0.66653831  0.48995586  1
  Cr  Cr8  1  0.68614374  0.34332297  0.98167172  1
  Sn  Sn9  1  0.17174280  0.83218255  0.21438130  1
  Sn  Sn10  1  0.17174703  0.33959949  0.21435636  1
  Sn  Sn11  1  0.33778503  0.16869006  0.71084221  1
  O  O12  1  0.14878550  0.82949282  0.59931279  1
  O  O13  1  0.03416066  0.51707270  0.34546013  1
  O  O14  1  0.35728960  0.67874138  0.10038536  1
  O  O15  1  0.98038879  0.99016888  0.31297046  1
  O  O16  1  0.98346411  0.99053192  0.80664684  1
  O  O17  1  0.14880027  0.31913903  0.59934098  1
  O  O18  1  0.47701474  0.95904194  0.35052829  1
  O  O19  1  0.47669211  0.51756249  0.35051547  1
  O  O20  1  0.33015234  0.16511820  0.09553290  1
  O  O21  1  0.65704333  0.82716718  0.60558345  1
  O  O22  1  0.53687728  0.48827006  0.83990522  1
  O  O23  1  0.53726397  0.04900302  0.83993935  1
  O  O24  1  0.68204140  0.34224958  0.60442790  1
  O  O25  1  0.84307142  0.67180740  0.09469222  1
  O  O26  1  0.97094382  0.48724703  0.84006471  1
  O  O27  1  0.84338039  0.17168884  0.09449111  1
