# generated using pymatgen
data_Na3Li5Mn5O9
_symmetry_space_group_name_H-M   'P 1'
_cell_length_a   8.85260772
_cell_length_b   6.07494965
_cell_length_c   6.08284501
_cell_angle_alpha   59.88827047
_cell_angle_beta   76.24241438
_cell_angle_gamma   83.82604887
_symmetry_Int_Tables_number   1
_chemical_formula_structural   Na3Li5Mn5O9
_chemical_formula_sum   'Na3 Li5 Mn5 O9'
_cell_volume   274.83801473
_cell_formula_units_Z   1
loop_
 _symmetry_equiv_pos_site_id
 _symmetry_equiv_pos_as_xyz
  1  'x, y, z'
loop_
 _atom_site_type_symbol
 _atom_site_label
 _atom_site_symmetry_multiplicity
 _atom_site_fract_x
 _atom_site_fract_y
 _atom_site_fract_z
 _atom_site_occupancy
  Na  Na0  1  0.47377708  0.00037570  0.55109526  1
  Na  Na1  1  0.47114441  0.69724440  0.14544753  1
  Na  Na2  1  0.47105492  0.29479042  0.83561065  1
  Li  Li3  1  0.08783548  0.96375450  0.25272681  1
  Li  Li4  1  0.94803648  0.34286772  0.02160039  1
  Li  Li5  1  0.07461184  0.32896336  0.64614721  1
  Li  Li6  1  0.94700809  0.99529467  0.67518755  1
  Li  Li7  1  0.08871621  0.71865598  0.00460826  1
  Mn  Mn8  1  0.75109520  0.98917011  0.09735281  1
  Mn  Mn9  1  0.24888654  0.31741742  0.25398488  1
  Mn  Mn10  1  0.75838144  0.35443534  0.41309972  1
  Mn  Mn11  1  0.24984521  0.66443250  0.59766520  1
  Mn  Mn12  1  0.75628051  0.66237104  0.73238683  1
  O  O13  1  0.98864167  0.03081709  0.97119618  1
  O  O14  1  0.31448055  0.99032518  0.25034269  1
  O  O15  1  0.00144247  0.30919479  0.33574699  1
  O  O16  1  0.70375500  0.33695421  0.10289923  1
  O  O17  1  0.30834832  0.36327065  0.53307956  1
  O  O18  1  0.68983613  0.99953172  0.76622329  1
  O  O19  1  0.66302104  0.66465430  0.44924387  1
  O  O20  1  0.00141022  0.66644469  0.68759768  1
  O  O21  1  0.31334319  0.64236920  0.90643942  1
