# generated using pymatgen
data_LiFeF3
_symmetry_space_group_name_H-M   'P 1'
_cell_length_a   5.04873023
_cell_length_b   5.32897328
_cell_length_c   8.09265411
_cell_angle_alpha   90.00000000
_cell_angle_beta   90.00000000
_cell_angle_gamma   90.00000000
_symmetry_Int_Tables_number   1
_chemical_formula_structural   LiFeF3
_chemical_formula_sum   'Li4 Fe4 F12'
_cell_volume   217.72920494
_cell_formula_units_Z   4
loop_
 _symmetry_equiv_pos_site_id
 _symmetry_equiv_pos_as_xyz
  1  'x, y, z'
loop_
 _atom_site_type_symbol
 _atom_site_label
 _atom_site_symmetry_multiplicity
 _atom_site_fract_x
 _atom_site_fract_y
 _atom_site_fract_z
 _atom_site_occupancy
  Li  Li0  1  0.00000000  0.50000000  0.00000000  1
  Li  Li1  1  0.00000000  0.50000000  0.50000000  1
  Li  Li2  1  0.50000000  0.00000000  0.50000000  1
  Li  Li3  1  0.50000000  0.00000000  0.00000000  1
  Fe  Fe4  1  0.04069860  0.92558517  0.75000000  1
  Fe  Fe5  1  0.45930140  0.42558517  0.75000000  1
  Fe  Fe6  1  0.54069860  0.57441483  0.25000000  1
  Fe  Fe7  1  0.95930140  0.07441483  0.25000000  1
  F  F8  1  0.16724188  0.42510138  0.25000000  1
  F  F9  1  0.20366299  0.20320898  0.58982523  1
  F  F10  1  0.20366299  0.20320898  0.91017477  1
  F  F11  1  0.29633701  0.70320898  0.91017477  1
  F  F12  1  0.29633701  0.70320898  0.58982523  1
  F  F13  1  0.33275812  0.92510138  0.25000000  1
  F  F14  1  0.66724188  0.07489862  0.75000000  1
  F  F15  1  0.70366299  0.29679102  0.08982523  1
  F  F16  1  0.70366299  0.29679102  0.41017477  1
  F  F17  1  0.79633701  0.79679102  0.08982523  1
  F  F18  1  0.79633701  0.79679102  0.41017477  1
  F  F19  1  0.83275812  0.57489862  0.75000000  1
