# generated using pymatgen
data_LiCrPO4
_symmetry_space_group_name_H-M   'P 1'
_cell_length_a   10.09264016
_cell_length_b   10.14694372
_cell_length_c   17.64976412
_cell_angle_alpha   106.85802439
_cell_angle_beta   106.60547613
_cell_angle_gamma   60.21243190
_symmetry_Int_Tables_number   1
_chemical_formula_structural   LiCrPO4
_chemical_formula_sum   'Li16 Cr16 P16 O64'
_cell_volume   1479.25833384
_cell_formula_units_Z   16
loop_
 _symmetry_equiv_pos_site_id
 _symmetry_equiv_pos_as_xyz
  1  'x, y, z'
loop_
 _atom_site_type_symbol
 _atom_site_label
 _atom_site_symmetry_multiplicity
 _atom_site_fract_x
 _atom_site_fract_y
 _atom_site_fract_z
 _atom_site_occupancy
  Li  Li0  1  0.63415687  0.99813710  0.18484102  1
  Li  Li1  1  0.06020454  0.99419368  0.68713275  1
  Li  Li2  1  0.81812314  0.88073104  0.43863698  1
  Li  Li3  1  0.37780958  0.82049154  0.43732667  1
  Li  Li4  1  0.74315465  0.87716526  0.93811062  1
  Li  Li5  1  0.23862797  0.82123766  0.93767288  1
  Li  Li6  1  0.12895552  0.56304369  0.18736553  1
  Li  Li7  1  0.63254423  0.49720798  0.18570984  1
  Li  Li8  1  0.00003724  0.55791332  0.68558817  1
  Li  Li9  1  0.55562542  0.49376214  0.68589762  1
  Li  Li10  1  0.32150660  0.37851434  0.43855806  1
  Li  Li11  1  0.87475479  0.31917717  0.43709778  1
  Li  Li12  1  0.73925318  0.37919974  0.93873830  1
  Li  Li13  1  0.24350449  0.31777687  0.93775157  1
  Li  Li14  1  0.12645067  0.05868557  0.18656185  1
  Li  Li15  1  0.50031527  0.05815863  0.68716387  1
  Cr  Cr16  1  0.50131681  0.93327165  0.30826860  1
  Cr  Cr17  1  0.36921976  0.99035827  0.81671290  1
  Cr  Cr18  1  0.87014596  0.94211178  0.81165049  1
  Cr  Cr19  1  0.75923507  0.67375119  0.06223691  1
  Cr  Cr20  1  0.26090193  0.62500571  0.06156622  1
  Cr  Cr21  1  0.13014264  0.67281394  0.56003971  1
  Cr  Cr22  1  0.67740955  0.62682221  0.56347398  1
  Cr  Cr23  1  0.45785325  0.49315454  0.31632934  1
  Cr  Cr24  1  0.00030588  0.44055351  0.31044778  1
  Cr  Cr25  1  0.36521703  0.49772818  0.81599253  1
  Cr  Cr26  1  0.87450985  0.43423882  0.80973658  1
  Cr  Cr27  1  0.75855625  0.17412151  0.06069231  1
  Cr  Cr28  1  0.25933052  0.12854014  0.06465981  1
  Cr  Cr29  1  0.62766164  0.17306466  0.56035821  1
  Cr  Cr30  1  0.17529197  0.12589056  0.56185322  1
  Cr  Cr31  1  0.95723733  0.99518021  0.31587119  1
  P  P32  1  0.94109343  0.87308110  0.12368214  1
  P  P33  1  0.43686471  0.81727080  0.12436783  1
  P  P34  1  0.81144703  0.87665764  0.62482515  1
  P  P35  1  0.37292966  0.81265038  0.62552337  1
  P  P36  1  0.12910940  0.68115718  0.37140006  1
  P  P37  1  0.68535275  0.62746554  0.37338849  1
  P  P38  1  0.56518964  0.67836399  0.87270886  1
  P  P39  1  0.06100703  0.62799161  0.87255391  1
  P  P40  1  0.93870762  0.37740604  0.12497620  1
  P  P41  1  0.44204190  0.31368490  0.12547447  1
  P  P42  1  0.30967464  0.37221281  0.62375734  1
  P  P43  1  0.87147156  0.31507996  0.62524295  1
  P  P44  1  0.62841894  0.17889398  0.37045082  1
  P  P45  1  0.18417546  0.12911807  0.37316723  1
  P  P46  1  0.56040427  0.18111908  0.87127272  1
  P  P47  1  0.06242819  0.12683176  0.87421601  1
  O  O48  1  0.34652196  0.98838994  0.38387532  1
  O  O49  1  0.33452128  0.88080548  0.04674109  1
  O  O50  1  0.86802329  0.91699926  0.19918291  1
  O  O51  1  0.35855312  0.93297086  0.19716473  1
  O  O52  1  0.83247428  0.83472066  0.04851985  1
  O  O53  1  0.60134226  0.80546470  0.13708943  1
  O  O54  1  0.98585115  0.84257834  0.38275142  1
  O  O55  1  0.05069821  0.98646558  0.88481742  1
  O  O56  1  0.33566730  0.87740725  0.54825729  1
  O  O57  1  0.40981430  0.92446341  0.69897968  1
  O  O58  1  0.91314553  0.92704920  0.70008373  1
  O  O59  1  0.10321017  0.73197018  0.13536691  1
  O  O60  1  0.88401422  0.83643862  0.54990859  1
  O  O61  1  0.70011275  0.76960711  0.36857003  1
  O  O62  1  0.23056227  0.80170901  0.63634219  1
  O  O63  1  0.45578551  0.65347717  0.11968280  1
  O  O64  1  0.56158301  0.83758814  0.88120425  1
  O  O65  1  0.26847910  0.70007849  0.36521805  1
  O  O66  1  0.80394814  0.73518470  0.63804143  1
  O  O67  1  0.60560399  0.66249612  0.44548131  1
  O  O68  1  0.89942542  0.77039969  0.86817799  1
  O  O69  1  0.09200719  0.57423402  0.29422079  1
  O  O70  1  0.57764790  0.59243107  0.29538613  1
  O  O71  1  0.16853403  0.60221150  0.44393297  1
  O  O72  1  0.96462222  0.51021810  0.11527801  1
  O  O73  1  0.51280430  0.64851464  0.62015575  1
  O  O74  1  0.39903127  0.70265268  0.86736478  1
  O  O75  1  0.17859186  0.66326009  0.94371910  1
  O  O76  1  0.84602804  0.48529349  0.38328125  1
  O  O77  1  0.34053389  0.37734933  0.04772409  1
  O  O78  1  0.36538135  0.42655879  0.19843415  1
  O  O79  1  0.85937825  0.42983755  0.19975048  1
  O  O80  1  0.12394694  0.59180821  0.79386846  1
  O  O81  1  0.63280640  0.56479570  0.79695162  1
  O  O82  1  0.14247889  0.50615396  0.61314199  1
  O  O83  1  0.67465393  0.60405868  0.94674735  1
  O  O84  1  0.83177949  0.33756901  0.04964607  1
  O  O85  1  0.60685260  0.30168443  0.13750628  1
  O  O86  1  0.05189829  0.48655857  0.88384805  1
  O  O87  1  0.48252519  0.33864885  0.37957071  1
  O  O88  1  0.83384311  0.37737861  0.54703108  1
  O  O89  1  0.41268112  0.41803309  0.69958280  1
  O  O90  1  0.90361526  0.43320786  0.69761118  1
  O  O91  1  0.09899052  0.23543138  0.13919595  1
  O  O92  1  0.19770399  0.27313176  0.37018347  1
  O  O93  1  0.38232341  0.33554782  0.54905993  1
  O  O94  1  0.45936145  0.15003881  0.12012582  1
  O  O95  1  0.73203642  0.30129736  0.63691105  1
  O  O96  1  0.55391076  0.34213454  0.88212945  1
  O  O97  1  0.76517373  0.20186560  0.36412582  1
  O  O98  1  0.30378943  0.22889310  0.63523470  1
  O  O99  1  0.10210752  0.16029724  0.44356804  1
  O  O100  1  0.90021302  0.26903588  0.86862177  1
  O  O101  1  0.07883344  0.09372677  0.29431052  1
  O  O102  1  0.59805337  0.06504541  0.29554768  1
  O  O103  1  0.96199832  0.00937930  0.11439013  1
  O  O104  1  0.66719246  0.10579881  0.44523900  1
  O  O105  1  0.01364318  0.15275669  0.62192868  1
  O  O106  1  0.39590255  0.19983785  0.86464214  1
  O  O107  1  0.17800646  0.16248261  0.94651044  1
  O  O108  1  0.62835518  0.07235886  0.79483682  1
  O  O109  1  0.12921140  0.08811813  0.79679214  1
  O  O110  1  0.67173408  0.10423470  0.94481544  1
  O  O111  1  0.64368170  0.01032876  0.61486865  1
