# generated using pymatgen
data_Li4Mn3V2Sb3O16
_symmetry_space_group_name_H-M   'P 1'
_cell_length_a   6.27742557
_cell_length_b   6.15179518
_cell_length_c   9.81734212
_cell_angle_alpha   90.04062042
_cell_angle_beta   92.48291597
_cell_angle_gamma   119.68363798
_symmetry_Int_Tables_number   1
_chemical_formula_structural   Li4Mn3V2Sb3O16
_chemical_formula_sum   'Li4 Mn3 V2 Sb3 O16'
_cell_volume   328.95321096
_cell_formula_units_Z   1
loop_
 _symmetry_equiv_pos_site_id
 _symmetry_equiv_pos_as_xyz
  1  'x, y, z'
loop_
 _atom_site_type_symbol
 _atom_site_label
 _atom_site_symmetry_multiplicity
 _atom_site_fract_x
 _atom_site_fract_y
 _atom_site_fract_z
 _atom_site_occupancy
  Li  Li0  1  0.32273806  0.66436305  0.88564314  1
  Li  Li1  1  0.97679972  0.98528096  0.98533850  1
  Li  Li2  1  0.99508570  0.99529991  0.50291713  1
  Li  Li3  1  0.63802633  0.32131471  0.40378873  1
  Mn  Mn4  1  0.66134397  0.83182692  0.21371178  1
  Mn  Mn5  1  0.82951425  0.66144097  0.71028751  1
  Mn  Mn6  1  0.83937072  0.17437322  0.70952699  1
  V  V7  1  0.35605072  0.67500210  0.49919653  1
  V  V8  1  0.70181650  0.35509974  0.97319994  1
  Sb  Sb9  1  0.16819450  0.83079531  0.21631323  1
  Sb  Sb10  1  0.16661867  0.33495120  0.21445737  1
  Sb  Sb11  1  0.34451959  0.17272976  0.71629158  1
  O  O12  1  0.19401961  0.85195368  0.59701169  1
  O  O13  1  0.03690549  0.51708867  0.33650527  1
  O  O14  1  0.30642391  0.65378199  0.10222128  1
  O  O15  1  0.01794054  0.00744061  0.31761059  1
  O  O16  1  0.01657596  0.99338586  0.80325575  1
  O  O17  1  0.18379989  0.32834921  0.59872870  1
  O  O18  1  0.46329428  0.96146661  0.34109385  1
  O  O19  1  0.45771197  0.50104242  0.34164189  1
  O  O20  1  0.30889255  0.15316780  0.10640714  1
  O  O21  1  0.67691107  0.82282155  0.58857941  1
  O  O22  1  0.50212448  0.47202286  0.84640525  1
  O  O23  1  0.51162559  0.04483876  0.85083551  1
  O  O24  1  0.65171630  0.33821658  0.60674694  1
  O  O25  1  0.85694130  0.67816464  0.09890984  1
  O  O26  1  0.95294506  0.49841009  0.84505560  1
  O  O27  1  0.86209627  0.17566984  0.09615685  1
