# generated using pymatgen
data_BiP2O7
_symmetry_space_group_name_H-M   'P 1'
_cell_length_a   7.75944356
_cell_length_b   9.58453996
_cell_length_c   9.82487271
_cell_angle_alpha   90.00000000
_cell_angle_beta   66.77281228
_cell_angle_gamma   90.00000000
_symmetry_Int_Tables_number   1
_chemical_formula_structural   BiP2O7
_chemical_formula_sum   'Bi4 P8 O28'
_cell_volume   671.45956413
_cell_formula_units_Z   4
loop_
 _symmetry_equiv_pos_site_id
 _symmetry_equiv_pos_as_xyz
  1  'x, y, z'
loop_
 _atom_site_type_symbol
 _atom_site_label
 _atom_site_symmetry_multiplicity
 _atom_site_fract_x
 _atom_site_fract_y
 _atom_site_fract_z
 _atom_site_occupancy
  Bi  Bi0  1  0.68086681  0.06734467  0.18344479  1
  Bi  Bi1  1  0.68086681  0.43265533  0.68344479  1
  Bi  Bi2  1  0.31913319  0.56734467  0.31655521  1
  Bi  Bi3  1  0.31913319  0.93265533  0.81655521  1
  P  P4  1  0.53852235  0.71843741  0.53227760  1
  P  P5  1  0.08447167  0.23946953  0.23158038  1
  P  P6  1  0.91552833  0.73946953  0.26841962  1
  P  P7  1  0.08447167  0.26053047  0.73158038  1
  P  P8  1  0.53852235  0.78156259  0.03227760  1
  P  P9  1  0.91552833  0.76053047  0.76841962  1
  P  P10  1  0.46147765  0.21843741  0.96772240  1
  P  P11  1  0.46147765  0.28156259  0.46772240  1
  O  O12  1  0.47216104  0.13618159  0.39509949  1
  O  O13  1  0.24268239  0.19669843  0.07106052  1
  O  O14  1  0.90062022  0.27242408  0.71077982  1
  O  O15  1  0.12360517  0.11433594  0.77284093  1
  O  O16  1  0.52783896  0.86381841  0.60490051  1
  O  O17  1  0.75731761  0.80330157  0.92893948  1
  O  O18  1  0.57747993  0.22179611  0.06270930  1
  O  O19  1  0.49201777  0.90251142  0.14193409  1
  O  O20  1  0.87639483  0.61433594  0.72715907  1
  O  O21  1  0.42252007  0.72179611  0.43729070  1
  O  O22  1  0.47216104  0.36381841  0.89509949  1
  O  O23  1  0.90733958  0.86318705  0.65126684  1
  O  O24  1  0.52783896  0.63618159  0.10490051  1
  O  O25  1  0.09937978  0.72757592  0.28922018  1
  O  O26  1  0.50798223  0.40251142  0.35806591  1
  O  O27  1  0.42252007  0.77820389  0.93729070  1
  O  O28  1  0.87639483  0.88566406  0.22715907  1
  O  O29  1  0.90062022  0.22757592  0.21077982  1
  O  O30  1  0.09266042  0.13681295  0.34873316  1
  O  O31  1  0.49201777  0.59748858  0.64193409  1
  O  O32  1  0.24268239  0.30330157  0.57106052  1
  O  O33  1  0.57747993  0.27820389  0.56270930  1
  O  O34  1  0.50798223  0.09748858  0.85806591  1
  O  O35  1  0.12360517  0.38566406  0.27284093  1
  O  O36  1  0.75731761  0.69669843  0.42893948  1
  O  O37  1  0.90733958  0.63681295  0.15126684  1
  O  O38  1  0.09937978  0.77242408  0.78922018  1
  O  O39  1  0.09266042  0.36318705  0.84873316  1
