# generated using pymatgen
data_BaYBr5
_symmetry_space_group_name_H-M   'P 1'
_cell_length_a   9.48489942
_cell_length_b   12.18749152
_cell_length_c   11.33757477
_cell_angle_alpha   90.00000000
_cell_angle_beta   124.30942249
_cell_angle_gamma   90.00000000
_symmetry_Int_Tables_number   1
_chemical_formula_structural   BaYBr5
_chemical_formula_sum   'Ba4 Y4 Br20'
_cell_volume   1082.55561524
_cell_formula_units_Z   4
loop_
 _symmetry_equiv_pos_site_id
 _symmetry_equiv_pos_as_xyz
  1  'x, y, z'
loop_
 _atom_site_type_symbol
 _atom_site_label
 _atom_site_symmetry_multiplicity
 _atom_site_fract_x
 _atom_site_fract_y
 _atom_site_fract_z
 _atom_site_occupancy
  Ba  Ba0  1  0.51560469  0.84575143  0.81575604  1
  Ba  Ba1  1  0.48439531  0.34575143  0.68424396  1
  Ba  Ba2  1  0.51560469  0.65424857  0.31575604  1
  Ba  Ba3  1  0.48439531  0.15424857  0.18424396  1
  Y  Y4  1  0.10273355  0.49842660  0.73387709  1
  Y  Y5  1  0.10273355  0.00157340  0.23387709  1
  Y  Y6  1  0.89726645  0.99842660  0.76612291  1
  Y  Y7  1  0.89726645  0.50157340  0.26612291  1
  Br  Br8  1  0.23645999  0.97070383  0.85053434  1
  Br  Br9  1  0.18797423  0.88987563  0.47246818  1
  Br  Br10  1  0.05997719  0.35300684  0.50560363  1
  Br  Br11  1  0.31012620  0.31566867  0.87896932  1
  Br  Br12  1  0.38556342  0.58824998  0.74102201  1
  Br  Br13  1  0.23645999  0.52929617  0.35053434  1
  Br  Br14  1  0.61443658  0.08824998  0.75897799  1
  Br  Br15  1  0.18797423  0.61012437  0.97246818  1
  Br  Br16  1  0.05997719  0.14699316  0.00560363  1
  Br  Br17  1  0.68987380  0.81566867  0.62103068  1
  Br  Br18  1  0.31012620  0.18433133  0.37896932  1
  Br  Br19  1  0.94002281  0.85300684  0.99439637  1
  Br  Br20  1  0.81202577  0.38987563  0.02753182  1
  Br  Br21  1  0.38556342  0.91175002  0.24102201  1
  Br  Br22  1  0.76354001  0.47070483  0.64946566  1
  Br  Br23  1  0.61443658  0.41175002  0.25897799  1
  Br  Br24  1  0.68987380  0.68433133  0.12103068  1
  Br  Br25  1  0.94002281  0.64699316  0.49439637  1
  Br  Br26  1  0.81202577  0.11012437  0.52753182  1
  Br  Br27  1  0.76354001  0.02929617  0.14946566  1
