# generated using pymatgen
data_LiVPO4F
_symmetry_space_group_name_H-M   'P 1'
_cell_length_a   10.74469957
_cell_length_b   6.35881058
_cell_length_c   11.00597589
_cell_angle_alpha   90.04726143
_cell_angle_beta   89.84148835
_cell_angle_gamma   90.24356133
_symmetry_Int_Tables_number   1
_chemical_formula_structural   LiVPO4F
_chemical_formula_sum   'Li8 V8 P8 O32 F8'
_cell_volume   751.95697559
_cell_formula_units_Z   8
loop_
 _symmetry_equiv_pos_site_id
 _symmetry_equiv_pos_as_xyz
  1  'x, y, z'
loop_
 _atom_site_type_symbol
 _atom_site_label
 _atom_site_symmetry_multiplicity
 _atom_site_fract_x
 _atom_site_fract_y
 _atom_site_fract_z
 _atom_site_occupancy
  Li  Li0  1  0.24057757  0.50859242  0.32025254  1
  Li  Li1  1  0.24095830  0.99550650  0.32488352  1
  Li  Li2  1  0.27574874  0.01028630  0.81644792  1
  Li  Li3  1  0.72583103  0.49413552  0.18860833  1
  Li  Li4  1  0.72441860  0.99892563  0.19688544  1
  Li  Li5  1  0.74179099  0.47805908  0.66485028  1
  Li  Li6  1  0.77229807  0.75422477  0.90822999  1
  Li  Li7  1  0.95736768  0.24657426  0.72937075  1
  V  V8  1  0.00404027  0.99926523  0.00256686  1
  V  V9  1  0.00526571  0.50082645  0.00250524  1
  V  V10  1  0.99646810  0.00077345  0.49835403  1
  V  V11  1  0.00223820  0.50612523  0.49572802  1
  V  V12  1  0.50175955  0.00214050  0.50134770  1
  V  V13  1  0.49696361  0.50242231  0.50071954  1
  V  V14  1  0.50011934  0.99700536  0.00083459  1
  V  V15  1  0.49307014  0.49503771  0.99534574  1
  P  P16  1  0.03877501  0.75712814  0.74288751  1
  P  P17  1  0.24058438  0.75039006  0.07886482  1
  P  P18  1  0.26019952  0.24703634  0.57263501  1
  P  P19  1  0.46816266  0.25192531  0.24172510  1
  P  P20  1  0.53507301  0.74061787  0.76093749  1
  P  P21  1  0.73889931  0.74991427  0.42409222  1
  P  P22  1  0.76148732  0.25523790  0.92499065  1
  P  P23  1  0.96598360  0.24903061  0.25696351  1
  O  O24  1  0.01673916  0.24663291  0.12065425  1
  O  O25  1  0.02170015  0.05286593  0.32096452  1
  O  O26  1  0.02472601  0.44686825  0.31895411  1
  O  O27  1  0.11626002  0.25105024  0.52950375  1
  O  O28  1  0.17572860  0.77244818  0.75547180  1
  O  O29  1  0.18047294  0.54805984  0.02603126  1
  O  O30  1  0.18210427  0.94494437  0.01437668  1
  O  O31  1  0.23730264  0.75799637  0.21596477  1
  O  O32  1  0.26604725  0.23763208  0.70707325  1
  O  O33  1  0.31767892  0.05322169  0.50415935  1
  O  O34  1  0.31574954  0.44814104  0.50915790  1
  O  O35  1  0.32700888  0.24995589  0.24858563  1
  O  O36  1  0.38192403  0.74900633  0.03335892  1
  O  O37  1  0.47548881  0.54435010  0.82187083  1
  O  O38  1  0.47959325  0.93933510  0.82443890  1
  O  O39  1  0.48980242  0.74989455  0.62341376  1
  O  O40  1  0.51928045  0.25663031  0.37703976  1
  O  O41  1  0.52808888  0.05514340  0.17850139  1
  O  O42  1  0.52533742  0.44606499  0.17443325  1
  O  O43  1  0.61934192  0.24900100  0.96249642  1
  O  O44  1  0.67644881  0.72649619  0.76151248  1
  O  O45  1  0.68156074  0.55463851  0.48900612  1
  O  O46  1  0.68040080  0.95369600  0.47291168  1
  O  O47  1  0.73745080  0.73916892  0.28619174  1
  O  O48  1  0.78294106  0.27056856  0.78997592  1
  O  O49  1  0.81702939  0.04994021  0.98218874  1
  O  O50  1  0.81694567  0.45199026  0.99302627  1
  O  O51  1  0.82480782  0.24918962  0.24941861  1
  O  O52  1  0.88107336  0.75043610  0.46840184  1
  O  O53  1  0.98476607  0.55579334  0.67717035  1
  O  O54  1  0.97892213  0.95178500  0.67758531  1
  O  O55  1  0.97519279  0.74977716  0.87697053  1
  F  F56  1  0.03501821  0.24937639  0.88749451  1
  F  F57  1  0.11752884  0.75726159  0.47907997  1
  F  F58  1  0.38220464  0.23821646  0.98678901  1
  F  F59  1  0.45999741  0.75274637  0.39245026  1
  F  F60  1  0.53714259  0.25412032  0.60907629  1
  F  F61  1  0.62078935  0.74522177  0.01421571  1
  F  F62  1  0.88398973  0.25929226  0.52341070  1
  F  F63  1  0.96113152  0.74985919  0.10864969  1
