# generated using pymatgen
data_Li2Fe3F8
_symmetry_space_group_name_H-M   'P 1'
_cell_length_a   5.80310389
_cell_length_b   8.53920389
_cell_length_c   8.01580059
_cell_angle_alpha   90.00000000
_cell_angle_beta   98.46031128
_cell_angle_gamma   90.00000000
_symmetry_Int_Tables_number   1
_chemical_formula_structural   Li2Fe3F8
_chemical_formula_sum   'Li4 Fe6 F16'
_cell_volume   392.89160061
_cell_formula_units_Z   2
loop_
 _symmetry_equiv_pos_site_id
 _symmetry_equiv_pos_as_xyz
  1  'x, y, z'
loop_
 _atom_site_type_symbol
 _atom_site_label
 _atom_site_symmetry_multiplicity
 _atom_site_fract_x
 _atom_site_fract_y
 _atom_site_fract_z
 _atom_site_occupancy
  Li  Li0  1  0.06752077  0.30334435  0.18923372  1
  Li  Li1  1  0.43247923  0.80334435  0.31076628  1
  Li  Li2  1  0.56752077  0.19665565  0.68923372  1
  Li  Li3  1  0.93247923  0.69665565  0.81076628  1
  Fe  Fe4  1  0.00000000  0.00000000  0.50000000  1
  Fe  Fe5  1  0.11626476  0.35312249  0.60447001  1
  Fe  Fe6  1  0.38373524  0.85312249  0.89552999  1
  Fe  Fe7  1  0.50000000  0.50000000  0.00000000  1
  Fe  Fe8  1  0.61626476  0.14687751  0.10447001  1
  Fe  Fe9  1  0.88373524  0.64687751  0.39552999  1
  F  F10  1  0.08883660  0.89417815  0.73712342  1
  F  F11  1  0.07277581  0.44671732  0.36454071  1
  F  F12  1  0.21081223  0.65186186  0.96095794  1
  F  F13  1  0.14671102  0.80019434  0.39400127  1
  F  F14  1  0.28918777  0.15186186  0.53904206  1
  F  F15  1  0.41116340  0.39417815  0.76287658  1
  F  F16  1  0.35328898  0.30019434  0.10599873  1
  F  F17  1  0.42722419  0.94671732  0.13545929  1
  F  F18  1  0.57277581  0.05328268  0.86454071  1
  F  F19  1  0.64671102  0.69980566  0.89400127  1
  F  F20  1  0.58883660  0.60582185  0.23712342  1
  F  F21  1  0.71081223  0.84813814  0.46095794  1
  F  F22  1  0.85328898  0.19980566  0.60599873  1
  F  F23  1  0.78918777  0.34813814  0.03904206  1
  F  F24  1  0.92722419  0.55328268  0.63545929  1
  F  F25  1  0.91116340  0.10582185  0.26287658  1
