# generated using pymatgen
data_Li2MnF5
_symmetry_space_group_name_H-M   'P 1'
_cell_length_a   7.58064914
_cell_length_b   5.48487215
_cell_length_c   9.47166583
_cell_angle_alpha   90.00000000
_cell_angle_beta   90.00000000
_cell_angle_gamma   90.00000000
_symmetry_Int_Tables_number   1
_chemical_formula_structural   Li2MnF5
_chemical_formula_sum   'Li8 Mn4 F20'
_cell_volume   393.82136442
_cell_formula_units_Z   4
loop_
 _symmetry_equiv_pos_site_id
 _symmetry_equiv_pos_as_xyz
  1  'x, y, z'
loop_
 _atom_site_type_symbol
 _atom_site_label
 _atom_site_symmetry_multiplicity
 _atom_site_fract_x
 _atom_site_fract_y
 _atom_site_fract_z
 _atom_site_occupancy
  Li  Li0  1  0.92726189  0.75000000  0.27702730  1
  Li  Li1  1  0.07693225  0.25000000  0.43382833  1
  Li  Li2  1  0.42306775  0.75000000  0.93382833  1
  Li  Li3  1  0.57273811  0.25000000  0.77702730  1
  Li  Li4  1  0.42726189  0.75000000  0.22297270  1
  Li  Li5  1  0.57693225  0.25000000  0.06617167  1
  Li  Li6  1  0.92306775  0.75000000  0.56617167  1
  Li  Li7  1  0.07273811  0.25000000  0.72297270  1
  Mn  Mn8  1  0.18335250  0.25000000  0.05052933  1
  Mn  Mn9  1  0.31664750  0.75000000  0.55052933  1
  Mn  Mn10  1  0.68335250  0.25000000  0.44947067  1
  Mn  Mn11  1  0.81664750  0.75000000  0.94947067  1
  F  F12  1  0.00000000  0.00000000  0.00000000  1
  F  F13  1  0.00000000  0.50000000  0.00000000  1
  F  F14  1  0.11655762  0.25000000  0.23589859  1
  F  F15  1  0.13055277  0.00504482  0.58779761  1
  F  F16  1  0.13055277  0.49495518  0.58779761  1
  F  F17  1  0.24151600  0.75000000  0.36160692  1
  F  F18  1  0.25848400  0.25000000  0.86160692  1
  F  F19  1  0.36944723  0.99495518  0.08779761  1
  F  F20  1  0.36944723  0.50504482  0.08779761  1
  F  F21  1  0.38344238  0.75000000  0.73589859  1
  F  F22  1  0.50000000  0.00000000  0.50000000  1
  F  F23  1  0.50000000  0.50000000  0.50000000  1
  F  F24  1  0.61655762  0.25000000  0.26410141  1
  F  F25  1  0.63055277  0.49495518  0.91220239  1
  F  F26  1  0.63055277  0.00504482  0.91220239  1
  F  F27  1  0.74151600  0.75000000  0.13839308  1
  F  F28  1  0.75848400  0.25000000  0.63839308  1
  F  F29  1  0.86944723  0.99495518  0.41220239  1
  F  F30  1  0.86944723  0.50504482  0.41220239  1
  F  F31  1  0.88344238  0.75000000  0.76410141  1
