# generated using pymatgen
data_Li3Ti2(PO4)3
_symmetry_space_group_name_H-M   'P 1'
_cell_length_a   8.47641132
_cell_length_b   9.10340901
_cell_length_c   8.49786112
_cell_angle_alpha   117.54796744
_cell_angle_beta   60.10798692
_cell_angle_gamma   117.61951738
_symmetry_Int_Tables_number   1
_chemical_formula_structural   Li3Ti2(PO4)3
_chemical_formula_sum   'Li6 Ti4 P6 O24'
_cell_volume   480.30629082
_cell_formula_units_Z   2
loop_
 _symmetry_equiv_pos_site_id
 _symmetry_equiv_pos_as_xyz
  1  'x, y, z'
loop_
 _atom_site_type_symbol
 _atom_site_label
 _atom_site_symmetry_multiplicity
 _atom_site_fract_x
 _atom_site_fract_y
 _atom_site_fract_z
 _atom_site_occupancy
  Li  Li0  1  0.24404444  0.64497417  0.56928119  1
  Li  Li1  1  0.33049234  0.13713540  0.07186845  1
  Li  Li2  1  0.07638953  0.13549333  0.73306721  1
  Li  Li3  1  0.92451639  0.86050027  0.26869474  1
  Li  Li4  1  0.66985884  0.86112746  0.92330230  1
  Li  Li5  1  0.73281737  0.14058249  0.33154653  1
  Ti  Ti6  1  0.14434717  0.43692167  0.14338282  1
  Ti  Ti7  1  0.34628003  0.04286228  0.35082555  1
  Ti  Ti8  1  0.64511079  0.95640364  0.65454272  1
  Ti  Ti9  1  0.84655732  0.56128828  0.85627292  1
  P  P10  1  0.04414617  0.24995941  0.45665475  1
  P  P11  1  0.54208461  0.74956643  0.25149897  1
  P  P12  1  0.25012952  0.74808113  0.95739781  1
  P  P13  1  0.74770778  0.24992597  0.04296572  1
  P  P14  1  0.46058044  0.25070975  0.74836302  1
  P  P15  1  0.95702909  0.75038747  0.53990829  1
  O  O16  1  0.20554848  0.89974491  0.15023257  1
  O  O17  1  0.15141496  0.90089753  0.53242834  1
  O  O18  1  0.01773596  0.42507798  0.60495640  1
  O  O19  1  0.14372919  0.26753537  0.25257271  1
  O  O20  1  0.12690972  0.72103652  0.85349773  1
  O  O21  1  0.54142542  0.90013214  0.20810378  1
  O  O22  1  0.38537676  0.58243177  0.20746468  1
  O  O23  1  0.16473117  0.19318055  0.49583380  1
  O  O24  1  0.50497609  0.80154271  0.46689397  1
  O  O25  1  0.20065239  0.58232060  0.99735763  1
  O  O26  1  0.74737311  0.73340966  0.12873788  1
  O  O27  1  0.46575207  0.80494275  0.83514796  1
  O  O28  1  0.53154832  0.19102028  0.16649603  1
  O  O29  1  0.25614920  0.26848105  0.87080083  1
  O  O30  1  0.79998349  0.41756239  0.00418879  1
  O  O31  1  0.49629553  0.19222088  0.53340349  1
  O  O32  1  0.83152708  0.80784480  0.50641644  1
  O  O33  1  0.61353812  0.42243442  0.79930333  1
  O  O34  1  0.47268759  0.11042190  0.79762854  1
  O  O35  1  0.87052672  0.26829302  0.14284340  1
  O  O36  1  0.85774809  0.73292592  0.74456289  1
  O  O37  1  0.99665424  0.58264566  0.38977089  1
  O  O38  1  0.84717297  0.10335969  0.46178412  1
  O  O39  1  0.79045052  0.09861932  0.84900081  1
