# generated using pymatgen
data_Li3MgNiO4
_symmetry_space_group_name_H-M   'P 1'
_cell_length_a   10.20167426
_cell_length_b   10.20167426
_cell_length_c   10.20167426
_cell_angle_alpha   119.14771509
_cell_angle_beta   119.14771509
_cell_angle_gamma   91.48265062
_symmetry_Int_Tables_number   1
_chemical_formula_structural   Li3MgNiO4
_chemical_formula_sum   'Li24 Mg8 Ni8 O32'
_cell_volume   760.15297556
_cell_formula_units_Z   8
loop_
 _symmetry_equiv_pos_site_id
 _symmetry_equiv_pos_as_xyz
  1  'x, y, z'
loop_
 _atom_site_type_symbol
 _atom_site_label
 _atom_site_symmetry_multiplicity
 _atom_site_fract_x
 _atom_site_fract_y
 _atom_site_fract_z
 _atom_site_occupancy
  Li  Li0  1  0.92993577  0.51289377  0.07433827  1
  Li  Li1  1  0.43680378  0.03455769  0.08649262  1
  Li  Li2  1  0.64440350  0.57006423  0.08295800  1
  Li  Li3  1  0.14968884  0.06319622  0.09775291  1
  Li  Li4  1  0.40627656  0.32063367  0.09635863  1
  Li  Li5  1  0.72427504  0.30991794  0.40364137  1
  Li  Li6  1  0.46544231  0.05193493  0.40224709  1
  Li  Li7  1  0.98710623  0.56144550  0.41704200  1
  Li  Li8  1  0.19008206  0.09372344  0.41435710  1
  Li  Li9  1  0.82063367  0.22427504  0.91435710  1
  Li  Li10  1  0.44806507  0.35031116  0.41350738  1
  Li  Li11  1  0.93855450  0.85559650  0.42566173  1
  Li  Li12  1  0.06144550  0.14440350  0.57433827  1
  Li  Li13  1  0.55193493  0.64968884  0.58649262  1
  Li  Li14  1  0.80991794  0.90627656  0.58564290  1
  Li  Li15  1  0.17936633  0.77572496  0.08564290  1
  Li  Li16  1  0.01289377  0.43855450  0.58295800  1
  Li  Li17  1  0.53455769  0.94806507  0.59775291  1
  Li  Li18  1  0.27572496  0.69008206  0.59635863  1
  Li  Li19  1  0.59372344  0.67936633  0.90364137  1
  Li  Li20  1  0.85031116  0.93680378  0.90224709  1
  Li  Li21  1  0.35559650  0.42993577  0.91704200  1
  Li  Li22  1  0.56319622  0.96544231  0.91350738  1
  Li  Li23  1  0.07006423  0.48710623  0.92566173  1
  Mg  Mg24  1  0.67833706  0.27382229  0.07417150  1
  Mg  Mg25  1  0.89583443  0.82166294  0.09548622  1
  Mg  Mg26  1  0.77382229  0.19965079  0.59548622  1
  Mg  Mg27  1  0.69965079  0.60416557  0.42582850  1
  Mg  Mg28  1  0.30034921  0.39583443  0.57417150  1
  Mg  Mg29  1  0.10416557  0.17833706  0.90451378  1
  Mg  Mg30  1  0.22617771  0.80034921  0.40451378  1
  Mg  Mg31  1  0.32166294  0.72617771  0.92582850  1
  Ni  Ni32  1  0.93450525  0.18759145  0.24711586  1
  Ni  Ni33  1  0.81261061  0.56549475  0.75308620  1
  Ni  Ni34  1  0.68759145  0.94047559  0.25308620  1
  Ni  Ni35  1  0.55952441  0.31261061  0.74711586  1
  Ni  Ni36  1  0.44047559  0.68738939  0.25288414  1
  Ni  Ni37  1  0.31240855  0.05952441  0.74691380  1
  Ni  Ni38  1  0.18738939  0.43450525  0.24691380  1
  Ni  Ni39  1  0.06549475  0.81240855  0.75288414  1
  O  O40  1  0.77644497  0.10597269  0.00593979  1
  O  O41  1  0.71783823  0.39394015  0.98774722  1
  O  O42  1  0.85454675  0.02884257  0.50463740  1
  O  O43  1  0.47613100  0.14696508  0.99419764  1
  O  O44  1  0.84990934  0.35454675  0.32570417  1
  O  O45  1  0.60597269  0.10003290  0.32952772  1
  O  O46  1  0.98193336  0.97613100  0.82916592  1
  O  O47  1  0.64696508  0.15276744  0.67083408  1
  O  O48  1  0.76990898  0.78216177  0.17610192  1
  O  O49  1  0.89394015  0.40619293  0.67610192  1
  O  O50  1  0.27050518  0.27644497  0.17047228  1
  O  O51  1  0.52884257  0.52420517  0.17429583  1
  O  O52  1  0.65276744  0.48193336  0.50580236  1
  O  O53  1  0.02420517  0.34990934  0.99536260  1
  O  O54  1  0.90619293  0.73009102  0.51225278  1
  O  O55  1  0.39996710  0.22949482  0.50593979  1
  O  O56  1  0.60003290  0.77050518  0.49406021  1
  O  O57  1  0.09380707  0.26990898  0.48774722  1
  O  O58  1  0.97579483  0.65009066  0.00463740  1
  O  O59  1  0.34723256  0.51806664  0.49419764  1
  O  O60  1  0.47115743  0.47579483  0.82570417  1
  O  O61  1  0.72949482  0.72355503  0.82952772  1
  O  O62  1  0.23009102  0.21783823  0.82389808  1
  O  O63  1  0.10605985  0.59380707  0.32389808  1
  O  O64  1  0.35303492  0.84723256  0.32916592  1
  O  O65  1  0.01806664  0.02386900  0.17083408  1
  O  O66  1  0.39402731  0.89996710  0.67047228  1
  O  O67  1  0.15009066  0.64545325  0.67429583  1
  O  O68  1  0.52386900  0.85303492  0.00580236  1
  O  O69  1  0.14545325  0.97115743  0.49536260  1
  O  O70  1  0.28216177  0.60605985  0.01225278  1
  O  O71  1  0.22355503  0.89402731  0.99406021  1
