# generated using pymatgen
data_LiFe2OF5
_symmetry_space_group_name_H-M   'P 1'
_cell_length_a   8.69536023
_cell_length_b   8.67308507
_cell_length_c   4.57237905
_cell_angle_alpha   91.35342729
_cell_angle_beta   89.21012468
_cell_angle_gamma   119.82751496
_symmetry_Int_Tables_number   1
_chemical_formula_structural   LiFe2OF5
_chemical_formula_sum   'Li3 Fe6 O3 F15'
_cell_volume   299.06382430
_cell_formula_units_Z   3
loop_
 _symmetry_equiv_pos_site_id
 _symmetry_equiv_pos_as_xyz
  1  'x, y, z'
loop_
 _atom_site_type_symbol
 _atom_site_label
 _atom_site_symmetry_multiplicity
 _atom_site_fract_x
 _atom_site_fract_y
 _atom_site_fract_z
 _atom_site_occupancy
  Li  Li0  1  0.32883570  0.66361188  0.50253665  1
  Li  Li1  1  0.99427516  0.99589630  0.00201217  1
  Li  Li2  1  0.66219906  0.33503275  0.49545458  1
  Fe  Fe3  1  0.00790532  0.64318500  0.98552274  1
  Fe  Fe4  1  0.00578213  0.32760788  0.51793453  1
  Fe  Fe5  1  0.35758415  0.34225794  0.98371315  1
  Fe  Fe6  1  0.32197094  0.01210571  0.51370457  1
  Fe  Fe7  1  0.69186568  0.69941466  0.51584713  1
  Fe  Fe8  1  0.65600182  0.99410733  0.98524693  1
  O  O9  1  0.10324516  0.53974795  0.73964104  1
  O  O10  1  0.43597021  0.22249043  0.73411137  1
  O  O11  1  0.76951859  0.89388831  0.76790122  1
  F  F12  1  0.10700715  0.87762008  0.76504238  1
  F  F13  1  0.21490591  0.78065593  0.26381150  1
  F  F14  1  0.43543410  0.89345725  0.74167214  1
  F  F15  1  0.11731721  0.22394648  0.76704165  1
  F  F16  1  0.22380173  0.42938050  0.26017451  1
  F  F17  1  0.55826560  0.78369257  0.26496502  1
  F  F18  1  0.22380158  0.11656657  0.23442173  1
  F  F19  1  0.45663557  0.56174672  0.74143664  1
  F  F20  1  0.56416989  0.46404862  0.25683149  1
  F  F21  1  0.54136828  0.09864307  0.25227345  1
  F  F22  1  0.89322810  0.76857011  0.23573105  1
  F  F23  1  0.78566096  0.56470765  0.73608502  1
  F  F24  1  0.77331859  0.21660996  0.73792094  1
  F  F25  1  0.89153628  0.43615116  0.25585168  1
  F  F26  1  0.87829612  0.11485619  0.24311473  1
