# generated using pymatgen
data_Li4Mn2C4SO16
_symmetry_space_group_name_H-M   'P 1'
_cell_length_a   9.49456453
_cell_length_b   9.68366692
_cell_length_c   9.49456401
_cell_angle_alpha   121.54434892
_cell_angle_beta   93.85066600
_cell_angle_gamma   58.45565095
_symmetry_Int_Tables_number   1
_chemical_formula_structural   Li4Mn2C4SO16
_chemical_formula_sum   'Li8 Mn4 C8 S2 O32'
_cell_volume   607.85313691
_cell_formula_units_Z   2
loop_
 _symmetry_equiv_pos_site_id
 _symmetry_equiv_pos_as_xyz
  1  'x, y, z'
loop_
 _atom_site_type_symbol
 _atom_site_label
 _atom_site_symmetry_multiplicity
 _atom_site_fract_x
 _atom_site_fract_y
 _atom_site_fract_z
 _atom_site_occupancy
  Li  Li0  1  0.07945917  0.75000000  0.07945917  1
  Li  Li1  1  0.32429486  0.85141028  0.92570514  1
  Li  Li2  1  0.32945917  0.25000000  0.32945917  1
  Li  Li3  1  0.07429486  0.35141028  0.67570514  1
  Li  Li4  1  0.92570514  0.64858972  0.32429486  1
  Li  Li5  1  0.67054083  0.75000000  0.67054083  1
  Li  Li6  1  0.67570514  0.14858972  0.07429486  1
  Li  Li7  1  0.92054083  0.25000000  0.92054083  1
  Mn  Mn8  1  0.50000000  0.50000000  0.00000000  1
  Mn  Mn9  1  0.50000000  0.50000000  0.50000000  1
  Mn  Mn10  1  0.00000000  0.00000000  0.50000000  1
  Mn  Mn11  1  0.50000000  0.00000000  0.50000000  1
  C  C12  1  0.26315012  0.94958110  0.29105498  1
  C  C13  1  0.28726879  0.94958110  0.65852611  1
  C  C14  1  0.29105498  0.55041890  0.26315012  1
  C  C15  1  0.65852611  0.55041890  0.28726879  1
  C  C16  1  0.34147389  0.44958110  0.71273121  1
  C  C17  1  0.70894502  0.44958110  0.73684988  1
  C  C18  1  0.71273121  0.05041890  0.34147389  1
  C  C19  1  0.73684988  0.05041890  0.70894502  1
  S  S20  1  0.12500000  0.25000000  0.12500000  1
  S  S21  1  0.87500000  0.75000000  0.87500000  1
  O  O22  1  0.27384767  0.81666452  0.14256546  1
  O  O23  1  0.14256546  0.68333548  0.27384767  1
  O  O24  1  0.38992394  0.97044042  0.31073506  1
  O  O25  1  0.04901275  0.38119323  0.06334555  1
  O  O26  1  0.13963664  0.97044042  0.65970536  1
  O  O27  1  0.06979302  0.38119323  0.31784768  1
  O  O28  1  0.06334555  0.11880677  0.04901275  1
  O  O29  1  0.69624193  0.93332835  0.35587402  1
  O  O30  1  0.42254567  0.43332835  0.12957029  1
  O  O31  1  0.31073506  0.52955958  0.38992394  1
  O  O32  1  0.31784768  0.11880677  0.06979302  1
  O  O33  1  0.65970536  0.52955958  0.13963664  1
  O  O34  1  0.40948781  0.81666452  0.67409906  1
  O  O35  1  0.67409906  0.68333548  0.40948781  1
  O  O36  1  0.35587402  0.56667165  0.69624193  1
  O  O37  1  0.12957029  0.06667165  0.42254567  1
  O  O38  1  0.87042971  0.93332835  0.57745433  1
  O  O39  1  0.64412598  0.43332835  0.30375807  1
  O  O40  1  0.32590094  0.31666452  0.59051219  1
  O  O41  1  0.59051219  0.18333548  0.32590094  1
  O  O42  1  0.34029464  0.47044042  0.86036336  1
  O  O43  1  0.68215232  0.88119323  0.93020698  1
  O  O44  1  0.68926494  0.47044042  0.61007606  1
  O  O45  1  0.57745433  0.56667165  0.87042971  1
  O  O46  1  0.30375807  0.06667165  0.64412598  1
  O  O47  1  0.93665445  0.88119323  0.95098725  1
  O  O48  1  0.93020698  0.61880677  0.68215232  1
  O  O49  1  0.86036336  0.02955958  0.34029464  1
  O  O50  1  0.95098725  0.61880677  0.93665445  1
  O  O51  1  0.61007606  0.02955958  0.68926494  1
  O  O52  1  0.85743454  0.31666452  0.72615233  1
  O  O53  1  0.72615233  0.18333548  0.85743454  1
