# generated using pymatgen
data_Li2Fe3F8
_symmetry_space_group_name_H-M   'P 1'
_cell_length_a   9.24911260
_cell_length_b   9.24911260
_cell_length_c   9.24911260
_cell_angle_alpha   107.27835208
_cell_angle_beta   107.27835208
_cell_angle_gamma   113.95203721
_symmetry_Int_Tables_number   1
_chemical_formula_structural   Li2Fe3F8
_chemical_formula_sum   'Li8 Fe12 F32'
_cell_volume   606.26897700
_cell_formula_units_Z   4
loop_
 _symmetry_equiv_pos_site_id
 _symmetry_equiv_pos_as_xyz
  1  'x, y, z'
loop_
 _atom_site_type_symbol
 _atom_site_label
 _atom_site_symmetry_multiplicity
 _atom_site_fract_x
 _atom_site_fract_y
 _atom_site_fract_z
 _atom_site_occupancy
  Li  Li0  1  0.56378315  0.71173612  0.03567508  1
  Li  Li1  1  0.82393896  0.47189193  0.53567508  1
  Li  Li2  1  0.78826388  0.32393896  0.85204803  1
  Li  Li3  1  0.02810807  0.06378315  0.35204803  1
  Li  Li4  1  0.21173612  0.67606104  0.14795197  1
  Li  Li5  1  0.97189193  0.93621685  0.64795197  1
  Li  Li6  1  0.43621685  0.28826388  0.96432492  1
  Li  Li7  1  0.17606104  0.52810807  0.46432492  1
  Fe  Fe8  1  0.73838258  0.15923762  0.19038060  1
  Fe  Fe9  1  0.37500000  0.12500000  0.25000000  1
  Fe  Fe10  1  0.87500000  0.62500000  0.25000000  1
  Fe  Fe11  1  0.34076238  0.03114298  0.57914497  1
  Fe  Fe12  1  0.04800198  0.23838258  0.07914497  1
  Fe  Fe13  1  0.46885702  0.54800198  0.30961940  1
  Fe  Fe14  1  0.53114298  0.45199802  0.69038060  1
  Fe  Fe15  1  0.95199802  0.76161742  0.92085503  1
  Fe  Fe16  1  0.65923762  0.96885702  0.42085503  1
  Fe  Fe17  1  0.62500000  0.87500000  0.75000000  1
  Fe  Fe18  1  0.12500000  0.37500000  0.75000000  1
  Fe  Fe19  1  0.26161742  0.84076238  0.80961940  1
  F  F20  1  0.78601965  0.18947911  0.99524408  1
  F  F21  1  0.96011346  0.62047493  0.07803281  1
  F  F22  1  0.95755688  0.11791936  0.57803281  1
  F  F23  1  0.49121729  0.13986490  0.08645051  1
  F  F24  1  0.68947911  0.19423503  0.40345947  1
  F  F25  1  0.87952507  0.45755688  0.33963852  1
  F  F26  1  0.61791936  0.53988654  0.16036148  1
  F  F27  1  0.63986490  0.05341438  0.64864760  1
  F  F28  1  0.09523322  0.00878271  0.14864760  1
  F  F29  1  0.29077557  0.28601965  0.09654053  1
  F  F30  1  0.55341438  0.40476678  0.41354949  1
  F  F31  1  0.75497100  0.94771055  0.23370075  1
  F  F32  1  0.78599120  0.47872975  0.73370075  1
  F  F33  1  0.30576497  0.20922443  0.49524408  1
  F  F34  1  0.44771055  0.71400880  0.19273855  1
  F  F35  1  0.97872975  0.74502900  0.69273855  1
  F  F36  1  0.02127025  0.25497100  0.30726145  1
  F  F37  1  0.55228945  0.28599120  0.80726145  1
  F  F38  1  0.69423503  0.79077557  0.50475592  1
  F  F39  1  0.21400880  0.52127025  0.26629925  1
  F  F40  1  0.24502900  0.05228945  0.76629925  1
  F  F41  1  0.44658562  0.59523322  0.58645051  1
  F  F42  1  0.70922443  0.71398035  0.90345947  1
  F  F43  1  0.36013510  0.94658562  0.35135240  1
  F  F44  1  0.90476678  0.99121729  0.85135240  1
  F  F45  1  0.38208064  0.46011346  0.83963852  1
  F  F46  1  0.12047493  0.54244312  0.66036148  1
  F  F47  1  0.31052089  0.80576497  0.59654053  1
  F  F48  1  0.50878271  0.86013510  0.91354949  1
  F  F49  1  0.04244212  0.88208064  0.42196719  1
  F  F50  1  0.03988654  0.37952507  0.92196719  1
  F  F51  1  0.21398035  0.81052089  0.00475592  1
