# generated using pymatgen
data_Li4Ti3Mn2Sn3O16
_symmetry_space_group_name_H-M   'P 1'
_cell_length_a   6.16310306
_cell_length_b   6.13987119
_cell_length_c   10.01376069
_cell_angle_alpha   90.00031341
_cell_angle_beta   89.58963591
_cell_angle_gamma   119.87524509
_symmetry_Int_Tables_number   1
_chemical_formula_structural   Li4Ti3Mn2Sn3O16
_chemical_formula_sum   'Li4 Ti3 Mn2 Sn3 O16'
_cell_volume   328.56122710
_cell_formula_units_Z   1
loop_
 _symmetry_equiv_pos_site_id
 _symmetry_equiv_pos_as_xyz
  1  'x, y, z'
loop_
 _atom_site_type_symbol
 _atom_site_label
 _atom_site_symmetry_multiplicity
 _atom_site_fract_x
 _atom_site_fract_y
 _atom_site_fract_z
 _atom_site_occupancy
  Li  Li0  1  0.33725290  0.66864575  0.88546279  1
  Li  Li1  1  0.98425620  0.99213209  0.99665745  1
  Li  Li2  1  0.98778593  0.99391617  0.50165712  1
  Li  Li3  1  0.66937781  0.33469857  0.38953700  1
  Ti  Ti4  1  0.66048449  0.83026019  0.21644818  1
  Ti  Ti5  1  0.83097445  0.16929312  0.71574945  1
  Ti  Ti6  1  0.83095691  0.66172991  0.71575031  1
  Mn  Mn7  1  0.34057421  0.67026949  0.50109809  1
  Mn  Mn8  1  0.67364105  0.33679941  0.99615252  1
  Sn  Sn9  1  0.16895875  0.83150553  0.21545980  1
  Sn  Sn10  1  0.16894084  0.33746071  0.21543914  1
  Sn  Sn11  1  0.33817436  0.16910306  0.71508288  1
  O  O12  1  0.14613940  0.83823179  0.60564876  1
  O  O13  1  0.03153327  0.51576992  0.33497574  1
  O  O14  1  0.34649949  0.67326788  0.09978160  1
  O  O15  1  0.98769189  0.99386111  0.31985147  1
  O  O16  1  0.98635800  0.99319284  0.81523493  1
  O  O17  1  0.14615691  0.30793764  0.60565457  1
  O  O18  1  0.49641775  0.96943385  0.32860196  1
  O  O19  1  0.49642747  0.52699121  0.32858559  1
  O  O20  1  0.30720431  0.15360309  0.09855947  1
  O  O21  1  0.69030935  0.84517488  0.61246603  1
  O  O22  1  0.52795774  0.49396219  0.82827111  1
  O  O23  1  0.52794917  0.03403507  0.82828290  1
  O  O24  1  0.68446989  0.34224242  0.60426300  1
  O  O25  1  0.83466722  0.68862647  0.10617016  1
  O  O26  1  0.96417490  0.48210034  0.82083204  1
  O  O27  1  0.83466536  0.14605628  0.10616796  1
