# generated using pymatgen
data_P8W3O29
_symmetry_space_group_name_H-M   'P 1'
_cell_length_a   9.93478827
_cell_length_b   9.93435717
_cell_length_c   13.81262655
_cell_angle_alpha   90.01293149
_cell_angle_beta   90.01096925
_cell_angle_gamma   60.00082148
_symmetry_Int_Tables_number   1
_chemical_formula_structural   P8W3O29
_chemical_formula_sum   'P16 W6 O58'
_cell_volume   1180.61655857
_cell_formula_units_Z   2
loop_
 _symmetry_equiv_pos_site_id
 _symmetry_equiv_pos_as_xyz
  1  'x, y, z'
loop_
 _atom_site_type_symbol
 _atom_site_label
 _atom_site_symmetry_multiplicity
 _atom_site_fract_x
 _atom_site_fract_y
 _atom_site_fract_z
 _atom_site_occupancy
  P  P0  1  0.07758248  0.23009639  0.34764511  1
  P  P1  1  0.23017819  0.07778286  0.84744365  1
  P  P2  1  0.07777878  0.69217867  0.84747478  1
  P  P3  1  0.33325821  0.33333039  0.12115047  1
  P  P4  1  0.33328703  0.33332133  0.62115314  1
  P  P5  1  0.23019041  0.69210090  0.34743301  1
  P  P6  1  0.30793544  0.76985570  0.15258950  1
  P  P7  1  0.69210515  0.07780470  0.34745300  1
  P  P8  1  0.30786360  0.92226257  0.65251300  1
  P  P9  1  0.69209358  0.23017458  0.84741496  1
  P  P10  1  0.76984486  0.30787633  0.65253849  1
  P  P11  1  0.66675012  0.66667259  0.87881487  1
  P  P12  1  0.66673080  0.66668863  0.37887027  1
  P  P13  1  0.92235616  0.30768574  0.15244634  1
  P  P14  1  0.76981359  0.92219440  0.15258296  1
  P  P15  1  0.92225076  0.76988515  0.65248498  1
  W  W16  1  0.00002564  0.43034628  0.74998358  1
  W  W17  1  0.99998609  0.56963236  0.25002699  1
  W  W18  1  0.43033979  0.00002704  0.25002329  1
  W  W19  1  0.56964140  0.00001551  0.74999540  1
  W  W20  1  0.43036483  0.56967322  0.74997765  1
  W  W21  1  0.56966596  0.43034944  0.25000006  1
  O  O22  1  -0.00000150  0.20830584  0.25000946  1
  O  O23  1  0.00450638  0.23323653  0.06386562  1
  O  O24  1  0.09194017  0.25138615  0.83441942  1
  O  O25  1  0.20840939  0.00002900  0.74997690  1
  O  O26  1  0.23336321  0.00451173  0.56373272  1
  O  O27  1  0.25138195  0.09191189  0.33443717  1
  O  O28  1  0.09150414  0.38013464  0.32571031  1
  O  O29  1  0.18637815  0.33739415  0.67058993  1
  O  O30  1  0.09169482  0.52829821  0.82561622  1
  O  O31  1  0.00437391  0.76214999  0.56376952  1
  O  O32  1  0.00000429  0.79164406  0.74999335  1
  O  O33  1  0.09197263  0.65671129  0.33438804  1
  O  O34  1  0.33735155  0.18640910  0.17061592  1
  O  O35  1  0.38012074  0.09167670  0.82563326  1
  O  O36  1  0.18636096  0.47614935  0.17063607  1
  O  O37  1  0.33319193  0.33334548  0.01538665  1
  O  O38  1  0.33325926  0.33326425  0.51537525  1
  O  O39  1  0.33738437  0.47619315  0.67059545  1
  O  O40  1  0.52823929  0.09172459  0.32565289  1
  O  O41  1  0.47614464  0.18640210  0.67061066  1
  O  O42  1  0.25139613  0.65680605  0.83438754  1
  O  O43  1  0.20844847  0.79158607  0.24999165  1
  O  O44  1  0.23337103  0.76204160  0.06370047  1
  O  O45  1  0.23792693  0.76666752  0.43626781  1
  O  O46  1  0.38017593  0.52828448  0.32565224  1
  O  O47  1  0.47613528  0.33743495  0.17059635  1
  O  O48  1  0.34323028  0.74864300  0.66556016  1
  O  O49  1  0.52827528  0.38011537  0.82561142  1
  O  O50  1  0.65677265  0.09192334  0.83440358  1
  O  O51  1  0.23799419  0.99548455  0.93623255  1
  O  O52  1  0.76204299  0.00447607  0.06373425  1
  O  O53  1  0.79156643  0.00000174  0.25001338  1
  O  O54  1  0.34320806  0.90812314  0.16560259  1
  O  O55  1  0.47175035  0.61990107  0.17435392  1
  O  O56  1  0.65678860  0.25138129  0.33442086  1
  O  O57  1  0.52385967  0.66260305  0.82939551  1
  O  O58  1  0.61990417  0.47175455  0.67436156  1
  O  O59  1  0.76202967  0.23337064  0.56376073  1
  O  O60  1  0.76663091  0.23797922  0.93627690  1
  O  O61  1  0.79160210  0.20840456  0.75000838  1
  O  O62  1  0.74864104  0.34317642  0.16558410  1
  O  O63  1  0.52385289  0.81362745  0.32939758  1
  O  O64  1  0.47173407  0.90833348  0.67435505  1
  O  O65  1  0.66267331  0.52380786  0.32937758  1
  O  O66  1  0.66683558  0.66665694  0.98461645  1
  O  O67  1  0.66674930  0.66671852  0.48460796  1
  O  O68  1  0.81363446  0.52382514  0.82936815  1
  O  O69  1  0.61983485  0.90839409  0.17437231  1
  O  O70  1  0.66262101  0.81361282  0.82938588  1
  O  O71  1  0.90811280  0.34321743  0.66559077  1
  O  O72  1  0.99555423  0.23774433  0.43613930  1
  O  O73  1  0.90838542  0.47163846  0.17436951  1
  O  O74  1  0.81362126  0.66265104  0.32940733  1
  O  O75  1  0.90835371  0.61991214  0.67436459  1
  O  O76  1  0.74860326  0.90811582  0.66559392  1
  O  O77  1  0.76663490  0.99550074  0.43627999  1
  O  O78  1  0.90802823  0.74860225  0.16560649  1
  O  O79  1  0.99561344  0.76664982  0.93622191  1
