# generated using pymatgen
data_Li4Ni3Sn2Sb3O16
_symmetry_space_group_name_H-M   'P 1'
_cell_length_a   6.15474492
_cell_length_b   6.19166830
_cell_length_c   9.90563243
_cell_angle_alpha   89.99966062
_cell_angle_beta   90.22756494
_cell_angle_gamma   120.19934038
_symmetry_Int_Tables_number   1
_chemical_formula_structural   Li4Ni3Sn2Sb3O16
_chemical_formula_sum   'Li4 Ni3 Sn2 Sb3 O16'
_cell_volume   326.24970790
_cell_formula_units_Z   1
loop_
 _symmetry_equiv_pos_site_id
 _symmetry_equiv_pos_as_xyz
  1  'x, y, z'
loop_
 _atom_site_type_symbol
 _atom_site_label
 _atom_site_symmetry_multiplicity
 _atom_site_fract_x
 _atom_site_fract_y
 _atom_site_fract_z
 _atom_site_occupancy
  Li  Li0  1  0.32580445  0.66291761  0.88272320  1
  Li  Li1  1  0.97209049  0.98604698  0.98331254  1
  Li  Li2  1  0.98153902  0.99076886  0.50277870  1
  Li  Li3  1  0.65187087  0.32594944  0.40879415  1
  Ni  Ni4  1  0.66179930  0.83091360  0.21540117  1
  Ni  Ni5  1  0.83427635  0.66161722  0.71265973  1
  Ni  Ni6  1  0.83426725  0.17268695  0.71265843  1
  Sn  Sn7  1  0.35539143  0.67771698  0.50382312  1
  Sn  Sn8  1  0.69323273  0.34661703  0.97642268  1
  Sb  Sb9  1  0.17046609  0.83215980  0.21592419  1
  Sb  Sb10  1  0.17048955  0.33831973  0.21592630  1
  Sb  Sb11  1  0.34267533  0.17136115  0.71427449  1
  O  O12  1  0.17378751  0.84922180  0.59436886  1
  O  O13  1  0.02887992  0.51443945  0.33880137  1
  O  O14  1  0.32646348  0.66324210  0.10517241  1
  O  O15  1  0.00289502  0.00144748  0.31561053  1
  O  O16  1  0.01351006  0.00676908  0.80337359  1
  O  O17  1  0.17378410  0.32459722  0.59436353  1
  O  O18  1  0.47293397  0.96065890  0.34011261  1
  O  O19  1  0.47295995  0.51231768  0.34011113  1
  O  O20  1  0.32661098  0.16330335  0.10258377  1
  O  O21  1  0.68231223  0.84117477  0.59912216  1
  O  O22  1  0.50558554  0.47314454  0.84227263  1
  O  O23  1  0.50557790  0.03247050  0.84226575  1
  O  O24  1  0.65313895  0.32659328  0.60618716  1
  O  O25  1  0.84793608  0.68089051  0.10019790  1
  O  O26  1  0.97178065  0.48590299  0.83839791  1
  O  O27  1  0.84794180  0.16705300  0.10019995  1
