# generated using pymatgen
data_VOF3
_symmetry_space_group_name_H-M   'P 1'
_cell_length_a   5.49951631
_cell_length_b   5.29216761
_cell_length_c   9.33048720
_cell_angle_alpha   90.07432347
_cell_angle_beta   91.18272495
_cell_angle_gamma   88.90873012
_symmetry_Int_Tables_number   1
_chemical_formula_structural   VOF3
_chemical_formula_sum   'V4 O4 F12'
_cell_volume   271.45066882
_cell_formula_units_Z   4
loop_
 _symmetry_equiv_pos_site_id
 _symmetry_equiv_pos_as_xyz
  1  'x, y, z'
loop_
 _atom_site_type_symbol
 _atom_site_label
 _atom_site_symmetry_multiplicity
 _atom_site_fract_x
 _atom_site_fract_y
 _atom_site_fract_z
 _atom_site_occupancy
  V  V0  1  0.77054752  0.56825557  0.74954027  1
  V  V1  1  0.50000000  0.00000000  0.50000000  1
  V  V2  1  0.22945248  0.43174443  0.25045973  1
  V  V3  1  0.00000000  0.00000000  0.00000000  1
  O  O4  1  0.94771422  0.72220104  0.87470565  1
  O  O5  1  0.69856353  0.80166410  0.62781340  1
  O  O6  1  0.30143647  0.19833590  0.37218660  1
  O  O7  1  0.05228578  0.27779896  0.12529435  1
  F  F8  1  0.00784829  0.60940720  0.34395217  1
  F  F9  1  0.80677697  0.20232969  0.88104429  1
  F  F10  1  0.76124641  0.08621259  0.40354974  1
  F  F11  1  0.73925232  0.91742323  0.09743822  1
  F  F12  1  0.53894268  0.27950992  0.61620115  1
  F  F13  1  0.50696978  0.44132744  0.15980292  1
  F  F14  1  0.49303022  0.55867256  0.84019708  1
  F  F15  1  0.46105732  0.72049008  0.38379885  1
  F  F16  1  0.26074768  0.08257677  0.90256178  1
  F  F17  1  0.23875359  0.91378741  0.59645026  1
  F  F18  1  0.19322303  0.79767031  0.11895571  1
  F  F19  1  0.99215171  0.39059280  0.65604783  1
