# generated using pymatgen
data_VOF3
_symmetry_space_group_name_H-M   'P 1'
_cell_length_a   5.47449725
_cell_length_b   10.43528263
_cell_length_c   5.49658936
_cell_angle_alpha   89.20385238
_cell_angle_beta   119.54497892
_cell_angle_gamma   90.60079654
_symmetry_Int_Tables_number   1
_chemical_formula_structural   VOF3
_chemical_formula_sum   'V4 O4 F12'
_cell_volume   273.14907885
_cell_formula_units_Z   4
loop_
 _symmetry_equiv_pos_site_id
 _symmetry_equiv_pos_as_xyz
  1  'x, y, z'
loop_
 _atom_site_type_symbol
 _atom_site_label
 _atom_site_symmetry_multiplicity
 _atom_site_fract_x
 _atom_site_fract_y
 _atom_site_fract_z
 _atom_site_occupancy
  V  V0  1  0.00000000  0.00000000  0.00000000  1
  V  V1  1  0.00000000  0.50000000  0.00000000  1
  V  V2  1  0.56897241  0.24408484  0.00009042  1
  V  V3  1  0.43102759  0.75591516  0.99990958  1
  O  O4  1  0.30773149  0.89471862  0.06652985  1
  O  O5  1  0.83094310  0.35204967  0.06693259  1
  O  O6  1  0.16905690  0.64795033  0.93306741  1
  O  O7  1  0.69226851  0.10528138  0.93347015  1
  F  F8  1  0.31178607  0.40548412  0.07501687  1
  F  F9  1  0.17116676  0.04168318  0.35961037  1
  F  F10  1  0.15972165  0.54148209  0.35842024  1
  F  F11  1  0.83446267  0.86084298  0.07430601  1
  F  F12  1  0.31635643  0.29337721  0.66008192  1
  F  F13  1  0.36944689  0.78879026  0.65803060  1
  F  F14  1  0.63055311  0.21120974  0.34196940  1
  F  F15  1  0.68364357  0.70662279  0.33991808  1
  F  F16  1  0.16553733  0.13915702  0.92569399  1
  F  F17  1  0.82883324  0.95831682  0.64038963  1
  F  F18  1  0.84027835  0.45851791  0.64157976  1
  F  F19  1  0.68821393  0.59451588  0.92498313  1
