# generated using pymatgen
data_TiFe3Sn2(PO4)6
_symmetry_space_group_name_H-M   'P 1'
_cell_length_a   8.92523116
_cell_length_b   8.92523072
_cell_length_c   8.92523140
_cell_angle_alpha   58.14928963
_cell_angle_beta   58.14929029
_cell_angle_gamma   58.14928777
_symmetry_Int_Tables_number   1
_chemical_formula_structural   TiFe3Sn2(PO4)6
_chemical_formula_sum   'Ti1 Fe3 Sn2 P6 O24'
_cell_volume   481.41431925
_cell_formula_units_Z   1
loop_
 _symmetry_equiv_pos_site_id
 _symmetry_equiv_pos_as_xyz
  1  'x, y, z'
loop_
 _atom_site_type_symbol
 _atom_site_label
 _atom_site_symmetry_multiplicity
 _atom_site_fract_x
 _atom_site_fract_y
 _atom_site_fract_z
 _atom_site_occupancy
  Ti  Ti0  1  0.85359334  0.85359334  0.85359334  1
  Fe  Fe1  1  0.14901624  0.14901624  0.14901624  1
  Fe  Fe2  1  0.35070779  0.35070779  0.35070779  1
  Fe  Fe3  1  0.64861394  0.64861394  0.64861394  1
  Sn  Sn4  1  0.00458701  0.00458701  0.00458701  1
  Sn  Sn5  1  0.50070932  0.50070932  0.50070932  1
  P  P6  1  0.03985707  0.75046743  0.46153247  1
  P  P7  1  0.46153247  0.03985707  0.75046743  1
  P  P8  1  0.24843431  0.53843593  0.95901215  1
  P  P9  1  0.53843593  0.95901215  0.24843431  1
  P  P10  1  0.95901215  0.24843431  0.53843593  1
  P  P11  1  0.75046743  0.46153247  0.03985707  1
  O  O12  1  0.11613173  0.29705050  0.50970852  1
  O  O13  1  0.29705050  0.50970852  0.11613173  1
  O  O14  1  0.06194314  0.91909602  0.27594976  1
  O  O15  1  0.50970852  0.11613173  0.29705050  1
  O  O16  1  0.99768281  0.79899051  0.62584877  1
  O  O17  1  0.23100760  0.58047114  0.44640996  1
  O  O18  1  0.27594976  0.06194314  0.91909602  1
  O  O19  1  0.44640996  0.23100760  0.58047114  1
  O  O20  1  0.20273891  0.37909659  0.99294410  1
  O  O21  1  0.58047114  0.44640996  0.23100760  1
  O  O22  1  0.07818689  0.72517756  0.93398930  1
  O  O23  1  0.37909659  0.99294410  0.20273891  1
  O  O24  1  0.62584877  0.99768281  0.79899051  1
  O  O25  1  0.91909602  0.27594976  0.06194314  1
  O  O26  1  0.41840961  0.56011386  0.76735189  1
  O  O27  1  0.79899051  0.62584877  0.99768281  1
  O  O28  1  0.56011386  0.76735189  0.41840961  1
  O  O29  1  0.72517756  0.93398930  0.07818689  1
  O  O30  1  0.76735189  0.41840961  0.56011386  1
  O  O31  1  0.99294410  0.20273891  0.37909659  1
  O  O32  1  0.49442469  0.88403913  0.69827098  1
  O  O33  1  0.93398930  0.07818689  0.72517756  1
  O  O34  1  0.69827098  0.49442469  0.88403913  1
  O  O35  1  0.88403913  0.69827098  0.49442469  1
