# generated using pymatgen
data_V3CuO8
_symmetry_space_group_name_H-M   'P 1'
_cell_length_a   6.24297737
_cell_length_b   6.24297643
_cell_length_c   6.71806752
_cell_angle_alpha   74.29528808
_cell_angle_beta   105.70470999
_cell_angle_gamma   145.02749725
_symmetry_Int_Tables_number   1
_chemical_formula_structural   V3CuO8
_chemical_formula_sum   'V3 Cu1 O8'
_cell_volume   143.90900089
_cell_formula_units_Z   1
loop_
 _symmetry_equiv_pos_site_id
 _symmetry_equiv_pos_as_xyz
  1  'x, y, z'
loop_
 _atom_site_type_symbol
 _atom_site_label
 _atom_site_symmetry_multiplicity
 _atom_site_fract_x
 _atom_site_fract_y
 _atom_site_fract_z
 _atom_site_occupancy
  V  V0  1  0.39596635  0.60403365  0.26169438  1
  V  V1  1  0.60700045  0.39299955  0.72729858  1
  V  V2  1  0.30217869  0.69782131  0.68885265  1
  Cu  Cu3  1  0.70142644  0.29857356  0.29827320  1
  O  O4  1  0.13182508  0.86817492  0.68351388  1
  O  O5  1  0.24696137  0.75303863  0.36943211  1
  O  O6  1  0.36031731  0.63968269  0.99649259  1
  O  O7  1  0.44630493  0.55369507  0.65536075  1
  O  O8  1  0.54637112  0.45362888  0.35186797  1
  O  O9  1  0.63057886  0.36942114  0.97896154  1
  O  O10  1  0.76436218  0.23563782  0.68975890  1
  O  O11  1  0.86670721  0.13329279  0.29849346  1
