# generated using pymatgen
data_Mn4O7F
_symmetry_space_group_name_H-M   'P 1'
_cell_length_a   6.70555708
_cell_length_b   5.49795136
_cell_length_c   6.65606647
_cell_angle_alpha   89.33210068
_cell_angle_beta   96.04333666
_cell_angle_gamma   88.87058690
_symmetry_Int_Tables_number   1
_chemical_formula_structural   Mn4O7F
_chemical_formula_sum   'Mn8 O14 F2'
_cell_volume   243.95363830
_cell_formula_units_Z   2
loop_
 _symmetry_equiv_pos_site_id
 _symmetry_equiv_pos_as_xyz
  1  'x, y, z'
loop_
 _atom_site_type_symbol
 _atom_site_label
 _atom_site_symmetry_multiplicity
 _atom_site_fract_x
 _atom_site_fract_y
 _atom_site_fract_z
 _atom_site_occupancy
  Mn  Mn0  1  0.37359683  0.35323987  0.13738844  1
  Mn  Mn1  1  0.12271038  0.65199274  0.37803261  1
  Mn  Mn2  1  0.88022005  0.16809925  0.13653326  1
  Mn  Mn3  1  0.36989727  0.12941232  0.61066596  1
  Mn  Mn4  1  0.13804126  0.85793343  0.87571120  1
  Mn  Mn5  1  0.62920723  0.85166567  0.37200796  1
  Mn  Mn6  1  0.62420076  0.64897346  0.87389594  1
  Mn  Mn7  1  0.87412245  0.35571999  0.62834429  1
  O  O8  1  0.15719239  0.11787999  0.08038471  1
  O  O9  1  0.17158294  0.61302496  0.09406767  1
  O  O10  1  0.32906871  0.38783989  0.40980815  1
  O  O11  1  0.57116865  0.61030079  0.15479001  1
  O  O12  1  0.07819552  0.61347719  0.65896221  1
  O  O13  1  0.34547761  0.88459076  0.41708435  1
  O  O14  1  0.09420707  0.10815314  0.66905414  1
  O  O15  1  0.59574690  0.11464022  0.17000558  1
  O  O16  1  0.40561704  0.88708752  0.82461412  1
  O  O17  1  0.65352658  0.10588915  0.57625360  1
  O  O18  1  0.90541164  0.88761617  0.32341908  1
  O  O19  1  0.92515215  0.39546001  0.34980407  1
  O  O20  1  0.67048333  0.60999648  0.59128077  1
  O  O21  1  0.82252222  0.38619824  0.90798878  1
  F  F22  1  0.40780428  0.36609785  0.83904916  1
  F  F23  1  0.85484774  0.89471492  0.92085392  1
