# generated using pymatgen
data_BaCaSnF7
_symmetry_space_group_name_H-M   'P 1'
_cell_length_a   5.91530673
_cell_length_b   9.95213184
_cell_length_c   10.79982747
_cell_angle_alpha   90.00000000
_cell_angle_beta   90.00000000
_cell_angle_gamma   91.67041511
_symmetry_Int_Tables_number   1
_chemical_formula_structural   BaCaSnF7
_chemical_formula_sum   'Ba4 Ca4 Sn4 F28'
_cell_volume   635.51471735
_cell_formula_units_Z   4
loop_
 _symmetry_equiv_pos_site_id
 _symmetry_equiv_pos_as_xyz
  1  'x, y, z'
loop_
 _atom_site_type_symbol
 _atom_site_label
 _atom_site_symmetry_multiplicity
 _atom_site_fract_x
 _atom_site_fract_y
 _atom_site_fract_z
 _atom_site_occupancy
  Ba  Ba0  1  0.26840910  0.50241380  0.32012171  1
  Ba  Ba1  1  0.73159090  0.99758620  0.82012171  1
  Ba  Ba2  1  0.73159090  0.49758620  0.67987829  1
  Ba  Ba3  1  0.26840910  0.00241380  0.17987829  1
  Ca  Ca4  1  0.71247817  0.81837368  0.41545163  1
  Ca  Ca5  1  0.28752183  0.68162632  0.91545163  1
  Ca  Ca6  1  0.71247817  0.31837368  0.08454837  1
  Ca  Ca7  1  0.28752183  0.18162632  0.58454837  1
  Sn  Sn8  1  0.21930260  0.79317914  0.60774024  1
  Sn  Sn9  1  0.78069740  0.20682086  0.39225976  1
  Sn  Sn10  1  0.21930260  0.29317914  0.89225976  1
  Sn  Sn11  1  0.78069740  0.70682086  0.10774024  1
  F  F12  1  0.09336864  0.10653251  0.41579172  1
  F  F13  1  0.35499892  0.39891130  0.05132652  1
  F  F14  1  0.50669595  0.74899055  0.74108877  1
  F  F15  1  0.49330405  0.25100945  0.25891123  1
  F  F16  1  0.99135515  0.35733680  0.49273855  1
  F  F17  1  0.28232357  0.48486833  0.79263885  1
  F  F18  1  0.01948280  0.72622714  0.77004305  1
  F  F19  1  0.00864485  0.14266320  0.99273855  1
  F  F20  1  0.35499892  0.89891130  0.44867348  1
  F  F21  1  0.49330405  0.75100945  0.24108877  1
  F  F22  1  0.09336864  0.60653251  0.08420828  1
  F  F23  1  0.90663136  0.89346749  0.58420828  1
  F  F24  1  0.98051720  0.77377286  0.27004305  1
  F  F25  1  0.48634823  0.85899059  0.99638389  1
  F  F26  1  0.00864485  0.64266320  0.50726145  1
  F  F27  1  0.99135515  0.85733680  0.00726145  1
  F  F28  1  0.98051720  0.27377286  0.22995695  1
  F  F29  1  0.90663136  0.39346749  0.91579172  1
  F  F30  1  0.51365177  0.64100941  0.49638389  1
  F  F31  1  0.64500108  0.60108870  0.94867348  1
  F  F32  1  0.51365177  0.14100941  0.00361611  1
  F  F33  1  0.01948280  0.22622714  0.72995695  1
  F  F34  1  0.48634823  0.35899059  0.50361611  1
  F  F35  1  0.71767643  0.01513167  0.29263885  1
  F  F36  1  0.71767643  0.51513167  0.20736115  1
  F  F37  1  0.28232357  0.98486833  0.70736115  1
  F  F38  1  0.64500108  0.10108870  0.55132652  1
  F  F39  1  0.50669595  0.24899055  0.75891123  1
