# generated using pymatgen
data_Ti3Cr2Sb(PO4)6
_symmetry_space_group_name_H-M   'P 1'
_cell_length_a   8.71474297
_cell_length_b   8.71474294
_cell_length_c   8.71474313
_cell_angle_alpha   60.16582053
_cell_angle_beta   60.16581597
_cell_angle_gamma   60.16582019
_symmetry_Int_Tables_number   1
_chemical_formula_structural   Ti3Cr2Sb(PO4)6
_chemical_formula_sum   'Ti3 Cr2 Sb1 P6 O24'
_cell_volume   469.76075167
_cell_formula_units_Z   1
loop_
 _symmetry_equiv_pos_site_id
 _symmetry_equiv_pos_as_xyz
  1  'x, y, z'
loop_
 _atom_site_type_symbol
 _atom_site_label
 _atom_site_symmetry_multiplicity
 _atom_site_fract_x
 _atom_site_fract_y
 _atom_site_fract_z
 _atom_site_occupancy
  Ti  Ti0  1  0.14540042  0.14540042  0.14540042  1
  Ti  Ti1  1  0.35316323  0.35316323  0.35316323  1
  Ti  Ti2  1  0.64574254  0.64574254  0.64574254  1
  Cr  Cr3  1  0.00051653  0.00051653  0.00051653  1
  Cr  Cr4  1  0.49836316  0.49836316  0.49836316  1
  Sb  Sb5  1  0.85218146  0.85218146  0.85218146  1
  P  P6  1  0.05069586  0.75046539  0.44205272  1
  P  P7  1  0.44205272  0.05069586  0.75046539  1
  P  P8  1  0.26146207  0.53618382  0.95679452  1
  P  P9  1  0.53618382  0.95679452  0.26146207  1
  P  P10  1  0.95679452  0.26146207  0.53618382  1
  P  P11  1  0.75046539  0.44205272  0.05069586  1
  O  O12  1  0.11066904  0.33770319  0.47608257  1
  O  O13  1  0.33770319  0.47608257  0.11066904  1
  O  O14  1  0.06128894  0.91456994  0.25283163  1
  O  O15  1  0.47608257  0.11066904  0.33770319  1
  O  O16  1  0.03825357  0.80448505  0.58978010  1
  O  O17  1  0.24022962  0.58780912  0.41406083  1
  O  O18  1  0.25283163  0.06128894  0.91456994  1
  O  O19  1  0.41406083  0.24022962  0.58780912  1
  O  O20  1  0.19119880  0.38370526  0.99818685  1
  O  O21  1  0.58780912  0.41406083  0.24022962  1
  O  O22  1  0.10665927  0.72835731  0.95463190  1
  O  O23  1  0.38370526  0.99818685  0.19119880  1
  O  O24  1  0.58978010  0.03825357  0.80448505  1
  O  O25  1  0.91456994  0.25283163  0.06128894  1
  O  O26  1  0.42074018  0.55337071  0.76424166  1
  O  O27  1  0.80448505  0.58978010  0.03825357  1
  O  O28  1  0.55337071  0.76424166  0.42074018  1
  O  O29  1  0.72835731  0.95463190  0.10665927  1
  O  O30  1  0.76424166  0.42074018  0.55337071  1
  O  O31  1  0.99818685  0.19119880  0.38370526  1
  O  O32  1  0.49970386  0.87858099  0.69983888  1
  O  O33  1  0.95463190  0.10665927  0.72835731  1
  O  O34  1  0.69983888  0.49970386  0.87858099  1
  O  O35  1  0.87858099  0.69983888  0.49970386  1
