# generated using pymatgen
data_Li4Ti3Fe2Cu3O16
_symmetry_space_group_name_H-M   'P 1'
_cell_length_a   5.88547226
_cell_length_b   5.88759553
_cell_length_c   9.62488144
_cell_angle_alpha   89.98304050
_cell_angle_beta   91.00934504
_cell_angle_gamma   119.99159053
_symmetry_Int_Tables_number   1
_chemical_formula_structural   Li4Ti3Fe2Cu3O16
_chemical_formula_sum   'Li4 Ti3 Fe2 Cu3 O16'
_cell_volume   288.79770496
_cell_formula_units_Z   1
loop_
 _symmetry_equiv_pos_site_id
 _symmetry_equiv_pos_as_xyz
  1  'x, y, z'
loop_
 _atom_site_type_symbol
 _atom_site_label
 _atom_site_symmetry_multiplicity
 _atom_site_fract_x
 _atom_site_fract_y
 _atom_site_fract_z
 _atom_site_occupancy
  Li  Li0  1  0.33253233  0.66658095  0.89693753  1
  Li  Li1  1  0.97844590  0.98913908  0.99057055  1
  Li  Li2  1  0.99827930  0.99919457  0.49630706  1
  Li  Li3  1  0.67716169  0.33854506  0.39852095  1
  Ti  Ti4  1  0.17750706  0.83585543  0.21711516  1
  Ti  Ti5  1  0.17782223  0.34166940  0.21705342  1
  Ti  Ti6  1  0.35047467  0.17542221  0.72143233  1
  Fe  Fe7  1  0.33688712  0.66839344  0.49467462  1
  Fe  Fe8  1  0.67105963  0.33565994  0.99179310  1
  Cu  Cu9  1  0.65960431  0.82981517  0.21024466  1
  Cu  Cu10  1  0.83409114  0.66141310  0.70986445  1
  Cu  Cu11  1  0.83418453  0.17273814  0.70996074  1
  O  O12  1  0.17696950  0.84424515  0.59753609  1
  O  O13  1  0.03568832  0.51788207  0.33281692  1
  O  O14  1  0.31713207  0.65860118  0.10250484  1
  O  O15  1  0.99877038  0.99946108  0.30794518  1
  O  O16  1  0.99434679  0.99669657  0.80137023  1
  O  O17  1  0.17632532  0.33230820  0.59776029  1
  O  O18  1  0.47509499  0.96490226  0.34332993  1
  O  O19  1  0.47502617  0.50994066  0.34324363  1
  O  O20  1  0.32732473  0.16356282  0.10423221  1
  O  O21  1  0.67844861  0.83891555  0.59916451  1
  O  O22  1  0.50398261  0.47254076  0.84450304  1
  O  O23  1  0.50553130  0.03219054  0.84426924  1
  O  O24  1  0.66741050  0.33388627  0.60507969  1
  O  O25  1  0.84024943  0.67214520  0.09732992  1
  O  O26  1  0.95937831  0.48038385  0.83504703  1
  O  O27  1  0.84027304  0.16821138  0.09723169  1
