# generated using pymatgen
data_Ba6YBr15
_symmetry_space_group_name_H-M   'P 1'
_cell_length_a   11.26211464
_cell_length_b   11.26211464
_cell_length_c   32.37402213
_cell_angle_alpha   88.97506390
_cell_angle_beta   91.02493610
_cell_angle_gamma   88.62409571
_symmetry_Int_Tables_number   1
_chemical_formula_structural   Ba6YBr15
_chemical_formula_sum   'Ba24 Y4 Br60'
_cell_volume   4103.63652767
_cell_formula_units_Z   4
loop_
 _symmetry_equiv_pos_site_id
 _symmetry_equiv_pos_as_xyz
  1  'x, y, z'
loop_
 _atom_site_type_symbol
 _atom_site_label
 _atom_site_symmetry_multiplicity
 _atom_site_fract_x
 _atom_site_fract_y
 _atom_site_fract_z
 _atom_site_occupancy
  Ba  Ba0  1  0.02632221  0.98446929  0.61745056  1
  Ba  Ba1  1  0.01553071  0.97367779  0.11745056  1
  Ba  Ba2  1  0.46270898  0.05240656  0.63888272  1
  Ba  Ba3  1  0.25188904  0.80104608  0.74583438  1
  Ba  Ba4  1  0.94759344  0.53729102  0.13888272  1
  Ba  Ba5  1  0.19895392  0.74811096  0.24583438  1
  Ba  Ba6  1  0.08449883  0.55139437  0.63067534  1
  Ba  Ba7  1  0.32640698  0.77862097  0.52477619  1
  Ba  Ba8  1  0.44860563  0.91550117  0.13067534  1
  Ba  Ba9  1  0.22137903  0.67359302  0.02477619  1
  Ba  Ba10  1  0.55046438  0.60247667  0.64561754  1
  Ba  Ba11  1  0.39752333  0.44953562  0.14561754  1
  Ba  Ba12  1  0.60247667  0.55046438  0.85438246  1
  Ba  Ba13  1  0.44953562  0.39752333  0.35438246  1
  Ba  Ba14  1  0.77862097  0.32640698  0.97522381  1
  Ba  Ba15  1  0.55139437  0.08449883  0.86932466  1
  Ba  Ba16  1  0.67359302  0.22137903  0.47522381  1
  Ba  Ba17  1  0.91550117  0.44860563  0.36932466  1
  Ba  Ba18  1  0.80104608  0.25188904  0.75416562  1
  Ba  Ba19  1  0.05240656  0.46270898  0.86111728  1
  Ba  Ba20  1  0.74811096  0.19895392  0.25416562  1
  Ba  Ba21  1  0.53729102  0.94759344  0.36111728  1
  Ba  Ba22  1  0.98446929  0.02632221  0.88254944  1
  Ba  Ba23  1  0.97367779  0.01553071  0.38254944  1
  Y  Y24  1  0.28707515  0.75978645  0.88770872  1
  Y  Y25  1  0.24021355  0.71292485  0.38770872  1
  Y  Y26  1  0.75978645  0.28707515  0.61229128  1
  Y  Y27  1  0.71292485  0.24021355  0.11229128  1
  Br  Br28  1  0.10474305  0.82506939  0.94657532  1
  Br  Br29  1  0.17493061  0.89525695  0.44657532  1
  Br  Br30  1  0.08116072  0.78258924  0.83136102  1
  Br  Br31  1  0.05228280  0.75141968  0.55965258  1
  Br  Br32  1  0.21741076  0.91883928  0.33136102  1
  Br  Br33  1  0.24858032  0.94771720  0.05965258  1
  Br  Br34  1  0.24336115  0.54241933  0.93442843  1
  Br  Br35  1  0.51367839  0.83355600  0.70431919  1
  Br  Br36  1  0.45758067  0.75663885  0.43442843  1
  Br  Br37  1  0.01864976  0.28090264  0.61157468  1
  Br  Br38  1  0.16644400  0.48632161  0.20431919  1
  Br  Br39  1  0.31349893  0.56062949  0.82753837  1
  Br  Br40  1  0.71909736  0.98135024  0.11157468  1
  Br  Br41  1  0.55973998  0.83065883  0.58272558  1
  Br  Br42  1  0.30021087  0.55877956  0.69877543  1
  Br  Br43  1  0.50015205  0.74558788  0.93131927  1
  Br  Br44  1  0.03006332  0.26494423  0.93342123  1
  Br  Br45  1  0.77340867  0.00863157  0.81209537  1
  Br  Br46  1  0.43937051  0.68650107  0.32753837  1
  Br  Br47  1  0.16934117  0.44026002  0.08272558  1
  Br  Br48  1  0.44122044  0.69978913  0.19877543  1
  Br  Br49  1  0.25441212  0.49984795  0.43131927  1
  Br  Br50  1  0.73505577  0.96993668  0.43342123  1
  Br  Br51  1  0.99136843  0.22659133  0.31209537  1
  Br  Br52  1  0.45816789  0.83182205  0.82221091  1
  Br  Br53  1  0.33924732  0.54057579  0.58074683  1
  Br  Br54  1  0.05050994  0.21938777  0.80740999  1
  Br  Br55  1  0.16817795  0.54183211  0.32221091  1
  Br  Br56  1  0.45942421  0.66075268  0.08074683  1
  Br  Br57  1  0.78061223  0.94949006  0.30740999  1
  Br  Br58  1  0.21938777  0.05050994  0.69259001  1
  Br  Br59  1  0.54057579  0.33924732  0.91925317  1
  Br  Br60  1  0.83182205  0.45816789  0.67778909  1
  Br  Br61  1  0.94949006  0.78061223  0.19259001  1
  Br  Br62  1  0.66075268  0.45942421  0.41925317  1
  Br  Br63  1  0.54183211  0.16817795  0.17778909  1
  Br  Br64  1  0.00863157  0.77340867  0.68790463  1
  Br  Br65  1  0.26494423  0.03006332  0.56657877  1
  Br  Br66  1  0.74558788  0.50015205  0.56868073  1
  Br  Br67  1  0.55877956  0.30021087  0.80122457  1
  Br  Br68  1  0.83065883  0.55973998  0.91727442  1
  Br  Br69  1  0.56062949  0.31349893  0.67246163  1
  Br  Br70  1  0.22659133  0.99136843  0.18790463  1
  Br  Br71  1  0.96993668  0.73505577  0.06657877  1
  Br  Br72  1  0.49984795  0.25441212  0.06868073  1
  Br  Br73  1  0.69978913  0.44122044  0.30122457  1
  Br  Br74  1  0.44026002  0.16934117  0.41727442  1
  Br  Br75  1  0.28090264  0.01864976  0.88842532  1
  Br  Br76  1  0.68650107  0.43937051  0.17246163  1
  Br  Br77  1  0.83355600  0.51367839  0.79568081  1
  Br  Br78  1  0.98135024  0.71909736  0.38842532  1
  Br  Br79  1  0.54241933  0.24336115  0.56557157  1
  Br  Br80  1  0.48632161  0.16644400  0.29568081  1
  Br  Br81  1  0.75663885  0.45758067  0.06557157  1
  Br  Br82  1  0.75141968  0.05228280  0.94034742  1
  Br  Br83  1  0.78258924  0.08116072  0.66863898  1
  Br  Br84  1  0.94771720  0.24858032  0.44034742  1
  Br  Br85  1  0.91883928  0.21741076  0.16863898  1
  Br  Br86  1  0.82506939  0.10474305  0.55342468  1
  Br  Br87  1  0.89525695  0.17493061  0.05342468  1
