# generated using pymatgen
data_Li2MnF5
_symmetry_space_group_name_H-M   'P 1'
_cell_length_a   5.08715534
_cell_length_b   9.68591385
_cell_length_c   8.12176358
_cell_angle_alpha   90.00000000
_cell_angle_beta   90.00000000
_cell_angle_gamma   90.00000000
_symmetry_Int_Tables_number   1
_chemical_formula_structural   Li2MnF5
_chemical_formula_sum   'Li8 Mn4 F20'
_cell_volume   400.18973492
_cell_formula_units_Z   4
loop_
 _symmetry_equiv_pos_site_id
 _symmetry_equiv_pos_as_xyz
  1  'x, y, z'
loop_
 _atom_site_type_symbol
 _atom_site_label
 _atom_site_symmetry_multiplicity
 _atom_site_fract_x
 _atom_site_fract_y
 _atom_site_fract_z
 _atom_site_occupancy
  Li  Li0  1  0.22940646  0.68971142  0.40420040  1
  Li  Li1  1  0.28991755  0.00966382  0.36736621  1
  Li  Li2  1  0.21008245  0.99033618  0.86736621  1
  Li  Li3  1  0.27059354  0.31028858  0.90420040  1
  Li  Li4  1  0.72940646  0.81028858  0.59579960  1
  Li  Li5  1  0.78991755  0.49033618  0.63263379  1
  Li  Li6  1  0.71008245  0.50966382  0.13263379  1
  Li  Li7  1  0.77059354  0.18971142  0.09579960  1
  Mn  Mn8  1  0.28202925  0.62906537  0.79796206  1
  Mn  Mn9  1  0.21797075  0.37093463  0.29796206  1
  Mn  Mn10  1  0.78202925  0.87093463  0.20203794  1
  Mn  Mn11  1  0.71797075  0.12906537  0.70203794  1
  F  F12  1  0.01560476  0.18639968  0.81867864  1
  F  F13  1  0.00099309  0.36443176  0.08380983  1
  F  F14  1  0.04798573  0.95910924  0.08208979  1
  F  F15  1  0.11195867  0.19132780  0.35048905  1
  F  F16  1  0.13150088  0.45442020  0.76488749  1
  F  F17  1  0.36849912  0.54557980  0.26488749  1
  F  F18  1  0.38804133  0.80867220  0.85048905  1
  F  F19  1  0.45201427  0.04089076  0.58208979  1
  F  F20  1  0.49900691  0.63556824  0.58380983  1
  F  F21  1  0.48439524  0.81360032  0.31867864  1
  F  F22  1  0.51560476  0.31360032  0.18132136  1
  F  F23  1  0.50099309  0.13556824  0.91619017  1
  F  F24  1  0.54798573  0.54089076  0.91791021  1
  F  F25  1  0.61195867  0.30867220  0.64951095  1
  F  F26  1  0.63150088  0.04557980  0.23511251  1
  F  F27  1  0.86849912  0.95442020  0.73511251  1
  F  F28  1  0.88804133  0.69132780  0.14951095  1
  F  F29  1  0.95201427  0.45910924  0.41791021  1
  F  F30  1  0.99900691  0.86443176  0.41619017  1
  F  F31  1  0.98439524  0.68639968  0.68132136  1
