# generated using pymatgen
data_Cr2(PS4)3
_symmetry_space_group_name_H-M   'P 1'
_cell_length_a   17.45057787
_cell_length_b   11.62519325
_cell_length_c   9.82345810
_cell_angle_alpha   90.00000000
_cell_angle_beta   84.98532288
_cell_angle_gamma   90.00000000
_symmetry_Int_Tables_number   1
_chemical_formula_structural   Cr2(PS4)3
_chemical_formula_sum   'Cr8 P12 S48'
_cell_volume   1985.22104253
_cell_formula_units_Z   4
loop_
 _symmetry_equiv_pos_site_id
 _symmetry_equiv_pos_as_xyz
  1  'x, y, z'
loop_
 _atom_site_type_symbol
 _atom_site_label
 _atom_site_symmetry_multiplicity
 _atom_site_fract_x
 _atom_site_fract_y
 _atom_site_fract_z
 _atom_site_occupancy
  Cr  Cr0  1  0.10111376  0.77785577  0.10787175  1
  Cr  Cr1  1  0.21045133  0.26826283  0.57123227  1
  Cr  Cr2  1  0.28954867  0.76826283  0.92876773  1
  Cr  Cr3  1  0.39888624  0.27785577  0.39212825  1
  Cr  Cr4  1  0.60111376  0.72214423  0.60787175  1
  Cr  Cr5  1  0.71045133  0.23173717  0.07123227  1
  Cr  Cr6  1  0.78954867  0.73173717  0.42876773  1
  Cr  Cr7  1  0.89888624  0.22214423  0.89212825  1
  P  P8  1  0.05339817  0.23781625  0.72513754  1
  P  P9  1  0.13588435  0.69099169  0.80014033  1
  P  P10  1  0.25257882  0.86410182  0.22785207  1
  P  P11  1  0.24742118  0.36410182  0.27214793  1
  P  P12  1  0.36411565  0.19099169  0.69985967  1
  P  P13  1  0.44660183  0.73781625  0.77486246  1
  P  P14  1  0.55339817  0.26218375  0.22513754  1
  P  P15  1  0.63588435  0.80900831  0.30014033  1
  P  P16  1  0.75257882  0.63589818  0.72785207  1
  P  P17  1  0.74742118  0.13589818  0.77214793  1
  P  P18  1  0.86411565  0.30900831  0.19985967  1
  P  P19  1  0.94660183  0.76218375  0.27486246  1
  S  S20  1  0.04644022  0.67100037  0.29197263  1
  S  S21  1  0.01957728  0.12643814  0.88097911  1
  S  S22  1  0.07308631  0.62279470  0.97080564  1
  S  S23  1  0.09894946  0.15557439  0.55198197  1
  S  S24  1  0.08968357  0.68629465  0.62888543  1
  S  S25  1  0.14582951  0.94121443  0.21397217  1
  S  S26  1  0.14034097  0.35048730  0.76110650  1
  S  S27  1  0.18403356  0.43007355  0.44381522  1
  S  S28  1  0.16303819  0.85155469  0.88784246  1
  S  S29  1  0.20224362  0.37026859  0.09972337  1
  S  S30  1  0.22717941  0.69986708  0.14709676  1
  S  S31  1  0.24119020  0.61042004  0.81532722  1
  S  S32  1  0.25880980  0.11042004  0.68467278  1
  S  S33  1  0.27282059  0.19986708  0.35290324  1
  S  S34  1  0.29775638  0.87026859  0.40027663  1
  S  S35  1  0.31596644  0.93007355  0.05618578  1
  S  S36  1  0.33696181  0.35155469  0.61215754  1
  S  S37  1  0.35417049  0.44121443  0.28602783  1
  S  S38  1  0.35965903  0.85048730  0.73889350  1
  S  S39  1  0.41031643  0.18629465  0.87111457  1
  S  S40  1  0.40105054  0.65557439  0.94801803  1
  S  S41  1  0.42691369  0.12279470  0.52919436  1
  S  S42  1  0.45355978  0.17100037  0.20802737  1
  S  S43  1  0.48042272  0.62643814  0.61902089  1
  S  S44  1  0.51957728  0.37356186  0.38097911  1
  S  S45  1  0.54644022  0.82899963  0.79197263  1
  S  S46  1  0.57308631  0.87720530  0.47080564  1
  S  S47  1  0.59894946  0.34442561  0.05198197  1
  S  S48  1  0.58968357  0.81370535  0.12888543  1
  S  S49  1  0.64034097  0.14951270  0.26110650  1
  S  S50  1  0.64582951  0.55878557  0.71397217  1
  S  S51  1  0.66303819  0.64844531  0.38784246  1
  S  S52  1  0.68403356  0.06992645  0.94381522  1
  S  S53  1  0.70224362  0.12973141  0.59972337  1
  S  S54  1  0.72717941  0.80013292  0.64709676  1
  S  S55  1  0.74119020  0.88957996  0.31532722  1
  S  S56  1  0.75880980  0.38957996  0.18467278  1
  S  S57  1  0.77282059  0.30013292  0.85290324  1
  S  S58  1  0.79775638  0.62973141  0.90027663  1
  S  S59  1  0.83696181  0.14844531  0.11215754  1
  S  S60  1  0.81596644  0.56992645  0.55618478  1
  S  S61  1  0.85965903  0.64951270  0.23889350  1
  S  S62  1  0.85417049  0.05878557  0.78602783  1
  S  S63  1  0.91031643  0.31370535  0.37111457  1
  S  S64  1  0.90105054  0.84442561  0.44801803  1
  S  S65  1  0.92691369  0.37720530  0.02919436  1
  S  S66  1  0.98042272  0.87356186  0.11902089  1
  S  S67  1  0.95355978  0.32899963  0.70802737  1
