# generated using pymatgen
data_Mn4O7F
_symmetry_space_group_name_H-M   'P 1'
_cell_length_a   4.47666099
_cell_length_b   10.98842240
_cell_length_c   4.97880627
_cell_angle_alpha   90.00000000
_cell_angle_beta   89.99349021
_cell_angle_gamma   90.00000000
_symmetry_Int_Tables_number   1
_chemical_formula_structural   Mn4O7F
_chemical_formula_sum   'Mn8 O14 F2'
_cell_volume   244.91465796
_cell_formula_units_Z   2
loop_
 _symmetry_equiv_pos_site_id
 _symmetry_equiv_pos_as_xyz
  1  'x, y, z'
loop_
 _atom_site_type_symbol
 _atom_site_label
 _atom_site_symmetry_multiplicity
 _atom_site_fract_x
 _atom_site_fract_y
 _atom_site_fract_z
 _atom_site_occupancy
  Mn  Mn0  1  0.99273806  0.42674234  0.76375800  1
  Mn  Mn1  1  0.01341336  0.08205691  0.25363746  1
  Mn  Mn2  1  0.98658664  0.58205691  0.24636254  1
  Mn  Mn3  1  0.00726194  0.92674234  0.73624200  1
  Mn  Mn4  1  0.48034094  0.81870374  0.25524028  1
  Mn  Mn5  1  0.50311147  0.17712607  0.74860617  1
  Mn  Mn6  1  0.51965906  0.31870374  0.24475972  1
  Mn  Mn7  1  0.49688853  0.67712607  0.75139383  1
  O  O8  1  0.23466656  0.05519253  0.91956759  1
  O  O9  1  0.23109551  0.55610473  0.92668039  1
  O  O10  1  0.22899930  0.94340480  0.41491419  1
  O  O11  1  0.27945082  0.19702324  0.42349770  1
  O  O12  1  0.27345821  0.30526555  0.92521516  1
  O  O13  1  0.26079900  0.69374269  0.42435939  1
  O  O14  1  0.25866644  0.80466201  0.92000115  1
  O  O15  1  0.73920100  0.19374269  0.07564061  1
  O  O16  1  0.74133356  0.30466201  0.57999885  1
  O  O17  1  0.72054918  0.69702324  0.07650230  1
  O  O18  1  0.72654179  0.80526555  0.57478484  1
  O  O19  1  0.76890449  0.05610473  0.57331961  1
  O  O20  1  0.77100070  0.44340480  0.08508581  1
  O  O21  1  0.76533344  0.55519253  0.58043241  1
  F  F22  1  0.24596080  0.43997638  0.42341767  1
  F  F23  1  0.75403920  0.93997538  0.07658233  1
