# generated using pymatgen
data_Li5Mn8(BO3)8
_symmetry_space_group_name_H-M   'P 1'
_cell_length_a   5.31812906
_cell_length_b   9.23108583
_cell_length_c   11.41704808
_cell_angle_alpha   67.04905713
_cell_angle_beta   77.25786769
_cell_angle_gamma   89.06266741
_symmetry_Int_Tables_number   1
_chemical_formula_structural   Li5Mn8(BO3)8
_chemical_formula_sum   'Li5 Mn8 B8 O24'
_cell_volume   501.89176646
_cell_formula_units_Z   1
loop_
 _symmetry_equiv_pos_site_id
 _symmetry_equiv_pos_as_xyz
  1  'x, y, z'
loop_
 _atom_site_type_symbol
 _atom_site_label
 _atom_site_symmetry_multiplicity
 _atom_site_fract_x
 _atom_site_fract_y
 _atom_site_fract_z
 _atom_site_occupancy
  Li  Li0  1  0.02934284  0.03464568  0.10208172  1
  Li  Li1  1  0.27628515  0.25098035  0.33894454  1
  Li  Li2  1  0.48961405  0.51700759  0.82869233  1
  Li  Li3  1  0.78423905  0.74488872  0.33966484  1
  Li  Li4  1  0.98479202  0.01905298  0.82884129  1
  Mn  Mn5  1  0.01215684  0.35965367  0.12320106  1
  Mn  Mn6  1  0.24844502  0.56056091  0.37388789  1
  Mn  Mn7  1  0.27959227  0.93008654  0.61962598  1
  Mn  Mn8  1  0.52315049  0.84323580  0.11846250  1
  Mn  Mn9  1  0.46807563  0.15601952  0.86944170  1
  Mn  Mn10  1  0.75709298  0.06264422  0.37324677  1
  Mn  Mn11  1  0.77334200  0.43133897  0.61994084  1
  Mn  Mn12  1  0.97395500  0.66010498  0.86976147  1
  B  B13  1  0.03864620  0.69485433  0.11931458  1
  B  B14  1  0.25301532  0.88869181  0.37064692  1
  B  B15  1  0.24889143  0.60694036  0.62925497  1
  B  B16  1  0.51669689  0.17327668  0.13198303  1
  B  B17  1  0.48140082  0.81901962  0.86477645  1
  B  B18  1  0.73534520  0.39036246  0.37884087  1
  B  B19  1  0.75795765  0.10740629  0.62583025  1
  B  B20  1  0.96918659  0.31858108  0.87243216  1
  O  O21  1  0.00682271  0.89587325  0.35542537  1
  O  O22  1  0.00103024  0.08100334  0.64240878  1
  O  O23  1  0.25344665  0.65671198  0.17170758  1
  O  O24  1  0.12581251  0.53532841  0.56821319  1
  O  O25  1  0.10303362  0.71336573  0.67440110  1
  O  O26  1  0.36064900  0.27975437  0.15641728  1
  O  O27  1  0.43682171  0.07744608  0.07471427  1
  O  O28  1  0.06934713  0.17541543  0.89184830  1
  O  O29  1  0.07672547  0.42672997  0.90961017  1
  O  O30  1  0.34885959  0.98301955  0.42687739  1
  O  O31  1  0.42549238  0.79312583  0.32835770  1
  O  O32  1  0.25048243  0.85892439  0.81802623  1
  O  O33  1  0.48450728  0.38651393  0.37538008  1
  O  O34  1  0.49106935  0.57923597  0.64438604  1
  O  O35  1  0.75809144  0.15358591  0.16615611  1
  O  O36  1  0.63697679  0.02464587  0.57165115  1
  O  O37  1  0.61402294  0.21632011  0.66547052  1
  O  O38  1  0.90278924  0.81884807  0.12934863  1
  O  O39  1  0.96500268  0.60138665  0.05936116  1
  O  O40  1  0.59631935  0.68770756  0.86476924  1
  O  O41  1  0.57889540  0.92053068  0.91108285  1
  O  O42  1  0.83651382  0.49674189  0.42397388  1
  O  O43  1  0.90863280  0.29654502  0.33585523  1
  O  O44  1  0.74943401  0.35773641  0.81840760  1
