# generated using pymatgen
data_Li2MnF5
_symmetry_space_group_name_H-M   'P 1'
_cell_length_a   7.44089368
_cell_length_b   6.06771166
_cell_length_c   8.51720687
_cell_angle_alpha   90.00000000
_cell_angle_beta   90.00000000
_cell_angle_gamma   90.00000000
_symmetry_Int_Tables_number   1
_chemical_formula_structural   Li2MnF5
_chemical_formula_sum   'Li8 Mn4 F20'
_cell_volume   384.54505378
_cell_formula_units_Z   4
loop_
 _symmetry_equiv_pos_site_id
 _symmetry_equiv_pos_as_xyz
  1  'x, y, z'
loop_
 _atom_site_type_symbol
 _atom_site_label
 _atom_site_symmetry_multiplicity
 _atom_site_fract_x
 _atom_site_fract_y
 _atom_site_fract_z
 _atom_site_occupancy
  Li  Li0  1  0.92232684  0.75607916  0.36875768  1
  Li  Li1  1  0.92035837  0.24397425  0.36302184  1
  Li  Li2  1  0.57964163  0.24397425  0.86302184  1
  Li  Li3  1  0.57767316  0.75607916  0.86875768  1
  Li  Li4  1  0.42232684  0.25607916  0.13124232  1
  Li  Li5  1  0.42035837  0.74397425  0.13697816  1
  Li  Li6  1  0.07964163  0.74397425  0.63697816  1
  Li  Li7  1  0.07767316  0.25607916  0.63124232  1
  Mn  Mn8  1  0.01748626  0.99244378  0.00447710  1
  Mn  Mn9  1  0.48251374  0.99244378  0.50447710  1
  Mn  Mn10  1  0.51748626  0.49244378  0.49552290  1
  Mn  Mn11  1  0.98251374  0.49244378  0.99552290  1
  F  F12  1  0.00366449  0.99922486  0.50869279  1
  F  F13  1  0.08681450  0.49443506  0.79776369  1
  F  F14  1  0.15912281  0.72754157  0.07440784  1
  F  F15  1  0.16040376  0.25782490  0.07183797  1
  F  F16  1  0.12586482  0.98968643  0.81044032  1
  F  F17  1  0.37413518  0.98968643  0.31044032  1
  F  F18  1  0.33959624  0.25782490  0.57183797  1
  F  F19  1  0.34087719  0.72754157  0.57440784  1
  F  F20  1  0.41318550  0.49443506  0.29776369  1
  F  F21  1  0.49633551  0.99922486  0.00869279  1
  F  F22  1  0.50366449  0.49922486  0.99130721  1
  F  F23  1  0.58681450  0.99443506  0.70223631  1
  F  F24  1  0.65912281  0.22754157  0.42559216  1
  F  F25  1  0.66040376  0.75782490  0.42816203  1
  F  F26  1  0.62586482  0.48968643  0.68955968  1
  F  F27  1  0.87413518  0.48968643  0.18955968  1
  F  F28  1  0.83959624  0.75782490  0.92816203  1
  F  F29  1  0.84087719  0.22754157  0.92559216  1
  F  F30  1  0.91318550  0.99443506  0.20223631  1
  F  F31  1  0.99633551  0.49922486  0.49130721  1
