# generated using pymatgen
data_Na2CoO3
_symmetry_space_group_name_H-M   'P 1'
_cell_length_a   5.30889085
_cell_length_b   5.34032207
_cell_length_c   10.93157637
_cell_angle_alpha   84.89505840
_cell_angle_beta   100.31234603
_cell_angle_gamma   119.80549456
_symmetry_Int_Tables_number   1
_chemical_formula_structural   Na2CoO3
_chemical_formula_sum   'Na8 Co4 O12'
_cell_volume   264.58174742
_cell_formula_units_Z   4
loop_
 _symmetry_equiv_pos_site_id
 _symmetry_equiv_pos_as_xyz
  1  'x, y, z'
loop_
 _atom_site_type_symbol
 _atom_site_label
 _atom_site_symmetry_multiplicity
 _atom_site_fract_x
 _atom_site_fract_y
 _atom_site_fract_z
 _atom_site_occupancy
  Na  Na0  1  0.15820644  0.84201549  0.49966262  1
  Na  Na1  1  0.00000000  0.50000000  0.00000000  1
  Na  Na2  1  0.08596502  0.17192904  0.25000000  1
  Na  Na3  1  0.50000000  0.50000000  0.50000000  1
  Na  Na4  1  0.68380906  0.84201549  0.00033738  1
  Na  Na5  1  0.31619094  0.15798451  0.99966262  1
  Na  Na6  1  0.91403498  0.82807096  0.75000000  1
  Na  Na7  1  0.84179356  0.15798451  0.50033738  1
  Co  Co8  1  0.25248645  0.50497290  0.75000000  1
  Co  Co9  1  0.41627423  0.83254847  0.25000000  1
  Co  Co10  1  0.58372577  0.16745153  0.75000000  1
  Co  Co11  1  0.74751355  0.49502710  0.25000000  1
  O  O12  1  0.05798669  0.79514504  0.14921890  1
  O  O13  1  0.32417643  0.81267441  0.84908887  1
  O  O14  1  0.12052878  0.55761925  0.35047526  1
  O  O15  1  0.48849798  0.81267441  0.65091113  1
  O  O16  1  0.26284265  0.20485496  0.64921890  1
  O  O17  1  0.56291052  0.44238075  0.85047526  1
  O  O18  1  0.43708948  0.55761925  0.14952474  1
  O  O19  1  0.73715735  0.79514504  0.35078110  1
  O  O20  1  0.51150202  0.18732559  0.34908887  1
  O  O21  1  0.87947122  0.44238075  0.64952474  1
  O  O22  1  0.67582357  0.18732559  0.15091113  1
  O  O23  1  0.94201331  0.20485496  0.85078110  1
