# generated using pymatgen
data_Li4V3Cr2Fe3O16
_symmetry_space_group_name_H-M   'P 1'
_cell_length_a   5.92176228
_cell_length_b   5.90769917
_cell_length_c   9.58969335
_cell_angle_alpha   89.85902592
_cell_angle_beta   89.19694443
_cell_angle_gamma   119.85877941
_symmetry_Int_Tables_number   1
_chemical_formula_structural   Li4V3Cr2Fe3O16
_chemical_formula_sum   'Li4 V3 Cr2 Fe3 O16'
_cell_volume   290.90592520
_cell_formula_units_Z   1
loop_
 _symmetry_equiv_pos_site_id
 _symmetry_equiv_pos_as_xyz
  1  'x, y, z'
loop_
 _atom_site_type_symbol
 _atom_site_label
 _atom_site_symmetry_multiplicity
 _atom_site_fract_x
 _atom_site_fract_y
 _atom_site_fract_z
 _atom_site_occupancy
  Li  Li0  1  0.33896887  0.66683926  0.89375911  1
  Li  Li1  1  0.99634563  0.00032762  0.99653759  1
  Li  Li2  1  0.00226051  0.99809733  0.49610652  1
  Li  Li3  1  0.67841617  0.34045826  0.39449706  1
  V  V4  1  0.83937993  0.65720800  0.71406696  1
  V  V5  1  0.66146197  0.83089458  0.21207278  1
  V  V6  1  0.82460415  0.15965846  0.71050959  1
  Cr  Cr7  1  0.33223083  0.66748801  0.48433671  1
  Cr  Cr8  1  0.65616460  0.33077064  0.98419329  1
  Fe  Fe9  1  0.17167899  0.83407191  0.21446808  1
  Fe  Fe10  1  0.17004067  0.33902224  0.21431728  1
  Fe  Fe11  1  0.33759028  0.17264248  0.71338692  1
  O  O12  1  0.16306272  0.83420391  0.60138173  1
  O  O13  1  0.04534634  0.52398585  0.34168645  1
  O  O14  1  0.35680845  0.68005656  0.10289108  1
  O  O15  1  0.98134331  0.99086414  0.31021660  1
  O  O16  1  0.99230993  0.99421898  0.81068565  1
  O  O17  1  0.14399994  0.32584293  0.60254084  1
  O  O18  1  0.49697298  0.96290484  0.33884061  1
  O  O19  1  0.49529463  0.53382013  0.33833279  1
  O  O20  1  0.31957842  0.16045570  0.09807108  1
  O  O21  1  0.67297794  0.82721361  0.60695473  1
  O  O22  1  0.51834637  0.47918575  0.84011119  1
  O  O23  1  0.53761367  0.04148383  0.83791885  1
  O  O24  1  0.67232843  0.33780112  0.60100716  1
  O  O25  1  0.81599952  0.66876421  0.10508549  1
  O  O26  1  0.96168949  0.49229612  0.83844498  1
  O  O27  1  0.81718729  0.14972053  0.10541789  1
