# generated using pymatgen
data_CaCu2(WO4)2
_symmetry_space_group_name_H-M   'P 1'
_cell_length_a   6.80178979
_cell_length_b   9.05856117
_cell_length_c   13.18919680
_cell_angle_alpha   90.00000000
_cell_angle_beta   89.30098180
_cell_angle_gamma   90.00000000
_symmetry_Int_Tables_number   1
_chemical_formula_structural   CaCu2(WO4)2
_chemical_formula_sum   'Ca4 Cu8 W8 O32'
_cell_volume   812.58435050
_cell_formula_units_Z   4
loop_
 _symmetry_equiv_pos_site_id
 _symmetry_equiv_pos_as_xyz
  1  'x, y, z'
loop_
 _atom_site_type_symbol
 _atom_site_label
 _atom_site_symmetry_multiplicity
 _atom_site_fract_x
 _atom_site_fract_y
 _atom_site_fract_z
 _atom_site_occupancy
  Ca  Ca0  1  0.12194855  0.16426342  0.04741263  1
  Ca  Ca1  1  0.87805145  0.83573658  0.95258737  1
  Ca  Ca2  1  0.87805145  0.66426342  0.45258737  1
  Ca  Ca3  1  0.12194855  0.33573658  0.54741263  1
  Cu  Cu4  1  0.76539910  0.19036079  0.86086549  1
  Cu  Cu5  1  0.38713563  0.04861380  0.62140592  1
  Cu  Cu6  1  0.61286437  0.95138620  0.37859408  1
  Cu  Cu7  1  0.23460090  0.80963921  0.13913451  1
  Cu  Cu8  1  0.76539910  0.30963921  0.36086549  1
  Cu  Cu9  1  0.38713563  0.45138620  0.12140592  1
  Cu  Cu10  1  0.23460090  0.69036079  0.63913451  1
  Cu  Cu11  1  0.61286437  0.54861380  0.87859408  1
  W  W12  1  0.09430137  0.45751475  0.84459361  1
  W  W13  1  0.09430137  0.04248525  0.34459361  1
  W  W14  1  0.60652380  0.07721056  0.13679381  1
  W  W15  1  0.90569863  0.95751475  0.65540639  1
  W  W16  1  0.39347620  0.92278944  0.86320619  1
  W  W17  1  0.39347620  0.57721056  0.36320619  1
  W  W18  1  0.60652380  0.42278944  0.63679381  1
  W  W19  1  0.90569863  0.54248525  0.15540639  1
  O  O20  1  0.02525756  0.22883037  0.39091462  1
  O  O21  1  0.66820203  0.00305340  0.60353099  1
  O  O22  1  0.18942959  0.56625178  0.45622582  1
  O  O23  1  0.81057041  0.06625178  0.04377418  1
  O  O24  1  0.02525756  0.27116963  0.89091462  1
  O  O25  1  0.97474244  0.77116963  0.60908538  1
  O  O26  1  0.08891114  0.09497604  0.61096656  1
  O  O27  1  0.48888040  0.89829041  0.13356574  1
  O  O28  1  0.48888040  0.60170959  0.63356574  1
  O  O29  1  0.30656953  0.88106815  0.73562262  1
  O  O30  1  0.69343047  0.38106815  0.76437738  1
  O  O31  1  0.51111960  0.10170959  0.86643426  1
  O  O32  1  0.91108886  0.90502396  0.38903344  1
  O  O33  1  0.87852758  0.53809437  0.29256872  1
  O  O34  1  0.43502301  0.27984781  0.59700995  1
  O  O35  1  0.43502301  0.22015219  0.09700995  1
  O  O36  1  0.12147242  0.03809437  0.20743128  1
  O  O37  1  0.51111960  0.39829041  0.36643426  1
  O  O38  1  0.12147242  0.46190563  0.70743128  1
  O  O39  1  0.81057041  0.43374822  0.54377418  1
  O  O40  1  0.66820203  0.49694660  0.10353099  1
  O  O41  1  0.69343047  0.11893185  0.26437738  1
  O  O42  1  0.97474244  0.72883037  0.10908538  1
  O  O43  1  0.08891114  0.40502396  0.11096656  1
  O  O44  1  0.18942959  0.93374822  0.95622582  1
  O  O45  1  0.56497699  0.77984781  0.90299005  1
  O  O46  1  0.33179797  0.99694660  0.39646901  1
  O  O47  1  0.33179797  0.50305340  0.89646901  1
  O  O48  1  0.91108886  0.59497604  0.88903344  1
  O  O49  1  0.56497699  0.72015219  0.40299005  1
  O  O50  1  0.30656953  0.61893185  0.23562262  1
  O  O51  1  0.87852758  0.96190563  0.79256872  1
