# generated using pymatgen
data_Mn3Cu2Ni(PO4)6
_symmetry_space_group_name_H-M   'P 1'
_cell_length_a   8.50962201
_cell_length_b   8.50962188
_cell_length_c   8.50962193
_cell_angle_alpha   60.15069759
_cell_angle_beta   60.15069372
_cell_angle_gamma   60.15069620
_symmetry_Int_Tables_number   1
_chemical_formula_structural   Mn3Cu2Ni(PO4)6
_chemical_formula_sum   'Mn3 Cu2 Ni1 P6 O24'
_cell_volume   437.21564411
_cell_formula_units_Z   1
loop_
 _symmetry_equiv_pos_site_id
 _symmetry_equiv_pos_as_xyz
  1  'x, y, z'
loop_
 _atom_site_type_symbol
 _atom_site_label
 _atom_site_symmetry_multiplicity
 _atom_site_fract_x
 _atom_site_fract_y
 _atom_site_fract_z
 _atom_site_occupancy
  Mn  Mn0  1  0.14193375  0.14193375  0.14193375  1
  Mn  Mn1  1  0.35784071  0.35784071  0.35784071  1
  Mn  Mn2  1  0.64219197  0.64219197  0.64219197  1
  Cu  Cu3  1  0.99766785  0.99766785  0.99766785  1
  Cu  Cu4  1  0.49918503  0.49918503  0.49918503  1
  Ni  Ni5  1  0.85806964  0.85806964  0.85806964  1
  P  P6  1  0.03994603  0.75107375  0.45873793  1
  P  P7  1  0.45873793  0.03994603  0.75107375  1
  P  P8  1  0.75107375  0.45873793  0.03994603  1
  P  P9  1  0.25063413  0.54061719  0.96245150  1
  P  P10  1  0.54061719  0.96245150  0.25063413  1
  P  P11  1  0.96245150  0.25063413  0.54061719  1
  O  O12  1  0.12371316  0.31111409  0.50261314  1
  O  O13  1  0.31111409  0.50261314  0.12371316  1
  O  O14  1  0.05482199  0.91693601  0.25755034  1
  O  O15  1  0.50261314  0.12371316  0.31111409  1
  O  O16  1  0.01561956  0.80704146  0.61263095  1
  O  O17  1  0.23966294  0.58178102  0.43793779  1
  O  O18  1  0.25755034  0.05482199  0.91693601  1
  O  O19  1  0.43793779  0.23966294  0.58178102  1
  O  O20  1  0.19532020  0.37879417  0.99195718  1
  O  O21  1  0.58178102  0.43793779  0.23966294  1
  O  O22  1  0.09003472  0.73714433  0.94622771  1
  O  O23  1  0.37879417  0.99195718  0.19532020  1
  O  O24  1  0.61263095  0.01561956  0.80704146  1
  O  O25  1  0.91693601  0.25755034  0.05482199  1
  O  O26  1  0.42144934  0.54964129  0.76458426  1
  O  O27  1  0.80704146  0.61263095  0.01561956  1
  O  O28  1  0.54964129  0.76458426  0.42144934  1
  O  O29  1  0.73714433  0.94622771  0.09003472  1
  O  O30  1  0.76458426  0.42144934  0.54964129  1
  O  O31  1  0.99195718  0.19532020  0.37879417  1
  O  O32  1  0.48934833  0.87789980  0.69582773  1
  O  O33  1  0.94622771  0.09003472  0.73714433  1
  O  O34  1  0.69582773  0.48934833  0.87789980  1
  O  O35  1  0.87789980  0.69582773  0.48934833  1
