# generated using pymatgen
data_Zn3Cr3(AsO4)4
_symmetry_space_group_name_H-M   'P 1'
_cell_length_a   5.25985571
_cell_length_b   8.80333622
_cell_length_c   15.22486046
_cell_angle_alpha   101.01851864
_cell_angle_beta   90.00000000
_cell_angle_gamma   90.00000000
_symmetry_Int_Tables_number   1
_chemical_formula_structural   Zn3Cr3(AsO4)4
_chemical_formula_sum   'Zn6 Cr6 As8 O32'
_cell_volume   691.98026485
_cell_formula_units_Z   2
loop_
 _symmetry_equiv_pos_site_id
 _symmetry_equiv_pos_as_xyz
  1  'x, y, z'
loop_
 _atom_site_type_symbol
 _atom_site_label
 _atom_site_symmetry_multiplicity
 _atom_site_fract_x
 _atom_site_fract_y
 _atom_site_fract_z
 _atom_site_occupancy
  Zn  Zn0  1  0.97385934  0.00528440  0.73095566  1
  Zn  Zn1  1  0.47385934  0.49471560  0.76904434  1
  Zn  Zn2  1  0.02614066  0.99471560  0.26904434  1
  Zn  Zn3  1  0.52614066  0.50528440  0.23095566  1
  Zn  Zn4  1  -0.00000000  -0.00000000  -0.00000000  1
  Zn  Zn5  1  0.50000000  0.50000000  0.50000000  1
  Cr  Cr6  1  0.99153587  0.33165554  0.12117307  1
  Cr  Cr7  1  0.00846413  0.66834446  0.87882693  1
  Cr  Cr8  1  0.49153587  0.16834446  0.37882693  1
  Cr  Cr9  1  0.50846413  0.83165554  0.62117307  1
  Cr  Cr10  1  0.50000000  0.50000000  -0.00000000  1
  Cr  Cr11  1  -0.00000000  -0.00000000  0.50000000  1
  As  As12  1  0.51531191  0.88679300  0.85050649  1
  As  As13  1  0.99841225  0.31138526  0.89584805  1
  As  As14  1  0.49841225  0.18861474  0.60415195  1
  As  As15  1  0.50158775  0.81138526  0.39584805  1
  As  As16  1  0.48468809  0.11320700  0.14949351  1
  As  As17  1  0.00158775  0.68861474  0.10415195  1
  As  As18  1  0.98468809  0.38679300  0.35050649  1
  As  As19  1  0.01531191  0.61320700  0.64949351  1
  O  O20  1  0.10758316  0.56582820  0.75177978  1
  O  O21  1  0.55664197  0.26759272  0.50990630  1
  O  O22  1  0.09371516  0.19630380  0.79988200  1
  O  O23  1  0.10755515  0.80725907  0.65394810  1
  O  O24  1  0.90628484  0.80369620  0.20011800  1
  O  O25  1  0.39241684  0.06582820  0.25177978  1
  O  O26  1  0.59371516  0.30369620  0.70011800  1
  O  O27  1  0.79968685  0.89004171  0.39154432  1
  O  O28  1  0.81700608  0.51047233  0.42719020  1
  O  O29  1  0.89241684  0.43417180  0.24822022  1
  O  O30  1  0.39244485  0.30725907  0.15394810  1
  O  O31  1  0.20031315  0.10995829  0.60845568  1
  O  O32  1  0.20124698  0.47480231  0.91128842  1
  O  O33  1  0.18299292  0.48952767  0.57280980  1
  O  O34  1  0.81101518  0.10575522  0.13704972  1
  O  O35  1  0.31101518  0.39424478  0.36295028  1
  O  O36  1  0.70124698  0.02519769  0.58871158  1
  O  O37  1  0.40628484  0.69630380  0.29988200  1
  O  O38  1  0.31700708  0.98952767  0.07280980  1
  O  O39  1  0.29968685  0.60995829  0.10845568  1
  O  O40  1  0.68898482  0.60575522  0.63704972  1
  O  O41  1  0.18898482  0.89424478  0.86295028  1
  O  O42  1  0.44335803  0.73240728  0.49009370  1
  O  O43  1  0.05664197  0.23240728  0.99009370  1
  O  O44  1  0.79875302  0.52519769  0.08871158  1
  O  O45  1  0.60758316  0.93417180  0.74822022  1
  O  O46  1  0.89244485  0.19274093  0.34605190  1
  O  O47  1  0.68299392  0.01047233  0.92719020  1
  O  O48  1  0.94335803  0.76759272  0.00990630  1
  O  O49  1  0.70031315  0.39004171  0.89154432  1
  O  O50  1  0.29875302  0.97480231  0.41128842  1
  O  O51  1  0.60755515  0.69274093  0.84605190  1
