# generated using pymatgen
data_Li4MnNi5O12
_symmetry_space_group_name_H-M   'P 1'
_cell_length_a   5.04849246
_cell_length_b   4.93817709
_cell_length_c   10.00516666
_cell_angle_alpha   89.03715740
_cell_angle_beta   88.09803050
_cell_angle_gamma   59.26535889
_symmetry_Int_Tables_number   1
_chemical_formula_structural   Li4MnNi5O12
_chemical_formula_sum   'Li4 Mn1 Ni5 O12'
_cell_volume   214.27978057
_cell_formula_units_Z   1
loop_
 _symmetry_equiv_pos_site_id
 _symmetry_equiv_pos_as_xyz
  1  'x, y, z'
loop_
 _atom_site_type_symbol
 _atom_site_label
 _atom_site_symmetry_multiplicity
 _atom_site_fract_x
 _atom_site_fract_y
 _atom_site_fract_z
 _atom_site_occupancy
  Li  Li0  1  0.14168339  0.50720935  0.75024841  1
  Li  Li1  1  0.35096027  0.50737968  0.24974172  1
  Li  Li2  1  0.65047103  0.49231861  0.75097378  1
  Li  Li3  1  0.85713684  0.49251571  0.24903026  1
  Mn  Mn4  1  0.00015429  0.99988000  -0.00000600  1
  Ni  Ni5  1  0.16249652  0.67487993  0.50001581  1
  Ni  Ni6  1  0.66524458  0.66941253  0.00001370  1
  Ni  Ni7  1  0.33509131  0.32989815  0.99998406  1
  Ni  Ni8  1  0.83319280  0.33355837  0.49997366  1
  Ni  Ni9  1  0.50093714  0.99808392  0.49999856  1
  O  O10  1  0.02450587  0.65944978  0.10790232  1
  O  O11  1  0.31608487  0.65936860  0.89207713  1
  O  O12  1  0.15362428  0.35301756  0.39832618  1
  O  O13  1  0.53595187  0.64073659  0.39173866  1
  O  O14  1  0.49343897  0.35273295  0.60162083  1
  O  O15  1  0.16234992  0.00535349  0.59406629  1
  O  O16  1  0.82354426  0.64051668  0.60836789  1
  O  O17  1  0.68404025  0.33958826  0.10748728  1
  O  O18  1  0.32688166  0.99974490  0.09675254  1
  O  O19  1  0.97640443  0.33948372  0.89253141  1
  O  O20  1  0.67344680  0.99961200  0.90324159  1
  O  O21  1  0.83235566  0.00526023  0.40591294  1
