# generated using pymatgen
data_Li7(CoO3)2
_symmetry_space_group_name_H-M   'P 1'
_cell_length_a   5.28860679
_cell_length_b   5.35241312
_cell_length_c   5.84703042
_cell_angle_alpha   63.06259737
_cell_angle_beta   92.60241345
_cell_angle_gamma   97.73981821
_symmetry_Int_Tables_number   1
_chemical_formula_structural   Li7(CoO3)2
_chemical_formula_sum   'Li7 Co2 O6'
_cell_volume   146.18613433
_cell_formula_units_Z   1
loop_
 _symmetry_equiv_pos_site_id
 _symmetry_equiv_pos_as_xyz
  1  'x, y, z'
loop_
 _atom_site_type_symbol
 _atom_site_label
 _atom_site_symmetry_multiplicity
 _atom_site_fract_x
 _atom_site_fract_y
 _atom_site_fract_z
 _atom_site_occupancy
  Li  Li0  1  0.14406558  0.53681101  0.14929795  1
  Li  Li1  1  0.11976393  0.01034451  0.81164290  1
  Li  Li2  1  0.50738978  0.16451384  0.05968388  1
  Li  Li3  1  0.60103314  0.72795540  0.83862284  1
  Li  Li4  1  0.96396769  0.06270874  0.37498523  1
  Li  Li5  1  0.81483008  0.78173322  0.17466438  1
  Li  Li6  1  0.89791617  0.42690153  0.82920290  1
  Co  Co7  1  0.61910596  0.30277585  0.49939187  1
  Co  Co8  1  0.31198099  0.67389780  0.49837142  1
  O  O9  1  0.18642222  0.90733744  0.18587392  1
  O  O10  1  0.23094899  0.64327935  0.80797975  1
  O  O11  1  0.24822038  0.30697257  0.48887638  1
  O  O12  1  0.68618499  0.70492047  0.51117654  1
  O  O13  1  0.76421085  0.40957041  0.15579204  1
  O  O14  1  0.74123924  0.07200485  0.84052599  1
