# generated using pymatgen
data_Fe5(OF4)2
_symmetry_space_group_name_H-M   'P 1'
_cell_length_a   4.83458997
_cell_length_b   8.00215686
_cell_length_c   10.14961931
_cell_angle_alpha   109.08904246
_cell_angle_beta   92.43009197
_cell_angle_gamma   88.82949424
_symmetry_Int_Tables_number   1
_chemical_formula_structural   Fe5(OF4)2
_chemical_formula_sum   'Fe10 O4 F16'
_cell_volume   370.72537858
_cell_formula_units_Z   2
loop_
 _symmetry_equiv_pos_site_id
 _symmetry_equiv_pos_as_xyz
  1  'x, y, z'
loop_
 _atom_site_type_symbol
 _atom_site_label
 _atom_site_symmetry_multiplicity
 _atom_site_fract_x
 _atom_site_fract_y
 _atom_site_fract_z
 _atom_site_occupancy
  Fe  Fe0  1  0.48696076  0.29916549  0.89117786  1
  Fe  Fe1  1  0.50264887  0.10052535  0.30624605  1
  Fe  Fe2  1  0.49725149  0.89948955  0.69369060  1
  Fe  Fe3  1  0.51327107  0.70079468  0.10882516  1
  Fe  Fe4  1  0.49997356  0.49995551  0.49993022  1
  Fe  Fe5  1  0.96757557  0.60845539  0.78737918  1
  Fe  Fe6  1  0.02606364  0.19228251  0.61107797  1
  Fe  Fe7  1  0.97395820  0.80775754  0.38893159  1
  Fe  Fe8  1  0.03248708  0.39155267  0.21253355  1
  Fe  Fe9  1  -0.00004822  -0.00004476  0.00004583  1
  O  O10  1  0.68707357  0.67013106  0.67728006  1
  O  O11  1  0.68687181  0.88088225  0.27504675  1
  O  O12  1  0.31274409  0.11901027  0.72502762  1
  O  O13  1  0.31287596  0.32983830  0.32268263  1
  F  F14  1  0.81418977  0.75026340  0.96967971  1
  F  F15  1  0.79184048  0.95553256  0.58194953  1
  F  F16  1  0.81428100  0.54926122  0.36663448  1
  F  F17  1  0.81245428  0.37865135  0.78646151  1
  F  F18  1  0.80040132  0.17315726  0.18363463  1
  F  F19  1  0.70165451  0.04580715  0.87623414  1
  F  F20  1  0.70776159  0.44682728  0.07711702  1
  F  F21  1  0.71215336  0.24864796  0.48176101  1
  F  F22  1  0.28783655  0.75131445  0.51821689  1
  F  F23  1  0.29834741  0.95426933  0.12366607  1
  F  F24  1  0.29269227  0.55340644  0.92305051  1
  F  F25  1  0.18563335  0.45072858  0.63340863  1
  F  F26  1  0.20813195  0.04445892  0.41800718  1
  F  F27  1  0.19964670  0.82684411  0.81638246  1
  F  F28  1  0.18594255  0.24965626  0.03015821  1
  F  F29  1  0.18732546  0.62137794  0.21376194  1
