# generated using pymatgen
data_LiMnF4
_symmetry_space_group_name_H-M   'P 1'
_cell_length_a   3.98063456
_cell_length_b   7.88056719
_cell_length_c   12.54865248
_cell_angle_alpha   58.26905121
_cell_angle_beta   90.00000000
_cell_angle_gamma   75.37094284
_symmetry_Int_Tables_number   1
_chemical_formula_structural   LiMnF4
_chemical_formula_sum   'Li4 Mn4 F16'
_cell_volume   319.70574206
_cell_formula_units_Z   4
loop_
 _symmetry_equiv_pos_site_id
 _symmetry_equiv_pos_as_xyz
  1  'x, y, z'
loop_
 _atom_site_type_symbol
 _atom_site_label
 _atom_site_symmetry_multiplicity
 _atom_site_fract_x
 _atom_site_fract_y
 _atom_site_fract_z
 _atom_site_occupancy
  Li  Li0  1  0.81409725  0.37180650  0.83273283  1
  Li  Li1  1  0.64933262  0.70133577  0.32784010  1
  Li  Li2  1  0.35066738  0.29866523  0.67215990  1
  Li  Li3  1  0.18590275  0.62819350  0.16726717  1
  Mn  Mn4  1  0.04391425  0.91217149  0.87168732  1
  Mn  Mn5  1  0.14572089  0.70855821  0.64346044  1
  Mn  Mn6  1  0.85427911  0.29144179  0.35653956  1
  Mn  Mn7  1  0.95608575  0.08782851  0.12831268  1
  F  F8  1  0.52942224  0.94115552  0.85190543  1
  F  F9  1  0.09517580  0.80964739  0.75070733  1
  F  F10  1  0.17706462  0.64587075  0.00894156  1
  F  F11  1  0.66431070  0.67137959  0.66534411  1
  F  F12  1  0.29801911  0.40396178  0.78870369  1
  F  F13  1  0.19846839  0.60306421  0.54136859  1
  F  F14  1  0.09949115  0.80101771  0.26448465  1
  F  F15  1  0.90050885  0.19898229  0.73551535  1
  F  F16  1  0.80153161  0.39693579  0.45863141  1
  F  F17  1  0.70198089  0.59603822  0.21129631  1
  F  F18  1  0.33568930  0.32862041  0.33465589  1
  F  F19  1  0.82293538  0.35412925  0.99105844  1
  F  F20  1  0.00000000  0.00000000  0.50000000  1
  F  F21  1  0.90482420  0.19035261  0.24929267  1
  F  F22  1  0.47057776  0.05884448  0.14809457  1
  F  F23  1  0.00000000  0.00000000  0.00000000  1
