# generated using pymatgen
data_Li3V(BO3)2
_symmetry_space_group_name_H-M   'P 1'
_cell_length_a   6.93879817
_cell_length_b   5.03412184
_cell_length_c   8.40481033
_cell_angle_alpha   89.86185265
_cell_angle_beta   67.92146667
_cell_angle_gamma   91.26321787
_symmetry_Int_Tables_number   1
_chemical_formula_structural   Li3V(BO3)2
_chemical_formula_sum   'Li6 V2 B4 O12'
_cell_volume   271.97329357
_cell_formula_units_Z   2
loop_
 _symmetry_equiv_pos_site_id
 _symmetry_equiv_pos_as_xyz
  1  'x, y, z'
loop_
 _atom_site_type_symbol
 _atom_site_label
 _atom_site_symmetry_multiplicity
 _atom_site_fract_x
 _atom_site_fract_y
 _atom_site_fract_z
 _atom_site_occupancy
  Li  Li0  1  0.26247172  0.88749737  0.17870145  1
  Li  Li1  1  0.40891355  0.66263603  0.43485884  1
  Li  Li2  1  0.43359534  0.84435004  0.73053558  1
  Li  Li3  1  0.56640466  0.15564996  0.26946442  1
  Li  Li4  1  0.59108645  0.33736397  0.56514116  1
  Li  Li5  1  0.73752828  0.11250263  0.82129855  1
  V  V6  1  0.03220778  0.60903735  0.78984635  1
  V  V7  1  0.96779222  0.39096265  0.21015365  1
  B  B8  1  0.18863328  0.14436268  0.59139552  1
  B  B9  1  0.67582998  0.67167794  0.07626881  1
  B  B10  1  0.32417002  0.32832206  0.92373119  1
  B  B11  1  0.81136672  0.85563732  0.40860448  1
  O  O12  1  0.99413650  0.72984752  0.30417659  1
  O  O13  1  0.22971995  0.22345522  0.08998053  1
  O  O14  1  0.19849701  0.87048291  0.61717205  1
  O  O15  1  0.35272842  0.28198697  0.47601637  1
  O  O16  1  0.51831952  0.79537953  0.19884913  1
  O  O17  1  0.24048150  0.57070980  0.89553074  1
  O  O18  1  0.75951850  0.42929020  0.10446926  1
  O  O19  1  0.48168048  0.20462047  0.80115087  1
  O  O20  1  0.64727158  0.71801303  0.52398363  1
  O  O21  1  0.80150299  0.12951709  0.38282795  1
  O  O22  1  0.77028005  0.77654478  0.91001947  1
  O  O23  1  0.00586350  0.27015248  0.69582341  1
