# generated using pymatgen
data_NaBi5O8
_symmetry_space_group_name_H-M   'P 1'
_cell_length_a   8.35138972
_cell_length_b   16.42652581
_cell_length_c   7.91048996
_cell_angle_alpha   90.00000000
_cell_angle_beta   84.35854796
_cell_angle_gamma   90.00000000
_symmetry_Int_Tables_number   1
_chemical_formula_structural   NaBi5O8
_chemical_formula_sum   'Na4 Bi20 O32'
_cell_volume   1079.93907664
_cell_formula_units_Z   4
loop_
 _symmetry_equiv_pos_site_id
 _symmetry_equiv_pos_as_xyz
  1  'x, y, z'
loop_
 _atom_site_type_symbol
 _atom_site_label
 _atom_site_symmetry_multiplicity
 _atom_site_fract_x
 _atom_site_fract_y
 _atom_site_fract_z
 _atom_site_occupancy
  Na  Na0  1  0.08101269  0.48411474  0.05535464  1
  Na  Na1  1  0.35420968  0.95408820  0.25950522  1
  Na  Na2  1  0.58101269  0.51588526  0.55535464  1
  Na  Na3  1  0.85420968  0.04591180  0.75950522  1
  Bi  Bi4  1  0.02526063  0.44429835  0.46566893  1
  Bi  Bi5  1  0.10159321  0.20429129  0.28925490  1
  Bi  Bi6  1  0.10694903  0.20788722  0.74598288  1
  Bi  Bi7  1  0.26424147  0.72864683  0.05734909  1
  Bi  Bi8  1  0.27246589  0.95821993  0.68862565  1
  Bi  Bi9  1  0.28224293  0.71925063  0.50913511  1
  Bi  Bi10  1  0.42522354  0.36299091  0.80269992  1
  Bi  Bi11  1  0.41104055  0.34772884  0.26831896  1
  Bi  Bi12  1  0.45366869  0.14621843  0.00106747  1
  Bi  Bi13  1  0.46327678  0.13815602  0.45506250  1
  Bi  Bi14  1  0.52526063  0.55570165  0.96566893  1
  Bi  Bi15  1  0.60159321  0.79570871  0.78925490  1
  Bi  Bi16  1  0.60694903  0.79211278  0.24598288  1
  Bi  Bi17  1  0.76424147  0.27135317  0.55734909  1
  Bi  Bi18  1  0.78224293  0.28074937  0.00913511  1
  Bi  Bi19  1  0.77246589  0.04178007  0.18862565  1
  Bi  Bi20  1  0.91104055  0.65227116  0.76831896  1
  Bi  Bi21  1  0.92522354  0.63700909  0.30269992  1
  Bi  Bi22  1  0.95366869  0.85378157  0.50106747  1
  Bi  Bi23  1  0.96327678  0.86184398  0.95506250  1
  O  O24  1  0.12456337  0.95425917  0.48456229  1
  O  O25  1  0.10785803  0.75679478  0.33348598  1
  O  O26  1  0.04843583  0.60351580  0.51805911  1
  O  O27  1  0.07909835  0.97809977  0.88397936  1
  O  O28  1  0.10498003  0.61973673  0.09102340  1
  O  O29  1  0.10568141  0.79896742  0.68270207  1
  O  O30  1  0.27405181  0.27733665  0.10138511  1
  O  O31  1  0.23792730  0.44608477  0.28966248  1
  O  O32  1  0.30930614  0.10708524  0.25963265  1
  O  O33  1  0.26221214  0.25483413  0.46264697  1
  O  O34  1  0.38214362  0.49569928  0.79300687  1
  O  O35  1  0.30368280  0.08901285  0.67130689  1
  O  O36  1  0.44268607  0.67352675  0.85939754  1
  O  O37  1  0.42465738  0.68599178  0.24163070  1
  O  O38  1  0.46370982  0.84144851  0.06558181  1
  O  O39  1  0.42941284  0.82921321  0.45924353  1
  O  O40  1  0.60785803  0.24320522  0.83348598  1
  O  O41  1  0.62456337  0.04574083  0.98456229  1
  O  O42  1  0.60498003  0.38026327  0.59102340  1
  O  O43  1  0.54843583  0.39648420  0.01805911  1
  O  O44  1  0.57909835  0.02190023  0.38397936  1
  O  O45  1  0.60568141  0.20103258  0.18270207  1
  O  O46  1  0.77405181  0.72266335  0.60138511  1
  O  O47  1  0.73792730  0.55391523  0.78966248  1
  O  O48  1  0.80930614  0.89291476  0.75963265  1
  O  O49  1  0.76221214  0.74516587  0.96264697  1
  O  O50  1  0.88214362  0.50430072  0.29300687  1
  O  O51  1  0.80368280  0.91098715  0.17130689  1
  O  O52  1  0.94268607  0.32647325  0.35939754  1
  O  O53  1  0.92465738  0.31400822  0.74163070  1
  O  O54  1  0.96370982  0.15855149  0.56558181  1
  O  O55  1  0.92941284  0.17078679  0.95924353  1
