# generated using pymatgen
data_Li5LaO4
_symmetry_space_group_name_H-M   'P 1'
_cell_length_a   9.08640159
_cell_length_b   9.53464066
_cell_length_c   10.03408510
_cell_angle_alpha   90.00000000
_cell_angle_beta   90.00000000
_cell_angle_gamma   90.00000000
_symmetry_Int_Tables_number   1
_chemical_formula_structural   Li5LaO4
_chemical_formula_sum   'Li40 La8 O32'
_cell_volume   869.30872274
_cell_formula_units_Z   8
loop_
 _symmetry_equiv_pos_site_id
 _symmetry_equiv_pos_as_xyz
  1  'x, y, z'
loop_
 _atom_site_type_symbol
 _atom_site_label
 _atom_site_symmetry_multiplicity
 _atom_site_fract_x
 _atom_site_fract_y
 _atom_site_fract_z
 _atom_site_occupancy
  Li  Li0  1  0.12695457  0.56853508  0.13094161  1
  Li  Li1  1  0.12695457  0.93146492  0.63094161  1
  Li  Li2  1  0.12532485  0.13288837  0.86380516  1
  Li  Li3  1  0.12532485  0.36711163  0.36380516  1
  Li  Li4  1  0.12885376  0.87715734  0.40593003  1
  Li  Li5  1  0.12885376  0.62284266  0.90593003  1
  Li  Li6  1  0.13664588  0.84863644  0.14442907  1
  Li  Li7  1  0.13664588  0.65136356  0.64442907  1
  Li  Li8  1  0.18675875  0.12436537  0.42448446  1
  Li  Li9  1  0.18675875  0.37563463  0.92448446  1
  Li  Li10  1  0.31324125  0.87563463  0.92448446  1
  Li  Li11  1  0.31324125  0.62436537  0.42448446  1
  Li  Li12  1  0.36335412  0.15136356  0.64442907  1
  Li  Li13  1  0.36335412  0.34863644  0.14442907  1
  Li  Li14  1  0.37114624  0.12284266  0.90593003  1
  Li  Li15  1  0.37114624  0.37715734  0.40593003  1
  Li  Li16  1  0.37467515  0.63288837  0.86380516  1
  Li  Li17  1  0.37467515  0.86711163  0.36380516  1
  Li  Li18  1  0.37304543  0.06853508  0.13094161  1
  Li  Li19  1  0.37304543  0.43146492  0.63094161  1
  Li  Li20  1  0.62695457  0.56853508  0.36905839  1
  Li  Li21  1  0.62695457  0.93146492  0.86905839  1
  Li  Li22  1  0.62532485  0.13288837  0.63619484  1
  Li  Li23  1  0.62532485  0.36711163  0.13619484  1
  Li  Li24  1  0.62885376  0.62284266  0.59406997  1
  Li  Li25  1  0.62885376  0.87715734  0.09406997  1
  Li  Li26  1  0.63664588  0.65136356  0.85557093  1
  Li  Li27  1  0.63664588  0.84863644  0.35557093  1
  Li  Li28  1  0.68675875  0.12436537  0.07551554  1
  Li  Li29  1  0.68675875  0.37563463  0.57551554  1
  Li  Li30  1  0.81324125  0.62436537  0.07551554  1
  Li  Li31  1  0.81324125  0.87563463  0.57551554  1
  Li  Li32  1  0.86335412  0.34863644  0.35557093  1
  Li  Li33  1  0.86335412  0.15136356  0.85557093  1
  Li  Li34  1  0.87114624  0.12284266  0.59406997  1
  Li  Li35  1  0.87114624  0.37715734  0.09406997  1
  Li  Li36  1  0.87467515  0.63288837  0.63619484  1
  Li  Li37  1  0.87467515  0.86711163  0.13619484  1
  Li  Li38  1  0.87304543  0.06853508  0.36905839  1
  Li  Li39  1  0.87304543  0.43146492  0.86905839  1
  La  La40  1  0.05181334  0.15932728  0.15564575  1
  La  La41  1  0.05181334  0.34067272  0.65564575  1
  La  La42  1  0.44818666  0.65932728  0.15564575  1
  La  La43  1  0.44818666  0.84067272  0.65564575  1
  La  La44  1  0.55181334  0.15932728  0.34435425  1
  La  La45  1  0.55181334  0.34067272  0.84435425  1
  La  La46  1  0.94818666  0.65932728  0.34435425  1
  La  La47  1  0.94818666  0.84067272  0.84435425  1
  O  O48  1  0.99800149  0.21944083  0.45490986  1
  O  O49  1  0.99800149  0.28055917  0.95490986  1
  O  O50  1  0.00215145  0.94871464  0.26641458  1
  O  O51  1  0.00215145  0.55128536  0.76641458  1
  O  O52  1  0.21126663  0.02261129  0.01259890  1
  O  O53  1  0.21126663  0.47738871  0.51259890  1
  O  O54  1  0.27217456  0.22440847  0.27821618  1
  O  O55  1  0.27217456  0.27559153  0.77821618  1
  O  O56  1  0.22782544  0.72440847  0.27821618  1
  O  O57  1  0.22782544  0.77559153  0.77821618  1
  O  O58  1  0.28873337  0.52261129  0.01259890  1
  O  O59  1  0.28873337  0.97738871  0.51259890  1
  O  O60  1  0.49784855  0.44871464  0.26641458  1
  O  O61  1  0.49784855  0.05128536  0.76641458  1
  O  O62  1  0.50199851  0.71944083  0.45490986  1
  O  O63  1  0.50199851  0.78055917  0.95490986  1
  O  O64  1  0.49800149  0.21944083  0.04509014  1
  O  O65  1  0.49800149  0.28055917  0.54509014  1
  O  O66  1  0.50215145  0.94871464  0.23358542  1
  O  O67  1  0.50215145  0.55128536  0.73358542  1
  O  O68  1  0.71126663  0.02261129  0.48740110  1
  O  O69  1  0.71126663  0.47738871  0.98740110  1
  O  O70  1  0.77217456  0.22440847  0.22178382  1
  O  O71  1  0.77217456  0.27559153  0.72178382  1
  O  O72  1  0.72782544  0.72440847  0.22178382  1
  O  O73  1  0.72782544  0.77559153  0.72178382  1
  O  O74  1  0.78873337  0.97738871  0.98740110  1
  O  O75  1  0.78873337  0.52261129  0.48740110  1
  O  O76  1  0.99784855  0.05128536  0.73358542  1
  O  O77  1  0.99784855  0.44871464  0.23358542  1
  O  O78  1  0.00199851  0.71944083  0.04509014  1
  O  O79  1  0.00199851  0.78055917  0.54509014  1
