# generated using pymatgen
data_Mn12O5F19
_symmetry_space_group_name_H-M   'P 1'
_cell_length_a   4.82217781
_cell_length_b   5.86430504
_cell_length_c   16.05311890
_cell_angle_alpha   90.17774635
_cell_angle_beta   89.86317602
_cell_angle_gamma   88.30239751
_symmetry_Int_Tables_number   1
_chemical_formula_structural   Mn12O5F19
_chemical_formula_sum   'Mn12 O5 F19'
_cell_volume   453.75885720
_cell_formula_units_Z   1
loop_
 _symmetry_equiv_pos_site_id
 _symmetry_equiv_pos_as_xyz
  1  'x, y, z'
loop_
 _atom_site_type_symbol
 _atom_site_label
 _atom_site_symmetry_multiplicity
 _atom_site_fract_x
 _atom_site_fract_y
 _atom_site_fract_z
 _atom_site_occupancy
  Mn  Mn0  1  0.99091172  0.17811827  0.41343083  1
  Mn  Mn1  1  0.98358977  0.85670504  0.25005299  1
  Mn  Mn2  1  0.99271161  0.16547520  0.09096715  1
  Mn  Mn3  1  0.99049513  0.16981627  0.74106837  1
  Mn  Mn4  1  0.00815831  0.85512657  0.58191582  1
  Mn  Mn5  1  0.02453527  0.83192735  0.91833677  1
  Mn  Mn6  1  0.48882893  0.32392909  0.59496754  1
  Mn  Mn7  1  0.48818410  0.35551159  0.91809376  1
  Mn  Mn8  1  0.53238770  0.33895586  0.25243671  1
  Mn  Mn9  1  0.49182559  0.66367901  0.07704637  1
  Mn  Mn10  1  0.51030264  0.63941128  0.41670226  1
  Mn  Mn11  1  0.50889929  0.64987656  0.74796721  1
  O  O12  1  0.20887122  0.12359752  0.63903421  1
  O  O13  1  0.28750461  0.59606751  0.96930041  1
  O  O14  1  0.71332814  0.38857592  0.35513666  1
  O  O15  1  0.70615858  0.37101219  0.69530306  1
  O  O16  1  0.78523853  0.12026728  0.20092794  1
  F  F17  1  0.23943218  0.10507824  0.30763678  1
  F  F18  1  0.23787253  0.11251820  0.97721724  1
  F  F19  1  0.22398781  0.87899729  0.14113242  1
  F  F20  1  0.23204662  0.87980219  0.46661960  1
  F  F21  1  0.22661476  0.90380042  0.80120345  1
  F  F22  1  0.30342718  0.37062425  0.14580532  1
  F  F23  1  0.26251502  0.61071010  0.29811711  1
  F  F24  1  0.27329360  0.38090946  0.48307282  1
  F  F25  1  0.25889112  0.62118521  0.64246334  1
  F  F26  1  0.25672842  0.39337117  0.81101251  1
  F  F27  1  0.73745951  0.38037432  0.02230545  1
  F  F28  1  0.73697752  0.62511811  0.18566781  1
  F  F29  1  0.72630977  0.60122527  0.53289395  1
  F  F30  1  0.73418524  0.61739448  0.85964245  1
  F  F31  1  0.75598469  0.10722827  0.52260431  1
  F  F32  1  0.77178782  0.87922800  0.36236982  1
  F  F33  1  0.77837339  0.89297129  0.02602804  1
  F  F34  1  0.76738269  0.12995564  0.85889855  1
  F  F35  1  0.76479900  0.88145358  0.69262201  1
