# generated using pymatgen
data_LiMnP2HO7
_symmetry_space_group_name_H-M   'P 1'
_cell_length_a   6.54097230
_cell_length_b   6.26516046
_cell_length_c   7.00246608
_cell_angle_alpha   96.91475139
_cell_angle_beta   85.82630167
_cell_angle_gamma   69.13172411
_symmetry_Int_Tables_number   1
_chemical_formula_structural   LiMnP2HO7
_chemical_formula_sum   'Li2 Mn2 P4 H2 O14'
_cell_volume   264.11065805
_cell_formula_units_Z   2
loop_
 _symmetry_equiv_pos_site_id
 _symmetry_equiv_pos_as_xyz
  1  'x, y, z'
loop_
 _atom_site_type_symbol
 _atom_site_label
 _atom_site_symmetry_multiplicity
 _atom_site_fract_x
 _atom_site_fract_y
 _atom_site_fract_z
 _atom_site_occupancy
  Li  Li0  1  0.20302430  0.39890227  0.12386532  1
  Li  Li1  1  0.79697570  0.60109773  0.87613468  1
  Mn  Mn2  1  0.24095605  0.72886070  0.69127711  1
  Mn  Mn3  1  0.75904395  0.27113930  0.30872289  1
  P  P4  1  0.29206051  0.25433412  0.67013405  1
  P  P5  1  0.29424585  0.88038409  0.14513951  1
  P  P6  1  0.70575415  0.11961591  0.85486049  1
  P  P7  1  0.70793949  0.74566588  0.32986595  1
  H  H8  1  0.95134417  0.20017595  0.68129675  1
  H  H9  1  0.04865583  0.79982405  0.31870325  1
  O  O10  1  0.17772470  0.08130327  0.61423124  1
  O  O11  1  0.11276821  0.11850772  0.17105653  1
  O  O12  1  0.16258692  0.43990253  0.84329119  1
  O  O13  1  0.34681341  0.37764951  0.50824515  1
  O  O14  1  0.21397092  0.71012688  0.25189722  1
  O  O15  1  0.51662631  0.08617767  0.73617722  1
  O  O16  1  0.60016845  0.23295122  0.06055092  1
  O  O17  1  0.39983155  0.76704878  0.93944908  1
  O  O18  1  0.48337369  0.91382233  0.26382278  1
  O  O19  1  0.78602908  0.28987312  0.74810278  1
  O  O20  1  0.65318659  0.62235049  0.49175485  1
  O  O21  1  0.83741308  0.56009747  0.15670881  1
  O  O22  1  0.88723179  0.88149228  0.82894347  1
  O  O23  1  0.82227530  0.91869673  0.38576876  1
