# generated using pymatgen
data_Li4VP6(H4O11)2
_symmetry_space_group_name_H-M   'P 1'
_cell_length_a   7.55078258
_cell_length_b   8.50755971
_cell_length_c   7.00158286
_cell_angle_alpha   103.39817175
_cell_angle_beta   94.18611930
_cell_angle_gamma   84.74528901
_symmetry_Int_Tables_number   1
_chemical_formula_structural   Li4VP6(H4O11)2
_chemical_formula_sum   'Li4 V1 P6 H8 O22'
_cell_volume   435.06993057
_cell_formula_units_Z   1
loop_
 _symmetry_equiv_pos_site_id
 _symmetry_equiv_pos_as_xyz
  1  'x, y, z'
loop_
 _atom_site_type_symbol
 _atom_site_label
 _atom_site_symmetry_multiplicity
 _atom_site_fract_x
 _atom_site_fract_y
 _atom_site_fract_z
 _atom_site_occupancy
  Li  Li0  1  0.34516846  0.58575928  0.92975599  1
  Li  Li1  1  0.43583096  0.22789181  0.66993406  1
  Li  Li2  1  0.56416904  0.77210819  0.33006594  1
  Li  Li3  1  0.65483154  0.41424072  0.07024401  1
  V  V4  1  0.00000000  0.00000000  0.00000000  1
  P  P5  1  0.01892600  0.30422527  0.77911287  1
  P  P6  1  0.21133055  0.83490533  0.55974148  1
  P  P7  1  0.29290500  0.50765725  0.34105973  1
  P  P8  1  0.70709500  0.49234275  0.65894027  1
  P  P9  1  0.78866945  0.16509467  0.44025852  1
  P  P10  1  0.98107400  0.69577473  0.22088713  1
  H  H11  1  0.24022498  0.18989561  0.25953263  1
  H  H12  1  0.26999843  0.00834396  0.27554422  1
  H  H13  1  0.39323892  0.88798164  0.97968222  1
  H  H14  1  0.41148070  0.18714114  0.03487752  1
  H  H15  1  0.58851930  0.81285886  0.96512248  1
  H  H16  1  0.60676108  0.11201836  0.02031778  1
  H  H17  1  0.73000157  0.99165604  0.72445578  1
  H  H18  1  0.75977502  0.81010439  0.74046737  1
  O  O19  1  0.02054698  0.81474481  0.43674749  1
  O  O20  1  0.09172627  0.52772027  0.24564976  1
  O  O21  1  0.21185028  0.33435458  0.80102975  1
  O  O22  1  0.06589888  0.75885214  0.06763148  1
  O  O23  1  0.17789689  0.90811566  0.77013694  1
  O  O24  1  0.23193984  0.07636451  0.17907741  1
  O  O25  1  0.28140912  0.64552607  0.54560603  1
  O  O26  1  0.31830222  0.34773694  0.39680509  1
  O  O27  1  0.33910523  0.91127617  0.46005253  1
  O  O28  1  0.52482664  0.19669857  0.98074776  1
  O  O29  1  0.42170080  0.55049478  0.20890188  1
  O  O30  1  0.57829920  0.44950522  0.79109812  1
  O  O31  1  0.47517336  0.80330143  0.01925224  1
  O  O32  1  0.66089477  0.08872383  0.53994747  1
  O  O33  1  0.68169778  0.65226306  0.60319491  1
  O  O34  1  0.71859088  0.35447393  0.45439397  1
  O  O35  1  0.76806016  0.92363549  0.82092259  1
  O  O36  1  0.82210311  0.09188434  0.22986306  1
  O  O37  1  0.93410112  0.24114786  0.93236852  1
  O  O38  1  0.78814972  0.66564542  0.19897025  1
  O  O39  1  0.90827373  0.47227973  0.75435024  1
  O  O40  1  0.97945302  0.18525519  0.56325251  1
