# generated using pymatgen
data_Mn3O5F
_symmetry_space_group_name_H-M   'P 1'
_cell_length_a   4.55773324
_cell_length_b   7.53482470
_cell_length_c   5.44883258
_cell_angle_alpha   93.70808099
_cell_angle_beta   92.10287996
_cell_angle_gamma   88.59192737
_symmetry_Int_Tables_number   1
_chemical_formula_structural   Mn3O5F
_chemical_formula_sum   'Mn6 O10 F2'
_cell_volume   186.55855175
_cell_formula_units_Z   2
loop_
 _symmetry_equiv_pos_site_id
 _symmetry_equiv_pos_as_xyz
  1  'x, y, z'
loop_
 _atom_site_type_symbol
 _atom_site_label
 _atom_site_symmetry_multiplicity
 _atom_site_fract_x
 _atom_site_fract_y
 _atom_site_fract_z
 _atom_site_occupancy
  Mn  Mn0  1  0.49490837  0.99913591  0.50465062  1
  Mn  Mn1  1  0.50000000  0.66666700  0.16666700  1
  Mn  Mn2  1  0.50509163  0.33419809  0.82868238  1
  Mn  Mn3  1  0.00000000  0.66666700  0.66666700  1
  Mn  Mn4  1  0.97951330  0.31791079  0.33634943  1
  Mn  Mn5  1  0.02048670  0.01542221  0.99698357  1
  O  O6  1  0.79895546  0.42988243  0.62309024  1
  O  O7  1  0.80552689  0.09934030  0.29166880  1
  O  O8  1  0.69321192  0.10262539  0.79839595  1
  O  O9  1  0.68714119  0.76746298  0.46968313  1
  O  O10  1  0.70514380  0.43585963  0.12108436  1
  O  O11  1  0.31285881  0.56587102  0.86364987  1
  O  O12  1  0.30678808  0.23070761  0.53493705  1
  O  O13  1  0.29485620  0.89747337  0.21224864  1
  O  O14  1  0.19447311  0.23399270  0.04166420  1
  O  O15  1  0.20104454  0.90345057  0.71024276  1
  F  F16  1  0.81687572  0.78669293  0.97328265  1
  F  F17  1  0.18312428  0.54664107  0.36005135  1
