# generated using pymatgen
data_FeOF
_symmetry_space_group_name_H-M   'P 1'
_cell_length_a   4.77401757
_cell_length_b   4.77720087
_cell_length_c   9.21509167
_cell_angle_alpha   90.00174488
_cell_angle_beta   90.00203157
_cell_angle_gamma   89.99889105
_symmetry_Int_Tables_number   1
_chemical_formula_structural   FeOF
_chemical_formula_sum   'Fe6 O6 F6'
_cell_volume   210.16344333
_cell_formula_units_Z   6
loop_
 _symmetry_equiv_pos_site_id
 _symmetry_equiv_pos_as_xyz
  1  'x, y, z'
loop_
 _atom_site_type_symbol
 _atom_site_label
 _atom_site_symmetry_multiplicity
 _atom_site_fract_x
 _atom_site_fract_y
 _atom_site_fract_z
 _atom_site_occupancy
  Fe  Fe0  1  0.97256450  0.97005692  0.99913471  1
  Fe  Fe1  1  0.97259533  0.97001902  0.33417458  1
  Fe  Fe2  1  0.05627863  0.02046822  0.66665638  1
  Fe  Fe3  1  0.55621873  0.47950557  0.16665679  1
  Fe  Fe4  1  0.47258013  0.52995001  0.83419903  1
  Fe  Fe5  1  0.47262897  0.52998234  0.49915563  1
  O  O6  1  0.19063100  0.82158550  0.49694062  1
  O  O7  1  0.19062189  0.82160962  0.83636738  1
  O  O8  1  0.31570157  0.33075495  0.66666209  1
  O  O9  1  0.69058872  0.67839563  0.99697927  1
  O  O10  1  0.69064122  0.67837264  0.33635386  1
  O  O11  1  0.81564308  0.16924584  0.16665827  1
  F  F12  1  0.19751841  0.77989881  0.16666377  1
  F  F13  1  0.30203378  0.29684037  0.00256835  1
  F  F14  1  0.30206529  0.29685181  0.33080257  1
  F  F15  1  0.69753138  0.72011437  0.66667593  1
  F  F16  1  0.80206704  0.20319243  0.83079273  1
  F  F17  1  0.80209032  0.20315594  0.50256005  1
