# generated using pymatgen
data_LiCr4(PO4)3
_symmetry_space_group_name_H-M   'P 1'
_cell_length_a   10.10047634
_cell_length_b   6.51519584
_cell_length_c   15.80746243
_cell_angle_alpha   90.00000000
_cell_angle_beta   90.00000000
_cell_angle_gamma   90.00000000
_symmetry_Int_Tables_number   1
_chemical_formula_structural   LiCr4(PO4)3
_chemical_formula_sum   'Li4 Cr16 P12 O48'
_cell_volume   1040.23506364
_cell_formula_units_Z   4
loop_
 _symmetry_equiv_pos_site_id
 _symmetry_equiv_pos_as_xyz
  1  'x, y, z'
loop_
 _atom_site_type_symbol
 _atom_site_label
 _atom_site_symmetry_multiplicity
 _atom_site_fract_x
 _atom_site_fract_y
 _atom_site_fract_z
 _atom_site_occupancy
  Li  Li0  1  0.25257209  0.75000000  0.72115152  1
  Li  Li1  1  0.24742791  0.25000000  0.22115152  1
  Li  Li2  1  0.75257209  0.75000000  0.77884848  1
  Li  Li3  1  0.74742791  0.25000000  0.27884848  1
  Cr  Cr4  1  0.03659948  0.25000000  0.62717272  1
  Cr  Cr5  1  0.06921901  0.75000000  0.12272718  1
  Cr  Cr6  1  0.24664225  0.49820474  0.95166087  1
  Cr  Cr7  1  0.24664225  0.00179526  0.95166087  1
  Cr  Cr8  1  0.25335775  0.50179526  0.45166087  1
  Cr  Cr9  1  0.25335775  0.99820474  0.45166087  1
  Cr  Cr10  1  0.43078099  0.25000000  0.62272718  1
  Cr  Cr11  1  0.46340052  0.75000000  0.12717272  1
  Cr  Cr12  1  0.53659948  0.25000000  0.87282728  1
  Cr  Cr13  1  0.56921901  0.75000000  0.37727282  1
  Cr  Cr14  1  0.74664225  0.00179526  0.54833913  1
  Cr  Cr15  1  0.74664225  0.49820474  0.54833913  1
  Cr  Cr16  1  0.75335775  0.50179526  0.04833913  1
  Cr  Cr17  1  0.75335775  0.99820474  0.04833913  1
  Cr  Cr18  1  0.93078099  0.25000000  0.87727282  1
  Cr  Cr19  1  0.96340052  0.75000000  0.37282728  1
  P  P20  1  0.02829964  0.75000000  0.56587038  1
  P  P21  1  0.04288956  0.25000000  0.06091806  1
  P  P22  1  0.20831756  0.25000000  0.76931574  1
  P  P23  1  0.29168244  0.75000000  0.26931574  1
  P  P24  1  0.45711044  0.75000000  0.56091806  1
  P  P25  1  0.47170036  0.25000000  0.06587038  1
  P  P26  1  0.52829964  0.75000000  0.93412962  1
  P  P27  1  0.54288956  0.25000000  0.43908194  1
  P  P28  1  0.70831756  0.25000000  0.73068426  1
  P  P29  1  0.79168244  0.75000000  0.23068426  1
  P  P30  1  0.95711044  0.75000000  0.93908194  1
  P  P31  1  0.97170036  0.25000000  0.43412962  1
  O  O32  1  0.05424174  0.25000000  0.76378255  1
  O  O33  1  0.06216249  0.55931184  0.61599994  1
  O  O34  1  0.06216249  0.94068816  0.61599994  1
  O  O35  1  0.09437416  0.06014677  0.10550104  1
  O  O36  1  0.09437416  0.43985323  0.10550104  1
  O  O37  1  0.10300072  0.25000000  0.96562820  1
  O  O38  1  0.11132998  0.75000000  0.95089357  1
  O  O39  1  0.11151546  0.75000000  0.47820903  1
  O  O40  1  0.12118531  0.25000000  0.46443447  1
  O  O41  1  0.24154819  0.55028995  0.31263435  1
  O  O42  1  0.24154819  0.94971005  0.31263435  1
  O  O43  1  0.24913838  0.25000000  0.67408557  1
  O  O44  1  0.25086162  0.75000000  0.17408557  1
  O  O45  1  0.25845181  0.05028995  0.81263435  1
  O  O46  1  0.25845181  0.44971005  0.81263435  1
  O  O47  1  0.37881469  0.75000000  0.96443447  1
  O  O48  1  0.38848454  0.25000000  0.97820903  1
  O  O49  1  0.38867002  0.25000000  0.45089357  1
  O  O50  1  0.39699928  0.75000000  0.46562820  1
  O  O51  1  0.40562584  0.93985323  0.60550104  1
  O  O52  1  0.40562584  0.56014677  0.60550104  1
  O  O53  1  0.43783751  0.05931184  0.11599994  1
  O  O54  1  0.43783751  0.44068816  0.11599994  1
  O  O55  1  0.44575826  0.75000000  0.26378255  1
  O  O56  1  0.55424174  0.25000000  0.73621745  1
  O  O57  1  0.56216249  0.55931184  0.88400006  1
  O  O58  1  0.56216249  0.94068816  0.88400006  1
  O  O59  1  0.59437416  0.06014677  0.39449896  1
  O  O60  1  0.59437416  0.43985323  0.39449896  1
  O  O61  1  0.60300072  0.25000000  0.53437180  1
  O  O62  1  0.61132998  0.75000000  0.54910643  1
  O  O63  1  0.61151546  0.75000000  0.02179097  1
  O  O64  1  0.62118531  0.25000000  0.03556553  1
  O  O65  1  0.74154819  0.55028995  0.18736565  1
  O  O66  1  0.74154819  0.94971005  0.18736565  1
  O  O67  1  0.74913838  0.25000000  0.82591443  1
  O  O68  1  0.75086162  0.75000000  0.32591443  1
  O  O69  1  0.75845181  0.05028995  0.68736565  1
  O  O70  1  0.75845181  0.44971005  0.68736565  1
  O  O71  1  0.87881469  0.75000000  0.53556553  1
  O  O72  1  0.88848454  0.25000000  0.52179097  1
  O  O73  1  0.88867002  0.25000000  0.04910643  1
  O  O74  1  0.89699928  0.75000000  0.03437180  1
  O  O75  1  0.90562584  0.56014677  0.89449896  1
  O  O76  1  0.90562584  0.93985323  0.89449896  1
  O  O77  1  0.93783751  0.05931184  0.38400006  1
  O  O78  1  0.93783751  0.44068816  0.38400006  1
  O  O79  1  0.94575826  0.75000000  0.23621745  1
