# generated using pymatgen
data_Mn12O5F19
_symmetry_space_group_name_H-M   'P 1'
_cell_length_a   4.85144913
_cell_length_b   5.86391672
_cell_length_c   15.99572069
_cell_angle_alpha   90.22939210
_cell_angle_beta   89.89720765
_cell_angle_gamma   88.25605347
_symmetry_Int_Tables_number   1
_chemical_formula_structural   Mn12O5F19
_chemical_formula_sum   'Mn12 O5 F19'
_cell_volume   454.83890205
_cell_formula_units_Z   1
loop_
 _symmetry_equiv_pos_site_id
 _symmetry_equiv_pos_as_xyz
  1  'x, y, z'
loop_
 _atom_site_type_symbol
 _atom_site_label
 _atom_site_symmetry_multiplicity
 _atom_site_fract_x
 _atom_site_fract_y
 _atom_site_fract_z
 _atom_site_occupancy
  Mn  Mn0  1  0.99376121  0.16888518  0.40897167  1
  Mn  Mn1  1  0.01016515  0.85119411  0.24926942  1
  Mn  Mn2  1  0.99270748  0.17693779  0.07986118  1
  Mn  Mn3  1  0.01619336  0.14587620  0.75078647  1
  Mn  Mn4  1  0.02385002  0.82868959  0.58393807  1
  Mn  Mn5  1  0.01056341  0.83445528  0.91055027  1
  Mn  Mn6  1  0.50204596  0.35215486  0.58613491  1
  Mn  Mn7  1  0.50961559  0.34649904  0.92307136  1
  Mn  Mn8  1  0.48960802  0.32011206  0.26128733  1
  Mn  Mn9  1  0.52377221  0.65168238  0.08522874  1
  Mn  Mn10  1  0.50986731  0.64991931  0.41459924  1
  Mn  Mn11  1  0.47487958  0.66708662  0.74675584  1
  O  O12  1  0.20853278  0.12080140  0.30656418  1
  O  O13  1  0.21868250  0.87238945  0.80059209  1
  O  O14  1  0.28657665  0.61126693  0.64533655  1
  O  O15  1  0.71322549  0.39151103  0.02201240  1
  O  O16  1  0.70990586  0.36836708  0.36143893  1
  F  F17  1  0.23417894  0.11518677  0.63704934  1
  F  F18  1  0.23744060  0.11056324  0.97064724  1
  F  F19  1  0.23715344  0.88386018  0.13389988  1
  F  F20  1  0.23015910  0.90067277  0.46737501  1
  F  F21  1  0.27877725  0.38127098  0.14948259  1
  F  F22  1  0.26372471  0.61655080  0.30745367  1
  F  F23  1  0.25794362  0.39938238  0.47615719  1
  F  F24  1  0.27544844  0.37170764  0.81765502  1
  F  F25  1  0.26496255  0.60688868  0.97525025  1
  F  F26  1  0.73481174  0.60653427  0.19811168  1
  F  F27  1  0.73829357  0.61221997  0.52716573  1
  F  F28  1  0.70128078  0.62497191  0.85450460  1
  F  F29  1  0.73451604  0.39448281  0.70278899  1
  F  F30  1  0.75803189  0.10507607  0.18890440  1
  F  F31  1  0.78231222  0.12190863  0.52346961  1
  F  F32  1  0.76568600  0.88147699  0.35878683  1
  F  F33  1  0.77799135  0.88461208  0.02212601  1
  F  F34  1  0.77064307  0.12378790  0.86283828  1
  F  F35  1  0.76269012  0.90101560  0.68993703  1
