# generated using pymatgen
data_Li10Mn3Cr3(CoO8)2
_symmetry_space_group_name_H-M   'P 1'
_cell_length_a   5.93633970
_cell_length_b   6.01945507
_cell_length_c   9.87193628
_cell_angle_alpha   91.11073198
_cell_angle_beta   89.24046975
_cell_angle_gamma   61.05545653
_symmetry_Int_Tables_number   1
_chemical_formula_structural   Li10Mn3Cr3(CoO8)2
_chemical_formula_sum   'Li10 Mn3 Cr3 Co2 O16'
_cell_volume   308.53414661
_cell_formula_units_Z   1
loop_
 _symmetry_equiv_pos_site_id
 _symmetry_equiv_pos_as_xyz
  1  'x, y, z'
loop_
 _atom_site_type_symbol
 _atom_site_label
 _atom_site_symmetry_multiplicity
 _atom_site_fract_x
 _atom_site_fract_y
 _atom_site_fract_z
 _atom_site_occupancy
  Li  Li0  1  0.01684724  0.00667857  0.51744034  1
  Li  Li1  1  0.20260802  0.60224053  0.93716646  1
  Li  Li2  1  0.68891550  0.65826370  0.21781587  1
  Li  Li3  1  0.81702632  0.81325214  0.43646156  1
  Li  Li4  1  0.40218362  0.81511782  0.43423850  1
  Li  Li5  1  0.35624209  0.32384615  0.71703894  1
  Li  Li6  1  0.01662450  0.98633528  0.01729521  1
  Li  Li7  1  0.21081409  0.19085821  0.94437503  1
  Li  Li8  1  0.80006131  0.40228527  0.44573247  1
  Li  Li9  1  0.61695594  0.21015247  0.94171620  1
  Mn  Mn10  1  0.84834116  0.82846513  0.71445059  1
  Mn  Mn11  1  0.67875511  0.16652781  0.21613127  1
  Mn  Mn12  1  0.84666741  0.33777699  0.71509151  1
  Cr  Cr13  1  0.18542397  0.65968090  0.21360466  1
  Cr  Cr14  1  0.35208375  0.83196175  0.71450650  1
  Cr  Cr15  1  0.18365278  0.16567307  0.21473757  1
  Co  Co16  1  0.34228081  0.34467927  0.47083247  1
  Co  Co17  1  0.67884560  0.66957809  0.97153289  1
  O  O18  1  0.34085469  0.83470564  0.09622999  1
  O  O19  1  0.16648171  0.68508601  0.59792377  1
  O  O20  1  0.02975848  0.49046207  0.33352216  1
  O  O21  1  0.52936233  0.98314957  0.83078157  1
  O  O22  1  0.85342563  0.83241405  0.10461678  1
  O  O23  1  0.32974837  0.33952845  0.09251168  1
  O  O24  1  0.50647464  0.49443800  0.32717604  1
  O  O25  1  0.18008042  0.16079507  0.60619885  1
  O  O26  1  0.52103027  0.51021927  0.82757243  1
  O  O27  1  0.67319391  0.69834077  0.59192652  1
  O  O28  1  0.50555214  0.02583096  0.32935454  1
  O  O29  1  0.99798668  0.48460781  0.83874733  1
  O  O30  1  0.85390159  0.30679756  0.10210626  1
  O  O31  1  0.68632177  0.20062064  0.58878518  1
  O  O32  1  0.04144130  0.98370215  0.33114511  1
  O  O33  1  0.02181684  0.96869484  0.83035476  1
