# generated using pymatgen
data_Li2MnP4H3O14
_symmetry_space_group_name_H-M   'P 1'
_cell_length_a   4.87236841
_cell_length_b   7.60824686
_cell_length_c   16.45327699
_cell_angle_alpha   90.00000000
_cell_angle_beta   99.27531394
_cell_angle_gamma   90.00000000
_symmetry_Int_Tables_number   1
_chemical_formula_structural   Li2MnP4H3O14
_chemical_formula_sum   'Li4 Mn2 P8 H6 O28'
_cell_volume   601.95133938
_cell_formula_units_Z   2
loop_
 _symmetry_equiv_pos_site_id
 _symmetry_equiv_pos_as_xyz
  1  'x, y, z'
loop_
 _atom_site_type_symbol
 _atom_site_label
 _atom_site_symmetry_multiplicity
 _atom_site_fract_x
 _atom_site_fract_y
 _atom_site_fract_z
 _atom_site_occupancy
  Li  Li0  1  0.93962356  0.13378308  0.15241169  1
  Li  Li1  1  0.56037644  0.63378308  0.34758831  1
  Li  Li2  1  0.43962356  0.36621692  0.65241169  1
  Li  Li3  1  0.06037644  0.86621692  0.84758831  1
  Mn  Mn4  1  0.00000000  0.50000000  0.00000000  1
  Mn  Mn5  1  0.50000000  0.00000000  0.50000000  1
  P  P6  1  0.03061036  0.76773309  0.55420975  1
  P  P7  1  0.14796920  0.46566411  0.79910850  1
  P  P8  1  0.35203080  0.96566411  0.70089150  1
  P  P9  1  0.46938964  0.26773309  0.94579025  1
  P  P10  1  0.53061036  0.73226691  0.05420975  1
  P  P11  1  0.64796920  0.03433589  0.29910850  1
  P  P12  1  0.85203080  0.53433589  0.20089150  1
  P  P13  1  0.96938964  0.23226691  0.44579025  1
  H  H14  1  0.06523541  0.16043557  0.75427553  1
  H  H15  1  0.00000000  0.50000000  0.50000000  1
  H  H16  1  0.43476459  0.66043557  0.74572447  1
  H  H17  1  0.56523541  0.33956443  0.25427553  1
  H  H18  1  0.50000000  0.00000000  0.00000000  1
  H  H19  1  0.93476459  0.83956443  0.24572447  1
  O  O20  1  0.04640076  0.60758962  0.85150406  1
  O  O21  1  0.11760545  0.85111881  0.64196755  1
  O  O22  1  0.10747184  0.57185504  0.56202013  1
  O  O23  1  0.05701979  0.66442639  0.24611374  1
  O  O24  1  0.33229873  0.53756540  0.73572469  1
  O  O25  1  0.16770127  0.03756540  0.76427531  1
  O  O26  1  0.17419946  0.85944281  0.48926848  1
  O  O27  1  0.39252816  0.07185504  0.93797987  1
  O  O28  1  0.38239455  0.35111881  0.85803245  1
  O  O29  1  0.28675899  0.21165853  0.46781062  1
  O  O30  1  0.55701979  0.83557361  0.74611374  1
  O  O31  1  0.21324101  0.71165853  0.03218938  1
  O  O32  1  0.45359924  0.10758962  0.64849594  1
  O  O33  1  0.67419946  0.64055719  0.98926848  1
  O  O34  1  0.32580054  0.35944281  0.01073152  1
  O  O35  1  0.54640076  0.89241038  0.35150406  1
  O  O36  1  0.78675899  0.28834147  0.96781062  1
  O  O37  1  0.44298021  0.16442639  0.25388626  1
  O  O38  1  0.71324101  0.78834147  0.53218938  1
  O  O39  1  0.61760545  0.64888119  0.14196755  1
  O  O40  1  0.60747184  0.92814496  0.06202013  1
  O  O41  1  0.82580054  0.14055719  0.51073152  1
  O  O42  1  0.83229873  0.96243460  0.23572469  1
  O  O43  1  0.66770127  0.46243460  0.26427531  1
  O  O44  1  0.94298021  0.33557361  0.75388626  1
  O  O45  1  0.89252816  0.42814496  0.43797987  1
  O  O46  1  0.88239455  0.14888119  0.35803245  1
  O  O47  1  0.95359924  0.39241038  0.14849594  1
