# generated using pymatgen
data_Li2Mn3VO8
_symmetry_space_group_name_H-M   'P 1'
_cell_length_a   5.83848063
_cell_length_b   6.01965813
_cell_length_c   9.61435364
_cell_angle_alpha   89.91328823
_cell_angle_beta   90.04470812
_cell_angle_gamma   121.03194114
_symmetry_Int_Tables_number   1
_chemical_formula_structural   Li2Mn3VO8
_chemical_formula_sum   'Li4 Mn6 V2 O16'
_cell_volume   289.54181717
_cell_formula_units_Z   2
loop_
 _symmetry_equiv_pos_site_id
 _symmetry_equiv_pos_as_xyz
  1  'x, y, z'
loop_
 _atom_site_type_symbol
 _atom_site_label
 _atom_site_symmetry_multiplicity
 _atom_site_fract_x
 _atom_site_fract_y
 _atom_site_fract_z
 _atom_site_occupancy
  Li  Li0  1  0.34009363  0.66887082  0.89599372  1
  Li  Li1  1  0.01077139  0.00662127  0.99378621  1
  Li  Li2  1  0.98922861  0.99584988  0.49378621  1
  Li  Li3  1  0.65990637  0.32877719  0.39599372  1
  Mn  Mn4  1  0.16621252  0.82758929  0.21352979  1
  Mn  Mn5  1  0.16632946  0.33895289  0.21419319  1
  Mn  Mn6  1  0.66177965  0.83070877  0.21451605  1
  Mn  Mn7  1  0.33822035  0.16892912  0.71451605  1
  Mn  Mn8  1  0.83378748  0.66137577  0.71352979  1
  Mn  Mn9  1  0.83367054  0.17262342  0.71419319  1
  V  V10  1  0.32670302  0.66368264  0.48777436  1
  V  V11  1  0.67329798  0.33697962  0.98777436  1
  O  O12  1  0.16178279  0.84359500  0.60011876  1
  O  O13  1  0.03793822  0.51779519  0.36509254  1
  O  O14  1  0.33339417  0.66729173  0.11029188  1
  O  O15  1  0.00577122  0.00202620  0.30667561  1
  O  O16  1  0.99422878  0.99625498  0.80667561  1
  O  O17  1  0.16219382  0.31933939  0.60126129  1
  O  O18  1  0.48567025  0.95966171  0.33435864  1
  O  O19  1  0.48622022  0.52520883  0.33433100  1
  O  O20  1  0.35974564  0.18110978  0.08199896  1
  O  O21  1  0.64025436  0.82136413  0.58199896  1
  O  O22  1  0.51432975  0.47399146  0.83435864  1
  O  O23  1  0.51377978  0.03898861  0.83433100  1
  O  O24  1  0.66660583  0.33389756  0.61029188  1
  O  O25  1  0.83821721  0.68181221  0.10011876  1
  O  O26  1  0.96206178  0.47985797  0.86509254  1
  O  O27  1  0.83780618  0.15714557  0.10126129  1
