# generated using pymatgen
data_Li6Cr5O12
_symmetry_space_group_name_H-M   'P 1'
_cell_length_a   5.11482037
_cell_length_b   8.79636263
_cell_length_c   9.83853533
_cell_angle_alpha   89.94519620
_cell_angle_beta   80.37568454
_cell_angle_gamma   90.03884747
_symmetry_Int_Tables_number   1
_chemical_formula_structural   Li6Cr5O12
_chemical_formula_sum   'Li12 Cr10 O24'
_cell_volume   436.42293035
_cell_formula_units_Z   2
loop_
 _symmetry_equiv_pos_site_id
 _symmetry_equiv_pos_as_xyz
  1  'x, y, z'
loop_
 _atom_site_type_symbol
 _atom_site_label
 _atom_site_symmetry_multiplicity
 _atom_site_fract_x
 _atom_site_fract_y
 _atom_site_fract_z
 _atom_site_occupancy
  Li  Li0  1  0.24890241  0.23669623  0.99188614  1
  Li  Li1  1  0.25346406  0.59432534  0.99009246  1
  Li  Li2  1  0.24446878  0.09277541  0.50851329  1
  Li  Li3  1  0.25316768  0.73540394  0.50631938  1
  Li  Li4  1  0.75066045  0.41234356  0.99076001  1
  Li  Li5  1  0.74396272  0.76078240  0.99262338  1
  Li  Li6  1  0.49537415  0.75188831  0.75849304  1
  Li  Li7  1  0.74788886  0.58227075  0.50466009  1
  Li  Li8  1  0.76487082  0.26206660  0.50768685  1
  Li  Li9  1  0.74463594  0.91273694  0.50914635  1
  Li  Li10  1  0.75692748  0.08487020  0.99493311  1
  Li  Li11  1  0.99457568  0.25372158  0.74489693  1
  Cr  Cr12  1  0.50030613  0.58114984  0.25304728  1
  Cr  Cr13  1  0.00031592  0.08136039  0.24688004  1
  Cr  Cr14  1  0.00540646  0.41562577  0.25050407  1
  Cr  Cr15  1  0.00143049  0.75031969  0.24632025  1
  Cr  Cr16  1  0.49908554  0.25052489  0.25409579  1
  Cr  Cr17  1  0.49518736  0.91567680  0.24911289  1
  Cr  Cr18  1  0.01380130  0.92233697  0.75404472  1
  Cr  Cr19  1  0.48086708  0.41223371  0.74686947  1
  Cr  Cr20  1  0.51239680  0.07514848  0.75485555  1
  Cr  Cr21  1  0.98887426  0.58431250  0.74387554  1
  O  O22  1  0.13051163  0.58653487  0.35538438  1
  O  O23  1  0.12806394  0.24473395  0.35825896  1
  O  O24  1  0.12903081  0.91546812  0.35805772  1
  O  O25  1  0.09259780  0.74558896  0.85672390  1
  O  O26  1  0.14139236  0.07009215  0.85916959  1
  O  O27  1  0.37233402  0.41560504  0.14144743  1
  O  O28  1  0.37163890  0.74531098  0.14222258  1
  O  O29  1  0.36940878  0.08638802  0.14532113  1
  O  O30  1  0.13993549  0.43002405  0.86037728  1
  O  O31  1  0.37428459  0.93275673  0.63907149  1
  O  O32  1  0.34190219  0.57199326  0.64129197  1
  O  O33  1  0.40797260  0.24538197  0.64321649  1
  O  O34  1  0.63249423  0.08182299  0.36020161  1
  O  O35  1  0.64307320  0.41589521  0.35809998  1
  O  O36  1  0.63080100  0.74922012  0.36348889  1
  O  O37  1  0.60218527  0.24650806  0.86456781  1
  O  O38  1  0.86962492  0.24906091  0.13654966  1
  O  O39  1  0.85739476  0.91586944  0.14246055  1
  O  O40  1  0.86835547  0.58267774  0.13951281  1
  O  O41  1  0.65445899  0.93223033  0.86183519  1
  O  O42  1  0.63798922  0.56865512  0.85972559  1
  O  O43  1  0.87175238  0.06634547  0.63747148  1
  O  O44  1  0.83599009  0.42944461  0.64104955  1
  O  O45  1  0.90021800  0.74982759  0.63487434  1
