# generated using pymatgen
data_Mn4O7F
_symmetry_space_group_name_H-M   'P 1'
_cell_length_a   4.47031049
_cell_length_b   10.98991960
_cell_length_c   4.97923031
_cell_angle_alpha   90.00000000
_cell_angle_beta   89.79018766
_cell_angle_gamma   90.00000000
_symmetry_Int_Tables_number   1
_chemical_formula_structural   Mn4O7F
_chemical_formula_sum   'Mn8 O14 F2'
_cell_volume   244.61974328
_cell_formula_units_Z   2
loop_
 _symmetry_equiv_pos_site_id
 _symmetry_equiv_pos_as_xyz
  1  'x, y, z'
loop_
 _atom_site_type_symbol
 _atom_site_label
 _atom_site_symmetry_multiplicity
 _atom_site_fract_x
 _atom_site_fract_y
 _atom_site_fract_z
 _atom_site_occupancy
  Mn  Mn0  1  0.01381758  0.41638218  0.75234181  1
  Mn  Mn1  1  0.01381758  0.08361782  0.25234181  1
  Mn  Mn2  1  0.00569297  0.57202982  0.23501491  1
  Mn  Mn3  1  0.00569297  0.92797018  0.73501491  1
  Mn  Mn4  1  0.48451676  0.81736883  0.26014277  1
  Mn  Mn5  1  0.50908275  0.17597889  0.75300749  1
  Mn  Mn6  1  0.50908275  0.32402111  0.25300749  1
  Mn  Mn7  1  0.48451676  0.68263117  0.76014277  1
  O  O8  1  0.23464894  0.05533451  0.91959257  1
  O  O9  1  0.23464894  0.44466549  0.41959257  1
  O  O10  1  0.23053285  0.55692305  0.91394282  1
  O  O11  1  0.23053285  0.94307695  0.41394282  1
  O  O12  1  0.27885731  0.19800060  0.42950020  1
  O  O13  1  0.27885731  0.30199940  0.92950020  1
  O  O14  1  0.25638367  0.69438717  0.42593602  1
  O  O15  1  0.25638367  0.80561283  0.92593602  1
  O  O16  1  0.73817242  0.19515678  0.08050424  1
  O  O17  1  0.73817242  0.30484322  0.58050424  1
  O  O18  1  0.72398092  0.69414580  0.07961735  1
  O  O19  1  0.72398092  0.80585420  0.57961735  1
  O  O20  1  0.77050139  0.05607271  0.57329687  1
  O  O21  1  0.77050139  0.44392729  0.07329687  1
  F  F22  1  0.75381344  0.56074826  0.57710395  1
  F  F23  1  0.75381344  0.93925174  0.07710395  1
