# generated using pymatgen
data_Li2FeF4
_symmetry_space_group_name_H-M   'P 1'
_cell_length_a   2.90285840
_cell_length_b   5.04231242
_cell_length_c   9.87208725
_cell_angle_alpha   90.00000000
_cell_angle_beta   90.00000000
_cell_angle_gamma   106.72928331
_symmetry_Int_Tables_number   1
_chemical_formula_structural   Li2FeF4
_chemical_formula_sum   'Li4 Fe2 F8'
_cell_volume   138.38307149
_cell_formula_units_Z   2
loop_
 _symmetry_equiv_pos_site_id
 _symmetry_equiv_pos_as_xyz
  1  'x, y, z'
loop_
 _atom_site_type_symbol
 _atom_site_label
 _atom_site_symmetry_multiplicity
 _atom_site_fract_x
 _atom_site_fract_y
 _atom_site_fract_z
 _atom_site_occupancy
  Li  Li0  1  0.37475703  0.74951405  0.06393773  1
  Li  Li1  1  0.37475703  0.74951405  0.43606227  1
  Li  Li2  1  0.62524297  0.25048595  0.56393773  1
  Li  Li3  1  0.62524297  0.25048595  0.93606227  1
  Fe  Fe4  1  0.12059382  0.24118865  0.25000000  1
  Fe  Fe5  1  0.87940618  0.75881135  0.75000000  1
  F  F6  1  0.00000000  0.00000000  0.00000000  1
  F  F7  1  0.00000000  0.00000000  0.50000000  1
  F  F8  1  0.46372169  0.92744438  0.25000000  1
  F  F9  1  0.27885157  0.55770314  0.61832364  1
  F  F10  1  0.27885157  0.55770314  0.88167636  1
  F  F11  1  0.53627831  0.07255562  0.75000000  1
  F  F12  1  0.72114843  0.44229686  0.11832364  1
  F  F13  1  0.72114843  0.44229686  0.38167636  1
