# generated using pymatgen
data_LiMn2P2H5O11
_symmetry_space_group_name_H-M   'P 1'
_cell_length_a   9.81918043
_cell_length_b   9.80316568
_cell_length_c   9.13933316
_cell_angle_alpha   90.00000000
_cell_angle_beta   102.81010648
_cell_angle_gamma   90.00000000
_symmetry_Int_Tables_number   1
_chemical_formula_structural   LiMn2P2H5O11
_chemical_formula_sum   'Li4 Mn8 P8 H20 O44'
_cell_volume   857.84696299
_cell_formula_units_Z   4
loop_
 _symmetry_equiv_pos_site_id
 _symmetry_equiv_pos_as_xyz
  1  'x, y, z'
loop_
 _atom_site_type_symbol
 _atom_site_label
 _atom_site_symmetry_multiplicity
 _atom_site_fract_x
 _atom_site_fract_y
 _atom_site_fract_z
 _atom_site_occupancy
  Li  Li0  1  0.01356635  0.30342909  0.45605080  1
  Li  Li1  1  0.51356635  0.19657091  0.95605080  1
  Li  Li2  1  0.48643365  0.80342909  0.04394920  1
  Li  Li3  1  0.98643365  0.69657091  0.54394920  1
  Mn  Mn4  1  0.08764638  0.27941841  0.79681785  1
  Mn  Mn5  1  0.09404751  0.07907596  0.13304606  1
  Mn  Mn6  1  0.41235362  0.77941841  0.70318215  1
  Mn  Mn7  1  0.40595249  0.57907596  0.36695394  1
  Mn  Mn8  1  0.59404751  0.42092404  0.63304606  1
  Mn  Mn9  1  0.58764638  0.22058159  0.29681785  1
  Mn  Mn10  1  0.90595249  0.92092404  0.86695394  1
  Mn  Mn11  1  0.91235362  0.72058159  0.20318215  1
  P  P12  1  0.21909174  0.97512940  0.86451945  1
  P  P13  1  0.20409368  0.84216431  0.38270038  1
  P  P14  1  0.28090826  0.47512940  0.63548055  1
  P  P15  1  0.29590632  0.34216431  0.11729962  1
  P  P16  1  0.70409368  0.65783569  0.88270038  1
  P  P17  1  0.71909174  0.52487060  0.36451945  1
  P  P18  1  0.79590632  0.15783569  0.61729962  1
  P  P19  1  0.78090826  0.02487060  0.13548055  1
  H  H20  1  0.03744796  0.54596478  0.87964993  1
  H  H21  1  0.20870460  0.65392948  0.87835011  1
  H  H22  1  0.07617929  0.77637513  0.03039071  1
  H  H23  1  0.11810392  0.50218185  0.20126128  1
  H  H24  1  0.29129540  0.15392948  0.62164989  1
  H  H25  1  0.27146219  0.10531002  0.45268073  1
  H  H26  1  0.22853781  0.60531002  0.04731927  1
  H  H27  1  0.38189608  0.00218185  0.29873872  1
  H  H28  1  0.42382071  0.27637513  0.46960929  1
  H  H29  1  0.46255204  0.04596478  0.62035007  1
  H  H30  1  0.53744796  0.95403522  0.37964993  1
  H  H31  1  0.57617929  0.72362487  0.53039071  1
  H  H32  1  0.61810392  0.99781815  0.70126128  1
  H  H33  1  0.77146219  0.39468998  0.95268073  1
  H  H34  1  0.72853781  0.89468998  0.54731927  1
  H  H35  1  0.70870460  0.84607052  0.37835011  1
  H  H36  1  0.88189608  0.49781815  0.79873872  1
  H  H37  1  0.92382071  0.22362487  0.96960929  1
  H  H38  1  0.79129540  0.34607052  0.12164989  1
  H  H39  1  0.96255204  0.45403522  0.12035007  1
  O  O40  1  0.07809763  0.90163926  0.79473717  1
  O  O41  1  0.01847814  0.52002287  0.19245262  1
  O  O42  1  0.16639991  0.65852397  0.96736932  1
  O  O43  1  0.05611071  0.77996959  0.37599180  1
  O  O44  1  -0.00004285  0.83363612  0.05998442  1
  O  O45  1  0.23075611  0.35872738  0.94802206  1
  O  O46  1  0.15697758  0.37483914  0.63242809  1
  O  O47  1  0.23395037  0.10883435  0.78128948  1
  O  O48  1  0.26604963  0.60883435  0.71871052  1
  O  O49  1  0.34302242  0.87483914  0.86757191  1
  O  O50  1  0.18903761  0.99193707  0.32147401  1
  O  O51  1  0.26924389  0.85872738  0.55197794  1
  O  O52  1  0.20788450  0.25909980  0.20301934  1
  O  O53  1  0.26789877  0.50634727  0.46565913  1
  O  O54  1  0.33360009  0.15852397  0.53263068  1
  O  O55  1  0.23210123  0.00634727  0.03434187  1
  O  O56  1  0.29211550  0.75909980  0.29698066  1
  O  O57  1  0.31096239  0.49193707  0.17852599  1
  O  O58  1  0.42190237  0.40163926  0.70526283  1
  O  O59  1  0.51847814  0.97997713  0.69245262  1
  O  O60  1  0.55611071  0.72003041  0.87599180  1
  O  O61  1  0.49995715  0.66636388  0.55998442  1
  O  O62  1  0.50004285  0.33363612  0.44001558  1
  O  O63  1  0.44388929  0.27996959  0.12400820  1
  O  O64  1  0.48152186  0.02002287  0.30754738  1
  O  O65  1  0.57809763  0.59836074  0.29473717  1
  O  O66  1  0.68903761  0.50806293  0.82147401  1
  O  O67  1  0.70788450  0.24090020  0.70301934  1
  O  O68  1  0.76789877  0.99365273  0.96565813  1
  O  O69  1  0.66639991  0.84147603  0.46736932  1
  O  O70  1  0.73210123  0.49365273  0.53434187  1
  O  O71  1  0.79211550  0.74090020  0.79698066  1
  O  O72  1  0.73075611  0.14127262  0.44802206  1
  O  O73  1  0.81096239  0.00806293  0.67852599  1
  O  O74  1  0.65697758  0.12516086  0.13242809  1
  O  O75  1  0.73395037  0.39116565  0.28128948  1
  O  O76  1  0.76604963  0.89116565  0.21871052  1
  O  O77  1  0.84302242  0.62516086  0.36757191  1
  O  O78  1  0.76924389  0.64127262  0.05197794  1
  O  O79  1  0.00004285  0.16636388  0.94001558  1
  O  O80  1  0.94388929  0.22003041  0.62400820  1
  O  O81  1  0.83360009  0.34147603  0.03263068  1
  O  O82  1  0.98152186  0.47997713  0.80754738  1
  O  O83  1  0.92190237  0.09836074  0.20526283  1
