# generated using pymatgen
data_YNi(WO4)2
_symmetry_space_group_name_H-M   'P 1'
_cell_length_a   5.09206087
_cell_length_b   6.06150616
_cell_length_c   10.09364033
_cell_angle_alpha   90.00107108
_cell_angle_beta   92.70964104
_cell_angle_gamma   89.99903275
_symmetry_Int_Tables_number   1
_chemical_formula_structural   YNi(WO4)2
_chemical_formula_sum   'Y2 Ni2 W4 O16'
_cell_volume   311.19751543
_cell_formula_units_Z   2
loop_
 _symmetry_equiv_pos_site_id
 _symmetry_equiv_pos_as_xyz
  1  'x, y, z'
loop_
 _atom_site_type_symbol
 _atom_site_label
 _atom_site_symmetry_multiplicity
 _atom_site_fract_x
 _atom_site_fract_y
 _atom_site_fract_z
 _atom_site_occupancy
  Y  Y0  1  0.24999673  0.66306844  0.25000192  1
  Y  Y1  1  0.75000227  0.33693056  0.74999808  1
  Ni  Ni2  1  0.75000196  0.27728032  0.24999803  1
  Ni  Ni3  1  0.24999804  0.72271868  0.75000197  1
  W  W4  1  0.25090377  0.16659880  0.48784764  1
  W  W5  1  0.24910445  0.16661166  0.01214579  1
  W  W6  1  0.74909623  0.83340120  0.51215236  1
  W  W7  1  0.75089555  0.83338834  0.98785421  1
  O  O8  1  0.40331278  0.35617238  0.13628435  1
  O  O9  1  0.09667858  0.35617552  0.36370952  1
  O  O10  1  0.59668722  0.64382662  0.86371565  1
  O  O11  1  0.90332042  0.64382348  0.63629048  1
  O  O12  1  0.44840888  0.91147727  0.60907171  1
  O  O13  1  0.05159748  0.91148246  0.89092830  1
  O  O14  1  0.55159112  0.08852273  0.39092829  1
  O  O15  1  0.94840252  0.08851754  0.10907170  1
  O  O16  1  0.89480837  0.63943167  0.10939272  1
  O  O17  1  0.60518570  0.63943144  0.39060906  1
  O  O18  1  0.10519163  0.36056933  0.89060728  1
  O  O19  1  0.39481430  0.36056956  0.60939094  1
  O  O20  1  0.43684159  0.88588812  0.09603404  1
  O  O21  1  0.56315841  0.11411288  0.90396596  1
  O  O22  1  0.06316164  0.88588992  0.40396543  1
  O  O23  1  0.93683836  0.11411108  0.59603457  1
