# generated using pymatgen
data_Li2MnP3O10
_symmetry_space_group_name_H-M   'P 1'
_cell_length_a   11.85031636
_cell_length_b   8.06054159
_cell_length_c   9.95099004
_cell_angle_alpha   90.00000000
_cell_angle_beta   93.84283996
_cell_angle_gamma   90.00000000
_symmetry_Int_Tables_number   1
_chemical_formula_structural   Li2MnP3O10
_chemical_formula_sum   'Li8 Mn4 P12 O40'
_cell_volume   948.38113864
_cell_formula_units_Z   4
loop_
 _symmetry_equiv_pos_site_id
 _symmetry_equiv_pos_as_xyz
  1  'x, y, z'
loop_
 _atom_site_type_symbol
 _atom_site_label
 _atom_site_symmetry_multiplicity
 _atom_site_fract_x
 _atom_site_fract_y
 _atom_site_fract_z
 _atom_site_occupancy
  Li  Li0  1  0.14325651  0.45751559  0.39332631  1
  Li  Li1  1  0.14325651  0.04248441  0.89332631  1
  Li  Li2  1  0.43977304  0.10612505  0.90736505  1
  Li  Li3  1  0.43977304  0.39387495  0.40736505  1
  Li  Li4  1  0.56022696  0.60612505  0.59263495  1
  Li  Li5  1  0.56022696  0.89387495  0.09263495  1
  Li  Li6  1  0.85674349  0.95751559  0.10667369  1
  Li  Li7  1  0.85674349  0.54248441  0.60667369  1
  Mn  Mn8  1  0.16823570  0.86240281  0.63211790  1
  Mn  Mn9  1  0.16823570  0.63759719  0.13211790  1
  Mn  Mn10  1  0.83176430  0.36240281  0.86788210  1
  Mn  Mn11  1  0.83176430  0.13759719  0.36788210  1
  P  P12  1  0.06026253  0.57512024  0.80605130  1
  P  P13  1  0.06026253  0.92487976  0.30605130  1
  P  P14  1  0.27154491  0.43113163  0.90963651  1
  P  P15  1  0.27154491  0.06886837  0.40963651  1
  P  P16  1  0.33534233  0.78761372  0.93606206  1
  P  P17  1  0.33534233  0.71238628  0.43606206  1
  P  P18  1  0.66465767  0.28761372  0.56393794  1
  P  P19  1  0.66465767  0.21238628  0.06393794  1
  P  P20  1  0.72845509  0.93113163  0.59036349  1
  P  P21  1  0.72845509  0.56886837  0.09036349  1
  P  P22  1  0.93973747  0.07512024  0.69394870  1
  P  P23  1  0.93973747  0.42487976  0.19394870  1
  O  O24  1  0.07091150  0.66992995  0.93642831  1
  O  O25  1  0.05627865  0.99447433  0.72657171  1
  O  O26  1  0.08385194  0.66528122  0.67518295  1
  O  O27  1  0.07091150  0.83007005  0.43642831  1
  O  O28  1  0.05627865  0.50552567  0.22657171  1
  O  O29  1  0.08385194  0.83471878  0.17518295  1
  O  O30  1  0.15409156  0.42471172  0.81507967  1
  O  O31  1  0.15409156  0.07528828  0.31507967  1
  O  O32  1  0.25496061  0.89360502  0.84539563  1
  O  O33  1  0.23985313  0.05803282  0.55634728  1
  O  O34  1  0.29545431  0.73300926  0.57995363  1
  O  O35  1  0.25496061  0.60639498  0.34539563  1
  O  O36  1  0.23985313  0.44196718  0.05634728  1
  O  O37  1  0.29545431  0.76699074  0.07995363  1
  O  O38  1  0.33394763  0.59961817  0.86940592  1
  O  O39  1  0.33683577  0.28303584  0.87334468  1
  O  O40  1  0.33394763  0.90038183  0.36940592  1
  O  O41  1  0.33683577  0.21696416  0.37334468  1
  O  O42  1  0.45445134  0.85446787  0.94105342  1
  O  O43  1  0.45445134  0.64553213  0.44105342  1
  O  O44  1  0.54554866  0.35446787  0.55894658  1
  O  O45  1  0.54554866  0.14553213  0.05894658  1
  O  O46  1  0.66316423  0.78303584  0.62665532  1
  O  O47  1  0.66605237  0.09961817  0.63059408  1
  O  O48  1  0.66316423  0.71696416  0.12665532  1
  O  O49  1  0.66605237  0.40038183  0.13059408  1
  O  O50  1  0.70454569  0.23300926  0.92004637  1
  O  O51  1  0.76014687  0.55803282  0.94365272  1
  O  O52  1  0.74503939  0.39360502  0.65460437  1
  O  O53  1  0.70454569  0.26699074  0.42004637  1
  O  O54  1  0.76014687  0.94196718  0.44365272  1
  O  O55  1  0.74503939  0.10639498  0.15460437  1
  O  O56  1  0.84590844  0.92471172  0.68492033  1
  O  O57  1  0.84590844  0.57528828  0.18492033  1
  O  O58  1  0.91614806  0.16528122  0.82481705  1
  O  O59  1  0.94372135  0.49447433  0.77342829  1
  O  O60  1  0.92908850  0.16992995  0.56357169  1
  O  O61  1  0.91614806  0.33471878  0.32481705  1
  O  O62  1  0.94372135  0.00552567  0.27342829  1
  O  O63  1  0.92908850  0.33007005  0.06357169  1
