# generated using pymatgen
data_Mn12O5F19
_symmetry_space_group_name_H-M   'P 1'
_cell_length_a   4.87351268
_cell_length_b   5.86319965
_cell_length_c   15.90478177
_cell_angle_alpha   89.25831470
_cell_angle_beta   90.49400098
_cell_angle_gamma   90.63146949
_symmetry_Int_Tables_number   1
_chemical_formula_structural   Mn12O5F19
_chemical_formula_sum   'Mn12 O5 F19'
_cell_volume   454.38722730
_cell_formula_units_Z   1
loop_
 _symmetry_equiv_pos_site_id
 _symmetry_equiv_pos_as_xyz
  1  'x, y, z'
loop_
 _atom_site_type_symbol
 _atom_site_label
 _atom_site_symmetry_multiplicity
 _atom_site_fract_x
 _atom_site_fract_y
 _atom_site_fract_z
 _atom_site_occupancy
  Mn  Mn0  1  0.01639016  0.17512903  0.42136703  1
  Mn  Mn1  1  0.99439404  0.85555973  0.24676888  1
  Mn  Mn2  1  0.96108150  0.16980092  0.08281464  1
  Mn  Mn3  1  0.04215458  0.17920170  0.74802546  1
  Mn  Mn4  1  0.00127730  0.85844917  0.58836234  1
  Mn  Mn5  1  0.00268944  0.83893163  0.91542293  1
  Mn  Mn6  1  0.46972878  0.33591658  0.58165516  1
  Mn  Mn7  1  0.50275611  0.33211257  0.91753417  1
  Mn  Mn8  1  0.52292778  0.31782311  0.24573436  1
  Mn  Mn9  1  0.50514234  0.64408387  0.08099957  1
  Mn  Mn10  1  0.48889958  0.64873262  0.41856062  1
  Mn  Mn11  1  0.49641335  0.64307204  0.75275628  1
  O  O12  1  0.21735965  0.13063597  0.63944687  1
  O  O13  1  0.28226866  0.38621884  0.47739235  1
  O  O14  1  0.29995996  0.38015729  0.80773251  1
  O  O15  1  0.70418880  0.37377656  0.02632892  1
  O  O16  1  0.78485674  0.10693713  0.18894098  1
  F  F17  1  0.23891374  0.10756984  0.30869914  1
  F  F18  1  0.20746018  0.12621914  0.97717281  1
  F  F19  1  0.22643048  0.88968452  0.13066601  1
  F  F20  1  0.22682339  0.88518231  0.47348904  1
  F  F21  1  0.24816717  0.88823467  0.80856005  1
  F  F22  1  0.26006622  0.38947381  0.14174627  1
  F  F23  1  0.26623153  0.61653321  0.30161186  1
  F  F24  1  0.26459128  0.62367216  0.64421160  1
  F  F25  1  0.27068028  0.60674511  0.96946078  1
  F  F26  1  0.73471071  0.61078138  0.19468064  1
  F  F27  1  0.73913635  0.39494506  0.35987361  1
  F  F28  1  0.72470761  0.60831070  0.53537090  1
  F  F29  1  0.73472242  0.60542190  0.86039786  1
  F  F30  1  0.71636388  0.37612787  0.68548128  1
  F  F31  1  0.75855943  0.10732868  0.52585920  1
  F  F32  1  0.76822387  0.89235090  0.36362267  1
  F  F33  1  0.75373483  0.88368370  0.02076876  1
  F  F34  1  0.79380958  0.12816829  0.85473690  1
  F  F35  1  0.77417829  0.88302597  0.70374754  1
