# generated using pymatgen
data_Li2MnCr3O8
_symmetry_space_group_name_H-M   'P 1'
_cell_length_a   5.89792609
_cell_length_b   5.98648001
_cell_length_c   5.89166696
_cell_angle_alpha   60.52232496
_cell_angle_beta   119.96499074
_cell_angle_gamma   119.46538051
_symmetry_Int_Tables_number   1
_chemical_formula_structural   Li2MnCr3O8
_chemical_formula_sum   'Li2 Mn1 Cr3 O8'
_cell_volume   148.29752476
_cell_formula_units_Z   1
loop_
 _symmetry_equiv_pos_site_id
 _symmetry_equiv_pos_as_xyz
  1  'x, y, z'
loop_
 _atom_site_type_symbol
 _atom_site_label
 _atom_site_symmetry_multiplicity
 _atom_site_fract_x
 _atom_site_fract_y
 _atom_site_fract_z
 _atom_site_occupancy
  Li  Li0  1  -0.00000151  0.49999079  0.50000649  1
  Li  Li1  1  -0.00000033  0.49999031  0.00000089  1
  Mn  Mn2  1  0.00000297  -0.00001271  0.00003455  1
  Cr  Cr3  1  0.49994379  0.99991562  0.50002998  1
  Cr  Cr4  1  0.00002552  0.00022966  0.49996051  1
  Cr  Cr5  1  0.50002673  -0.00004442  -0.00002003  1
  O  O6  1  0.77797491  0.79689034  0.74104756  1
  O  O7  1  0.24949698  0.78935360  0.73006756  1
  O  O8  1  0.77798228  0.79690780  0.24002165  1
  O  O9  1  0.24818538  0.78926102  0.22945320  1
  O  O10  1  0.75182150  0.21070828  0.77054602  1
  O  O11  1  0.22202289  0.20308048  0.75997780  1
  O  O12  1  0.75050199  0.21066574  0.26991507  1
  O  O13  1  0.22201790  0.20306449  0.25895874  1
