# generated using pymatgen
data_Li9V12Te7O48
_symmetry_space_group_name_H-M   'P 1'
_cell_length_a   5.40980022
_cell_length_b   10.58900749
_cell_length_c   18.18989736
_cell_angle_alpha   91.06158112
_cell_angle_beta   90.65496972
_cell_angle_gamma   91.01689076
_symmetry_Int_Tables_number   1
_chemical_formula_structural   Li9V12Te7O48
_chemical_formula_sum   'Li9 V12 Te7 O48'
_cell_volume   1041.58262299
_cell_formula_units_Z   1
loop_
 _symmetry_equiv_pos_site_id
 _symmetry_equiv_pos_as_xyz
  1  'x, y, z'
loop_
 _atom_site_type_symbol
 _atom_site_label
 _atom_site_symmetry_multiplicity
 _atom_site_fract_x
 _atom_site_fract_y
 _atom_site_fract_z
 _atom_site_occupancy
  Li  Li0  1  0.25361293  0.42354424  0.95410220  1
  Li  Li1  1  0.21501369  0.74410606  0.29720266  1
  Li  Li2  1  0.27209739  0.27504017  0.78923263  1
  Li  Li3  1  0.25432088  0.57915942  0.46583017  1
  Li  Li4  1  0.42269414  0.75208129  0.75655051  1
  Li  Li5  1  0.57707442  0.24793746  0.24176030  1
  Li  Li6  1  0.75346773  0.07138672  0.54074438  1
  Li  Li7  1  0.72586450  0.73321139  0.21667255  1
  Li  Li8  1  0.78441795  0.24450635  0.70306646  1
  V  V9  1  0.22103789  0.03114871  0.65555819  1
  V  V10  1  0.23980599  0.47646229  0.65611308  1
  V  V11  1  0.24034310  0.51736026  0.15825722  1
  V  V12  1  0.26874072  0.97192656  0.16181160  1
  V  V13  1  0.72519891  0.46825247  0.84220359  1
  V  V14  1  0.70061558  0.03967817  0.83792430  1
  V  V15  1  0.78728031  0.53203726  0.34871431  1
  V  V16  1  0.74919042  0.97073547  0.34201702  1
  V  V17  1  0.26800467  0.74050703  0.93884077  1
  V  V18  1  0.26070660  0.24847417  0.44432858  1
  V  V19  1  0.73149685  0.74739767  0.55983420  1
  V  V20  1  0.83737666  0.27257394  0.06218809  1
  Te  Te21  1  0.07358004  0.25312466  0.26254201  1
  Te  Te22  1  0.23556211  0.09260381  0.95919185  1
  Te  Te23  1  0.27059206  0.93156821  0.47458560  1
  Te  Te24  1  0.72719316  0.43391998  0.52756078  1
  Te  Te25  1  0.75019468  0.55548783  0.02493803  1
  Te  Te26  1  0.74201671  0.93786973  0.03909343  1
  Te  Te27  1  0.92532900  0.74550931  0.74505935  1
  O  O28  1  0.08492230  0.25129729  0.98394680  1
  O  O29  1  0.05403270  0.60957019  0.37115056  1
  O  O30  1  0.02212658  0.89695344  0.36024046  1
  O  O31  1  0.06767489  0.61797888  0.20656824  1
  O  O32  1  0.08990466  0.87377134  0.20770924  1
  O  O33  1  0.09732590  0.10696012  0.46577404  1
  O  O34  1  0.08203376  0.37575602  0.46393569  1
  O  O35  1  0.07740679  0.02006216  0.08482084  1
  O  O36  1  0.05066655  0.45539549  0.07723053  1
  O  O37  1  0.19782544  0.74319477  0.84656762  1
  O  O38  1  0.16849130  0.62522114  0.70468102  1
  O  O39  1  0.16936265  0.88194055  0.69899846  1
  O  O40  1  0.34049278  0.10900214  0.20992773  1
  O  O41  1  0.31599679  0.38333489  0.21282310  1
  O  O42  1  0.31877188  0.25207704  0.34727712  1
  O  O43  1  0.40310711  0.99835049  0.56909410  1
  O  O44  1  0.41623212  0.50432784  0.57065314  1
  O  O45  1  0.44847980  0.88004783  0.96346100  1
  O  O46  1  0.43784674  0.60384632  0.96369771  1
  O  O47  1  0.40170615  0.12413344  0.71011714  1
  O  O48  1  0.41763927  0.38607142  0.70678804  1
  O  O49  1  0.41071831  0.12647756  0.86807656  1
  O  O50  1  0.45230195  0.39655967  0.86143209  1
  O  O51  1  0.46221516  0.75055362  0.50649737  1
  O  O52  1  0.53202460  0.25309447  0.49606523  1
  O  O53  1  0.50751134  0.59563554  0.13413765  1
  O  O54  1  0.55088013  0.89453085  0.12602271  1
  O  O55  1  0.60487019  0.62254583  0.29870055  1
  O  O56  1  0.57530522  0.87907492  0.28514438  1
  O  O57  1  0.63155842  0.11303642  0.03517062  1
  O  O58  1  0.59758283  0.38512556  0.02857081  1
  O  O59  1  0.57528899  0.99655080  0.42937929  1
  O  O60  1  0.60318035  0.49424223  0.43188168  1
  O  O61  1  0.68192407  0.74026449  0.65750918  1
  O  O62  1  0.68481233  0.61368239  0.79135097  1
  O  O63  1  0.63812230  0.89695092  0.79806729  1
  O  O64  1  0.80334626  0.12235036  0.30283649  1
  O  O65  1  0.83995539  0.38276224  0.29868904  1
  O  O66  1  0.82230159  0.25223376  0.15421113  1
  O  O67  1  0.90039983  0.50270309  0.92999900  1
  O  O68  1  0.91138373  0.01462539  0.91801156  1
  O  O69  1  0.90425534  0.61044553  0.53516263  1
  O  O70  1  0.90762866  0.87676337  0.54162792  1
  O  O71  1  0.88144000  0.12251813  0.78437913  1
  O  O72  1  0.90724902  0.37148688  0.79442317  1
  O  O73  1  0.95908563  0.10746321  0.63204398  1
  O  O74  1  0.97039135  0.39565907  0.63823432  1
  O  O75  1  0.00939277  0.74575827  0.99098876  1
