# generated using pymatgen
data_Ti3Co2Ni(PO4)6
_symmetry_space_group_name_H-M   'P 1'
_cell_length_a   8.50557441
_cell_length_b   8.50557485
_cell_length_c   8.50557504
_cell_angle_alpha   61.02742366
_cell_angle_beta   61.02742426
_cell_angle_gamma   61.02742322
_symmetry_Int_Tables_number   1
_chemical_formula_structural   Ti3Co2Ni(PO4)6
_chemical_formula_sum   'Ti3 Co2 Ni1 P6 O24'
_cell_volume   445.17456226
_cell_formula_units_Z   1
loop_
 _symmetry_equiv_pos_site_id
 _symmetry_equiv_pos_as_xyz
  1  'x, y, z'
loop_
 _atom_site_type_symbol
 _atom_site_label
 _atom_site_symmetry_multiplicity
 _atom_site_fract_x
 _atom_site_fract_y
 _atom_site_fract_z
 _atom_site_occupancy
  Ti  Ti0  1  0.14236391  0.14236391  0.14236391  1
  Ti  Ti1  1  0.35594859  0.35594859  0.35594859  1
  Ti  Ti2  1  0.64493366  0.64493366  0.64493366  1
  Co  Co3  1  0.99692733  0.99692733  0.99692733  1
  Co  Co4  1  0.49906249  0.49906249  0.49906249  1
  Ni  Ni5  1  0.85766111  0.85766111  0.85766111  1
  P  P6  1  0.04532420  0.75256731  0.45717589  1
  P  P7  1  0.45717589  0.04532420  0.75256731  1
  P  P8  1  0.24967039  0.54515036  0.95480691  1
  P  P9  1  0.54515036  0.95480691  0.24967039  1
  P  P10  1  0.95480691  0.24967039  0.54515036  1
  P  P11  1  0.75256731  0.45717589  0.04532420  1
  O  O12  1  0.11409961  0.32473388  0.48998730  1
  O  O13  1  0.32473388  0.48998730  0.11409961  1
  O  O14  1  0.05811948  0.91019116  0.25610105  1
  O  O15  1  0.48998730  0.11409961  0.32473388  1
  O  O16  1  0.01320892  0.81555080  0.60923375  1
  O  O17  1  0.24176978  0.58901326  0.43260533  1
  O  O18  1  0.25610105  0.05811948  0.91019116  1
  O  O19  1  0.43260533  0.24176978  0.58901326  1
  O  O20  1  0.18365656  0.38136677  0.00228229  1
  O  O21  1  0.58901326  0.43260533  0.24176978  1
  O  O22  1  0.09442385  0.73940414  0.94639383  1
  O  O23  1  0.38136677  0.00228229  0.18365656  1
  O  O24  1  0.60923375  0.01320892  0.81555080  1
  O  O25  1  0.91019116  0.25610105  0.05811948  1
  O  O26  1  0.41279822  0.55403422  0.75969096  1
  O  O27  1  0.81555080  0.60923375  0.01320892  1
  O  O28  1  0.55403422  0.75969096  0.41279822  1
  O  O29  1  0.73940414  0.94639383  0.09442385  1
  O  O30  1  0.75969096  0.41279822  0.55403422  1
  O  O31  1  0.00228229  0.18365656  0.38136677  1
  O  O32  1  0.50257897  0.88077654  0.68638616  1
  O  O33  1  0.94639383  0.09442385  0.73940414  1
  O  O34  1  0.68638616  0.50257897  0.88077654  1
  O  O35  1  0.88077654  0.68638616  0.50257897  1
