# generated using pymatgen
data_Li4Co7(OF7)2
_symmetry_space_group_name_H-M   'P 1'
_cell_length_a   6.09062720
_cell_length_b   6.20350313
_cell_length_c   10.65323391
_cell_angle_alpha   90.10860833
_cell_angle_beta   72.77733303
_cell_angle_gamma   121.03251699
_symmetry_Int_Tables_number   1
_chemical_formula_structural   Li4Co7(OF7)2
_chemical_formula_sum   'Li4 Co7 O2 F14'
_cell_volume   323.80274361
_cell_formula_units_Z   1
loop_
 _symmetry_equiv_pos_site_id
 _symmetry_equiv_pos_as_xyz
  1  'x, y, z'
loop_
 _atom_site_type_symbol
 _atom_site_label
 _atom_site_symmetry_multiplicity
 _atom_site_fract_x
 _atom_site_fract_y
 _atom_site_fract_z
 _atom_site_occupancy
  Li  Li0  1  0.84690181  0.19588980  0.44475659  1
  Li  Li1  1  0.15109990  0.31989018  0.05646301  1
  Li  Li2  1  0.85242414  0.67764665  0.94734049  1
  Li  Li3  1  0.14973939  0.81564445  0.55838169  1
  Co  Co4  1  0.52171849  0.00982371  0.99408386  1
  Co  Co5  1  0.52457059  0.27426188  0.25034179  1
  Co  Co6  1  0.51038087  0.74554311  0.24410928  1
  Co  Co7  1  0.49790639  0.24731446  0.74963338  1
  Co  Co8  1  0.48996464  0.48004039  0.49972199  1
  Co  Co9  1  0.97343258  0.72995858  0.25127333  1
  Co  Co10  1  0.50306749  0.74766824  0.74810773  1
  O  O11  1  0.73074547  0.39439955  0.37520071  1
  O  O12  1  0.73128109  0.62386610  0.14206160  1
  F  F13  1  0.74655071  0.12190203  0.12152655  1
  F  F14  1  0.71215448  0.10540020  0.63907243  1
  F  F15  1  0.26374507  0.10779921  0.13068213  1
  F  F16  1  0.74222610  0.61660473  0.62948650  1
  F  F17  1  0.27661204  0.13325699  0.62577402  1
  F  F18  1  0.26500278  0.64888244  0.12154708  1
  F  F19  1  0.70820386  0.35267883  0.88116636  1
  F  F20  1  0.72932081  0.86764692  0.37579663  1
  F  F21  1  0.24532938  0.38610122  0.37627452  1
  F  F22  1  0.71293661  0.85999240  0.87883773  1
  F  F23  1  0.26706678  0.88158382  0.35224439  1
  F  F24  1  0.29492753  0.63434707  0.61772769  1
  F  F25  1  0.28575271  0.39116525  0.86408742  1
  F  F26  1  0.26693830  0.88069280  0.87430210  1
