# generated using pymatgen
data_Ca(AgO2)2
_symmetry_space_group_name_H-M   'P 1'
_cell_length_a   6.59647502
_cell_length_b   5.92852743
_cell_length_c   11.41827688
_cell_angle_alpha   89.99983306
_cell_angle_beta   90.02539793
_cell_angle_gamma   89.99203339
_symmetry_Int_Tables_number   1
_chemical_formula_structural   Ca(AgO2)2
_chemical_formula_sum   'Ca4 Ag8 O16'
_cell_volume   446.53887984
_cell_formula_units_Z   4
loop_
 _symmetry_equiv_pos_site_id
 _symmetry_equiv_pos_as_xyz
  1  'x, y, z'
loop_
 _atom_site_type_symbol
 _atom_site_label
 _atom_site_symmetry_multiplicity
 _atom_site_fract_x
 _atom_site_fract_y
 _atom_site_fract_z
 _atom_site_occupancy
  Ca  Ca0  1  0.75260607  0.25003996  0.75002603  1
  Ca  Ca1  1  0.24720955  0.74995500  0.24998232  1
  Ca  Ca2  1  0.66149395  0.24999987  0.24993528  1
  Ca  Ca3  1  0.33830729  0.74998318  0.74997414  1
  Ag  Ag4  1  0.52433501  0.75002517  0.49583682  1
  Ag  Ag5  1  0.52417770  0.74999613  0.00420028  1
  Ag  Ag6  1  0.47572801  0.24998713  0.50412615  1
  Ag  Ag7  1  0.47548741  0.24999662  0.99590252  1
  Ag  Ag8  1  0.00015451  0.50038113  0.50005960  1
  Ag  Ag9  1  0.99999824  -0.00030754  0.00003027  1
  Ag  Ag10  1  0.00014545  -0.00038458  0.50006111  1
  Ag  Ag11  1  0.99998573  0.50031301  0.00002942  1
  O  O12  1  0.97735072  0.75000852  0.37945381  1
  O  O13  1  0.97746632  0.75000897  0.12051078  1
  O  O14  1  0.02300859  0.24999914  0.62080175  1
  O  O15  1  0.02263971  0.25000116  0.87928732  1
  O  O16  1  0.09794752  0.74997361  0.60669827  1
  O  O17  1  0.09741359  0.74998400  0.89313243  1
  O  O18  1  0.90204232  0.25001409  0.39322180  1
  O  O19  1  0.90252316  0.25002645  0.10690097  1
  O  O20  1  0.54628463  0.50074027  0.62091884  1
  O  O21  1  0.54606480  0.99927046  0.87907724  1
  O  O22  1  0.45378123  0.00077801  0.37909518  1
  O  O23  1  0.45385334  0.49927651  0.12083847  1
  O  O24  1  0.45379833  0.49925386  0.37908215  1
  O  O25  1  0.45385665  0.00072846  0.12083595  1
  O  O26  1  0.54628418  0.99925416  0.62091098  1
  O  O27  1  0.54605398  0.50069526  0.87907013  1
