# generated using pymatgen
data_Li2V2CrO6
_symmetry_space_group_name_H-M   'P 1'
_cell_length_a   7.86487815
_cell_length_b   7.86487805
_cell_length_c   6.06224174
_cell_angle_alpha   101.61439575
_cell_angle_beta   101.61440038
_cell_angle_gamma   69.21926448
_symmetry_Int_Tables_number   1
_chemical_formula_structural   Li2V2CrO6
_chemical_formula_sum   'Li6 V6 Cr3 O18'
_cell_volume   339.94258109
_cell_formula_units_Z   3
loop_
 _symmetry_equiv_pos_site_id
 _symmetry_equiv_pos_as_xyz
  1  'x, y, z'
loop_
 _atom_site_type_symbol
 _atom_site_label
 _atom_site_symmetry_multiplicity
 _atom_site_fract_x
 _atom_site_fract_y
 _atom_site_fract_z
 _atom_site_occupancy
  Li  Li0  1  0.33054830  0.66651593  0.50535292  1
  Li  Li1  1  0.66651593  0.33054830  0.50535292  1
  Li  Li2  1  0.00427312  0.66239288  0.16666700  1
  Li  Li3  1  0.66239288  0.00427312  0.16666700  1
  Li  Li4  1  0.00015107  0.33611870  0.82798008  1
  Li  Li5  1  0.33611870  0.00015107  0.82798008  1
  V  V6  1  0.99931045  0.99931045  0.99518252  1
  V  V7  1  0.66735555  0.66735555  0.33815048  1
  V  V8  1  0.33953642  0.66259042  0.00232618  1
  V  V9  1  0.66259042  0.33953642  0.00232618  1
  V  V10  1  0.00407658  0.32712958  0.33100782  1
  V  V11  1  0.32712958  0.00407658  0.33100782  1
  Cr  Cr12  1  0.99976839  0.66689861  0.66666700  1
  Cr  Cr13  1  0.33333300  0.33333300  0.66666700  1
  Cr  Cr14  1  0.66689861  0.99976839  0.66666700  1
  O  O15  1  0.81774127  0.81774127  0.42491195  1
  O  O16  1  0.49341237  0.83295210  0.11242176  1
  O  O17  1  0.83295210  0.49341237  0.11242176  1
  O  O18  1  0.84892473  0.84892473  0.90842105  1
  O  O19  1  0.50043172  0.84149769  0.55648105  1
  O  O20  1  0.84149769  0.50043172  0.55648105  1
  O  O21  1  0.17325463  0.83371390  0.22091224  1
  O  O22  1  0.51515523  0.51515523  0.25429874  1
  O  O23  1  0.83371390  0.17325463  0.22091224  1
  O  O24  1  0.16623428  0.82516931  0.77685195  1
  O  O25  1  0.49193260  0.49193260  0.76955885  1
  O  O26  1  0.82516931  0.16623428  0.77685195  1
  O  O27  1  0.15565505  0.49847812  0.44057595  1
  O  O28  1  0.49847812  0.15565505  0.44057595  1
  O  O29  1  0.15151177  0.15151177  0.07903426  1
  O  O30  1  0.16818788  0.51101195  0.89275705  1
  O  O31  1  0.51101195  0.16818788  0.89275705  1
  O  O32  1  0.17473440  0.17473440  0.56377415  1
