# generated using pymatgen
data_Li3Mn2(PO4)3
_symmetry_space_group_name_H-M   'P 1'
_cell_length_a   9.89590485
_cell_length_b   9.74116319
_cell_length_c   9.74116336
_cell_angle_alpha   88.98325890
_cell_angle_beta   85.16108915
_cell_angle_gamma   85.16109025
_symmetry_Int_Tables_number   1
_chemical_formula_structural   Li3Mn2(PO4)3
_chemical_formula_sum   'Li12 Mn8 P12 O48'
_cell_volume   932.28976811
_cell_formula_units_Z   4
loop_
 _symmetry_equiv_pos_site_id
 _symmetry_equiv_pos_as_xyz
  1  'x, y, z'
loop_
 _atom_site_type_symbol
 _atom_site_label
 _atom_site_symmetry_multiplicity
 _atom_site_fract_x
 _atom_site_fract_y
 _atom_site_fract_z
 _atom_site_occupancy
  Li  Li0  1  0.16415933  0.03199667  0.71017963  1
  Li  Li1  1  0.27290500  0.80998149  0.99421296  1
  Li  Li2  1  0.33584067  0.78982037  0.46800333  1
  Li  Li3  1  0.22709500  0.50578704  0.69001851  1
  Li  Li4  1  0.00722646  0.03736024  0.97185383  1
  Li  Li5  1  0.49277354  0.52814617  0.46263976  1
  Li  Li6  1  0.49613229  0.34547015  0.75542943  1
  Li  Li7  1  0.00386771  0.74457057  0.15452985  1
  Li  Li8  1  0.75308847  0.51182055  0.30510614  1
  Li  Li9  1  0.66264359  0.23066840  0.49996335  1
  Li  Li10  1  0.74691153  0.19489386  0.98817945  1
  Li  Li11  1  0.83735641  0.00003665  0.26933160  1
  Mn  Mn12  1  0.52810954  0.96717786  0.74132753  1
  Mn  Mn13  1  0.02725035  0.24512882  0.47384484  1
  Mn  Mn14  1  0.25000000  0.46920415  0.03079585  1
  Mn  Mn15  1  0.25000000  0.25739154  0.24260846  1
  Mn  Mn16  1  0.75000000  0.74039320  0.75960680  1
  Mn  Mn17  1  0.97189046  0.75867247  0.53282214  1
  Mn  Mn18  1  0.75000000  0.52855105  0.97144895  1
  Mn  Mn19  1  0.47274965  0.02615516  0.25487118  1
  P  P20  1  0.15455831  0.95345401  0.33315353  1
  P  P21  1  0.05079703  0.67500251  0.84657254  1
  P  P22  1  0.18174833  0.55770747  0.34385856  1
  P  P23  1  0.44920297  0.65342746  0.82499749  1
  P  P24  1  0.65871459  0.82178513  0.45226211  1
  P  P25  1  0.68482791  0.83868901  0.05877374  1
  P  P26  1  0.31825167  0.15614144  0.94229253  1
  P  P27  1  0.34544169  0.16684647  0.54654599  1
  P  P28  1  0.55196279  0.33677723  0.17943652  1
  P  P29  1  0.81517209  0.44122626  0.66131099  1
  P  P30  1  0.94803721  0.32056348  0.16322277  1
  P  P31  1  0.84128541  0.04773789  0.67821487  1
  O  O32  1  0.06922864  0.90449554  0.22461805  1
  O  O33  1  0.12327689  0.89413435  0.47990234  1
  O  O34  1  0.09068080  0.79344374  0.93171341  1
  O  O35  1  0.08587339  0.68807920  0.68719047  1
  O  O36  1  0.31071567  0.91587196  0.30049443  1
  O  O37  1  0.03906531  0.62348388  0.39769556  1
  O  O38  1  0.12524245  0.53430976  0.88223087  1
  O  O39  1  0.41412661  0.81280953  0.81192080  1
  O  O40  1  0.18352639  0.59263270  0.18426375  1
  O  O41  1  0.61811296  0.96522903  0.39058315  1
  O  O42  1  0.54143380  0.89689163  0.11838155  1
  O  O43  1  0.29717890  0.60586741  0.41841888  1
  O  O44  1  0.37475755  0.61776913  0.96569024  1
  O  O45  1  0.10546603  0.32943897  0.12105839  1
  O  O46  1  0.17932637  0.39714823  0.37069477  1
  O  O47  1  0.68040391  0.86834869  0.89793119  1
  O  O48  1  0.62439997  0.83198960  0.61635213  1
  O  O49  1  0.40931920  0.56828659  0.70655626  1
  O  O50  1  0.58276203  0.70322407  0.40886595  1
  O  O51  1  0.80364930  0.90699630  0.10801738  1
  O  O52  1  0.60662696  0.61879301  0.83635617  1
  O  O53  1  0.87560003  0.88364787  0.66801040  1
  O  O54  1  0.31647361  0.31573625  0.90736730  1
  O  O55  1  0.18928433  0.19950557  0.58412804  1
  O  O56  1  0.81641097  0.79997391  0.41647433  1
  O  O57  1  0.69482231  0.68042165  0.09341746  1
  O  O58  1  0.12173455  0.11685740  0.33710233  1
  O  O59  1  0.39453397  0.37894161  0.17056103  1
  O  O60  1  0.20282110  0.08158112  0.89413259  1
  O  O61  1  0.43077136  0.27538195  0.59550446  1
  O  O62  1  0.59677501  0.40135983  0.30825471  1
  O  O63  1  0.32067363  0.12930523  0.10285177  1
  O  O64  1  0.37826545  0.16289767  0.38314260  1
  O  O65  1  0.81959609  0.60206881  0.63165131  1
  O  O66  1  0.89337304  0.66364383  0.88120699  1
  O  O67  1  0.62496882  0.38011812  0.04042047  1
  O  O68  1  0.69635070  0.39198262  0.59300370  1
  O  O69  1  0.37672311  0.02009766  0.60586565  1
  O  O70  1  0.46093469  0.10230444  0.87651612  1
  O  O71  1  0.80517769  0.40658254  0.81957835  1
  O  O72  1  0.58457542  0.17640375  0.18092073  1
  O  O73  1  0.87503118  0.45957953  0.11988188  1
  O  O74  1  0.95856620  0.38161845  0.60310837  1
  O  O75  1  0.68358903  0.08352567  0.70002609  1
  O  O76  1  0.91542458  0.31907927  0.32359625  1
  O  O77  1  0.90322499  0.19174529  0.09864017  1
  O  O78  1  0.88188704  0.10941685  0.53477097  1
  O  O79  1  0.91723797  0.09113405  0.79677593  1
