# generated using pymatgen
data_Mn3OF8
_symmetry_space_group_name_H-M   'P 1'
_cell_length_a   5.18781362
_cell_length_b   5.21188283
_cell_length_c   13.49373329
_cell_angle_alpha   89.95612927
_cell_angle_beta   91.53475935
_cell_angle_gamma   59.85711086
_symmetry_Int_Tables_number   1
_chemical_formula_structural   Mn3OF8
_chemical_formula_sum   'Mn6 O2 F16'
_cell_volume   315.35526798
_cell_formula_units_Z   2
loop_
 _symmetry_equiv_pos_site_id
 _symmetry_equiv_pos_as_xyz
  1  'x, y, z'
loop_
 _atom_site_type_symbol
 _atom_site_label
 _atom_site_symmetry_multiplicity
 _atom_site_fract_x
 _atom_site_fract_y
 _atom_site_fract_z
 _atom_site_occupancy
  Mn  Mn0  1  0.00693688  0.96653585  0.00539816  1
  Mn  Mn1  1  0.00563345  0.02750432  0.50502675  1
  Mn  Mn2  1  0.32831923  0.31741809  0.66133391  1
  Mn  Mn3  1  0.33174523  0.35206912  0.16167776  1
  Mn  Mn4  1  0.67189305  0.64097785  0.83325133  1
  Mn  Mn5  1  0.67426301  0.68529781  0.33323542  1
  O  O6  1  0.04211234  0.28913709  0.58339278  1
  O  O7  1  0.04398453  0.67003870  0.08514361  1
  F  F8  1  0.01947327  0.40360062  0.24814855  1
  F  F9  1  0.26119770  0.04870127  0.08023450  1
  F  F10  1  0.41086823  0.96111295  0.75267377  1
  F  F11  1  0.26026689  0.69371116  0.58050521  1
  F  F12  1  0.60351882  0.02145181  0.25014592  1
  F  F13  1  0.66927225  0.06840568  0.57830365  1
  F  F14  1  0.32026367  0.72557401  0.92465761  1
  F  F15  1  0.41552943  0.62567529  0.25185853  1
  F  F16  1  0.59685151  0.37724585  0.75067199  1
  F  F17  1  0.67022073  0.26389843  0.07832255  1
  F  F18  1  0.31885190  0.95351277  0.42394961  1
  F  F19  1  0.73492171  0.34281032  0.41631633  1
  F  F20  1  0.93214626  0.31609428  0.91582988  1
  F  F21  1  0.73691209  0.91944187  0.91680194  1
  F  F22  1  0.01223417  0.57954240  0.74657918  1
  F  F23  1  0.93258265  0.75024044  0.41654104  1
