# generated using pymatgen
data_LiFeP2HO7
_symmetry_space_group_name_H-M   'P 1'
_cell_length_a   9.94681315
_cell_length_b   8.74544335
_cell_length_c   6.57173042
_cell_angle_alpha   77.99709448
_cell_angle_beta   108.73967455
_cell_angle_gamma   90.41599701
_symmetry_Int_Tables_number   1
_chemical_formula_structural   LiFeP2HO7
_chemical_formula_sum   'Li4 Fe4 P8 H4 O28'
_cell_volume   528.43351908
_cell_formula_units_Z   4
loop_
 _symmetry_equiv_pos_site_id
 _symmetry_equiv_pos_as_xyz
  1  'x, y, z'
loop_
 _atom_site_type_symbol
 _atom_site_label
 _atom_site_symmetry_multiplicity
 _atom_site_fract_x
 _atom_site_fract_y
 _atom_site_fract_z
 _atom_site_occupancy
  Li  Li0  1  0.12308570  0.21876647  0.28149953  1
  Li  Li1  1  0.37691430  0.28123353  0.71850047  1
  Li  Li2  1  0.62846401  0.74110202  0.32306486  1
  Li  Li3  1  0.87153599  0.75889798  0.67693514  1
  Fe  Fe4  1  0.06053917  0.83562050  0.16459753  1
  Fe  Fe5  1  0.52447647  0.27720278  0.39175756  1
  Fe  Fe6  1  0.43946083  0.66437950  0.83540247  1
  Fe  Fe7  1  0.97552353  0.22279722  0.60824244  1
  P  P8  1  0.38881561  0.00386037  0.21128307  1
  P  P9  1  0.11118439  0.49613963  0.78871693  1
  P  P10  1  0.30455877  0.54383104  0.23263245  1
  P  P11  1  0.82347265  0.01820612  0.25938296  1
  P  P12  1  0.19544123  0.95616896  0.76736755  1
  P  P13  1  0.67652735  0.48179388  0.74061704  1
  P  P14  1  0.87745250  0.50765937  0.17315206  1
  P  P15  1  0.62254750  0.99234063  0.82684794  1
  H  H16  1  0.23590155  0.55784790  0.55619052  1
  H  H17  1  0.75371324  0.03545618  0.60012789  1
  H  H18  1  0.26409845  0.94215210  0.44380948  1
  H  H19  1  0.74628676  0.46454382  0.39987211  1
  O  O20  1  0.24982300  0.00972391  0.28679318  1
  O  O21  1  0.17498402  0.12586336  0.62933171  1
  O  O22  1  0.07049470  0.32753956  0.85574820  1
  O  O23  1  -0.00013275  0.61239109  0.62922774  1
  O  O24  1  0.42950530  0.17246044  0.14425180  1
  O  O25  1  0.50814314  0.11421553  0.66490839  1
  O  O26  1  0.32501598  0.37413664  0.37066829  1
  O  O27  1  0.25017700  0.49027609  0.71320682  1
  O  O28  1  0.17128813  0.55524601  0.01251643  1
  O  O29  1  0.06417997  0.91499602  0.83778682  1
  O  O30  1  0.25073008  0.65846618  0.34293355  1
  O  O31  1  0.69384348  0.07709240  0.02942380  1
  O  O32  1  0.53486580  0.46782323  0.79111596  1
  O  O33  1  0.80940178  0.13565609  0.40322858  1
  O  O34  1  0.24926992  0.84153382  0.65706645  1
  O  O35  1  0.43582003  0.58500398  0.16221318  1
  O  O36  1  0.32871187  0.94475399  0.98748357  1
  O  O37  1  0.69059822  0.36434391  0.59677142  1
  O  O38  1  0.96513420  0.03217677  0.20888404  1
  O  O39  1  0.80615652  0.42290760  0.97057620  1
  O  O40  1  0.75093390  0.53538026  0.26006128  1
  O  O41  1  0.70034993  0.64513820  0.63947367  1
  O  O42  1  0.50013275  0.88760891  0.37077226  1
  O  O43  1  0.57256297  0.83612379  0.91348428  1
  O  O44  1  0.99185686  0.38578447  0.33509161  1
  O  O45  1  0.92743703  0.66387621  0.08651572  1
  O  O46  1  0.79965007  0.85486180  0.36052633  1
  O  O47  1  0.74906610  0.96461974  0.73993872  1
