# generated using pymatgen
data_Mn4O7F
_symmetry_space_group_name_H-M   'P 1'
_cell_length_a   4.48349343
_cell_length_b   5.52049825
_cell_length_c   4.97511299
_cell_angle_alpha   89.96256142
_cell_angle_beta   89.92250631
_cell_angle_gamma   88.57626853
_symmetry_Int_Tables_number   1
_chemical_formula_structural   Mn4O7F
_chemical_formula_sum   'Mn4 O7 F1'
_cell_volume   123.10145548
_cell_formula_units_Z   1
loop_
 _symmetry_equiv_pos_site_id
 _symmetry_equiv_pos_as_xyz
  1  'x, y, z'
loop_
 _atom_site_type_symbol
 _atom_site_label
 _atom_site_symmetry_multiplicity
 _atom_site_fract_x
 _atom_site_fract_y
 _atom_site_fract_z
 _atom_site_occupancy
  Mn  Mn0  1  0.00977597  0.85485049  0.73574237  1
  Mn  Mn1  1  0.00836008  0.16273659  0.25348666  1
  Mn  Mn2  1  0.50315253  0.35496694  0.75553098  1
  Mn  Mn3  1  0.49025270  0.63661919  0.25746562  1
  O  O4  1  0.23229159  0.11216696  0.92009488  1
  O  O5  1  0.23199139  0.88588070  0.41691679  1
  O  O6  1  0.27364598  0.39074060  0.42883294  1
  O  O7  1  0.26278095  0.61115052  0.92237117  1
  O  O8  1  0.73122932  0.38850571  0.08204140  1
  O  O9  1  0.73132149  0.61139683  0.57966442  1
  O  O10  1  0.76718874  0.11231382  0.57495121  1
  F  F11  1  0.75801027  0.87867267  0.07290154  1
