# generated using pymatgen
data_LiFe2OF5
_symmetry_space_group_name_H-M   'P 1'
_cell_length_a   8.71380639
_cell_length_b   8.68162940
_cell_length_c   4.56313841
_cell_angle_alpha   90.45302805
_cell_angle_beta   89.79650732
_cell_angle_gamma   119.97753811
_symmetry_Int_Tables_number   1
_chemical_formula_structural   LiFe2OF5
_chemical_formula_sum   'Li3 Fe6 O3 F15'
_cell_volume   299.01161264
_cell_formula_units_Z   3
loop_
 _symmetry_equiv_pos_site_id
 _symmetry_equiv_pos_as_xyz
  1  'x, y, z'
loop_
 _atom_site_type_symbol
 _atom_site_label
 _atom_site_symmetry_multiplicity
 _atom_site_fract_x
 _atom_site_fract_y
 _atom_site_fract_z
 _atom_site_occupancy
  Li  Li0  1  0.33187175  0.66754992  0.49280404  1
  Li  Li1  1  0.99888592  0.99814784  0.00784426  1
  Li  Li2  1  0.66507224  0.33463774  0.51462044  1
  Fe  Fe3  1  0.00664716  0.64347896  0.98137026  1
  Fe  Fe4  1  0.00510938  0.32926752  0.51690333  1
  Fe  Fe5  1  0.35526961  0.34145242  0.98139187  1
  Fe  Fe6  1  0.32271174  0.01264549  0.51780979  1
  Fe  Fe7  1  0.67839360  0.69087036  0.47943238  1
  Fe  Fe8  1  0.64525428  0.98600918  0.02051456  1
  O  O9  1  0.10155626  0.54058291  0.73822808  1
  O  O10  1  0.56677033  0.78863179  0.26358209  1
  O  O11  1  0.43453727  0.22226176  0.73741389  1
  F  F12  1  0.10641496  0.87982346  0.76472611  1
  F  F13  1  0.21354828  0.78356822  0.26287998  1
  F  F14  1  0.43861590  0.89570004  0.74372607  1
  F  F15  1  0.22283264  0.42885451  0.25985597  1
  F  F16  1  0.11665716  0.22313074  0.76481609  1
  F  F17  1  0.22339207  0.11658224  0.23562547  1
  F  F18  1  0.45885263  0.56284418  0.74258484  1
  F  F19  1  0.77828936  0.89462083  0.76600600  1
  F  F20  1  0.56226830  0.45573602  0.25674338  1
  F  F21  1  0.54193620  0.10601536  0.25650386  1
  F  F22  1  0.78457486  0.56927599  0.73397175  1
  F  F23  1  0.89372334  0.76919623  0.23285474  1
  F  F24  1  0.88913669  0.43611069  0.25525837  1
  F  F25  1  0.77416012  0.20607625  0.73653758  1
  F  F26  1  0.88341592  0.11693033  0.23599378  1
