# generated using pymatgen
data_MnH12S2(NO5)2
_symmetry_space_group_name_H-M   'P 1'
_cell_length_a   6.25248749
_cell_length_b   5.44113881
_cell_length_c   15.52282045
_cell_angle_alpha   90.00000000
_cell_angle_beta   92.43708488
_cell_angle_gamma   90.00000000
_symmetry_Int_Tables_number   1
_chemical_formula_structural   MnH12S2(NO5)2
_chemical_formula_sum   'Mn2 H24 S4 N4 O20'
_cell_volume   527.61882326
_cell_formula_units_Z   2
loop_
 _symmetry_equiv_pos_site_id
 _symmetry_equiv_pos_as_xyz
  1  'x, y, z'
loop_
 _atom_site_type_symbol
 _atom_site_label
 _atom_site_symmetry_multiplicity
 _atom_site_fract_x
 _atom_site_fract_y
 _atom_site_fract_z
 _atom_site_occupancy
  Mn  Mn0  1  0.00000000  0.50000000  0.50000000  1
  Mn  Mn1  1  0.00000000  0.00000000  0.00000000  1
  H  H2  1  0.13666637  0.60743959  0.78724526  1
  H  H3  1  0.20161257  0.21954527  0.62760312  1
  H  H4  1  0.13666637  0.89256041  0.28724526  1
  H  H5  1  0.20161257  0.28045473  0.12760312  1
  H  H6  1  0.21603044  0.06516666  0.54124148  1
  H  H7  1  0.21603044  0.43483334  0.04124148  1
  H  H8  1  0.31346703  0.69678838  0.93314334  1
  H  H9  1  0.31346703  0.80321162  0.43314334  1
  H  H10  1  0.40309965  0.58204008  0.78362407  1
  H  H11  1  0.39847974  0.71556303  0.52901409  1
  H  H12  1  0.40309965  0.91795992  0.28362407  1
  H  H13  1  0.39847974  0.78443697  0.02901409  1
  H  H14  1  0.60152026  0.21556303  0.97098591  1
  H  H15  1  0.59690035  0.08204008  0.71637593  1
  H  H16  1  0.60152026  0.28443697  0.47098591  1
  H  H17  1  0.59690035  0.41795992  0.21637593  1
  H  H18  1  0.68653297  0.19678838  0.56685666  1
  H  H19  1  0.68653297  0.30321162  0.06685666  1
  H  H20  1  0.78396956  0.56516666  0.95875852  1
  H  H21  1  0.78396956  0.93483334  0.45875852  1
  H  H22  1  0.79838743  0.71954527  0.87239688  1
  H  H23  1  0.86333363  0.10743959  0.71275474  1
  H  H24  1  0.79838743  0.78045473  0.37239688  1
  H  H25  1  0.86333363  0.39256041  0.21275474  1
  S  S26  1  0.25404374  0.23390531  0.82591259  1
  S  S27  1  0.25404374  0.26609469  0.32591259  1
  S  S28  1  0.74595626  0.73390531  0.67408741  1
  S  S29  1  0.74595626  0.76609469  0.17408741  1
  N  N30  1  0.27242252  0.54164427  0.81930218  1
  N  N31  1  0.27242252  0.95835573  0.31930218  1
  N  N32  1  0.72757748  0.04164427  0.68069782  1
  N  N33  1  0.72757748  0.45835573  0.18069782  1
  O  O34  1  0.06730266  0.19187289  0.87947463  1
  O  O35  1  0.06730266  0.30812711  0.37947463  1
  O  O36  1  0.21459726  0.13098412  0.73880588  1
  O  O37  1  0.20644386  0.23456059  0.56430480  1
  O  O38  1  0.21459726  0.36901588  0.23880588  1
  O  O39  1  0.20644386  0.26543941  0.06430480  1
  O  O40  1  0.27201072  0.73222030  0.99315951  1
  O  O41  1  0.27201072  0.76777970  0.49315951  1
  O  O42  1  0.45849509  0.15606313  0.86564826  1
  O  O43  1  0.45849509  0.34393687  0.36564826  1
  O  O44  1  0.54150491  0.65606313  0.63435174  1
  O  O45  1  0.54150491  0.84393687  0.13435174  1
  O  O46  1  0.72798928  0.23222030  0.50684049  1
  O  O47  1  0.72798928  0.26777970  0.00684049  1
  O  O48  1  0.79355614  0.73456059  0.93569520  1
  O  O49  1  0.78540374  0.63098412  0.76119412  1
  O  O50  1  0.79355614  0.76543941  0.43569520  1
  O  O51  1  0.78540374  0.86901588  0.26119412  1
  O  O52  1  0.93269734  0.69187289  0.62052537  1
  O  O53  1  0.93269734  0.80812711  0.12052537  1
