# generated using pymatgen
data_Mn12O5F19
_symmetry_space_group_name_H-M   'P 1'
_cell_length_a   4.84640213
_cell_length_b   5.87420332
_cell_length_c   16.00113799
_cell_angle_alpha   90.28247529
_cell_angle_beta   89.82469954
_cell_angle_gamma   88.65556359
_symmetry_Int_Tables_number   1
_chemical_formula_structural   Mn12O5F19
_chemical_formula_sum   'Mn12 O5 F19'
_cell_volume   455.39918676
_cell_formula_units_Z   1
loop_
 _symmetry_equiv_pos_site_id
 _symmetry_equiv_pos_as_xyz
  1  'x, y, z'
loop_
 _atom_site_type_symbol
 _atom_site_label
 _atom_site_symmetry_multiplicity
 _atom_site_fract_x
 _atom_site_fract_y
 _atom_site_fract_z
 _atom_site_occupancy
  Mn  Mn0  1  0.03341400  0.19192633  0.42337153  1
  Mn  Mn1  1  0.98307242  0.85558006  0.25283802  1
  Mn  Mn2  1  0.00956062  0.16971519  0.09361626  1
  Mn  Mn3  1  0.98383322  0.16069779  0.74568427  1
  Mn  Mn4  1  0.99651655  0.83876177  0.58125359  1
  Mn  Mn5  1  0.01454027  0.84388552  0.90858080  1
  Mn  Mn6  1  0.50578762  0.35194477  0.58770053  1
  Mn  Mn7  1  0.48729193  0.33061039  0.91694037  1
  Mn  Mn8  1  0.50286916  0.32631212  0.23828963  1
  Mn  Mn9  1  0.50074706  0.64878378  0.08399908  1
  Mn  Mn10  1  0.49105055  0.63592305  0.41697298  1
  Mn  Mn11  1  0.48537332  0.65894161  0.75179933  1
  O  O12  1  0.21865284  0.88930286  0.79965604  1
  O  O13  1  0.29298943  0.37462467  0.13725632  1
  O  O14  1  0.30630853  0.39697787  0.48111428  1
  O  O15  1  0.69976087  0.38891698  0.69582652  1
  O  O16  1  0.78678977  0.12500028  0.19374609  1
  F  F17  1  0.24055613  0.10495633  0.30981208  1
  F  F18  1  0.22311321  0.12077172  0.63603993  1
  F  F19  1  0.21947713  0.11557541  0.98150352  1
  F  F20  1  0.23829454  0.87853331  0.14354460  1
  F  F21  1  0.23945483  0.88812146  0.47134434  1
  F  F22  1  0.26811045  0.59558271  0.30229827  1
  F  F23  1  0.26693087  0.61651899  0.64195097  1
  F  F24  1  0.24016427  0.39245204  0.80781689  1
  F  F25  1  0.26868844  0.61772699  0.97120918  1
  F  F26  1  0.74540285  0.39048373  0.02288884  1
  F  F27  1  0.73831440  0.62062025  0.19372583  1
  F  F28  1  0.72628659  0.37258625  0.35075262  1
  F  F29  1  0.74359478  0.60557477  0.52499919  1
  F  F30  1  0.71341961  0.61538084  0.86024947  1
  F  F31  1  0.77174694  0.12108675  0.52894913  1
  F  F32  1  0.76042256  0.86738180  0.36838951  1
  F  F33  1  0.78091251  0.88798577  0.02536816  1
  F  F34  1  0.76908789  0.11080908  0.85919629  1
  F  F35  1  0.74746387  0.88994775  0.69131653  1
