# generated using pymatgen
data_RbPdO3
_symmetry_space_group_name_H-M   'P 1'
_cell_length_a   4.12832841
_cell_length_b   4.12769072
_cell_length_c   4.12890793
_cell_angle_alpha   90.00007342
_cell_angle_beta   90.00000694
_cell_angle_gamma   90.00000819
_symmetry_Int_Tables_number   1
_chemical_formula_structural   RbPdO3
_chemical_formula_sum   'Rb1 Pd1 O3'
_cell_volume   70.35850226
_cell_formula_units_Z   1
loop_
 _symmetry_equiv_pos_site_id
 _symmetry_equiv_pos_as_xyz
  1  'x, y, z'
loop_
 _atom_site_type_symbol
 _atom_site_label
 _atom_site_symmetry_multiplicity
 _atom_site_fract_x
 _atom_site_fract_y
 _atom_site_fract_z
 _atom_site_occupancy
  Rb  Rb0  1  0.99999968  0.99999979  0.99999977  1
  Pd  Pd1  1  0.49999939  0.49999937  0.49999958  1
  O  O2  1  0.49999917  0.49999925  0.99999941  1
  O  O3  1  0.49999920  0.99999944  0.49999911  1
  O  O4  1  0.99999955  0.49999915  0.49999912  1
