# generated using pymatgen
data_LiH2N3O
_symmetry_space_group_name_H-M   'P 1'
_cell_length_a   9.31467701
_cell_length_b   9.31469550
_cell_length_c   5.62595183
_cell_angle_alpha   89.99999865
_cell_angle_beta   90.00002779
_cell_angle_gamma   120.00006879
_symmetry_Int_Tables_number   1
_chemical_formula_structural   LiH2N3O
_chemical_formula_sum   'Li6 H12 N18 O6'
_cell_volume   422.72973994
_cell_formula_units_Z   6
loop_
 _symmetry_equiv_pos_site_id
 _symmetry_equiv_pos_as_xyz
  1  'x, y, z'
loop_
 _atom_site_type_symbol
 _atom_site_label
 _atom_site_symmetry_multiplicity
 _atom_site_fract_x
 _atom_site_fract_y
 _atom_site_fract_z
 _atom_site_occupancy
  Li  Li0  1  0.33330306  0.66669202  0.00000032  1
  Li  Li1  1  0.00000001  0.00000058  0.00000020  1
  Li  Li2  1  -0.00000001  0.00000057  0.49999980  1
  Li  Li3  1  0.33338452  0.66669300  0.49999956  1
  Li  Li4  1  0.66661548  0.33330848  0.00000044  1
  Li  Li5  1  0.66669694  0.33338896  0.49999968  1
  H  H6  1  0.09839691  0.81048847  0.74999892  1
  H  H7  1  0.18951005  0.90160309  0.25000103  1
  H  H8  1  0.09839590  0.28790714  0.25000010  1
  H  H9  1  0.18951048  0.28790740  0.75000000  1
  H  H10  1  0.28790770  0.18951078  0.74999895  1
  H  H11  1  0.28790760  0.09839687  0.25000111  1
  H  H12  1  0.71209230  0.90160408  0.75000105  1
  H  H13  1  0.71209240  0.81048927  0.24999889  1
  H  H14  1  0.81048995  0.71209304  0.24999897  1
  H  H15  1  0.90160309  0.71209255  0.75000108  1
  H  H16  1  0.81048952  0.09839692  0.75000000  1
  H  H17  1  0.90160410  0.18951125  0.24999990  1
  N  N18  1  1.00000000  0.59283229  0.25000000  1
  N  N19  1  0.00000000  0.40717867  0.75000000  1
  N  N20  1  0.14681199  0.66882978  0.24999683  1
  N  N21  1  0.33122619  0.85319047  0.74999864  1
  N  N22  1  0.14681390  0.47803562  0.75000218  1
  N  N23  1  0.33116061  0.47799005  0.25000105  1
  N  N24  1  0.52197090  0.85320133  0.25000102  1
  N  N25  1  0.52201903  0.66883508  0.74999901  1
  N  N26  1  0.40720761  0.40713979  0.24999967  1
  N  N27  1  0.59284727  0.59280661  0.74999977  1
  N  N28  1  0.47802910  0.33123044  0.24999898  1
  N  N29  1  0.47798097  0.14681505  0.75000099  1
  N  N30  1  0.66877381  0.52196428  0.75000136  1
  N  N31  1  0.40715273  -0.00004065  0.75000023  1
  N  N32  1  0.59279239  -0.00006783  0.25000033  1
  N  N33  1  0.85318801  0.52201778  0.25000317  1
  N  N34  1  0.66883939  0.14682945  0.24999895  1
  N  N35  1  0.85318610  0.33122172  0.74999782  1
  O  O36  1  1.00000000  0.82412743  0.75000000  1
  O  O37  1  0.00000000  0.17587308  0.25000000  1
  O  O38  1  0.17587255  0.17587483  0.74999996  1
  O  O39  1  0.17587276  0.00000087  0.24999998  1
  O  O40  1  0.82412724  0.82412811  0.25000102  1
  O  O41  1  0.82412745  0.00000228  0.75000004  1
