# generated using pymatgen
data_LiV2OF5
_symmetry_space_group_name_H-M   'P 1'
_cell_length_a   4.75465521
_cell_length_b   4.75465521
_cell_length_c   18.61395584
_cell_angle_alpha   89.77885004
_cell_angle_beta   90.22114996
_cell_angle_gamma   89.99877474
_symmetry_Int_Tables_number   1
_chemical_formula_structural   LiV2OF5
_chemical_formula_sum   'Li4 V8 O4 F20'
_cell_volume   420.79470573
_cell_formula_units_Z   4
loop_
 _symmetry_equiv_pos_site_id
 _symmetry_equiv_pos_as_xyz
  1  'x, y, z'
loop_
 _atom_site_type_symbol
 _atom_site_label
 _atom_site_symmetry_multiplicity
 _atom_site_fract_x
 _atom_site_fract_y
 _atom_site_fract_z
 _atom_site_occupancy
  Li  Li0  1  0.00446208  0.00303999  0.99999416  1
  Li  Li1  1  0.99696001  0.99553792  0.49999416  1
  Li  Li2  1  0.50375677  0.49669786  0.25006636  1
  Li  Li3  1  0.50330214  0.49624323  0.75006636  1
  V  V4  1  0.97820989  0.97524370  0.16703632  1
  V  V5  1  0.00812080  0.99152484  0.33969930  1
  V  V6  1  0.02475630  0.02179011  0.66703632  1
  V  V7  1  0.00847516  0.99187920  0.83969930  1
  V  V8  1  0.50914090  0.50743773  0.08975190  1
  V  V9  1  0.47564187  0.52096092  0.41711471  1
  V  V10  1  0.47903908  0.52435813  0.91711471  1
  V  V11  1  0.49256227  0.49085910  0.58975190  1
  O  O12  1  0.20822315  0.79030071  0.40602254  1
  O  O13  1  0.20969929  0.79177685  0.90602254  1
  O  O14  1  0.29300619  0.29012377  0.65599641  1
  O  O15  1  0.70987623  0.70699381  0.15599641  1
  F  F16  1  0.19964340  0.80275410  0.08432218  1
  F  F17  1  0.19724590  0.80035660  0.58432218  1
  F  F18  1  0.19317911  0.80454322  0.25102577  1
  F  F19  1  0.19545678  0.80682089  0.75102577  1
  F  F20  1  0.31202052  0.31396688  0.00247157  1
  F  F21  1  0.30457075  0.30645535  0.50081298  1
  F  F22  1  0.28942132  0.28745665  0.16487378  1
  F  F23  1  0.30346701  0.30119959  0.83471092  1
  F  F24  1  0.30172702  0.30082660  0.33436116  1
  F  F25  1  0.69880041  0.69653299  0.33471092  1
  F  F26  1  0.69917340  0.69827298  0.83436116  1
  F  F27  1  0.71254335  0.71057868  0.66487378  1
  F  F28  1  0.68603312  0.68797948  0.50247157  1
  F  F29  1  0.69354465  0.69542925  0.00081298  1
  F  F30  1  0.81544051  0.18966270  0.75221806  1
  F  F31  1  0.81033730  0.18455949  0.25221806  1
  F  F32  1  0.78777087  0.20977662  0.41485004  1
  F  F33  1  0.79022338  0.21222913  0.91485004  1
  F  F34  1  0.80129920  0.19713013  0.58467183  1
  F  F35  1  0.80286987  0.19870080  0.08467183  1
