# generated using pymatgen
data_LiMnPO4
_symmetry_space_group_name_H-M   'P 1'
_cell_length_a   9.00693386
_cell_length_b   8.91445255
_cell_length_c   5.36934820
_cell_angle_alpha   90.00000000
_cell_angle_beta   90.00000000
_cell_angle_gamma   90.00000000
_symmetry_Int_Tables_number   1
_chemical_formula_structural   LiMnPO4
_chemical_formula_sum   'Li4 Mn4 P4 O16'
_cell_volume   431.11508560
_cell_formula_units_Z   4
loop_
 _symmetry_equiv_pos_site_id
 _symmetry_equiv_pos_as_xyz
  1  'x, y, z'
loop_
 _atom_site_type_symbol
 _atom_site_label
 _atom_site_symmetry_multiplicity
 _atom_site_fract_x
 _atom_site_fract_y
 _atom_site_fract_z
 _atom_site_occupancy
  Li  Li0  1  0.12099072  0.92336101  0.75000000  1
  Li  Li1  1  0.37900928  0.42336101  0.25000000  1
  Li  Li2  1  0.62099072  0.57663899  0.75000000  1
  Li  Li3  1  0.87900928  0.07663899  0.25000000  1
  Mn  Mn4  1  0.90990945  0.66529000  0.75000000  1
  Mn  Mn5  1  0.59009055  0.16529000  0.25000000  1
  Mn  Mn6  1  0.40990945  0.83471000  0.75000000  1
  Mn  Mn7  1  0.09009055  0.33471000  0.25000000  1
  P  P8  1  0.25780516  0.03658631  0.25000000  1
  P  P9  1  0.24219484  0.53658631  0.75000000  1
  P  P10  1  0.75780516  0.46341369  0.25000000  1
  P  P11  1  0.74219484  0.96341369  0.75000000  1
  O  O12  1  0.09494474  0.09840616  0.25000000  1
  O  O13  1  0.21858014  0.44181549  0.51312872  1
  O  O14  1  0.21858014  0.44181549  0.98687128  1
  O  O15  1  0.13644210  0.67567657  0.75000000  1
  O  O16  1  0.36355790  0.17567657  0.25000000  1
  O  O17  1  0.28141986  0.94181549  0.01312872  1
  O  O18  1  0.28141986  0.94181549  0.48687128  1
  O  O19  1  0.40505526  0.59840616  0.75000000  1
  O  O20  1  0.59494474  0.40159384  0.25000000  1
  O  O21  1  0.71858014  0.05818451  0.51312872  1
  O  O22  1  0.71858014  0.05818451  0.98687128  1
  O  O23  1  0.63644210  0.82432343  0.75000000  1
  O  O24  1  0.86355790  0.32432343  0.25000000  1
  O  O25  1  0.78141986  0.55818451  0.01312872  1
  O  O26  1  0.78141986  0.55818451  0.48687128  1
  O  O27  1  0.90505526  0.90159384  0.75000000  1
