# generated using pymatgen
data_NaCr4O12
_symmetry_space_group_name_H-M   'P 1'
_cell_length_a   8.78329475
_cell_length_b   16.06108299
_cell_length_c   8.78329475
_cell_angle_alpha   74.13128489
_cell_angle_beta   90.00000000
_cell_angle_gamma   105.86871886
_symmetry_Int_Tables_number   1
_chemical_formula_structural   NaCr4O12
_chemical_formula_sum   'Na4 Cr16 O48'
_cell_volume   1142.66422429
_cell_formula_units_Z   4
loop_
 _symmetry_equiv_pos_site_id
 _symmetry_equiv_pos_as_xyz
  1  'x, y, z'
loop_
 _atom_site_type_symbol
 _atom_site_label
 _atom_site_symmetry_multiplicity
 _atom_site_fract_x
 _atom_site_fract_y
 _atom_site_fract_z
 _atom_site_occupancy
  Na  Na0  1  0.12494427  0.74988854  0.12505573  1
  Na  Na1  1  0.37494427  0.24988854  0.37505573  1
  Na  Na2  1  0.62505573  0.75011146  0.62494427  1
  Na  Na3  1  0.87505573  0.25011146  0.87494427  1
  Cr  Cr4  1  0.16230408  0.09730525  0.09441683  1
  Cr  Cr5  1  0.40558317  0.59730525  0.06499784  1
  Cr  Cr6  1  0.09099249  0.39998784  0.16311609  1
  Cr  Cr7  1  0.66311609  0.10001216  0.30899535  1
  Cr  Cr8  1  0.56499784  0.90269475  0.19172207  1
  Cr  Cr9  1  0.93689707  0.10001216  0.59099249  1
  Cr  Cr10  1  0.80899535  0.39998784  0.43689707  1
  Cr  Cr11  1  0.69172207  0.59730525  0.33769592  1
  Cr  Cr12  1  0.30827793  0.40269475  0.66230408  1
  Cr  Cr13  1  0.19100465  0.60001216  0.56310293  1
  Cr  Cr14  1  0.06310293  0.89998784  0.40900751  1
  Cr  Cr15  1  0.43500216  0.09730525  0.80827793  1
  Cr  Cr16  1  0.33688391  0.89998784  0.69100465  1
  Cr  Cr17  1  0.90900751  0.60001216  0.83688391  1
  Cr  Cr18  1  0.59441683  0.40269475  0.93500216  1
  Cr  Cr19  1  0.83769592  0.90269475  0.90558317  1
  O  O20  1  0.99416567  0.36592783  0.02546991  1
  O  O21  1  0.76887399  0.17453866  0.15728568  1
  O  O22  1  0.07095548  0.00101695  0.24598561  1
  O  O23  1  0.26845197  0.17406612  0.16466517  1
  O  O24  1  0.49803450  0.36642078  0.10691113  1
  O  O25  1  0.25401439  0.50101695  0.06993853  1
  O  O26  1  0.16817566  0.32546134  0.26887399  1
  O  O27  1  0.33533483  0.67406612  0.09438585  1
  O  O28  1  0.52546991  0.13407217  0.37176116  1
  O  O29  1  0.97333191  0.86642078  0.00196550  1
  O  O30  1  0.96380927  0.42761954  0.28619073  1
  O  O31  1  0.71408499  0.92816998  0.03591501  1
  O  O32  1  0.53591501  0.57183002  0.21408499  1
  O  O33  1  0.78619073  0.07238046  0.46380927  1
  O  O34  1  0.39308887  0.86642078  0.13161372  1
  O  O35  1  0.10860226  0.13407217  0.49416567  1
  O  O36  1  0.83873130  0.67406612  0.23154803  1
  O  O37  1  0.65728568  0.32546134  0.40566467  1
  O  O38  1  0.74700256  0.50101695  0.42904452  1
  O  O39  1  0.36838628  0.36642078  0.52666809  1
  O  O40  1  0.12823884  0.63407217  0.39139774  1
  O  O41  1  0.40561415  0.17406612  0.66126870  1
  O  O42  1  0.09433533  0.82546134  0.33182434  1
  O  O43  1  0.43006147  0.00101695  0.75299744  1
  O  O44  1  0.56993853  0.99898305  0.24700256  1
  O  O45  1  0.90566467  0.17453866  0.66817566  1
  O  O46  1  0.59438585  0.82593388  0.33873130  1
  O  O47  1  0.87176116  0.36592783  0.60860226  1
  O  O48  1  0.63161372  0.63357922  0.47333191  1
  O  O49  1  0.25299744  0.49898305  0.57095548  1
  O  O50  1  0.34271432  0.67453866  0.59433533  1
  O  O51  1  0.16126870  0.32593388  0.76845197  1
  O  O52  1  0.89139774  0.86592783  0.50583433  1
  O  O53  1  0.60691113  0.13357922  0.86838628  1
  O  O54  1  0.21380927  0.92761954  0.53619073  1
  O  O55  1  0.03619073  0.57238046  0.71380927  1
  O  O56  1  0.28591501  0.07183002  0.96408499  1
  O  O57  1  0.46408499  0.42816998  0.78591501  1
  O  O58  1  0.02666809  0.13357922  0.99803450  1
  O  O59  1  0.47453009  0.86592783  0.62823884  1
  O  O60  1  0.66466517  0.32593388  0.90561415  1
  O  O61  1  0.83182434  0.67453866  0.73112601  1
  O  O62  1  0.74598561  0.49898305  0.93006147  1
  O  O63  1  0.50196550  0.63357922  0.89308887  1
  O  O64  1  0.73154803  0.82593388  0.83533483  1
  O  O65  1  0.92904452  0.99898305  0.75401439  1
  O  O66  1  0.23112601  0.82546134  0.84271432  1
  O  O67  1  0.00583433  0.63407217  0.97453009  1
