# generated using pymatgen
data_Mg(CoO2)2
_symmetry_space_group_name_H-M   'P 1'
_cell_length_a   5.95406928
_cell_length_b   5.95406944
_cell_length_c   5.90513418
_cell_angle_alpha   60.27149591
_cell_angle_beta   60.27150267
_cell_angle_gamma   60.02666228
_symmetry_Int_Tables_number   1
_chemical_formula_structural   Mg(CoO2)2
_chemical_formula_sum   'Mg2 Co4 O8'
_cell_volume   148.66227639
_cell_formula_units_Z   2
loop_
 _symmetry_equiv_pos_site_id
 _symmetry_equiv_pos_as_xyz
  1  'x, y, z'
loop_
 _atom_site_type_symbol
 _atom_site_label
 _atom_site_symmetry_multiplicity
 _atom_site_fract_x
 _atom_site_fract_y
 _atom_site_fract_z
 _atom_site_occupancy
  Mg  Mg0  1  0.12500000  0.62500000  0.62500000  1
  Mg  Mg1  1  0.62500000  0.12500000  0.62500000  1
  Co  Co2  1  0.99366998  0.99366998  0.00633002  1
  Co  Co3  1  0.25633002  0.25633002  0.24366998  1
  Co  Co4  1  0.62500000  0.62500000  0.12500000  1
  Co  Co5  1  0.62500000  0.62500000  0.62500000  1
  O  O6  1  0.38992057  0.38992057  0.36628144  1
  O  O7  1  0.38262103  0.86283681  0.37727108  1
  O  O8  1  0.38992057  0.38992057  0.85387843  1
  O  O9  1  0.86283681  0.38262103  0.37727108  1
  O  O10  1  0.38716319  0.86737897  0.87272892  1
  O  O11  1  0.86737897  0.38716319  0.87272892  1
  O  O12  1  0.86007943  0.86007943  0.39612157  1
  O  O13  1  0.86007943  0.86007943  0.88371856  1
