# generated using pymatgen
data_LiMnPO4
_symmetry_space_group_name_H-M   'P 1'
_cell_length_a   6.61572486
_cell_length_b   9.67929043
_cell_length_c   6.02194296
_cell_angle_alpha   97.82903423
_cell_angle_beta   100.25077802
_cell_angle_gamma   72.93937781
_symmetry_Int_Tables_number   1
_chemical_formula_structural   LiMnPO4
_chemical_formula_sum   'Li4 Mn4 P4 O16'
_cell_volume   361.31547148
_cell_formula_units_Z   4
loop_
 _symmetry_equiv_pos_site_id
 _symmetry_equiv_pos_as_xyz
  1  'x, y, z'
loop_
 _atom_site_type_symbol
 _atom_site_label
 _atom_site_symmetry_multiplicity
 _atom_site_fract_x
 _atom_site_fract_y
 _atom_site_fract_z
 _atom_site_occupancy
  Li  Li0  1  0.19220115  0.28455033  0.58301943  1
  Li  Li1  1  0.34056892  0.68108447  0.43259362  1
  Li  Li2  1  0.65943108  0.31891553  0.56740638  1
  Li  Li3  1  0.80779885  0.71544967  0.41698057  1
  Mn  Mn4  1  0.08938234  0.71287842  0.97687773  1
  Mn  Mn5  1  0.35473917  0.93370909  0.78982832  1
  Mn  Mn6  1  0.64526083  0.06629091  0.21017168  1
  Mn  Mn7  1  0.91061766  0.28712158  0.02312227  1
  P  P8  1  0.29945536  0.38624264  0.14878335  1
  P  P9  1  0.18309816  0.01258025  0.28690921  1
  P  P10  1  0.81690184  0.98741975  0.71309079  1
  P  P11  1  0.70054464  0.61375736  0.85121665  1
  O  O12  1  0.26077651  0.07201383  0.52887291  1
  O  O13  1  0.13370590  0.36170386  0.28549852  1
  O  O14  1  0.23966131  0.33455807  0.89987525  1
  O  O15  1  0.04950023  0.89288536  0.78796868  1
  O  O16  1  0.33023873  0.03120882  0.12355670  1
  O  O17  1  0.29203046  0.55038645  0.17930433  1
  O  O18  1  0.18855205  0.85088556  0.27949089  1
  O  O19  1  0.46886319  0.69931742  0.74623550  1
  O  O20  1  0.53113681  0.30068258  0.25376450  1
  O  O21  1  0.81144795  0.14911444  0.72050911  1
  O  O22  1  0.70796954  0.44961355  0.82069567  1
  O  O23  1  0.66976127  0.96879118  0.87644330  1
  O  O24  1  0.95049977  0.10711464  0.21203132  1
  O  O25  1  0.76033869  0.66544193  0.10012475  1
  O  O26  1  0.86629410  0.63829614  0.71450148  1
  O  O27  1  0.73922349  0.92798617  0.47112709  1
