# generated using pymatgen
data_LiMnPO4
_symmetry_space_group_name_H-M   'P 1'
_cell_length_a   5.88452916
_cell_length_b   11.01167890
_cell_length_c   10.00689513
_cell_angle_alpha   90.00000000
_cell_angle_beta   91.27279456
_cell_angle_gamma   90.00000000
_symmetry_Int_Tables_number   1
_chemical_formula_structural   LiMnPO4
_chemical_formula_sum   'Li8 Mn8 P8 O32'
_cell_volume   648.27226226
_cell_formula_units_Z   8
loop_
 _symmetry_equiv_pos_site_id
 _symmetry_equiv_pos_as_xyz
  1  'x, y, z'
loop_
 _atom_site_type_symbol
 _atom_site_label
 _atom_site_symmetry_multiplicity
 _atom_site_fract_x
 _atom_site_fract_y
 _atom_site_fract_z
 _atom_site_occupancy
  Li  Li0  1  0.11215493  0.84383808  0.86222732  1
  Li  Li1  1  0.11215493  0.65616192  0.36222732  1
  Li  Li2  1  0.38375051  0.34717016  0.60506397  1
  Li  Li3  1  0.38375051  0.15282984  0.10506397  1
  Li  Li4  1  0.61624949  0.84717016  0.89493603  1
  Li  Li5  1  0.61624949  0.65282984  0.39493603  1
  Li  Li6  1  0.88784507  0.34383808  0.63777268  1
  Li  Li7  1  0.88784507  0.15616192  0.13777268  1
  Mn  Mn8  1  0.15072650  0.12605700  0.51124369  1
  Mn  Mn9  1  0.15072650  0.37394300  0.01124369  1
  Mn  Mn10  1  0.37799849  0.59562982  0.76380940  1
  Mn  Mn11  1  0.37799849  0.90437018  0.26380940  1
  Mn  Mn12  1  0.62200151  0.09562982  0.73619060  1
  Mn  Mn13  1  0.62200151  0.40437018  0.23619060  1
  Mn  Mn14  1  0.84927350  0.62605700  0.98875631  1
  Mn  Mn15  1  0.84927350  0.87394300  0.48875631  1
  P  P16  1  0.12904503  0.10789738  0.84261960  1
  P  P17  1  0.12904503  0.39210262  0.34261960  1
  P  P18  1  0.37273039  0.85561247  0.59526780  1
  P  P19  1  0.37273039  0.64438753  0.09526780  1
  P  P20  1  0.62726961  0.35561247  0.90473220  1
  P  P21  1  0.62726961  0.14438753  0.40473220  1
  P  P22  1  0.87095497  0.60789738  0.65738040  1
  P  P23  1  0.87095497  0.89210262  0.15738040  1
  O  O24  1  0.10732985  0.18638714  0.97259323  1
  O  O25  1  0.07906087  0.52127579  0.67078376  1
  O  O26  1  0.10732985  0.31361286  0.47259323  1
  O  O27  1  0.07906087  0.97872421  0.17078376  1
  O  O28  1  0.14402923  0.19228465  0.71638699  1
  O  O29  1  0.16219806  0.93871618  0.57137848  1
  O  O30  1  0.14402923  0.30771535  0.21638699  1
  O  O31  1  0.16219806  0.56128382  0.07137848  1
  O  O32  1  0.32879949  0.77728090  0.71892635  1
  O  O33  1  0.35081971  0.03045681  0.85703082  1
  O  O34  1  0.32879949  0.72271910  0.21892635  1
  O  O35  1  0.35081971  0.46954319  0.35703082  1
  O  O36  1  0.40897364  0.43320462  0.87571134  1
  O  O37  1  0.41572875  0.71825076  0.96635626  1
  O  O38  1  0.40897364  0.06679538  0.37571134  1
  O  O39  1  0.41572875  0.78174924  0.46635626  1
  O  O40  1  0.58427125  0.21825076  0.53364374  1
  O  O41  1  0.59102636  0.93320462  0.62428866  1
  O  O42  1  0.58427125  0.28174924  0.03364374  1
  O  O43  1  0.59102636  0.56679538  0.12428866  1
  O  O44  1  0.64918029  0.53045681  0.64296918  1
  O  O45  1  0.67120051  0.27728090  0.78107365  1
  O  O46  1  0.64918029  0.96954319  0.14296918  1
  O  O47  1  0.67120051  0.22271910  0.28107365  1
  O  O48  1  0.83780194  0.43871618  0.92862152  1
  O  O49  1  0.85597077  0.69228465  0.78361301  1
  O  O50  1  0.83780194  0.06128382  0.42862152  1
  O  O51  1  0.85597077  0.80771535  0.28361301  1
  O  O52  1  0.92093913  0.02127579  0.82921624  1
  O  O53  1  0.89267015  0.68638714  0.52740677  1
  O  O54  1  0.92093913  0.47872421  0.32921624  1
  O  O55  1  0.89267015  0.81361286  0.02740677  1
