# generated using pymatgen
data_Li4Ni7(PO4)6
_symmetry_space_group_name_H-M   'P 1'
_cell_length_a   8.76733421
_cell_length_b   8.76733421
_cell_length_c   6.41295205
_cell_angle_alpha   81.20726735
_cell_angle_beta   98.79273265
_cell_angle_gamma   74.97873135
_symmetry_Int_Tables_number   1
_chemical_formula_structural   Li4Ni7(PO4)6
_chemical_formula_sum   'Li4 Ni7 P6 O24'
_cell_volume   460.83390794
_cell_formula_units_Z   1
loop_
 _symmetry_equiv_pos_site_id
 _symmetry_equiv_pos_as_xyz
  1  'x, y, z'
loop_
 _atom_site_type_symbol
 _atom_site_label
 _atom_site_symmetry_multiplicity
 _atom_site_fract_x
 _atom_site_fract_y
 _atom_site_fract_z
 _atom_site_occupancy
  Li  Li0  1  0.26840951  0.73159049  0.53573888  1
  Li  Li1  1  0.46303522  0.25338922  0.52998664  1
  Li  Li2  1  0.74661078  0.53696478  0.52998664  1
  Li  Li3  1  0.94195002  0.05804998  0.50516328  1
  Ni  Ni4  1  0.02143219  0.36406687  0.18445421  1
  Ni  Ni5  1  0.63593313  0.97856781  0.18445421  1
  Ni  Ni6  1  0.37718830  0.37497158  0.99886437  1
  Ni  Ni7  1  0.62502842  0.62281170  0.99886437  1
  Ni  Ni8  1  0.00016061  0.99983939  0.00297178  1
  Ni  Ni9  1  0.35722191  0.01651556  0.81608218  1
  Ni  Ni10  1  0.98348444  0.64277809  0.81608218  1
  P  P11  1  0.09686246  0.28455056  0.71223985  1
  P  P12  1  0.71544944  0.90313754  0.71223985  1
  P  P13  1  0.31527612  0.68472388  0.04677262  1
  P  P14  1  0.69119204  0.30880796  0.95493807  1
  P  P15  1  0.28353080  0.09078873  0.28621956  1
  P  P16  1  0.90921127  0.71646920  0.28621956  1
  O  O17  1  0.22238080  0.60114656  0.89109586  1
  O  O18  1  0.39885344  0.77761920  0.89109586  1
  O  O19  1  0.20926048  0.79073952  0.16790881  1
  O  O20  1  0.60664698  0.97660420  0.86211426  1
  O  O21  1  0.02339580  0.39335302  0.86211426  1
  O  O22  1  0.90031166  0.89222312  0.77558270  1
  O  O23  1  0.10777688  0.09968834  0.77558270  1
  O  O24  1  0.28186693  0.27877700  0.73607432  1
  O  O25  1  0.72122300  0.71813307  0.73607432  1
  O  O26  1  0.45623730  0.54376270  0.19356725  1
  O  O27  1  0.55689257  0.44310743  0.78418217  1
  O  O28  1  0.88524489  0.90280787  0.21727130  1
  O  O29  1  0.09719213  0.11475511  0.21727130  1
  O  O30  1  0.29369636  0.27075759  0.27142126  1
  O  O31  1  0.72924241  0.70630364  0.27142126  1
  O  O32  1  0.33928212  0.98487276  0.51144055  1
  O  O33  1  0.01512724  0.66071788  0.51144055  1
  O  O34  1  0.80468675  0.19531325  0.85202932  1
  O  O35  1  0.38956862  0.01549184  0.13529002  1
  O  O36  1  0.98450816  0.61043138  0.13529002  1
  O  O37  1  0.59826506  0.21972685  0.09864821  1
  O  O38  1  0.78027315  0.40173494  0.09864821  1
  O  O39  1  0.65404235  0.01295170  0.48873713  1
  O  O40  1  0.98704830  0.34595765  0.48873713  1
