# generated using pymatgen
data_Li4Mn(PO3)6
_symmetry_space_group_name_H-M   'P 1'
_cell_length_a   7.37615799
_cell_length_b   7.37615799
_cell_length_c   14.03197062
_cell_angle_alpha   86.49842160
_cell_angle_beta   93.50157840
_cell_angle_gamma   115.59732101
_symmetry_Int_Tables_number   1
_chemical_formula_structural   Li4Mn(PO3)6
_chemical_formula_sum   'Li8 Mn2 P12 O36'
_cell_volume   686.72123069
_cell_formula_units_Z   2
loop_
 _symmetry_equiv_pos_site_id
 _symmetry_equiv_pos_as_xyz
  1  'x, y, z'
loop_
 _atom_site_type_symbol
 _atom_site_label
 _atom_site_symmetry_multiplicity
 _atom_site_fract_x
 _atom_site_fract_y
 _atom_site_fract_z
 _atom_site_occupancy
  Li  Li0  1  0.03968195  0.70030637  0.92433588  1
  Li  Li1  1  0.29969363  0.96031805  0.42433588  1
  Li  Li2  1  0.21678385  0.55836343  0.54725126  1
  Li  Li3  1  0.44163657  0.78321615  0.04725126  1
  Li  Li4  1  0.55836343  0.21678385  0.95274874  1
  Li  Li5  1  0.78321615  0.44163657  0.45274874  1
  Li  Li6  1  0.70030637  0.03968195  0.57566412  1
  Li  Li7  1  0.96031805  0.29969363  0.07566412  1
  Mn  Mn8  1  0.62549103  0.62549103  0.75000000  1
  Mn  Mn9  1  0.37450897  0.37450897  0.25000000  1
  P  P10  1  0.03733756  0.85308851  0.61303422  1
  P  P11  1  0.14691149  0.96266244  0.11303422  1
  P  P12  1  0.36935961  0.90827591  0.75082090  1
  P  P13  1  0.09172409  0.63064039  0.25082090  1
  P  P14  1  0.22936691  0.39856979  0.89037505  1
  P  P15  1  0.60143021  0.77063309  0.39037505  1
  P  P16  1  0.39856979  0.22936691  0.60962495  1
  P  P17  1  0.77063309  0.60143021  0.10962495  1
  P  P18  1  0.90827591  0.36935961  0.74917910  1
  P  P19  1  0.63064039  0.09172409  0.24917910  1
  P  P20  1  0.85308851  0.03733756  0.88696578  1
  P  P21  1  0.96266244  0.14691149  0.38696578  1
  O  O22  1  0.13534163  0.81610001  0.71386551  1
  O  O23  1  0.08699658  0.75341502  0.53493372  1
  O  O24  1  0.18389999  0.86465837  0.21386551  1
  O  O25  1  0.24658498  0.91300342  0.03493372  1
  O  O26  1  0.37009174  0.90156747  0.85686483  1
  O  O27  1  0.09843253  0.62990826  0.35686483  1
  O  O28  1  0.18706228  0.50416800  0.96855854  1
  O  O29  1  0.47712522  0.81339760  0.69818915  1
  O  O30  1  0.14066999  0.44745268  0.78851970  1
  O  O31  1  0.49583200  0.81293772  0.46855854  1
  O  O32  1  0.18660240  0.52287478  0.19818915  1
  O  O33  1  0.55254732  0.85933001  0.28851970  1
  O  O34  1  0.09573885  0.15746313  0.90205461  1
  O  O35  1  0.81149370  0.82377029  0.86954068  1
  O  O36  1  0.44046961  0.42888422  0.87405664  1
  O  O37  1  0.84253687  0.90426115  0.40205461  1
  O  O38  1  0.42888422  0.44046961  0.62594336  1
  O  O39  1  0.17622971  0.18850630  0.36954068  1
  O  O40  1  0.82377029  0.81149370  0.63045932  1
  O  O41  1  0.57111578  0.55953039  0.37405664  1
  O  O42  1  0.15746313  0.09573885  0.59794539  1
  O  O43  1  0.55953039  0.57111578  0.12594336  1
  O  O44  1  0.18850630  0.17622971  0.13045932  1
  O  O45  1  0.90426115  0.84253687  0.09794539  1
  O  O46  1  0.44745268  0.14066999  0.71148030  1
  O  O47  1  0.81339760  0.47712522  0.80181085  1
  O  O48  1  0.50416800  0.18706228  0.53144146  1
  O  O49  1  0.85933001  0.55254732  0.21148030  1
  O  O50  1  0.52287478  0.18660240  0.30181085  1
  O  O51  1  0.81293772  0.49583200  0.03144146  1
  O  O52  1  0.90156747  0.37009174  0.64313517  1
  O  O53  1  0.62990826  0.09843253  0.14313517  1
  O  O54  1  0.75341502  0.08699658  0.96506628  1
  O  O55  1  0.81610001  0.13534163  0.78613449  1
  O  O56  1  0.91300342  0.24658498  0.46506628  1
  O  O57  1  0.86465837  0.18389999  0.28613449  1
