# generated using pymatgen
data_ZnFe2(PO4)3
_symmetry_space_group_name_H-M   'P 1'
_cell_length_a   29.86220066
_cell_length_b   5.95641595
_cell_length_c   4.89371608
_cell_angle_alpha   90.00000000
_cell_angle_beta   90.01424294
_cell_angle_gamma   90.00000000
_symmetry_Int_Tables_number   1
_chemical_formula_structural   ZnFe2(PO4)3
_chemical_formula_sum   'Zn4 Fe8 P12 O48'
_cell_volume   870.45351513
_cell_formula_units_Z   4
loop_
 _symmetry_equiv_pos_site_id
 _symmetry_equiv_pos_as_xyz
  1  'x, y, z'
loop_
 _atom_site_type_symbol
 _atom_site_label
 _atom_site_symmetry_multiplicity
 _atom_site_fract_x
 _atom_site_fract_y
 _atom_site_fract_z
 _atom_site_occupancy
  Zn  Zn0  1  0.07508970  0.75000000  0.45726653  1
  Zn  Zn1  1  0.09149158  0.25000000  0.95716348  1
  Zn  Zn2  1  0.40824388  0.75000000  0.45231926  1
  Zn  Zn3  1  0.74138677  0.75000000  0.45258400  1
  Fe  Fe4  1  0.24212430  0.75000000  0.03671833  1
  Fe  Fe5  1  0.25821192  0.25000000  0.53568841  1
  Fe  Fe6  1  0.42473802  0.25000000  0.96587543  1
  Fe  Fe7  1  0.57488158  0.75000000  0.03277883  1
  Fe  Fe8  1  0.59091878  0.25000000  0.53414455  1
  Fe  Fe9  1  0.75795799  0.25000000  0.96620483  1
  Fe  Fe10  1  0.90806205  0.75000000  0.03464201  1
  Fe  Fe11  1  0.92417211  0.25000000  0.53633451  1
  P  P12  1  0.03114838  0.25000000  0.41642783  1
  P  P13  1  0.13547974  0.75000000  0.91639621  1
  P  P14  1  0.19921619  0.25000000  0.08318953  1
  P  P15  1  0.30102247  0.75000000  0.58264006  1
  P  P16  1  0.36587826  0.25000000  0.41218813  1
  P  P17  1  0.46791383  0.75000000  0.92552644  1
  P  P18  1  0.53190975  0.25000000  0.08233021  1
  P  P19  1  0.63409274  0.75000000  0.58210561  1
  P  P20  1  0.69907454  0.25000000  0.41143309  1
  P  P21  1  0.80106282  0.75000000  0.92533435  1
  P  P22  1  0.86525569  0.25000000  0.08187491  1
  P  P23  1  0.96705167  0.75000000  0.58277354  1
  O  O24  1  0.01679871  0.75000000  0.66018197  1
  O  O25  1  0.03632395  0.25000000  0.72841609  1
  O  O26  1  0.05491090  0.04773817  0.27248614  1
  O  O27  1  0.05491090  0.45226183  0.27248614  1
  O  O28  1  0.11179542  0.54757810  0.77209499  1
  O  O29  1  0.11179542  0.95242190  0.77209499  1
  O  O30  1  0.13044542  0.75000000  0.22928493  1
  O  O31  1  0.14961877  0.25000000  0.16228791  1
  O  O32  1  0.18577004  0.75000000  0.84684931  1
  O  O33  1  0.20620841  0.25000000  0.77429191  1
  O  O34  1  0.22498980  0.04952143  0.22598550  1
  O  O35  1  0.22498980  0.45047857  0.22598550  1
  O  O36  1  0.27559923  0.54879743  0.72626563  1
  O  O37  1  0.27559923  0.95120257  0.72626563  1
  O  O38  1  0.29365907  0.75000000  0.27349834  1
  O  O39  1  0.31544438  0.25000000  0.35288928  1
  O  O40  1  0.35071331  0.75000000  0.65358683  1
  O  O41  1  0.37373001  0.25000000  0.71982905  1
  O  O42  1  0.39024949  0.05137160  0.25980192  1
  O  O43  1  0.39024949  0.44862840  0.25980192  1
  O  O44  1  0.44372429  0.95473883  0.78716257  1
  O  O45  1  0.44372429  0.54526117  0.78716257  1
  O  O46  1  0.46421660  0.75000000  0.23690327  1
  O  O47  1  0.48226598  0.25000000  0.15685152  1
  O  O48  1  0.51801113  0.75000000  0.84714264  1
  O  O49  1  0.53889372  0.25000000  0.77282046  1
  O  O50  1  0.55718818  0.04878365  0.22637152  1
  O  O51  1  0.55718818  0.45121635  0.22637152  1
  O  O52  1  0.60857596  0.54871242  0.72622895  1
  O  O53  1  0.60857596  0.95128758  0.72622895  1
  O  O54  1  0.62629915  0.75000000  0.27314027  1
  O  O55  1  0.64858519  0.25000000  0.35267282  1
  O  O56  1  0.68374564  0.75000000  0.65325144  1
  O  O57  1  0.70691849  0.25000000  0.71946741  1
  O  O58  1  0.72342683  0.05159919  0.25982822  1
  O  O59  1  0.72342683  0.44840081  0.25982822  1
  O  O60  1  0.77704041  0.95429957  0.78737000  1
  O  O61  1  0.77704041  0.54570043  0.78737000  1
  O  O62  1  0.79747656  0.75000000  0.23671536  1
  O  O63  1  0.81568086  0.25000000  0.15508212  1
  O  O64  1  0.85123662  0.75000000  0.84727859  1
  O  O65  1  0.87229433  0.25000000  0.77253447  1
  O  O66  1  0.89043177  0.04858143  0.22570934  1
  O  O67  1  0.89043177  0.45141857  0.22570934  1
  O  O68  1  0.94143389  0.54919885  0.72560718  1
  O  O69  1  0.94143389  0.95080115  0.72560718  1
  O  O70  1  0.95973911  0.75000000  0.27409461  1
  O  O71  1  0.98080745  0.25000000  0.34716739  1
