# generated using pymatgen
data_Li3Mn2(PO4)3
_symmetry_space_group_name_H-M   'P 1'
_cell_length_a   9.15604922
_cell_length_b   9.15604922
_cell_length_c   15.10306508
_cell_angle_alpha   82.29035183
_cell_angle_beta   82.18164828
_cell_angle_gamma   123.66413082
_symmetry_Int_Tables_number   1
_chemical_formula_structural   Li3Mn2(PO4)3
_chemical_formula_sum   'Li12 Mn8 P12 O48'
_cell_volume   1009.73403752
_cell_formula_units_Z   4
loop_
 _symmetry_equiv_pos_site_id
 _symmetry_equiv_pos_as_xyz
  1  'x, y, z'
loop_
 _atom_site_type_symbol
 _atom_site_label
 _atom_site_symmetry_multiplicity
 _atom_site_fract_x
 _atom_site_fract_y
 _atom_site_fract_z
 _atom_site_occupancy
  Li  Li0  1  0.16028824  0.73955994  0.34167624  1
  Li  Li1  1  0.00860347  0.23419146  0.92833231  1
  Li  Li2  1  0.11095320  0.36095320  0.25000000  1
  Li  Li3  1  0.66252377  0.93693579  0.57166769  1
  Li  Li4  1  0.58123618  0.50196447  0.15832376  1
  Li  Li5  1  0.50000000  0.50000000  0.50000000  1
  Li  Li6  1  0.41876382  0.49803553  0.84167624  1
  Li  Li7  1  0.33747623  0.06306421  0.42833231  1
  Li  Li8  1  0.88904680  0.63904680  0.75000000  1
  Li  Li9  1  0.99139653  0.76580854  0.07166769  1
  Li  Li10  1  0.83971176  0.26044006  0.65832376  1
  Li  Li11  1  0.50000000  0.00000000  0.00000000  1
  Mn  Mn12  1  0.25560183  0.70988802  0.53050100  1
  Mn  Mn13  1  0.30439405  0.79430958  0.83507569  1
  Mn  Mn14  1  0.12938627  0.13946974  0.66492431  1
  Mn  Mn15  1  0.74038902  0.78610283  0.96949900  1
  Mn  Mn16  1  0.25961098  0.21389717  0.03050100  1
  Mn  Mn17  1  0.87061373  0.86053026  0.33507569  1
  Mn  Mn18  1  0.69560595  0.20569042  0.16492431  1
  Mn  Mn19  1  0.74439817  0.29011198  0.46949900  1
  P  P20  1  0.61144629  0.97620072  0.36783783  1
  P  P21  1  0.25578198  0.54297172  0.69374342  1
  P  P22  1  0.31076392  0.59308460  0.02724093  1
  P  P23  1  0.12032553  0.33800485  0.47275907  1
  P  P24  1  0.73671513  0.94952540  0.80625658  1
  P  P25  1  0.84403855  0.97928412  0.13216217  1
  P  P26  1  0.15596145  0.02071588  0.86783783  1
  P  P27  1  0.26328487  0.05047460  0.19374342  1
  P  P28  1  0.87967447  0.66199515  0.52724093  1
  P  P29  1  0.68923608  0.40691540  0.97275907  1
  P  P30  1  0.74421802  0.45702828  0.30625658  1
  P  P31  1  0.38855371  0.02379928  0.63216217  1
  O  O32  1  0.12151736  0.92874270  0.29047664  1
  O  O33  1  0.17515064  0.97669629  0.11126726  1
  O  O34  1  0.30553633  0.99018561  0.87204478  1
  O  O35  1  0.31130017  0.93893746  0.55126540  1
  O  O36  1  0.06316008  0.69490620  0.47871769  1
  O  O37  1  0.26944215  0.86469332  0.71978024  1
  O  O38  1  0.40813731  0.89386931  0.38420223  1
  O  O39  1  0.07722526  0.50050625  0.67325003  1
  O  O40  1  0.23226668  0.67300934  0.96674575  1
  O  O41  1  0.58535929  0.97461081  0.80707776  1
  O  O42  1  0.19846617  0.51030195  0.12614150  1
  O  O43  1  0.28078066  0.58800600  0.79047664  1
  O  O44  1  0.27597907  0.52931509  0.48236401  1
  O  O45  1  0.41203545  0.71358210  0.61126726  1
  O  O46  1  0.51167909  0.75834307  0.01763599  1
  O  O47  1  0.63776961  0.82241788  0.37204478  1
  O  O48  1  0.13644345  0.32460767  0.37385850  1
  O  O49  1  0.00979713  0.13743443  0.05126540  1
  O  O50  1  0.28168857  0.39243705  0.69292224  1
  O  O51  1  0.32637511  0.45812123  0.97871769  1
  O  O52  1  0.91552644  0.01077761  0.21978024  1
  O  O53  1  0.13975609  0.19901243  0.53325425  1
  O  O54  1  0.77807054  0.79233854  0.11579777  1
  O  O55  1  0.67375629  0.75047529  0.82674997  1
  O  O56  1  0.32624371  0.24952471  0.17325003  1
  O  O57  1  0.22192946  0.20766146  0.88420223  1
  O  O58  1  0.86024391  0.80098757  0.46674575  1
  O  O59  1  0.08447356  0.98922239  0.78021976  1
  O  O60  1  0.67362489  0.54187877  0.02128231  1
  O  O61  1  0.71831143  0.60756295  0.30707776  1
  O  O62  1  0.99020287  0.86256557  0.94873460  1
  O  O63  1  0.86355655  0.67539233  0.62614150  1
  O  O64  1  0.36223039  0.17758212  0.62795522  1
  O  O65  1  0.48832091  0.24165693  0.98236401  1
  O  O66  1  0.58796455  0.28641790  0.38873274  1
  O  O67  1  0.72402093  0.47068491  0.51763599  1
  O  O68  1  0.71921934  0.41199400  0.20952336  1
  O  O69  1  0.80153383  0.48969805  0.87385850  1
  O  O70  1  0.41464071  0.02538919  0.19292224  1
  O  O71  1  0.76773332  0.32699066  0.03325425  1
  O  O72  1  0.92277474  0.49949375  0.32674997  1
  O  O73  1  0.59186269  0.10613069  0.61579777  1
  O  O74  1  0.73055785  0.13530668  0.28021976  1
  O  O75  1  0.93683992  0.30509380  0.52128231  1
  O  O76  1  0.68869983  0.06106254  0.44873460  1
  O  O77  1  0.69446367  0.00981439  0.12795522  1
  O  O78  1  0.82484936  0.02330371  0.88873274  1
  O  O79  1  0.87848264  0.07125730  0.70952336  1
