# generated using pymatgen
data_LiV2OF5
_symmetry_space_group_name_H-M   'P 1'
_cell_length_a   4.66192105
_cell_length_b   17.07435640
_cell_length_c   5.20588343
_cell_angle_alpha   90.00000000
_cell_angle_beta   90.00000000
_cell_angle_gamma   89.23248844
_symmetry_Int_Tables_number   1
_chemical_formula_structural   LiV2OF5
_chemical_formula_sum   'Li4 V8 O4 F20'
_cell_volume   414.34750658
_cell_formula_units_Z   4
loop_
 _symmetry_equiv_pos_site_id
 _symmetry_equiv_pos_as_xyz
  1  'x, y, z'
loop_
 _atom_site_type_symbol
 _atom_site_label
 _atom_site_symmetry_multiplicity
 _atom_site_fract_x
 _atom_site_fract_y
 _atom_site_fract_z
 _atom_site_occupancy
  Li  Li0  1  0.00832372  0.38054496  0.25248133  1
  Li  Li1  1  0.01070185  0.61789373  0.76826086  1
  Li  Li2  1  0.50832372  0.88054496  0.24751867  1
  Li  Li3  1  0.51070185  0.11789373  0.73173914  1
  V  V4  1  0.01938194  0.28365736  0.77576755  1
  V  V5  1  0.97810967  0.05668106  0.25453686  1
  V  V6  1  0.00125552  0.95146948  0.75009786  1
  V  V7  1  0.00112710  0.71591252  0.24927088  1
  V  V8  1  0.47810967  0.55668106  0.24546314  1
  V  V9  1  0.51938194  0.78365736  0.72423245  1
  V  V10  1  0.50112710  0.21591252  0.25072912  1
  V  V11  1  0.50125552  0.45146948  0.74990214  1
  O  O12  1  0.24242257  0.28570671  0.06763487  1
  O  O13  1  0.22683028  0.62888402  0.11763286  1
  O  O14  1  0.74242257  0.78570771  0.43236513  1
  O  O15  1  0.72683028  0.12888402  0.38236714  1
  F  F16  1  0.23773779  0.70729975  0.58863406  1
  F  F17  1  0.23716370  0.37458209  0.59636515  1
  F  F18  1  0.21654242  0.03763512  0.58972089  1
  F  F19  1  0.21634646  0.96151815  0.08094989  1
  F  F20  1  0.27725954  0.46175056  0.08034367  1
  F  F21  1  0.26858903  0.53637778  0.59240360  1
  F  F22  1  0.26386154  0.87595674  0.58629414  1
  F  F23  1  0.26034635  0.12521543  0.08430110  1
  F  F24  1  0.26647370  0.20577455  0.57915045  1
  F  F25  1  0.26752683  0.79314100  0.06356562  1
  F  F26  1  0.73773779  0.20729975  0.91136594  1
  F  F27  1  0.73716370  0.87458209  0.90363485  1
  F  F28  1  0.71654242  0.53763512  0.91027911  1
  F  F29  1  0.71634646  0.46151815  0.41905011  1
  F  F30  1  0.76858903  0.03637778  0.90759640  1
  F  F31  1  0.77725954  0.96174956  0.41965633  1
  F  F32  1  0.76386154  0.37595674  0.91370586  1
  F  F33  1  0.76034635  0.62521543  0.41569890  1
  F  F34  1  0.76752683  0.29314100  0.43643438  1
  F  F35  1  0.76647370  0.70577455  0.92084955  1
