# generated using pymatgen
data_Pr6O11
_symmetry_space_group_name_H-M   'P 1'
_cell_length_a   6.91687302
_cell_length_b   12.26425225
_cell_length_c   13.45348988
_cell_angle_alpha   89.09660586
_cell_angle_beta   101.72450571
_cell_angle_gamma   90.43430580
_symmetry_Int_Tables_number   1
_chemical_formula_structural   Pr6O11
_chemical_formula_sum   'Pr24 O44'
_cell_volume   1117.30186062
_cell_formula_units_Z   4
loop_
 _symmetry_equiv_pos_site_id
 _symmetry_equiv_pos_as_xyz
  1  'x, y, z'
loop_
 _atom_site_type_symbol
 _atom_site_label
 _atom_site_symmetry_multiplicity
 _atom_site_fract_x
 _atom_site_fract_y
 _atom_site_fract_z
 _atom_site_occupancy
  O  O0  1  0.07782777  0.93521920  0.42737045  1
  O  O1  1  0.92217223  0.06478080  0.57262955  1
  O  O2  1  0.47162675  0.92242088  0.57741969  1
  O  O3  1  0.52837325  0.07757912  0.42258031  1
  O  O4  1  0.06728643  0.23124338  0.43280382  1
  O  O5  1  0.93271357  0.76875662  0.56719618  1
  O  O6  1  0.70607127  0.25520905  0.32120837  1
  O  O7  1  0.29392873  0.74479095  0.67879163  1
  O  O8  1  0.85999464  0.09507110  0.19290078  1
  O  O9  1  0.14000536  0.90492890  0.80709922  1
  O  O10  1  0.31052337  0.93786619  0.19249715  1
  O  O11  1  0.68947663  0.06213381  0.80750285  1
  O  O12  1  0.55076309  0.75511472  0.43405759  1
  O  O13  1  0.44923691  0.24488528  0.56594241  1
  O  O14  1  0.69536603  0.90692072  0.29416110  1
  O  O15  1  0.30463397  0.09307928  0.70583890  1
  O  O16  1  0.57002761  0.58397899  0.93589800  1
  O  O17  1  0.67673879  0.75803626  0.79863927  1
  O  O18  1  0.45565496  0.08638761  0.06236890  1
  O  O19  1  0.54434504  0.91361239  0.93763110  1
  O  O20  1  0.07146377  0.74834784  0.93724296  1
  O  O21  1  0.92853623  0.25165216  0.06275704  1
  O  O22  1  0.92791438  0.90788144  0.06493511  1
  O  O23  1  0.07208562  0.09211856  0.93506489  1
  O  O24  1  0.84926659  0.24718851  0.70008826  1
  O  O25  1  0.15073341  0.75281149  0.29991174  1
  O  O26  1  0.58430341  0.42075012  0.44470081  1
  O  O27  1  0.41569659  0.57924988  0.55529919  1
  O  O28  1  0.69289073  0.41485262  0.81717648  1
  O  O29  1  0.30710927  0.58514738  0.18282352  1
  O  O30  1  0.05444171  0.40244734  0.93024330  1
  O  O31  1  0.94555829  0.59755266  0.06975670  1
  O  O32  1  0.92085721  0.41131003  0.55029089  1
  O  O33  1  0.07914279  0.58868997  0.44970911  1
  O  O34  1  0.79021403  0.57849369  0.67671171  1
  O  O35  1  0.20978597  0.42150631  0.32328829  1
  O  O36  1  0.30715589  0.39961439  0.69650649  1
  O  O37  1  0.69284411  0.60038561  0.30349351  1
  O  O38  1  0.18239888  0.57796560  0.81199836  1
  O  O39  1  0.81760112  0.42203440  0.18800164  1
  O  O40  1  0.53135943  0.24380814  0.92903936  1
  O  O41  1  0.46864057  0.75619186  0.07096064  1
  O  O42  1  0.42997239  0.41602101  0.06410200  1
  O  O43  1  0.32326121  0.24196374  0.20136073  1
  Pr  Pr44  1  0.49139419  0.57848929  0.74881410  1
  Pr  Pr45  1  0.50860581  0.42151071  0.25118590  1
  Pr  Pr46  1  0.75010423  0.59492649  0.49534978  1
  Pr  Pr47  1  0.24989577  0.40507351  0.50465022  1
  Pr  Pr48  1  0.24711965  0.76306547  0.49428522  1
  Pr  Pr49  1  0.75288035  0.23693453  0.50571478  1
  Pr  Pr50  1  0.26340270  0.58378455  0.99747536  1
  Pr  Pr51  1  0.73659730  0.41621545  0.00252464  1
  Pr  Pr52  1  0.24237293  0.92026710  0.00224999  1
  Pr  Pr53  1  0.75762707  0.07973290  0.99775001  1
  Pr  Pr54  1  0.00849171  0.26904507  0.25023789  1
  Pr  Pr55  1  0.99150829  0.73095493  0.74976211  1
  Pr  Pr56  1  0.25684945  0.08099929  0.52215942  1
  Pr  Pr57  1  0.74315055  0.91900071  0.47784058  1
  Pr  Pr58  1  0.54370228  0.08854018  0.24437643  1
  Pr  Pr59  1  0.45629772  0.91145982  0.75562357  1
  Pr  Pr60  1  0.74468919  0.75268482  0.97946791  1
  Pr  Pr61  1  0.25531081  0.24731518  0.02053209  1
  Pr  Pr62  1  0.46614678  0.75466307  0.25144908  1
  Pr  Pr63  1  0.53385322  0.24533693  0.74855092  1
  Pr  Pr64  1  0.01607355  0.57368195  0.26110289  1
  Pr  Pr65  1  0.98392645  0.42631805  0.73889711  1
  Pr  Pr66  1  0.00530124  0.92267948  0.24642542  1
  Pr  Pr67  1  0.99469876  0.07732052  0.75357458  1
