# generated using pymatgen
data_ZnCuMo2O7
_symmetry_space_group_name_H-M   'P 1'
_cell_length_a   8.58773356
_cell_length_b   10.61254031
_cell_length_c   10.76902556
_cell_angle_alpha   96.47027790
_cell_angle_beta   90.00000000
_cell_angle_gamma   90.00000000
_symmetry_Int_Tables_number   1
_chemical_formula_structural   ZnCuMo2O7
_chemical_formula_sum   'Zn6 Cu6 Mo12 O42'
_cell_volume   975.21239478
_cell_formula_units_Z   6
loop_
 _symmetry_equiv_pos_site_id
 _symmetry_equiv_pos_as_xyz
  1  'x, y, z'
loop_
 _atom_site_type_symbol
 _atom_site_label
 _atom_site_symmetry_multiplicity
 _atom_site_fract_x
 _atom_site_fract_y
 _atom_site_fract_z
 _atom_site_occupancy
  Zn  Zn0  1  0.43222781  0.12592514  0.57087331  1
  Zn  Zn1  1  0.92403135  0.50000000  0.75000000  1
  Zn  Zn2  1  0.43222781  0.87407486  0.92912669  1
  Zn  Zn3  1  0.07596865  0.50000000  0.25000000  1
  Zn  Zn4  1  0.56777219  0.87407486  0.42912669  1
  Zn  Zn5  1  0.56777219  0.12592514  0.07087331  1
  Cu  Cu6  1  0.93050508  0.80952529  0.40834325  1
  Cu  Cu7  1  0.06949492  0.19047471  0.59165675  1
  Cu  Cu8  1  0.43747198  0.50000000  0.25000000  1
  Cu  Cu9  1  0.93050508  0.19047471  0.09165675  1
  Cu  Cu10  1  0.56252802  0.50000000  0.75000000  1
  Cu  Cu11  1  0.06949492  0.80952529  0.90834325  1
  Mo  Mo12  1  0.23307004  0.17504063  0.28737051  1
  Mo  Mo13  1  0.75526730  0.15178457  0.36854952  1
  Mo  Mo14  1  0.24473270  0.15178457  0.86854952  1
  Mo  Mo15  1  0.76692996  0.17504063  0.78737051  1
  Mo  Mo16  1  0.26970318  0.49158485  0.95878397  1
  Mo  Mo17  1  0.75526730  0.84821543  0.13145048  1
  Mo  Mo18  1  0.73029682  0.49158485  0.45878397  1
  Mo  Mo19  1  0.24473270  0.84821543  0.63145048  1
  Mo  Mo20  1  0.26970318  0.50841515  0.54121603  1
  Mo  Mo21  1  0.73029682  0.50841515  0.04121603  1
  Mo  Mo22  1  0.76692996  0.82495937  0.71262949  1
  Mo  Mo23  1  0.23307004  0.82495937  0.21262949  1
  O  O24  1  0.74013545  0.20145080  0.95725713  1
  O  O25  1  0.75661375  0.86359403  0.30662454  1
  O  O26  1  0.82077477  0.00000000  0.75000000  1
  O  O27  1  0.91118561  0.48423523  0.11511919  1
  O  O28  1  0.41574105  0.93149172  0.56673903  1
  O  O29  1  0.91867491  0.27352126  0.72387862  1
  O  O30  1  0.32025529  0.32260848  0.92741040  1
  O  O31  1  0.08881439  0.48423523  0.61511919  1
  O  O32  1  0.74070154  0.46930275  0.87014735  1
  O  O33  1  0.41574105  0.06850828  0.93326097  1
  O  O34  1  0.74070154  0.53069725  0.62985265  1
  O  O35  1  0.42101737  0.57036550  0.88570252  1
  O  O36  1  0.92933057  0.86185135  0.04340744  1
  O  O37  1  0.08132509  0.27352126  0.22387862  1
  O  O38  1  0.67974471  0.67739152  0.07258960  1
  O  O39  1  0.32025529  0.67739152  0.57258960  1
  O  O40  1  0.91867491  0.72647874  0.77612138  1
  O  O41  1  0.58425895  0.06850828  0.43326097  1
  O  O42  1  0.25986455  0.20145080  0.45725713  1
  O  O43  1  0.57898263  0.42963450  0.11429748  1
  O  O44  1  0.40836252  0.80299456  0.29890503  1
  O  O45  1  0.25929846  0.53069725  0.12985265  1
  O  O46  1  0.07066943  0.86185135  0.54340744  1
  O  O47  1  0.25929846  0.46930275  0.37014735  1
  O  O48  1  0.91118561  0.51576477  0.38488081  1
  O  O49  1  0.57898263  0.57036550  0.38570252  1
  O  O50  1  0.08881439  0.51576477  0.88488081  1
  O  O51  1  0.59163748  0.80299456  0.79890503  1
  O  O52  1  0.59163748  0.19700544  0.70109497  1
  O  O53  1  0.07066943  0.13814865  0.95659256  1
  O  O54  1  0.08132509  0.72647874  0.27612138  1
  O  O55  1  0.74013545  0.79854920  0.54274287  1
  O  O56  1  0.17922523  0.00000000  0.25000000  1
  O  O57  1  0.24338625  0.86359403  0.80662454  1
  O  O58  1  0.58425895  0.93149172  0.06673903  1
  O  O59  1  0.92933057  0.13814865  0.45659256  1
  O  O60  1  0.25986455  0.79854920  0.04274287  1
  O  O61  1  0.75661375  0.13640597  0.19337546  1
  O  O62  1  0.42101737  0.42963450  0.61429748  1
  O  O63  1  0.67974471  0.32260848  0.42741040  1
  O  O64  1  0.24338625  0.13640597  0.69337546  1
  O  O65  1  0.40836252  0.19700544  0.20109497  1
