# generated using pymatgen
data_Cs2Si(HO2)2
_symmetry_space_group_name_H-M   'P 1'
_cell_length_a   6.01750039
_cell_length_b   6.26392161
_cell_length_c   8.84639037
_cell_angle_alpha   76.53015990
_cell_angle_beta   71.13569926
_cell_angle_gamma   86.39315770
_symmetry_Int_Tables_number   1
_chemical_formula_structural   Cs2Si(HO2)2
_chemical_formula_sum   'Cs4 Si2 H4 O8'
_cell_volume   306.83033542
_cell_formula_units_Z   2
loop_
 _symmetry_equiv_pos_site_id
 _symmetry_equiv_pos_as_xyz
  1  'x, y, z'
loop_
 _atom_site_type_symbol
 _atom_site_label
 _atom_site_symmetry_multiplicity
 _atom_site_fract_x
 _atom_site_fract_y
 _atom_site_fract_z
 _atom_site_occupancy
  Cs  Cs0  1  0.58775210  0.15130747  0.29254080  1
  Cs  Cs1  1  0.41224790  0.84869253  0.70745920  1
  Cs  Cs2  1  0.76099352  0.73708121  0.02724788  1
  Cs  Cs3  1  0.23900648  0.26291879  0.97275212  1
  Si  Si4  1  0.12600701  0.65517444  0.28437732  1
  Si  Si5  1  0.87399299  0.34482556  0.71562268  1
  H  H6  1  0.29975859  0.50469245  0.46828495  1
  H  H7  1  0.70024141  0.49530755  0.53171505  1
  H  H8  1  0.94881804  0.69718193  0.58961555  1
  H  H9  1  0.05118196  0.30281807  0.41038445  1
  O  O10  1  0.35225448  0.62167941  0.36659907  1
  O  O11  1  0.64774552  0.37832059  0.63340093  1
  O  O12  1  0.05905645  0.38775499  0.29616665  1
  O  O13  1  0.94094355  0.61224501  0.70383335  1
  O  O14  1  0.90201381  0.76233669  0.40038806  1
  O  O15  1  0.09798619  0.23766331  0.59961194  1
  O  O16  1  0.23151173  0.77383664  0.09243623  1
  O  O17  1  0.76848827  0.22616336  0.90756377  1
