# generated using pymatgen
data_RbTlF3
_symmetry_space_group_name_H-M   'P 1'
_cell_length_a   6.64435063
_cell_length_b   9.29356495
_cell_length_c   13.38360174
_cell_angle_alpha   90.00000000
_cell_angle_beta   90.00000000
_cell_angle_gamma   90.00000000
_symmetry_Int_Tables_number   1
_chemical_formula_structural   RbTlF3
_chemical_formula_sum   'Rb8 Tl8 F24'
_cell_volume   826.43344765
_cell_formula_units_Z   8
loop_
 _symmetry_equiv_pos_site_id
 _symmetry_equiv_pos_as_xyz
  1  'x, y, z'
loop_
 _atom_site_type_symbol
 _atom_site_label
 _atom_site_symmetry_multiplicity
 _atom_site_fract_x
 _atom_site_fract_y
 _atom_site_fract_z
 _atom_site_occupancy
  Rb  Rb0  1  0.24452812  0.00000000  0.88207023  1
  Rb  Rb1  1  0.74452712  0.00000000  0.61792977  1
  Rb  Rb2  1  0.75547188  -0.00000000  0.11792977  1
  Rb  Rb3  1  0.25547288  -0.00000000  0.38207023  1
  Rb  Rb4  1  0.22213459  0.50000000  0.86945753  1
  Rb  Rb5  1  0.72213559  0.50000000  0.63054347  1
  Rb  Rb6  1  0.77786441  0.50000000  0.13054347  1
  Rb  Rb7  1  0.27786541  0.50000000  0.36945653  1
  Tl  Tl8  1  0.74286810  0.74981873  0.87459209  1
  Tl  Tl9  1  0.24286710  0.25018127  0.62540791  1
  Tl  Tl10  1  0.25713190  0.74981873  0.12540791  1
  Tl  Tl11  1  0.75713090  0.25018127  0.37459209  1
  Tl  Tl12  1  0.25713190  0.25018127  0.12540791  1
  Tl  Tl13  1  0.75713090  0.74981873  0.37459209  1
  Tl  Tl14  1  0.74286810  0.25018127  0.87459209  1
  Tl  Tl15  1  0.24286710  0.74981873  0.62540791  1
  F  F16  1  0.75517700  0.00000000  0.83289148  1
  F  F17  1  0.25517600  -0.00000000  0.66710852  1
  F  F18  1  0.24482200  0.00000000  0.16710852  1
  F  F19  1  0.74482300  0.00000000  0.33289148  1
  F  F20  1  0.75444780  0.50000000  0.91632385  1
  F  F21  1  0.25444880  0.50000000  0.58367715  1
  F  F22  1  0.24555220  0.50000000  0.08367615  1
  F  F23  1  0.74555120  0.50000000  0.41632385  1
  F  F24  1  0.97738628  0.70107643  0.74201993  1
  F  F25  1  0.47738728  0.29892357  0.75798007  1
  F  F26  1  0.02261172  0.70107643  0.25798007  1
  F  F27  1  0.52261272  0.29892357  0.24201893  1
  F  F28  1  0.02261172  0.29892357  0.25798007  1
  F  F29  1  0.52261272  0.70107643  0.24201893  1
  F  F30  1  0.97738628  0.29892357  0.74201993  1
  F  F31  1  0.47738728  0.70107643  0.75798007  1
  F  F32  1  0.00000000  0.80579141  0.50000000  1
  F  F33  1  0.50000100  0.19420859  0.00000000  1
  F  F34  1  0.00000000  0.19420859  0.50000000  1
  F  F35  1  0.50000100  0.80579141  0.00000000  1
  F  F36  1  -0.00000000  0.78955287  -0.00000000  1
  F  F37  1  0.50000100  0.21044713  0.50000000  1
  F  F38  1  -0.00000000  0.21044713  -0.00000000  1
  F  F39  1  0.50000100  0.78955287  0.50000000  1
