# generated using pymatgen
data_Li6TiCr3(PO4)6
_symmetry_space_group_name_H-M   'P 1'
_cell_length_a   8.48846586
_cell_length_b   8.56970591
_cell_length_c   8.55075329
_cell_angle_alpha   61.47945555
_cell_angle_beta   61.62669246
_cell_angle_gamma   61.73587919
_symmetry_Int_Tables_number   1
_chemical_formula_structural   Li6TiCr3(PO4)6
_chemical_formula_sum   'Li6 Ti1 Cr3 P6 O24'
_cell_volume   455.74768162
_cell_formula_units_Z   1
loop_
 _symmetry_equiv_pos_site_id
 _symmetry_equiv_pos_as_xyz
  1  'x, y, z'
loop_
 _atom_site_type_symbol
 _atom_site_label
 _atom_site_symmetry_multiplicity
 _atom_site_fract_x
 _atom_site_fract_y
 _atom_site_fract_z
 _atom_site_occupancy
  Li  Li0  1  0.02709044  0.00555231  0.99731374  1
  Li  Li1  1  0.74923873  0.15255265  0.34931321  1
  Li  Li2  1  0.47434386  0.50359013  0.49639796  1
  Li  Li3  1  0.26504842  0.84555039  0.65799692  1
  Li  Li4  1  0.65838030  0.26419524  0.83991224  1
  Li  Li5  1  0.84226529  0.65936688  0.26192992  1
  Ti  Ti6  1  0.85362910  0.85271344  0.85160750  1
  Cr  Cr7  1  0.14225761  0.14531322  0.13913095  1
  Cr  Cr8  1  0.35832660  0.36129583  0.35541128  1
  Cr  Cr9  1  0.64430913  0.64699228  0.64625632  1
  P  P10  1  0.04959049  0.74930335  0.44699350  1
  P  P11  1  0.44586477  0.05097259  0.74835547  1
  P  P12  1  0.74981388  0.45044296  0.04598351  1
  P  P13  1  0.25082012  0.53905045  0.96047952  1
  P  P14  1  0.54119318  0.96415385  0.25111526  1
  P  P15  1  0.95839326  0.24954684  0.53477829  1
  O  O16  1  0.13180830  0.28678328  0.49828678  1
  O  O17  1  0.29594990  0.51320065  0.12422267  1
  O  O18  1  0.05237622  0.92101814  0.26529772  1
  O  O19  1  0.53170744  0.12430102  0.29315507  1
  O  O20  1  0.23888411  0.59015878  0.43311038  1
  O  O21  1  0.01004608  0.80672381  0.61323758  1
  O  O22  1  0.25762944  0.07620715  0.90753214  1
  O  O23  1  0.45502238  0.23320223  0.57689085  1
  O  O24  1  0.59196303  0.43354804  0.23963030  1
  O  O25  1  0.19978794  0.37865466  0.98985562  1
  O  O26  1  0.08925275  0.73420722  0.93046510  1
  O  O27  1  0.37074882  0.00493528  0.20769433  1
  O  O28  1  0.61322080  0.00639506  0.80912659  1
  O  O29  1  0.90630683  0.25739821  0.07287716  1
  O  O30  1  0.81061543  0.61233577  0.00812560  1
  O  O31  1  0.41301667  0.56289988  0.76838897  1
  O  O32  1  0.56128985  0.77272641  0.41304674  1
  O  O33  1  0.73305949  0.93041212  0.08717228  1
  O  O34  1  0.97232740  0.20071592  0.37736322  1
  O  O35  1  0.76877924  0.41265494  0.56220097  1
  O  O36  1  0.47047154  0.89218487  0.69439014  1
  O  O37  1  0.93262254  0.08727050  0.72974059  1
  O  O38  1  0.69363268  0.47787416  0.88830564  1
  O  O39  1  0.88891692  0.69260350  0.47790900  1
