# generated using pymatgen
data_ZnSbF5
_symmetry_space_group_name_H-M   'P 1'
_cell_length_a   5.74208484
_cell_length_b   8.48467095
_cell_length_c   10.39248054
_cell_angle_alpha   90.00000000
_cell_angle_beta   90.00000000
_cell_angle_gamma   118.79717373
_symmetry_Int_Tables_number   1
_chemical_formula_structural   ZnSbF5
_chemical_formula_sum   'Zn4 Sb4 F20'
_cell_volume   443.70234915
_cell_formula_units_Z   4
loop_
 _symmetry_equiv_pos_site_id
 _symmetry_equiv_pos_as_xyz
  1  'x, y, z'
loop_
 _atom_site_type_symbol
 _atom_site_label
 _atom_site_symmetry_multiplicity
 _atom_site_fract_x
 _atom_site_fract_y
 _atom_site_fract_z
 _atom_site_occupancy
  Zn  Zn0  1  0.52655576  0.78785544  0.99083152  1
  Zn  Zn1  1  0.47344424  0.71214456  0.49083152  1
  Zn  Zn2  1  0.47344424  0.21214456  0.00916848  1
  Zn  Zn3  1  0.52655576  0.28785544  0.50916848  1
  Sb  Sb4  1  0.93604743  0.65694491  0.76119593  1
  Sb  Sb5  1  0.06395257  0.84305509  0.26119593  1
  Sb  Sb6  1  0.06395257  0.34305509  0.23880407  1
  Sb  Sb7  1  0.93604743  0.15694491  0.73880407  1
  F  F8  1  0.62395222  0.62624507  0.88986951  1
  F  F9  1  0.37604778  0.87375493  0.38986951  1
  F  F10  1  0.37604778  0.37375493  0.11013049  1
  F  F11  1  0.62395222  0.12624507  0.61013049  1
  F  F12  1  0.64814964  0.52249214  0.61117718  1
  F  F13  1  0.35185036  -0.02249214  0.11117718  1
  F  F14  1  0.35185036  0.47750786  0.38882282  1
  F  F15  1  0.64814964  0.02249214  0.88882282  1
  F  F16  1  0.83612767  0.81005670  0.43362076  1
  F  F17  1  0.16387233  0.68994330  0.93362076  1
  F  F18  1  0.16387233  0.18994330  0.56637924  1
  F  F19  1  0.83612767  0.31005670  0.06637924  1
  F  F20  1  0.78033969  0.87774960  0.13023992  1
  F  F21  1  0.21966031  0.62225040  0.63023992  1
  F  F22  1  0.21966031  0.12225040  0.86976008  1
  F  F23  1  0.78033969  0.37774960  0.36976008  1
  F  F24  1  0.79872057  0.89806221  0.69129531  1
  F  F25  1  0.20127943  0.60193779  0.19129531  1
  F  F26  1  0.20127943  0.10193779  0.30870469  1
  F  F27  1  0.79872057  0.39806221  0.80870469  1
