# generated using pymatgen
data_Ca3Si4(AgO7)2
_symmetry_space_group_name_H-M   'P 1'
_cell_length_a   7.86482943
_cell_length_b   9.53732556
_cell_length_c   10.17746613
_cell_angle_alpha   63.64763098
_cell_angle_beta   67.27028340
_cell_angle_gamma   65.64944234
_symmetry_Int_Tables_number   1
_chemical_formula_structural   Ca3Si4(AgO7)2
_chemical_formula_sum   'Ca6 Si8 Ag4 O28'
_cell_volume   603.57242045
_cell_formula_units_Z   2
loop_
 _symmetry_equiv_pos_site_id
 _symmetry_equiv_pos_as_xyz
  1  'x, y, z'
loop_
 _atom_site_type_symbol
 _atom_site_label
 _atom_site_symmetry_multiplicity
 _atom_site_fract_x
 _atom_site_fract_y
 _atom_site_fract_z
 _atom_site_occupancy
  Ca  Ca0  1  0.84833124  0.92861964  0.46342050  1
  Ca  Ca1  1  0.24037138  0.57138036  0.03657950  1
  Ca  Ca2  1  0.75962862  0.42861964  0.96342050  1
  Ca  Ca3  1  0.65860673  0.25000000  0.75000000  1
  Ca  Ca4  1  0.15166876  0.07138036  0.53657950  1
  Ca  Ca5  1  0.34139327  0.75000000  0.25000000  1
  Si  Si6  1  0.46361813  0.29886808  0.32921904  1
  Si  Si7  1  0.90829375  0.79886808  0.82921904  1
  Si  Si8  1  0.48516255  0.88496536  0.85983562  1
  Si  Si9  1  0.77003747  0.38496536  0.35983562  1
  Si  Si10  1  0.09170625  0.20113192  0.17078096  1
  Si  Si11  1  0.51483745  0.11503464  0.14016438  1
  Si  Si12  1  0.22996253  0.61503464  0.64016438  1
  Si  Si13  1  0.53638187  0.70113192  0.67078096  1
  Ag  Ag14  1  0.22735050  0.25000000  0.75000000  1
  Ag  Ag15  1  0.77264950  0.75000000  0.25000000  1
  Ag  Ag16  1  0.00000000  0.00000000  0.00000000  1
  Ag  Ag17  1  0.00000000  0.50000000  0.50000000  1
  O  O18  1  0.14390769  0.69016099  0.49405606  1
  O  O19  1  0.02954790  0.59000915  0.27811208  1
  O  O20  1  0.52581227  0.92509363  0.18062938  1
  O  O21  1  0.10233087  0.09000915  0.77811208  1
  O  O22  1  0.73997419  0.69811715  0.54122371  1
  O  O23  1  0.93694390  0.37497742  0.19909555  1
  O  O24  1  0.36846372  0.42509363  0.68062938  1
  O  O25  1  0.97931505  0.80188285  0.95877629  1
  O  O26  1  0.06305610  0.62502258  0.80090445  1
  O  O27  1  0.35450720  0.74232335  0.60102071  1
  O  O28  1  0.97045210  0.40999085  0.72188792  1
  O  O29  1  0.26002581  0.30188285  0.45877629  1
  O  O30  1  0.51101786  0.12502258  0.30090445  1
  O  O31  1  0.67187425  0.19016099  0.99405606  1
  O  O32  1  0.30214874  0.24232335  0.10102071  1
  O  O33  1  0.02068495  0.19811715  0.04122371  1
  O  O34  1  0.09655284  0.04722517  0.32673879  1
  O  O35  1  0.64549280  0.25767665  0.39897929  1
  O  O36  1  0.47051580  0.45277483  0.17326121  1
  O  O37  1  0.69785126  0.75767665  0.89897929  1
  O  O38  1  0.48898214  0.87497742  0.69909555  1
  O  O39  1  0.89766913  0.90999085  0.22188792  1
  O  O40  1  0.52948420  0.54722517  0.82673879  1
  O  O41  1  0.47418773  0.07490637  0.81937062  1
  O  O42  1  0.90344716  0.95277483  0.67326121  1
  O  O43  1  0.63153628  0.57490637  0.31937062  1
  O  O44  1  0.32812575  0.80983901  0.00594394  1
  O  O45  1  0.85609231  0.30983901  0.50594394  1
