# generated using pymatgen
data_Ca3Cu6(PO4)8
_symmetry_space_group_name_H-M   'P 1'
_cell_length_a   4.90528011
_cell_length_b   9.19730365
_cell_length_c   14.55826301
_cell_angle_alpha   95.19652187
_cell_angle_beta   89.88181425
_cell_angle_gamma   90.64375944
_symmetry_Int_Tables_number   1
_chemical_formula_structural   Ca3Cu6(PO4)8
_chemical_formula_sum   'Ca3 Cu6 P8 O32'
_cell_volume   654.05997387
_cell_formula_units_Z   1
loop_
 _symmetry_equiv_pos_site_id
 _symmetry_equiv_pos_as_xyz
  1  'x, y, z'
loop_
 _atom_site_type_symbol
 _atom_site_label
 _atom_site_symmetry_multiplicity
 _atom_site_fract_x
 _atom_site_fract_y
 _atom_site_fract_z
 _atom_site_occupancy
  Ca  Ca0  1  0.46538274  0.45409049  0.26424740  1
  Ca  Ca1  1  0.49643468  0.50160188  0.99374247  1
  Ca  Ca2  1  0.99949059  0.00026409  0.50176061  1
  Cu  Cu3  1  0.03385122  0.33114528  0.62442182  1
  Cu  Cu4  1  0.53520767  0.16670936  0.87713031  1
  Cu  Cu5  1  0.97646693  0.67591182  0.38056881  1
  Cu  Cu6  1  0.45871618  0.84029543  0.12061737  1
  Cu  Cu7  1  0.49688515  0.49980634  0.50337746  1
  Cu  Cu8  1  0.99873915  0.00042025  0.99980847  1
  P  P9  1  0.48860147  0.87504287  0.33862220  1
  P  P10  1  0.99081962  0.62226968  0.15895153  1
  P  P11  1  0.50820480  0.12298466  0.66072248  1
  P  P12  1  0.00992416  0.37719002  0.83983505  1
  P  P13  1  0.50772239  0.15463068  0.09002310  1
  P  P14  1  0.01029913  0.34429452  0.40824588  1
  P  P15  1  0.48924347  0.84670530  0.90821230  1
  P  P16  1  0.98945209  0.65398719  0.59291429  1
  O  O17  1  0.54542465  0.91546650  0.23875937  1
  O  O18  1  0.04044694  0.58347877  0.26176951  1
  O  O19  1  0.45490911  0.08436964  0.76121808  1
  O  O20  1  0.95599038  0.41643085  0.73952439  1
  O  O21  1  0.31568393  0.37009669  0.86232773  1
  O  O22  1  0.81565344  0.13084932  0.63743496  1
  O  O23  1  0.68069423  0.61354517  0.14204273  1
  O  O24  1  0.18045704  0.87064736  0.36243289  1
  O  O25  1  0.58608419  0.71460677  0.35103843  1
  O  O26  1  0.09306734  0.77952929  0.14569233  1
  O  O27  1  0.40586838  0.27972714  0.64554782  1
  O  O28  1  0.90313594  0.21966573  0.85401915  1
  O  O29  1  0.63444837  0.99138581  0.40128484  1
  O  O30  1  0.14841667  0.50381129  0.10253281  1
  O  O31  1  0.36546004  0.00383753  0.59919260  1
  O  O32  1  0.86900357  0.49608384  0.90086073  1
  O  O33  1  0.68602321  0.00864849  0.07764389  1
  O  O34  1  0.19506579  0.49313719  0.42139124  1
  O  O35  1  0.31254693  0.99308376  0.92316304  1
  O  O36  1  0.81432211  0.50599443  0.57702033  1
  O  O37  1  0.92134386  0.75303934  0.67659771  1
  O  O38  1  0.42091186  0.74784460  0.82466723  1
  O  O39  1  0.09711945  0.26237677  0.32002329  1
  O  O40  1  0.57833062  0.25314401  0.17443814  1
  O  O41  1  0.56972236  0.24089713  0.00432971  1
  O  O42  1  0.06020818  0.25961324  0.49407329  1
  O  O43  1  0.43293111  0.76098291  0.99577580  1
  O  O44  1  0.93104006  0.74211922  0.50679945  1
  O  O45  1  0.29096493  0.60121077  0.59642589  1
  O  O46  1  0.79208571  0.90143451  0.90562082  1
  O  O47  1  0.70923786  0.40131686  0.40358163  1
  O  O48  1  0.20767929  0.09881122  0.09489658  1
