# generated using pymatgen
data_Ca3Cu2(Si2O7)2
_symmetry_space_group_name_H-M   'P 1'
_cell_length_a   7.67695720
_cell_length_b   9.30362799
_cell_length_c   9.92196314
_cell_angle_alpha   63.52054292
_cell_angle_beta   67.24031399
_cell_angle_gamma   65.63307121
_symmetry_Int_Tables_number   1
_chemical_formula_structural   Ca3Cu2(Si2O7)2
_chemical_formula_sum   'Ca6 Cu4 Si8 O28'
_cell_volume   559.63748336
_cell_formula_units_Z   2
loop_
 _symmetry_equiv_pos_site_id
 _symmetry_equiv_pos_as_xyz
  1  'x, y, z'
loop_
 _atom_site_type_symbol
 _atom_site_label
 _atom_site_symmetry_multiplicity
 _atom_site_fract_x
 _atom_site_fract_y
 _atom_site_fract_z
 _atom_site_occupancy
  Ca  Ca0  1  0.83707987  0.93126638  0.45954024  1
  Ca  Ca1  1  0.22788649  0.56873362  0.04045976  1
  Ca  Ca2  1  0.77211351  0.43126638  0.95954024  1
  Ca  Ca3  1  0.65780292  0.25000000  0.75000000  1
  Ca  Ca4  1  0.16292013  0.06873362  0.54045976  1
  Ca  Ca5  1  0.34219708  0.75000000  0.25000000  1
  Cu  Cu6  1  0.21787073  0.25000000  0.75000000  1
  Cu  Cu7  1  0.78212927  0.75000000  0.25000000  1
  Cu  Cu8  1  0.00000000  0.00000000  0.00000000  1
  Cu  Cu9  1  0.00000000  0.50000000  0.50000000  1
  Si  Si10  1  0.46524559  0.30591558  0.33831730  1
  Si  Si11  1  0.89052053  0.80591558  0.83831730  1
  Si  Si12  1  0.46271648  0.89432030  0.85335716  1
  Si  Si13  1  0.78960706  0.39432030  0.35335716  1
  Si  Si14  1  0.10947947  0.19408442  0.16168270  1
  Si  Si15  1  0.53728352  0.10567970  0.14664284  1
  Si  Si16  1  0.21039294  0.60567970  0.64664284  1
  Si  Si17  1  0.53475441  0.69408442  0.66168270  1
  O  O18  1  0.12190824  0.68147975  0.49587949  1
  O  O19  1  0.01585136  0.59016591  0.28858472  1
  O  O20  1  0.54835322  0.91228460  0.18927530  1
  O  O21  1  0.10539802  0.09016591  0.78858472  1
  O  O22  1  0.74166335  0.68585802  0.52850026  1
  O  O23  1  0.95148427  0.37627443  0.18534465  1
  O  O24  1  0.35008589  0.41228460  0.68927530  1
  O  O25  1  0.95602163  0.81414198  0.97149974  1
  O  O26  1  0.04851573  0.62372557  0.81465535  1
  O  O27  1  0.34427915  0.73569111  0.59522802  1
  O  O28  1  0.98414864  0.40983409  0.71141528  1
  O  O29  1  0.25833665  0.31414198  0.47149974  1
  O  O30  1  0.51310435  0.12372557  0.31465535  1
  O  O31  1  0.70073152  0.18147975  0.99587949  1
  O  O32  1  0.32480173  0.23569111  0.09522802  1
  O  O33  1  0.04397837  0.18585802  0.02850026  1
  O  O34  1  0.10753654  0.03884690  0.32378968  1
  O  O35  1  0.65572085  0.26430889  0.40477198  1
  O  O36  1  0.47017211  0.46115310  0.17621032  1
  O  O37  1  0.67519827  0.76430889  0.90477198  1
  O  O38  1  0.48689565  0.87627443  0.68534465  1
  O  O39  1  0.89460198  0.90983409  0.21141528  1
  O  O40  1  0.52982789  0.53884690  0.82378968  1
  O  O41  1  0.45164678  0.08771540  0.81072470  1
  O  O42  1  0.89246346  0.96115310  0.67621032  1
  O  O43  1  0.64991411  0.58771540  0.31072470  1
  O  O44  1  0.29926848  0.81852025  0.00412051  1
  O  O45  1  0.87809176  0.31852025  0.50412051  1
