# generated using pymatgen
data_Mg3Mo2O7
_symmetry_space_group_name_H-M   'P 1'
_cell_length_a   5.41481394
_cell_length_b   5.35752711
_cell_length_c   9.74352558
_cell_angle_alpha   105.95769108
_cell_angle_beta   90.00000000
_cell_angle_gamma   90.00000000
_symmetry_Int_Tables_number   1
_chemical_formula_structural   Mg3Mo2O7
_chemical_formula_sum   'Mg6 Mo4 O14'
_cell_volume   271.76749571
_cell_formula_units_Z   2
loop_
 _symmetry_equiv_pos_site_id
 _symmetry_equiv_pos_as_xyz
  1  'x, y, z'
loop_
 _atom_site_type_symbol
 _atom_site_label
 _atom_site_symmetry_multiplicity
 _atom_site_fract_x
 _atom_site_fract_y
 _atom_site_fract_z
 _atom_site_occupancy
  Mg  Mg0  1  0.72247246  0.73219511  0.00000000  1
  Mg  Mg1  1  0.22247246  0.26780489  1.00000000  1
  Mg  Mg2  1  0.80252112  0.57981520  0.59964768  1
  Mg  Mg3  1  0.30252112  0.42018480  0.40035232  1
  Mg  Mg4  1  0.80252112  0.98016651  0.40035232  1
  Mg  Mg5  1  0.30252112  0.01983349  0.59964768  1
  Mo  Mo6  1  0.75342303  0.35574308  0.20974111  1
  Mo  Mo7  1  0.25342303  0.64425692  0.79025889  1
  Mo  Mo8  1  0.25342303  0.85399802  0.20974111  1
  Mo  Mo9  1  0.75342303  0.14600198  0.79025889  1
  O  O10  1  0.67443888  0.92624298  0.58425921  1
  O  O11  1  0.17443888  0.07375702  0.41574079  1
  O  O12  1  0.17443888  0.65801523  0.58425921  1
  O  O13  1  0.67443888  0.34198477  0.41574079  1
  O  O14  1  0.07072225  0.28345372  0.73053500  1
  O  O15  1  0.57072225  0.71654628  0.26946500  1
  O  O16  1  0.57072225  0.44708128  0.73053500  1
  O  O17  1  0.07072225  0.55291872  0.26946500  1
  O  O18  1  0.92451624  0.83252089  0.84461411  1
  O  O19  1  0.42451624  0.16747911  0.15538589  1
  O  O20  1  0.84628651  0.37261694  0.00000000  1
  O  O21  1  0.34628651  0.62738306  1.00000000  1
  O  O22  1  0.92451624  0.98790678  0.15538589  1
  O  O23  1  0.42451624  0.01209322  0.84461411  1
