# generated using pymatgen
data_Mg(AgO2)2
_symmetry_space_group_name_H-M   'P 1'
_cell_length_a   3.29190880
_cell_length_b   8.07848534
_cell_length_c   7.71122975
_cell_angle_alpha   81.11066592
_cell_angle_beta   77.39682224
_cell_angle_gamma   96.77630380
_symmetry_Int_Tables_number   1
_chemical_formula_structural   Mg(AgO2)2
_chemical_formula_sum   'Mg2 Ag4 O8'
_cell_volume   195.26165146
_cell_formula_units_Z   2
loop_
 _symmetry_equiv_pos_site_id
 _symmetry_equiv_pos_as_xyz
  1  'x, y, z'
loop_
 _atom_site_type_symbol
 _atom_site_label
 _atom_site_symmetry_multiplicity
 _atom_site_fract_x
 _atom_site_fract_y
 _atom_site_fract_z
 _atom_site_occupancy
  Mg  Mg0  1  0.30066298  0.18191943  0.20657817  1
  Mg  Mg1  1  0.70154333  0.79615018  0.82650634  1
  Ag  Ag2  1  0.66606486  0.16460895  0.55964224  1
  Ag  Ag3  1  0.07183466  0.52098756  0.20180235  1
  Ag  Ag4  1  0.93051490  0.45712123  0.83124166  1
  Ag  Ag5  1  0.33641852  0.81353937  0.47344188  1
  O  O6  1  0.84343116  0.63974025  0.63188419  1
  O  O7  1  0.57795482  0.25652277  0.78608983  1
  O  O8  1  0.42444537  0.72159828  0.24695605  1
  O  O9  1  0.15893378  0.33837552  0.40116230  1
  O  O10  1  0.30427905  0.93354537  0.70064347  1
  O  O11  1  0.89093579  0.31472407  0.08516142  1
  O  O12  1  0.69801790  0.04456090  0.33238763  1
  O  O13  1  0.11127188  0.66340512  0.94794648  1
