# generated using pymatgen
data_Mg3Co2O7
_symmetry_space_group_name_H-M   'P 1'
_cell_length_a   5.18754951
_cell_length_b   4.97079062
_cell_length_c   9.09144312
_cell_angle_alpha   105.86533823
_cell_angle_beta   90.00000000
_cell_angle_gamma   90.00000000
_symmetry_Int_Tables_number   1
_chemical_formula_structural   Mg3Co2O7
_chemical_formula_sum   'Mg6 Co4 O14'
_cell_volume   225.50365017
_cell_formula_units_Z   2
loop_
 _symmetry_equiv_pos_site_id
 _symmetry_equiv_pos_as_xyz
  1  'x, y, z'
loop_
 _atom_site_type_symbol
 _atom_site_label
 _atom_site_symmetry_multiplicity
 _atom_site_fract_x
 _atom_site_fract_y
 _atom_site_fract_z
 _atom_site_occupancy
  Mg  Mg0  1  0.67883010  0.77189227  1.00000000  1
  Mg  Mg1  1  0.17883010  0.22810773  0.00000000  1
  Mg  Mg2  1  0.82570902  0.56505324  0.61573975  1
  Mg  Mg3  1  0.32570902  0.43494676  0.38426025  1
  Mg  Mg4  1  0.82570902  0.94931248  0.38426025  1
  Mg  Mg5  1  0.32570902  0.05068752  0.61573975  1
  Co  Co6  1  0.74897770  0.35303645  0.20350879  1
  Co  Co7  1  0.24897770  0.64696355  0.79649121  1
  Co  Co8  1  0.24897770  0.85047234  0.20350879  1
  Co  Co9  1  0.74897770  0.14952766  0.79649121  1
  O  O10  1  0.70730958  0.93634364  0.59482587  1
  O  O11  1  0.20730958  0.06365636  0.40517413  1
  O  O12  1  0.20730958  0.65848123  0.59482587  1
  O  O13  1  0.70730958  0.34151877  0.40517413  1
  O  O14  1  0.04855301  0.31015688  0.73433003  1
  O  O15  1  0.54855301  0.68984312  0.26566997  1
  O  O16  1  0.54855301  0.42417315  0.73433003  1
  O  O17  1  0.04855301  0.57582685  0.26566997  1
  O  O18  1  0.93862456  0.86150713  0.84836760  1
  O  O19  1  0.43862456  0.13849287  0.15163240  1
  O  O20  1  0.80282416  0.38013894  0.00000000  1
  O  O21  1  0.30282416  0.61986106  1.00000000  1
  O  O22  1  0.93862456  0.01313952  0.15163240  1
  O  O23  1  0.43862456  0.98686048  0.84836760  1
