# generated using pymatgen
data_Zn2MoWO6
_symmetry_space_group_name_H-M   'P 1'
_cell_length_a   5.38146047
_cell_length_b   5.37609089
_cell_length_c   7.90294650
_cell_angle_alpha   90.00000000
_cell_angle_beta   89.24615210
_cell_angle_gamma   90.00000000
_symmetry_Int_Tables_number   1
_chemical_formula_structural   Zn2MoWO6
_chemical_formula_sum   'Zn4 Mo2 W2 O12'
_cell_volume   228.62209853
_cell_formula_units_Z   2
loop_
 _symmetry_equiv_pos_site_id
 _symmetry_equiv_pos_as_xyz
  1  'x, y, z'
loop_
 _atom_site_type_symbol
 _atom_site_label
 _atom_site_symmetry_multiplicity
 _atom_site_fract_x
 _atom_site_fract_y
 _atom_site_fract_z
 _atom_site_occupancy
  Zn  Zn0  1  0.01562987  0.02318998  0.25009261  1
  Zn  Zn1  1  0.48437013  0.52319098  0.24990739  1
  Zn  Zn2  1  0.98437113  0.97681102  0.74990739  1
  Zn  Zn3  1  0.51562887  0.47681002  0.75009261  1
  Mo  Mo4  1  0.50000000  0.00000000  0.00000000  1
  Mo  Mo5  1  0.00000100  0.49999900  0.50000000  1
  W  W6  1  0.50000000  0.00000000  0.49999900  1
  W  W7  1  0.00000000  0.49999900  0.00000000  1
  O  O8  1  0.65584202  0.32138748  0.42767860  1
  O  O9  1  0.84415798  0.82138848  0.07232140  1
  O  O10  1  0.34415698  0.67861252  0.57232140  1
  O  O11  1  0.15584302  0.17861152  0.92767860  1
  O  O12  1  0.18014949  0.15688670  0.56419958  1
  O  O13  1  0.31985051  0.65688570  0.93580042  1
  O  O14  1  0.81985151  0.84311330  0.43580042  1
  O  O15  1  0.68014849  0.34311430  0.06419958  1
  O  O16  1  0.11878194  0.39942310  0.24077280  1
  O  O17  1  0.38121906  0.89942410  0.25922620  1
  O  O18  1  0.61878194  0.10057590  0.74077380  1
  O  O19  1  0.88121906  0.60057690  0.75922720  1
