# generated using pymatgen
data_Ca(BiO2)2
_symmetry_space_group_name_H-M   'P 1'
_cell_length_a   7.02588331
_cell_length_b   7.02075355
_cell_length_c   28.09227274
_cell_angle_alpha   60.01089917
_cell_angle_beta   60.08244514
_cell_angle_gamma   60.02414943
_symmetry_Int_Tables_number   1
_chemical_formula_structural   Ca(BiO2)2
_chemical_formula_sum   'Ca8 Bi16 O32'
_cell_volume   980.71208162
_cell_formula_units_Z   8
loop_
 _symmetry_equiv_pos_site_id
 _symmetry_equiv_pos_as_xyz
  1  'x, y, z'
loop_
 _atom_site_type_symbol
 _atom_site_label
 _atom_site_symmetry_multiplicity
 _atom_site_fract_x
 _atom_site_fract_y
 _atom_site_fract_z
 _atom_site_occupancy
  Ca  Ca0  1  0.13122893  0.12364582  0.03037036  1
  Ca  Ca1  1  0.00105578  0.49923179  0.12511966  1
  Ca  Ca2  1  0.13088625  0.12226580  0.28114529  1
  Ca  Ca3  1  0.00017022  0.49836808  0.37577341  1
  Ca  Ca4  1  0.00026544  0.50013242  0.62486718  1
  Ca  Ca5  1  0.49976043  0.49997727  0.50007151  1
  Ca  Ca6  1  0.00119147  0.50095798  0.87422314  1
  Ca  Ca7  1  0.50125442  0.50166364  0.74885407  1
  Bi  Bi8  1  0.49536625  0.49842821  0.12530208  1
  Bi  Bi9  1  0.49294462  0.49658634  0.25347043  1
  Bi  Bi10  1  0.49536625  0.00499720  0.12530208  1
  Bi  Bi11  1  0.12829289  0.12028079  0.53278613  1
  Bi  Bi12  1  0.49975917  0.49843399  0.37613864  1
  Bi  Bi13  1  0.86718914  0.87797115  0.21921714  1
  Bi  Bi14  1  0.12934039  0.12179110  0.78176935  1
  Bi  Bi15  1  0.49975917  0.99725327  0.37613864  1
  Bi  Bi16  1  0.50074196  0.50043082  0.62468691  1
  Bi  Bi17  1  0.87085661  0.87925277  0.46765921  1
  Bi  Bi18  1  0.50074196  0.00007958  0.62468691  1
  Bi  Bi19  1  0.49700716  0.00750216  0.87384267  1
  Bi  Bi20  1  0.49700716  0.50011998  0.87384267  1
  Bi  Bi21  1  0.87146188  0.87902945  0.71761931  1
  Bi  Bi22  1  0.49468927  0.49884919  0.00190334  1
  Bi  Bi23  1  0.86768623  0.87734439  0.96940600  1
  O  O24  1  0.26114865  0.25973175  0.06454183  1
  O  O25  1  0.26177370  0.25818896  0.18046209  1
  O  O26  1  0.26114865  0.72095429  0.06454183  1
  O  O27  1  0.72753988  0.25728646  0.06447205  1
  O  O28  1  0.25895205  0.74781557  0.18635370  1
  O  O29  1  0.25936330  0.26119311  0.31496551  1
  O  O30  1  0.74830760  0.27037209  0.18471944  1
  O  O31  1  0.25369385  0.25631284  0.43341962  1
  O  O32  1  0.25936330  0.71958156  0.31496551  1
  O  O33  1  0.74735301  0.74074227  0.06779036  1
  O  O34  1  0.72853675  0.25705012  0.31434126  1
  O  O35  1  0.74830760  0.74244253  0.18471944  1
  O  O36  1  0.26013301  0.25849542  0.56471405  1
  O  O37  1  0.26932742  0.74223797  0.43654891  1
  O  O38  1  0.74117021  0.27520415  0.43556675  1
  O  O39  1  0.25471043  0.25807737  0.68228396  1
  O  O40  1  0.26013301  0.72251437  0.56471405  1
  O  O41  1  0.74196266  0.73973218  0.31964299  1
  O  O42  1  0.72695921  0.25905857  0.56373091  1
  O  O43  1  0.74117021  0.74135963  0.43556675  1
  O  O44  1  0.27217146  0.74147844  0.68621767  1
  O  O45  1  0.26145196  0.25765698  0.81414333  1
  O  O46  1  0.74054604  0.27744816  0.68520239  1
  O  O47  1  0.26211306  0.26024055  0.92935096  1
  O  O48  1  0.26145196  0.72431574  0.81414333  1
  O  O49  1  0.74475340  0.74176484  0.56792948  1
  O  O50  1  0.72606811  0.25941416  0.81377589  1
  O  O51  1  0.74054604  0.74119825  0.68520239  1
  O  O52  1  0.26234027  0.74665184  0.93608926  1
  O  O53  1  0.74716887  0.27314212  0.93454600  1
  O  O54  1  0.74914344  0.74224152  0.81659313  1
  O  O55  1  0.74716887  0.74150400  0.93454600  1
