# generated using pymatgen
data_AlRe(WO4)2
_symmetry_space_group_name_H-M   'P 1'
_cell_length_a   5.20097608
_cell_length_b   5.60283456
_cell_length_c   9.28477700
_cell_angle_alpha   89.99752338
_cell_angle_beta   89.72163585
_cell_angle_gamma   90.00201676
_symmetry_Int_Tables_number   1
_chemical_formula_structural   AlRe(WO4)2
_chemical_formula_sum   'Al2 Re2 W4 O16'
_cell_volume   270.55714453
_cell_formula_units_Z   2
loop_
 _symmetry_equiv_pos_site_id
 _symmetry_equiv_pos_as_xyz
  1  'x, y, z'
loop_
 _atom_site_type_symbol
 _atom_site_label
 _atom_site_symmetry_multiplicity
 _atom_site_fract_x
 _atom_site_fract_y
 _atom_site_fract_z
 _atom_site_occupancy
  Al  Al0  1  0.25000886  0.66111337  0.25001465  1
  Al  Al1  1  0.74999014  0.33888563  0.74998535  1
  Re  Re2  1  0.74998945  0.36406913  0.24998703  1
  Re  Re3  1  0.25001055  0.63592987  0.75001297  1
  W  W4  1  0.24299627  0.15682188  0.49759615  1
  W  W5  1  0.25701291  0.15680122  0.00240484  1
  W  W6  1  0.75700373  0.84317812  0.50240385  1
  W  W7  1  0.74298709  0.84319878  0.99759516  1
  O  O8  1  0.41584670  0.39544712  0.14208268  1
  O  O9  1  0.08418035  0.39546045  0.35789433  1
  O  O10  1  0.58415330  0.60455188  0.85791732  1
  O  O11  1  0.91581865  0.60453855  0.64210567  1
  O  O12  1  0.40355153  0.86832732  0.61621538  1
  O  O13  1  0.09644128  0.86839635  0.88376972  1
  O  O14  1  0.59644847  0.13167268  0.38378462  1
  O  O15  1  0.90355872  0.13160365  0.11623028  1
  O  O16  1  0.92679481  0.62345660  0.14243485  1
  O  O17  1  0.57322946  0.62346698  0.35756159  1
  O  O18  1  0.07320519  0.37654440  0.85756515  1
  O  O19  1  0.42677054  0.37653402  0.64243841  1
  O  O20  1  0.40608856  0.88000629  0.12202982  1
  O  O21  1  0.59391144  0.11999471  0.87797018  1
  O  O22  1  0.09390816  0.88002518  0.37796871  1
  O  O23  1  0.90609184  0.11997582  0.62203129  1
