# generated using pymatgen
data_Na3V2(GeO4)3
_symmetry_space_group_name_H-M   'P 1'
_cell_length_a   10.66190848
_cell_length_b   10.66190817
_cell_length_c   10.66190880
_cell_angle_alpha   109.47122004
_cell_angle_beta   109.47121947
_cell_angle_gamma   109.47121989
_symmetry_Int_Tables_number   1
_chemical_formula_structural   Na3V2(GeO4)3
_chemical_formula_sum   'Na12 V8 Ge12 O48'
_cell_volume   933.00285726
_cell_formula_units_Z   4
loop_
 _symmetry_equiv_pos_site_id
 _symmetry_equiv_pos_as_xyz
  1  'x, y, z'
loop_
 _atom_site_type_symbol
 _atom_site_label
 _atom_site_symmetry_multiplicity
 _atom_site_fract_x
 _atom_site_fract_y
 _atom_site_fract_z
 _atom_site_occupancy
  Na  Na0  1  0.62500000  0.25000000  0.87500000  1
  Na  Na1  1  0.87500000  0.75000000  0.62500000  1
  Na  Na2  1  0.75000000  0.62500000  0.87500000  1
  Na  Na3  1  0.25000000  0.87500000  0.62500000  1
  Na  Na4  1  0.87500000  0.62500000  0.25000000  1
  Na  Na5  1  0.62500000  0.87500000  0.75000000  1
  Na  Na6  1  0.37500000  0.75000000  0.12500000  1
  Na  Na7  1  0.12500000  0.25000000  0.37500000  1
  Na  Na8  1  0.25000000  0.37500000  0.12500000  1
  Na  Na9  1  0.75000000  0.12500000  0.37500000  1
  Na  Na10  1  0.12500000  0.37500000  0.75000000  1
  Na  Na11  1  0.37500000  0.12500000  0.25000000  1
  V  V12  1  0.50000000  0.50000000  0.50000000  1
  V  V13  1  0.50000000  0.50000000  0.00000000  1
  V  V14  1  0.50000000  0.00000000  0.50000000  1
  V  V15  1  0.00000000  0.50000000  0.50000000  1
  V  V16  1  0.50000000  0.00000000  0.00000000  1
  V  V17  1  0.00000000  0.00000000  0.50000000  1
  V  V18  1  0.00000000  0.50000000  0.00000000  1
  V  V19  1  0.00000000  0.00000000  0.00000000  1
  Ge  Ge20  1  0.87500000  0.12500000  0.75000000  1
  Ge  Ge21  1  0.12500000  0.87500000  0.25000000  1
  Ge  Ge22  1  0.25000000  0.62500000  0.37500000  1
  Ge  Ge23  1  0.12500000  0.75000000  0.87500000  1
  Ge  Ge24  1  0.75000000  0.87500000  0.12500000  1
  Ge  Ge25  1  0.37500000  0.25000000  0.62500000  1
  Ge  Ge26  1  0.62500000  0.75000000  0.37500000  1
  Ge  Ge27  1  0.87500000  0.25000000  0.12500000  1
  Ge  Ge28  1  0.25000000  0.12500000  0.87500000  1
  Ge  Ge29  1  0.75000000  0.37500000  0.62500000  1
  Ge  Ge30  1  0.37500000  0.62500000  0.75000000  1
  Ge  Ge31  1  0.62500000  0.37500000  0.25000000  1
  O  O32  1  0.80826543  0.42020051  0.81894483  1
  O  O33  1  0.07979949  0.88806492  0.39874432  1
  O  O34  1  0.68105517  0.10125568  0.98931960  1
  O  O35  1  0.69173457  0.51068040  0.61193508  1
  O  O36  1  0.69173457  0.68105517  0.07979949  1
  O  O37  1  0.51068040  0.61193508  0.69173457  1
  O  O38  1  0.10125568  0.61193508  0.42020051  1
  O  O39  1  0.61193508  0.69173457  0.51068040  1
  O  O40  1  0.39874432  0.81894483  0.51068040  1
  O  O41  1  0.88806492  0.98931960  0.80826543  1
  O  O42  1  0.98931960  0.80826543  0.88806492  1
  O  O43  1  0.07979949  0.69173457  0.68105517  1
  O  O44  1  0.61193508  0.42020051  0.10125568  1
  O  O45  1  0.51068040  0.39874432  0.81894483  1
  O  O46  1  0.68105517  0.07979949  0.69173457  1
  O  O47  1  0.42020051  0.10125568  0.61193508  1
  O  O48  1  0.81894483  0.51068040  0.39874432  1
  O  O49  1  0.39874432  0.07979949  0.88806492  1
  O  O50  1  0.10125568  0.98931960  0.68105517  1
  O  O51  1  0.60125568  0.18105517  0.48931960  1
  O  O52  1  0.98931960  0.68105517  0.10125568  1
  O  O53  1  0.81894483  0.80826543  0.42020051  1
  O  O54  1  0.88806492  0.39874432  0.07979949  1
  O  O55  1  0.80826543  0.88806492  0.98931960  1
  O  O56  1  0.19173457  0.57979949  0.18105517  1
  O  O57  1  0.92020051  0.11193508  0.60125568  1
  O  O58  1  0.31894483  0.89874432  0.01068040  1
  O  O59  1  0.30826543  0.48931960  0.38806492  1
  O  O60  1  0.30826543  0.31894483  0.92020051  1
  O  O61  1  0.48931960  0.38806492  0.30826543  1
  O  O62  1  0.89874432  0.38806492  0.57979949  1
  O  O63  1  0.38806492  0.30826543  0.48931960  1
  O  O64  1  0.19173457  0.11193508  0.01068040  1
  O  O65  1  0.11193508  0.60125568  0.92020051  1
  O  O66  1  0.18105517  0.19173457  0.57979949  1
  O  O67  1  0.57979949  0.18105517  0.19173457  1
  O  O68  1  0.01068040  0.31894483  0.89874432  1
  O  O69  1  0.89874432  0.01068040  0.31894483  1
  O  O70  1  0.60125568  0.92020051  0.11193508  1
  O  O71  1  0.18105517  0.48931960  0.60125568  1
  O  O72  1  0.57979949  0.89874432  0.38806492  1
  O  O73  1  0.31894483  0.92020051  0.30826543  1
  O  O74  1  0.48931960  0.60125568  0.18105517  1
  O  O75  1  0.38806492  0.57979949  0.89874432  1
  O  O76  1  0.92020051  0.30826543  0.31894483  1
  O  O77  1  0.01068040  0.19173457  0.11193508  1
  O  O78  1  0.11193508  0.01068040  0.19173457  1
  O  O79  1  0.42020051  0.81894483  0.80826543  1
