# generated using pymatgen
data_Ca2AlCuO5
_symmetry_space_group_name_H-M   'P 1'
_cell_length_a   5.27517740
_cell_length_b   5.62504897
_cell_length_c   8.29605697
_cell_angle_alpha   109.76628349
_cell_angle_beta   108.46061516
_cell_angle_gamma   90.01610853
_symmetry_Int_Tables_number   1
_chemical_formula_structural   Ca2AlCuO5
_chemical_formula_sum   'Ca4 Al2 Cu2 O10'
_cell_volume   218.14914569
_cell_formula_units_Z   2
loop_
 _symmetry_equiv_pos_site_id
 _symmetry_equiv_pos_as_xyz
  1  'x, y, z'
loop_
 _atom_site_type_symbol
 _atom_site_label
 _atom_site_symmetry_multiplicity
 _atom_site_fract_x
 _atom_site_fract_y
 _atom_site_fract_z
 _atom_site_occupancy
  Ca  Ca0  1  0.11514405  0.63765967  0.21488113  1
  Ca  Ca1  1  0.40105486  0.92359378  0.78062530  1
  Ca  Ca2  1  0.90113884  0.36170862  0.78136703  1
  Ca  Ca3  1  0.61940481  0.07791362  0.21629329  1
  Al  Al4  1  0.28776452  0.32795207  0.49887290  1
  Al  Al5  1  0.78706190  0.67380063  0.49820024  1
  Cu  Cu6  1  0.49651760  0.49966446  0.99818907  1
  Cu  Cu7  1  0.99737066  0.99936499  0.99786958  1
  O  O8  1  0.62326699  0.39406439  0.50005064  1
  O  O9  1  0.12209879  0.60774562  0.49842691  1
  O  O10  1  0.61156923  0.71975932  0.29301250  1
  O  O11  1  0.31226390  0.27903658  0.70250967  1
  O  O12  1  0.11291443  0.07467675  0.29618927  1
  O  O13  1  0.81299510  0.92790421  0.69988579  1
  O  O14  1  0.23149071  0.73625079  0.96528156  1
  O  O15  1  0.26906974  0.25905834  0.03153686  1
  O  O16  1  0.76717674  0.27032369  0.02887222  1
  O  O17  1  0.73221613  0.73105845  0.96605702  1
