# generated using pymatgen
data_Mg(CoO2)2
_symmetry_space_group_name_H-M   'P 1'
_cell_length_a   5.83169489
_cell_length_b   5.81964704
_cell_length_c   17.43803649
_cell_angle_alpha   59.91585043
_cell_angle_beta   60.16758577
_cell_angle_gamma   60.04640669
_symmetry_Int_Tables_number   1
_chemical_formula_structural   Mg(CoO2)2
_chemical_formula_sum   'Mg6 Co12 O24'
_cell_volume   418.88583835
_cell_formula_units_Z   6
loop_
 _symmetry_equiv_pos_site_id
 _symmetry_equiv_pos_as_xyz
  1  'x, y, z'
loop_
 _atom_site_type_symbol
 _atom_site_label
 _atom_site_symmetry_multiplicity
 _atom_site_fract_x
 _atom_site_fract_y
 _atom_site_fract_z
 _atom_site_occupancy
  Mg  Mg0  1  0.14095902  0.12315969  0.04038852  1
  Mg  Mg1  1  0.50049140  0.50202820  0.33086508  1
  Mg  Mg2  1  0.00611685  0.50011265  0.16536294  1
  Mg  Mg3  1  0.49659964  0.50125960  0.66614838  1
  Mg  Mg4  1  0.99781972  0.49989208  0.49906710  1
  Mg  Mg5  1  0.99596775  0.50015114  0.83389404  1
  Co  Co6  1  0.50030248  0.00485672  0.16575175  1
  Co  Co7  1  0.13092869  0.11564771  0.37849520  1
  Co  Co8  1  0.49908800  0.49994252  0.00183877  1
  Co  Co9  1  0.49975406  0.50067138  0.16511989  1
  Co  Co10  1  0.49967558  -0.00010115  0.49879481  1
  Co  Co11  1  0.13104485  0.11788274  0.71016615  1
  Co  Co12  1  0.49763701  0.49844758  0.49965835  1
  Co  Co13  1  0.49782971  0.00252645  0.83345494  1
  Co  Co14  1  0.86388727  0.88477271  0.28797430  1
  Co  Co15  1  0.49782700  0.50279911  0.83352326  1
  Co  Co16  1  0.86667234  0.88104450  0.62201543  1
  Co  Co17  1  0.86586134  0.88060967  0.95870665  1
  O  O18  1  0.28037838  0.25966312  0.08475199  1
  O  O19  1  0.27761073  0.24754846  0.24294563  1
  O  O20  1  0.28043050  0.71306875  0.08370918  1
  O  O21  1  0.71218234  0.26431873  0.08736869  1
  O  O22  1  0.26686131  0.24233837  0.42100976  1
  O  O23  1  0.27011169  0.75534077  0.23988550  1
  O  O24  1  0.27305953  0.24755260  0.57549589  1
  O  O25  1  0.73808851  0.27483896  0.24197682  1
  O  O26  1  0.26477322  0.72430811  0.42101493  1
  O  O27  1  0.72014718  0.75380549  0.09122078  1
  O  O28  1  0.72431678  0.25003378  0.42426260  1
  O  O29  1  0.73977330  0.75729273  0.24201747  1
  O  O30  1  0.26232162  0.24139537  0.75576080  1
  O  O31  1  0.27228731  0.75138509  0.57366969  1
  O  O32  1  0.73296016  0.27255260  0.57767831  1
  O  O33  1  0.26484258  0.72751616  0.75615327  1
  O  O34  1  0.27796439  0.25893266  0.90267207  1
  O  O35  1  0.72153580  0.74962647  0.42399178  1
  O  O36  1  0.72583501  0.25089132  0.75823828  1
  O  O37  1  0.73180552  0.75782132  0.57757565  1
  O  O38  1  0.27964820  0.74105005  0.91488907  1
  O  O39  1  0.71938201  0.27869110  0.91776775  1
  O  O40  1  0.72552834  0.75219360  0.75786196  1
  O  O41  1  0.72400090  0.74946106  0.91663755  1
