# generated using pymatgen
data_Mg2CoIrO6
_symmetry_space_group_name_H-M   'P 1'
_cell_length_a   5.03898742
_cell_length_b   5.24761299
_cell_length_c   7.38278790
_cell_angle_alpha   90.00000000
_cell_angle_beta   90.11430860
_cell_angle_gamma   90.00000000
_symmetry_Int_Tables_number   1
_chemical_formula_structural   Mg2CoIrO6
_chemical_formula_sum   'Mg4 Co2 Ir2 O12'
_cell_volume   195.22013129
_cell_formula_units_Z   2
loop_
 _symmetry_equiv_pos_site_id
 _symmetry_equiv_pos_as_xyz
  1  'x, y, z'
loop_
 _atom_site_type_symbol
 _atom_site_label
 _atom_site_symmetry_multiplicity
 _atom_site_fract_x
 _atom_site_fract_y
 _atom_site_fract_z
 _atom_site_occupancy
  Mg  Mg0  1  0.01251871  0.93590593  0.24756605  1
  Mg  Mg1  1  0.48748129  0.43590593  0.25243395  1
  Mg  Mg2  1  0.51251871  0.56409407  0.74756605  1
  Mg  Mg3  1  0.98748129  0.06409407  0.75243395  1
  Co  Co4  1  0.00000000  0.50000000  0.00000000  1
  Co  Co5  1  0.50000000  0.00000000  0.50000000  1
  Ir  Ir6  1  0.00000000  0.50000000  0.50000000  1
  Ir  Ir7  1  0.50000000  0.00000000  0.00000000  1
  O  O8  1  0.13276922  0.43306196  0.75339523  1
  O  O9  1  0.17687239  0.18855970  0.06791204  1
  O  O10  1  0.18372676  0.18204776  0.42934015  1
  O  O11  1  0.31627324  0.68204776  0.07065985  1
  O  O12  1  0.32312761  0.68855970  0.43208796  1
  O  O13  1  0.36723078  0.93306196  0.74660477  1
  O  O14  1  0.63276922  0.06693804  0.25339523  1
  O  O15  1  0.67687239  0.31144030  0.56791204  1
  O  O16  1  0.68372676  0.31795224  0.92934015  1
  O  O17  1  0.82312761  0.81144030  0.93208796  1
  O  O18  1  0.81627324  0.81795224  0.57065985  1
  O  O19  1  0.86723078  0.56693804  0.24660477  1
