# generated using pymatgen
data_LiTi3P3O13
_symmetry_space_group_name_H-M   'P 1'
_cell_length_a   6.38797886
_cell_length_b   7.65376095
_cell_length_c   10.51423691
_cell_angle_alpha   99.36819821
_cell_angle_beta   90.00000000
_cell_angle_gamma   90.00000000
_symmetry_Int_Tables_number   1
_chemical_formula_structural   LiTi3P3O13
_chemical_formula_sum   'Li2 Ti6 P6 O26'
_cell_volume   507.20650708
_cell_formula_units_Z   2
loop_
 _symmetry_equiv_pos_site_id
 _symmetry_equiv_pos_as_xyz
  1  'x, y, z'
loop_
 _atom_site_type_symbol
 _atom_site_label
 _atom_site_symmetry_multiplicity
 _atom_site_fract_x
 _atom_site_fract_y
 _atom_site_fract_z
 _atom_site_occupancy
  Li  Li0  1  0.75000000  0.60347965  0.13768659  1
  Li  Li1  1  0.25000000  0.39652035  0.86231341  1
  Ti  Ti2  1  0.25000000  0.35847624  0.19550640  1
  Ti  Ti3  1  0.75000000  0.64152376  0.80449360  1
  Ti  Ti4  1  0.25000000  0.78617636  0.44340732  1
  Ti  Ti5  1  0.50000000  0.00000000  0.00000000  1
  Ti  Ti6  1  0.75000000  0.21382364  0.55659268  1
  Ti  Ti7  1  0.00000000  0.00000000  0.00000000  1
  P  P8  1  0.25000000  0.22110748  0.48372709  1
  P  P9  1  0.75000000  0.77889252  0.51627291  1
  P  P10  1  0.25000000  0.73035032  0.76630750  1
  P  P11  1  0.75000000  0.26964968  0.23369250  1
  P  P12  1  0.75000000  0.30702419  0.87882102  1
  P  P13  1  0.25000000  0.69297581  0.12117898  1
  O  O14  1  0.75000000  0.34818197  0.73763400  1
  O  O15  1  0.55410073  0.74098852  0.43187110  1
  O  O16  1  0.25000000  0.77813359  0.62998836  1
  O  O17  1  0.54805603  0.20763382  0.90421434  1
  O  O18  1  0.75000000  0.66629667  0.62396746  1
  O  O19  1  0.75000000  0.86300798  0.90254687  1
  O  O20  1  0.25000000  0.33370333  0.37603254  1
  O  O21  1  0.04805603  0.79236618  0.09578566  1
  O  O22  1  0.25000000  0.01952344  0.41982043  1
  O  O23  1  0.75000000  0.98047656  0.58017957  1
  O  O24  1  0.06034086  0.61665323  0.79289757  1
  O  O25  1  0.25000000  0.13699202  0.09745313  1
  O  O26  1  0.56034086  0.38334677  0.20710243  1
  O  O27  1  0.75000000  0.49934785  0.95522442  1
  O  O28  1  0.75000000  0.22186641  0.37001164  1
  O  O29  1  0.45194397  0.79236618  0.09578566  1
  O  O30  1  0.94589927  0.74098852  0.43187110  1
  O  O31  1  0.44589927  0.25901148  0.56812890  1
  O  O32  1  0.43965914  0.61665323  0.79289757  1
  O  O33  1  0.25000000  0.65181803  0.26236600  1
  O  O34  1  0.75000000  0.09420970  0.13127965  1
  O  O35  1  0.25000000  0.90579030  0.86872035  1
  O  O36  1  0.93965914  0.38334677  0.20710243  1
  O  O37  1  0.95194397  0.20763382  0.90421434  1
  O  O38  1  0.05410073  0.25901148  0.56812890  1
  O  O39  1  0.25000000  0.50065215  0.04477558  1
