# generated using pymatgen
data_Mg6ZnGa
_symmetry_space_group_name_H-M   'P 1'
_cell_length_a   6.18490460
_cell_length_b   6.31096709
_cell_length_c   4.93530681
_cell_angle_alpha   90.00000000
_cell_angle_beta   90.00000000
_cell_angle_gamma   120.67656754
_symmetry_Int_Tables_number   1
_chemical_formula_structural   Mg6ZnGa
_chemical_formula_sum   'Mg6 Zn1 Ga1'
_cell_volume   165.68085660
_cell_formula_units_Z   1
loop_
 _symmetry_equiv_pos_site_id
 _symmetry_equiv_pos_as_xyz
  1  'x, y, z'
loop_
 _atom_site_type_symbol
 _atom_site_label
 _atom_site_symmetry_multiplicity
 _atom_site_fract_x
 _atom_site_fract_y
 _atom_site_fract_z
 _atom_site_occupancy
  Mg  Mg0  1  0.66781128  0.33386120  0.25000000  1
  Mg  Mg1  1  0.66781128  0.83394908  0.25000000  1
  Mg  Mg2  1  0.32753576  0.16481689  0.75000000  1
  Mg  Mg3  1  0.32753576  0.66271988  0.75000000  1
  Mg  Mg4  1  0.83907294  0.16953697  0.75000000  1
  Mg  Mg5  1  0.83770309  0.66885205  0.75000000  1
  Zn  Zn6  1  0.16618082  0.33308991  0.25000000  1
  Ga  Ga7  1  0.16634907  0.83317404  0.25000000  1
