# generated using pymatgen
data_Ba2ClF3
_symmetry_space_group_name_H-M   'P 1'
_cell_length_a   4.49755399
_cell_length_b   4.49776112
_cell_length_c   7.50075645
_cell_angle_alpha   89.99999997
_cell_angle_beta   89.99967762
_cell_angle_gamma   120.00152296
_symmetry_Int_Tables_number   1
_chemical_formula_structural   Ba2ClF3
_chemical_formula_sum   'Ba2 Cl1 F3'
_cell_volume   131.40194759
_cell_formula_units_Z   1
loop_
 _symmetry_equiv_pos_site_id
 _symmetry_equiv_pos_as_xyz
  1  'x, y, z'
loop_
 _atom_site_type_symbol
 _atom_site_label
 _atom_site_symmetry_multiplicity
 _atom_site_fract_x
 _atom_site_fract_y
 _atom_site_fract_z
 _atom_site_occupancy
  Ba  Ba0  1  0.66662953  0.33331476  0.20123903  1
  Ba  Ba1  1  0.33337047  0.66668524  0.79876097  1
  Cl  Cl2  1  0.00000000  0.00000000  0.50000000  1
  F  F3  1  -0.00000000  -0.00000000  0.00000000  1
  F  F4  1  0.66662540  0.33331270  0.83573323  1
  F  F5  1  0.33337460  0.66668730  0.16426677  1
