# generated using pymatgen
data_LiMg6Zn
_symmetry_space_group_name_H-M   'P 1'
_cell_length_a   6.22554977
_cell_length_b   6.28184372
_cell_length_c   5.03969873
_cell_angle_alpha   90.00000000
_cell_angle_beta   90.00000000
_cell_angle_gamma   120.29957907
_symmetry_Int_Tables_number   1
_chemical_formula_structural   LiMg6Zn
_chemical_formula_sum   'Li1 Mg6 Zn1'
_cell_volume   170.16924921
_cell_formula_units_Z   1
loop_
 _symmetry_equiv_pos_site_id
 _symmetry_equiv_pos_as_xyz
  1  'x, y, z'
loop_
 _atom_site_type_symbol
 _atom_site_label
 _atom_site_symmetry_multiplicity
 _atom_site_fract_x
 _atom_site_fract_y
 _atom_site_fract_z
 _atom_site_occupancy
  Li  Li0  1  0.16588101  0.83294000  0.25000000  1
  Mg  Mg1  1  0.66774527  0.33530467  0.25000000  1
  Mg  Mg2  1  0.66774527  0.83243960  0.25000000  1
  Mg  Mg3  1  0.32743853  0.16513638  0.75000000  1
  Mg  Mg4  1  0.32743853  0.66230315  0.75000000  1
  Mg  Mg5  1  0.83905688  0.16952894  0.75000000  1
  Mg  Mg6  1  0.83730461  0.66865281  0.75000000  1
  Zn  Zn7  1  0.16738991  0.33369446  0.25000000  1
