# generated using pymatgen
data_Ca(MoO2)2
_symmetry_space_group_name_H-M   'P 1'
_cell_length_a   3.32321043
_cell_length_b   8.35290467
_cell_length_c   7.30244220
_cell_angle_alpha   77.57908646
_cell_angle_beta   76.85164815
_cell_angle_gamma   78.52566909
_symmetry_Int_Tables_number   1
_chemical_formula_structural   Ca(MoO2)2
_chemical_formula_sum   'Ca2 Mo4 O8'
_cell_volume   190.35727275
_cell_formula_units_Z   2
loop_
 _symmetry_equiv_pos_site_id
 _symmetry_equiv_pos_as_xyz
  1  'x, y, z'
loop_
 _atom_site_type_symbol
 _atom_site_label
 _atom_site_symmetry_multiplicity
 _atom_site_fract_x
 _atom_site_fract_y
 _atom_site_fract_z
 _atom_site_occupancy
  Ca  Ca0  1  0.34059845  0.16629973  0.16029146  1
  Ca  Ca1  1  0.66172211  0.81183174  0.87278391  1
  Mo  Mo2  1  0.63774883  0.15803344  0.57433410  1
  Mo  Mo3  1  0.13924428  0.51798379  0.21151282  1
  Mo  Mo4  1  0.86308091  0.46014080  0.82155010  1
  Mo  Mo5  1  0.36460654  0.82006636  0.45873348  1
  O  O6  1  0.86887785  0.68075871  0.58949582  1
  O  O7  1  0.45475261  0.29195008  0.80632622  1
  O  O8  1  0.54755335  0.68615706  0.22674873  1
  O  O9  1  0.13350352  0.29732281  0.44351962  1
  O  O10  1  0.16595018  0.98068484  0.69537042  1
  O  O11  1  0.76021733  0.36390895  0.12356340  1
  O  O12  1  0.83637721  0.99742251  0.33771219  1
  O  O13  1  0.24207984  0.61424016  0.90949975  1
