# generated using pymatgen
data_TeMoWS3
_symmetry_space_group_name_H-M   'P 1'
_cell_length_a   3.27166529
_cell_length_b   3.27156293
_cell_length_c   38.19424172
_cell_angle_alpha   89.99994016
_cell_angle_beta   90.00000000
_cell_angle_gamma   120.00103514
_symmetry_Int_Tables_number   1
_chemical_formula_structural   TeMoWS3
_chemical_formula_sum   'Te2 Mo2 W2 S6'
_cell_volume   354.03658122
_cell_formula_units_Z   2
loop_
 _symmetry_equiv_pos_site_id
 _symmetry_equiv_pos_as_xyz
  1  'x, y, z'
loop_
 _atom_site_type_symbol
 _atom_site_label
 _atom_site_symmetry_multiplicity
 _atom_site_fract_x
 _atom_site_fract_y
 _atom_site_fract_z
 _atom_site_occupancy
  Te  Te0  1  0.33330037  0.66660174  0.33217749  1
  Te  Te1  1  0.33332759  0.66665619  0.23123954  1
  Mo  Mo2  1  0.33332676  0.66665351  0.09332810  1
  Mo  Mo3  1  0.66665306  0.33330612  0.28167064  1
  W  W4  1  0.33331977  0.66663953  0.47023498  1
  W  W5  1  0.66669892  0.33339784  0.65764379  1
  S  S6  1  0.33335564  0.66671228  0.69809569  1
  S  S7  1  0.66668685  0.33337270  0.05308637  1
  S  S8  1  0.66666157  0.33332214  0.42977605  1
  S  S9  1  0.66666137  0.33332173  0.13363050  1
  S  S10  1  0.66663787  0.33327474  0.51066111  1
  S  S11  1  0.33337023  0.66674147  0.61720373  1
