# generated using pymatgen
data_Te2Mo3WS6
_symmetry_space_group_name_H-M   'P 1'
_cell_length_a   3.27533621
_cell_length_b   3.27483902
_cell_length_c   37.78481742
_cell_angle_alpha   89.99768533
_cell_angle_beta   90.00000000
_cell_angle_gamma   120.00502219
_symmetry_Int_Tables_number   1
_chemical_formula_structural   Te2Mo3WS6
_chemical_formula_sum   'Te2 Mo3 W1 S6'
_cell_volume   350.97147598
_cell_formula_units_Z   1
loop_
 _symmetry_equiv_pos_site_id
 _symmetry_equiv_pos_as_xyz
  1  'x, y, z'
loop_
 _atom_site_type_symbol
 _atom_site_label
 _atom_site_symmetry_multiplicity
 _atom_site_fract_x
 _atom_site_fract_y
 _atom_site_fract_z
 _atom_site_occupancy
  Te  Te0  1  0.33331722  0.66663544  0.33278809  1
  Te  Te1  1  0.33335529  0.66671158  0.23086082  1
  Mo  Mo2  1  0.33331749  0.66663498  0.09358441  1
  Mo  Mo3  1  0.33321209  0.66642418  0.46990764  1
  Mo  Mo4  1  0.66671779  0.33343557  0.28183982  1
  W  W5  1  0.66673364  0.33346727  0.65758877  1
  S  S6  1  0.33334811  0.66669722  0.69838336  1
  S  S7  1  0.66665747  0.33331395  0.05283705  1
  S  S8  1  0.66666215  0.33332330  0.42926089  1
  S  S9  1  0.66665557  0.33331014  0.13432151  1
  S  S10  1  0.66665931  0.33331762  0.51060244  1
  S  S11  1  0.33336387  0.66672875  0.61677320  1
