# generated using pymatgen
data_NaMg14Bi
_symmetry_space_group_name_H-M   'P 1'
_cell_length_a   6.47085921
_cell_length_b   6.37390295
_cell_length_c   10.54901422
_cell_angle_alpha   90.00000000
_cell_angle_beta   90.00000000
_cell_angle_gamma   119.50557996
_symmetry_Int_Tables_number   1
_chemical_formula_structural   NaMg14Bi
_chemical_formula_sum   'Na1 Mg14 Bi1'
_cell_volume   378.66234383
_cell_formula_units_Z   1
loop_
 _symmetry_equiv_pos_site_id
 _symmetry_equiv_pos_as_xyz
  1  'x, y, z'
loop_
 _atom_site_type_symbol
 _atom_site_label
 _atom_site_symmetry_multiplicity
 _atom_site_fract_x
 _atom_site_fract_y
 _atom_site_fract_z
 _atom_site_occupancy
  Na  Na0  1  0.16617192  0.33308546  0.12500000  1
  Mg  Mg1  1  0.16668140  0.33334020  0.62500000  1
  Mg  Mg2  1  0.16586744  0.83293322  0.62500000  1
  Mg  Mg3  1  0.66749195  0.33173914  0.12500000  1
  Mg  Mg4  1  0.66655032  0.33402201  0.62500000  1
  Mg  Mg5  1  0.66749195  0.83575180  0.12500000  1
  Mg  Mg6  1  0.66655032  0.83252731  0.62500000  1
  Mg  Mg7  1  0.33713649  0.16977067  0.38229351  1
  Mg  Mg8  1  0.33713649  0.16977067  0.86770649  1
  Mg  Mg9  1  0.33713649  0.66736682  0.38229351  1
  Mg  Mg10  1  0.33713649  0.66736682  0.86770649  1
  Mg  Mg11  1  0.82961121  0.16480610  0.38028793  1
  Mg  Mg12  1  0.82961121  0.16480610  0.86971207  1
  Mg  Mg13  1  0.82750925  0.66375512  0.37788730  1
  Mg  Mg14  1  0.82750925  0.66375512  0.87211270  1
  Bi  Bi15  1  0.17040782  0.83520341  0.12500000  1
