# generated using pymatgen
data_ZnBiMoO5
_symmetry_space_group_name_H-M   'P 1'
_cell_length_a   5.31068523
_cell_length_b   10.48286586
_cell_length_c   16.05838235
_cell_angle_alpha   90.00000000
_cell_angle_beta   90.00000000
_cell_angle_gamma   90.00000000
_symmetry_Int_Tables_number   1
_chemical_formula_structural   ZnBiMoO5
_chemical_formula_sum   'Zn8 Bi8 Mo8 O40'
_cell_volume   893.98942979
_cell_formula_units_Z   8
loop_
 _symmetry_equiv_pos_site_id
 _symmetry_equiv_pos_as_xyz
  1  'x, y, z'
loop_
 _atom_site_type_symbol
 _atom_site_label
 _atom_site_symmetry_multiplicity
 _atom_site_fract_x
 _atom_site_fract_y
 _atom_site_fract_z
 _atom_site_occupancy
  Zn  Zn0  1  0.53929497  0.37614218  0.43763000  1
  Zn  Zn1  1  0.03929497  0.12385782  0.43763000  1
  Zn  Zn2  1  0.03929497  0.62385782  0.06237000  1
  Zn  Zn3  1  0.96070503  0.37614218  0.93763000  1
  Zn  Zn4  1  0.46070503  0.12385782  0.93763000  1
  Zn  Zn5  1  0.96070503  0.87614218  0.56237000  1
  Zn  Zn6  1  0.46070503  0.62385782  0.56237000  1
  Zn  Zn7  1  0.53929497  0.87614218  0.06237000  1
  Bi  Bi8  1  0.99892883  0.85871825  0.22362913  1
  Bi  Bi9  1  0.00107017  0.14128175  0.77637087  1
  Bi  Bi10  1  0.50107117  0.35871825  0.77637087  1
  Bi  Bi11  1  0.00107017  0.64128175  0.72362913  1
  Bi  Bi12  1  0.49892983  0.14128175  0.27637087  1
  Bi  Bi13  1  0.49892983  0.64128175  0.22362913  1
  Bi  Bi14  1  0.50107117  0.85871825  0.72362913  1
  Bi  Bi15  1  0.99892883  0.35871825  0.27637087  1
  Mo  Mo16  1  0.98266744  0.37584813  0.58401177  1
  Mo  Mo17  1  0.51733256  0.87584813  0.41598823  1
  Mo  Mo18  1  0.01733256  0.62415187  0.41598823  1
  Mo  Mo19  1  0.48266744  0.12415187  0.58401177  1
  Mo  Mo20  1  0.01733256  0.12415187  0.08401177  1
  Mo  Mo21  1  0.98266744  0.87584813  0.91598823  1
  Mo  Mo22  1  0.51733256  0.37584813  0.08401177  1
  Mo  Mo23  1  0.48266744  0.62415187  0.91598823  1
  O  O24  1  0.88629600  0.32698512  0.69455451  1
  O  O25  1  0.27847433  0.02648949  0.04301746  1
  O  O26  1  0.22152567  0.52648949  0.95698254  1
  O  O27  1  0.32314716  0.78703192  0.14827427  1
  O  O28  1  0.17685284  0.28703192  0.85172573  1
  O  O29  1  0.88629600  0.82698512  0.80544549  1
  O  O30  1  0.17685284  0.78703192  0.64827427  1
  O  O31  1  0.61370400  0.82698512  0.30544549  1
  O  O32  1  0.27847433  0.52648949  0.45698254  1
  O  O33  1  0.11370400  0.67301488  0.30544549  1
  O  O34  1  0.61370400  0.32698512  0.19455451  1
  O  O35  1  0.72639559  0.22472708  0.53095618  1
  O  O36  1  0.77847433  0.97351051  0.45698254  1
  O  O37  1  0.67685284  0.71296808  0.64827427  1
  O  O38  1  0.19559242  0.01499071  0.87317039  1
  O  O39  1  0.77847433  0.47351051  0.04301746  1
  O  O40  1  0.11370400  0.17301488  0.19455451  1
  O  O41  1  0.82314716  0.21296808  0.35172573  1
  O  O42  1  0.22639559  0.77527292  0.96904382  1
  O  O43  1  0.22152567  0.02648949  0.54301746  1
  O  O44  1  0.27360441  0.77527292  0.46904382  1
  O  O45  1  0.80440758  0.98500929  0.12682961  1
  O  O46  1  0.67685284  0.21296808  0.85172573  1
  O  O47  1  0.69559242  0.98500929  0.62682961  1
  O  O48  1  0.27360441  0.27527292  0.03095618  1
  O  O49  1  0.22639559  0.27527292  0.53095618  1
  O  O50  1  0.72152567  0.47351051  0.54301746  1
  O  O51  1  0.72152567  0.97351051  0.95698254  1
  O  O52  1  0.69559242  0.48500929  0.87317039  1
  O  O53  1  0.77360441  0.72472708  0.46904382  1
  O  O54  1  0.77360441  0.22472708  0.03095618  1
  O  O55  1  0.72639559  0.72472708  0.96904382  1
  O  O56  1  0.80440758  0.48500929  0.37317039  1
  O  O57  1  0.82314716  0.71296808  0.14827427  1
  O  O58  1  0.32314716  0.28703192  0.35172573  1
  O  O59  1  0.19559242  0.51499071  0.62682961  1
  O  O60  1  0.30440758  0.51499071  0.12682961  1
  O  O61  1  0.38629600  0.17301488  0.69455451  1
  O  O62  1  0.30440758  0.01499071  0.37317039  1
  O  O63  1  0.38629600  0.67301488  0.80544549  1
