# generated using pymatgen
data_Te2Mo3WS6
_symmetry_space_group_name_H-M   'P 1'
_cell_length_a   3.27251006
_cell_length_b   3.27212593
_cell_length_c   39.05055966
_cell_angle_alpha   89.99827046
_cell_angle_beta   90.00000000
_cell_angle_gamma   120.00388348
_symmetry_Int_Tables_number   1
_chemical_formula_structural   Te2Mo3WS6
_chemical_formula_sum   'Te2 Mo3 W1 S6'
_cell_volume   362.11948744
_cell_formula_units_Z   1
loop_
 _symmetry_equiv_pos_site_id
 _symmetry_equiv_pos_as_xyz
  1  'x, y, z'
loop_
 _atom_site_type_symbol
 _atom_site_label
 _atom_site_symmetry_multiplicity
 _atom_site_fract_x
 _atom_site_fract_y
 _atom_site_fract_z
 _atom_site_occupancy
  Te  Te0  1  0.33331803  0.66663705  0.33112678  1
  Te  Te1  1  0.33332841  0.66665782  0.23221067  1
  Mo  Mo2  1  0.33326696  0.66653392  0.09293806  1
  Mo  Mo3  1  0.66669374  0.33338748  0.28168815  1
  Mo  Mo4  1  0.66665098  0.33330195  0.65762585  1
  W  W5  1  0.33339042  0.66678084  0.47066831  1
  S  S6  1  0.33333940  0.66667980  0.69707296  1
  S  S7  1  0.66662017  0.33323934  0.05355131  1
  S  S8  1  0.66671427  0.33342754  0.43107429  1
  S  S9  1  0.66662654  0.33325208  0.13236169  1
  S  S10  1  0.66671301  0.33342501  0.51023865  1
  S  S11  1  0.33333808  0.66667716  0.61819128  1
