# generated using pymatgen
data_Te2Mo3WS6
_symmetry_space_group_name_H-M   'P 1'
_cell_length_a   3.27315763
_cell_length_b   3.27335772
_cell_length_c   37.12169311
_cell_angle_alpha   90.00021530
_cell_angle_beta   90.00000000
_cell_angle_gamma   119.99797788
_symmetry_Int_Tables_number   1
_chemical_formula_structural   Te2Mo3WS6
_chemical_formula_sum   'Te2 Mo3 W1 S6'
_cell_volume   344.45115524
_cell_formula_units_Z   1
loop_
 _symmetry_equiv_pos_site_id
 _symmetry_equiv_pos_as_xyz
  1  'x, y, z'
loop_
 _atom_site_type_symbol
 _atom_site_label
 _atom_site_symmetry_multiplicity
 _atom_site_fract_x
 _atom_site_fract_y
 _atom_site_fract_z
 _atom_site_occupancy
  Te  Te0  1  0.33335185  0.66670471  0.70945429  1
  Te  Te1  1  0.33335076  0.66670253  0.60566119  1
  Mo  Mo2  1  0.33329960  0.66659920  0.09389879  1
  Mo  Mo3  1  0.33331883  0.66663765  0.46963426  1
  Mo  Mo4  1  0.66668985  0.33337969  0.65760802  1
  W  W5  1  0.66668994  0.33337988  0.28179630  1
  S  S6  1  0.33335452  0.66671004  0.32341195  1
  S  S7  1  0.66665511  0.33330922  0.05251376  1
  S  S8  1  0.66664139  0.33328178  0.42822901  1
  S  S9  1  0.66665534  0.33330968  0.13531851  1
  S  S10  1  0.66663881  0.33327661  0.51103188  1
  S  S11  1  0.33335400  0.66670901  0.24019004  1
