# generated using pymatgen
data_TeMoWS3
_symmetry_space_group_name_H-M   'P 1'
_cell_length_a   3.27052015
_cell_length_b   3.27063777
_cell_length_c   37.17529694
_cell_angle_alpha   90.00005212
_cell_angle_beta   90.00000000
_cell_angle_gamma   119.99881044
_symmetry_Int_Tables_number   1
_chemical_formula_structural   TeMoWS3
_chemical_formula_sum   'Te2 Mo2 W2 S6'
_cell_volume   344.38129990
_cell_formula_units_Z   2
loop_
 _symmetry_equiv_pos_site_id
 _symmetry_equiv_pos_as_xyz
  1  'x, y, z'
loop_
 _atom_site_type_symbol
 _atom_site_label
 _atom_site_symmetry_multiplicity
 _atom_site_fract_x
 _atom_site_fract_y
 _atom_site_fract_z
 _atom_site_occupancy
  Te  Te0  1  0.33335066  0.66670233  0.70944013  1
  Te  Te1  1  0.33334834  0.66669768  0.60571475  1
  Mo  Mo2  1  0.33329769  0.66659538  0.09391048  1
  Mo  Mo3  1  0.66668944  0.33337888  0.65759495  1
  W  W4  1  0.33331093  0.66662185  0.46960650  1
  W  W5  1  0.66668913  0.33337826  0.28179985  1
  S  S6  1  0.33335309  0.66670718  0.32339918  1
  S  S7  1  0.66665951  0.33331802  0.05250785  1
  S  S8  1  0.66664602  0.33329104  0.42804618  1
  S  S9  1  0.66665921  0.33331743  0.13532811  1
  S  S10  1  0.66664410  0.33328720  0.51119115  1
  S  S11  1  0.33335188  0.66670475  0.24020885  1
