# generated using pymatgen
data_TeMo2S3
_symmetry_space_group_name_H-M   'P 1'
_cell_length_a   3.27429997
_cell_length_b   3.27441796
_cell_length_c   37.33616434
_cell_angle_alpha   89.99655076
_cell_angle_beta   90.00000000
_cell_angle_gamma   119.99880813
_symmetry_Int_Tables_number   1
_chemical_formula_structural   TeMo2S3
_chemical_formula_sum   'Te2 Mo4 S6'
_cell_volume   346.67148726
_cell_formula_units_Z   2
loop_
 _symmetry_equiv_pos_site_id
 _symmetry_equiv_pos_as_xyz
  1  'x, y, z'
loop_
 _atom_site_type_symbol
 _atom_site_label
 _atom_site_symmetry_multiplicity
 _atom_site_fract_x
 _atom_site_fract_y
 _atom_site_fract_z
 _atom_site_occupancy
  Te  Te0  1  0.33333221  0.66666543  0.70919907  1
  Te  Te1  1  0.33337897  0.66675895  0.60593458  1
  Mo  Mo2  1  0.33331763  0.66663526  0.09393890  1
  Mo  Mo3  1  0.33330263  0.66660526  0.46960759  1
  Mo  Mo4  1  0.66668817  0.33337634  0.28179409  1
  Mo  Mo5  1  0.66669405  0.33338809  0.65756227  1
  S  S6  1  0.33334205  0.66668510  0.32299829  1
  S  S7  1  0.66666897  0.33333695  0.05272611  1
  S  S8  1  0.66665370  0.33330640  0.42842883  1
  S  S9  1  0.66663673  0.33327245  0.13515694  1
  S  S10  1  0.66661095  0.33322091  0.51081913  1
  S  S11  1  0.33337393  0.66674886  0.24058218  1
