# generated using pymatgen
data_Te2Mo3WS6
_symmetry_space_group_name_H-M   'P 1'
_cell_length_a   3.27414611
_cell_length_b   3.27320440
_cell_length_c   38.68924557
_cell_angle_alpha   90.01785126
_cell_angle_beta   90.00000000
_cell_angle_gamma   120.00951748
_symmetry_Int_Tables_number   1
_chemical_formula_structural   Te2Mo3WS6
_chemical_formula_sum   'Te2 Mo3 W1 S6'
_cell_volume   359.04624447
_cell_formula_units_Z   1
loop_
 _symmetry_equiv_pos_site_id
 _symmetry_equiv_pos_as_xyz
  1  'x, y, z'
loop_
 _atom_site_type_symbol
 _atom_site_label
 _atom_site_symmetry_multiplicity
 _atom_site_fract_x
 _atom_site_fract_y
 _atom_site_fract_z
 _atom_site_occupancy
  Te  Te0  1  0.33357099  0.66714299  0.70919470  1
  Te  Te1  1  0.33341268  0.66682635  0.60974167  1
  Mo  Mo2  1  0.33336663  0.66673325  0.09346053  1
  Mo  Mo3  1  0.66676591  0.33353182  0.28208825  1
  Mo  Mo4  1  0.66692841  0.33385682  0.65947283  1
  W  W5  1  0.33300791  0.66601582  0.46792559  1
  S  S6  1  0.33352029  0.66704158  0.32184354  1
  S  S7  1  0.66657240  0.33314380  0.05370788  1
  S  S8  1  0.66631945  0.33263791  0.42797934  1
  S  S9  1  0.66689517  0.33378935  0.13320214  1
  S  S10  1  0.66643345  0.33286590  0.50787076  1
  S  S11  1  0.33320670  0.66641441  0.24226077  1
