# generated using pymatgen
data_ZnCoBiO5
_symmetry_space_group_name_H-M   'P 1'
_cell_length_a   5.65272056
_cell_length_b   10.76354162
_cell_length_c   15.07638745
_cell_angle_alpha   90.00000000
_cell_angle_beta   90.00000000
_cell_angle_gamma   90.00000000
_symmetry_Int_Tables_number   1
_chemical_formula_structural   ZnCoBiO5
_chemical_formula_sum   'Zn8 Co8 Bi8 O40'
_cell_volume   917.29705921
_cell_formula_units_Z   8
loop_
 _symmetry_equiv_pos_site_id
 _symmetry_equiv_pos_as_xyz
  1  'x, y, z'
loop_
 _atom_site_type_symbol
 _atom_site_label
 _atom_site_symmetry_multiplicity
 _atom_site_fract_x
 _atom_site_fract_y
 _atom_site_fract_z
 _atom_site_occupancy
  Zn  Zn0  1  0.42140085  0.35828188  0.47398198  1
  Zn  Zn1  1  0.92140085  0.14171812  0.47398198  1
  Zn  Zn2  1  0.92140085  0.64171812  0.02601802  1
  Zn  Zn3  1  0.07859915  0.35828188  0.97398198  1
  Zn  Zn4  1  0.57859915  0.14171812  0.97398198  1
  Zn  Zn5  1  0.07859915  0.85828188  0.52601802  1
  Zn  Zn6  1  0.57859915  0.64171812  0.52601802  1
  Zn  Zn7  1  0.42140085  0.85828188  0.02601802  1
  Co  Co8  1  0.92097756  0.38876820  0.59538650  1
  Co  Co9  1  0.57902244  0.88876820  0.40461350  1
  Co  Co10  1  0.07902244  0.61123180  0.40461350  1
  Co  Co11  1  0.42097756  0.11123180  0.59538650  1
  Co  Co12  1  0.07902244  0.11123180  0.09538650  1
  Co  Co13  1  0.92097756  0.88876820  0.90461350  1
  Co  Co14  1  0.57902244  0.38876820  0.09538650  1
  Co  Co15  1  0.42097756  0.61123180  0.90461350  1
  Bi  Bi16  1  0.02944531  0.84311935  0.22640816  1
  Bi  Bi17  1  0.97055469  0.15688065  0.77359184  1
  Bi  Bi18  1  0.47055469  0.34311935  0.77359184  1
  Bi  Bi19  1  0.97055469  0.65688065  0.72640816  1
  Bi  Bi20  1  0.52944531  0.15688065  0.27359184  1
  Bi  Bi21  1  0.52944531  0.65688065  0.22640816  1
  Bi  Bi22  1  0.47055469  0.84311935  0.72640816  1
  Bi  Bi23  1  0.02944531  0.34311935  0.27359184  1
  O  O24  1  0.79534160  0.29742783  0.68644436  1
  O  O25  1  0.33323374  0.04304945  0.04699828  1
  O  O26  1  0.16676626  0.54304945  0.95300172  1
  O  O27  1  0.35703092  0.80228939  0.15203011  1
  O  O28  1  0.14296908  0.30228939  0.84796989  1
  O  O29  1  0.79534160  0.79742783  0.81355564  1
  O  O30  1  0.14296908  0.80228939  0.65203011  1
  O  O31  1  0.70465840  0.79742783  0.31355564  1
  O  O32  1  0.33323374  0.54304945  0.45300172  1
  O  O33  1  0.20465840  0.70257217  0.31355564  1
  O  O34  1  0.70465840  0.29742783  0.18644436  1
  O  O35  1  0.58559144  0.19682195  0.51608313  1
  O  O36  1  0.83323374  0.95695055  0.45300172  1
  O  O37  1  0.64296908  0.69771061  0.65203011  1
  O  O38  1  0.10854532  0.99324096  0.84651983  1
  O  O39  1  0.83323374  0.45695055  0.04699828  1
  O  O40  1  0.20465840  0.20257217  0.18644436  1
  O  O41  1  0.85703092  0.19771061  0.34796989  1
  O  O42  1  0.08559144  0.80317805  0.98391687  1
  O  O43  1  0.16676626  0.04304945  0.54699828  1
  O  O44  1  0.41440856  0.80317805  0.48391687  1
  O  O45  1  0.89145468  0.00675904  0.15348017  1
  O  O46  1  0.64296908  0.19771061  0.84796989  1
  O  O47  1  0.60854532  0.00675904  0.65348017  1
  O  O48  1  0.41440856  0.30317805  0.01608313  1
  O  O49  1  0.08559144  0.30317805  0.51608313  1
  O  O50  1  0.66676626  0.45695055  0.54699828  1
  O  O51  1  0.66676626  0.95695055  0.95300172  1
  O  O52  1  0.60854532  0.50675904  0.84651983  1
  O  O53  1  0.91440856  0.69682195  0.48391687  1
  O  O54  1  0.91440856  0.19682195  0.01608313  1
  O  O55  1  0.58559144  0.69682195  0.98391687  1
  O  O56  1  0.89145468  0.50675904  0.34651983  1
  O  O57  1  0.85703092  0.69771061  0.15203011  1
  O  O58  1  0.35703092  0.30228939  0.34796989  1
  O  O59  1  0.10854532  0.49324096  0.65348017  1
  O  O60  1  0.39145468  0.49324096  0.15348017  1
  O  O61  1  0.29534160  0.20257217  0.68644436  1
  O  O62  1  0.39145468  0.99324096  0.34651983  1
  O  O63  1  0.29534160  0.70257217  0.81355564  1
