# generated using pymatgen
data_Mg14CuSn
_symmetry_space_group_name_H-M   'P 1'
_cell_length_a   6.26569243
_cell_length_b   6.26569194
_cell_length_c   10.32713592
_cell_angle_alpha   90.00000000
_cell_angle_beta   90.00000000
_cell_angle_gamma   120.00000255
_symmetry_Int_Tables_number   1
_chemical_formula_structural   Mg14CuSn
_chemical_formula_sum   'Mg14 Cu1 Sn1'
_cell_volume   351.11438625
_cell_formula_units_Z   1
loop_
 _symmetry_equiv_pos_site_id
 _symmetry_equiv_pos_as_xyz
  1  'x, y, z'
loop_
 _atom_site_type_symbol
 _atom_site_label
 _atom_site_symmetry_multiplicity
 _atom_site_fract_x
 _atom_site_fract_y
 _atom_site_fract_z
 _atom_site_occupancy
  Mg  Mg0  1  0.16378229  0.83189064  0.12500000  1
  Mg  Mg1  1  0.16755989  0.83377945  0.62500000  1
  Mg  Mg2  1  0.66810936  0.33621771  0.12500000  1
  Mg  Mg3  1  0.66622055  0.33244011  0.62500000  1
  Mg  Mg4  1  0.66810936  0.83189064  0.12500000  1
  Mg  Mg5  1  0.66622055  0.83377945  0.62500000  1
  Mg  Mg6  1  0.33085196  0.16914804  0.36493650  1
  Mg  Mg7  1  0.33085196  0.16914804  0.88506350  1
  Mg  Mg8  1  0.33085196  0.66170491  0.36493650  1
  Mg  Mg9  1  0.33085196  0.66170491  0.88506350  1
  Mg  Mg10  1  0.83829509  0.16914804  0.36493650  1
  Mg  Mg11  1  0.83829509  0.16914804  0.88506350  1
  Mg  Mg12  1  0.83333300  0.66666700  0.37319768  1
  Mg  Mg13  1  0.83333300  0.66666700  0.87680232  1
  Cu  Cu14  1  0.16666700  0.33333300  0.12500000  1
  Sn  Sn15  1  0.16666700  0.33333300  0.62500000  1
