# generated using pymatgen
data_Te2Mo3WS6
_symmetry_space_group_name_H-M   'P 1'
_cell_length_a   3.27281329
_cell_length_b   3.27282142
_cell_length_c   37.26166877
_cell_angle_alpha   89.99976987
_cell_angle_beta   90.00000425
_cell_angle_gamma   120.00012134
_symmetry_Int_Tables_number   1
_chemical_formula_structural   Te2Mo3WS6
_chemical_formula_sum   'Te2 Mo3 W1 S6'
_cell_volume   345.64950587
_cell_formula_units_Z   1
loop_
 _symmetry_equiv_pos_site_id
 _symmetry_equiv_pos_as_xyz
  1  'x, y, z'
loop_
 _atom_site_type_symbol
 _atom_site_label
 _atom_site_symmetry_multiplicity
 _atom_site_fract_x
 _atom_site_fract_y
 _atom_site_fract_z
 _atom_site_occupancy
  Te  Te0  1  0.66664226  0.33328378  0.41789913  1
  Te  Te1  1  0.66663947  0.33327810  0.52135449  1
  Mo  Mo2  1  0.33331383  0.66662635  0.09391613  1
  Mo  Mo3  1  0.33330720  0.66661341  0.46963810  1
  Mo  Mo4  1  0.66668018  0.33335576  0.28172546  1
  W  W5  1  0.66669034  0.33338119  0.65764243  1
  S  S6  1  0.33335686  0.66671783  0.32302621  1
  S  S7  1  0.33335525  0.66671088  0.69906893  1
  S  S8  1  0.66664752  0.33329428  0.05261680  1
  S  S9  1  0.66664727  0.33329365  0.13522743  1
  S  S10  1  0.33335953  0.66672369  0.24045626  1
  S  S11  1  0.33336029  0.66672110  0.61617662  1
