# generated using pymatgen
data_Te3Mo2S
_symmetry_space_group_name_H-M   'P 1'
_cell_length_a   3.45177087
_cell_length_b   3.45176782
_cell_length_c   39.55331274
_cell_angle_alpha   89.99633295
_cell_angle_beta   90.00000000
_cell_angle_gamma   120.00002914
_symmetry_Int_Tables_number   1
_chemical_formula_structural   Te3Mo2S
_chemical_formula_sum   'Te6 Mo4 S2'
_cell_volume   408.12847933
_cell_formula_units_Z   2
loop_
 _symmetry_equiv_pos_site_id
 _symmetry_equiv_pos_as_xyz
  1  'x, y, z'
loop_
 _atom_site_type_symbol
 _atom_site_label
 _atom_site_symmetry_multiplicity
 _atom_site_fract_x
 _atom_site_fract_y
 _atom_site_fract_z
 _atom_site_occupancy
  Te  Te0  1  0.33333520  0.66667140  0.70459887  1
  Te  Te1  1  0.66660430  0.33320760  0.04727972  1
  Te  Te2  1  0.66670047  0.33339995  0.42248950  1
  Te  Te3  1  0.66658101  0.33316101  0.14080338  1
  Te  Te4  1  0.66660354  0.33320608  0.51605047  1
  Te  Te5  1  0.33339263  0.66678627  0.61106570  1
  Mo  Mo6  1  0.33324840  0.66649680  0.09404514  1
  Mo  Mo7  1  0.33330926  0.66661853  0.46925124  1
  Mo  Mo8  1  0.66673641  0.33347282  0.28179370  1
  Mo  Mo9  1  0.66670212  0.33340423  0.65785120  1
  S  S10  1  0.33337503  0.66675106  0.31943749  1
  S  S11  1  0.33341162  0.66682424  0.24408158  1
