# generated using pymatgen
data_Te2MoWSeS
_symmetry_space_group_name_H-M   'P 1'
_cell_length_a   3.39301638
_cell_length_b   3.39302461
_cell_length_c   38.76756507
_cell_angle_alpha   89.99969392
_cell_angle_beta   89.99998717
_cell_angle_gamma   119.99995562
_symmetry_Int_Tables_number   1
_chemical_formula_structural   Te2MoWSeS
_chemical_formula_sum   'Te4 Mo2 W2 Se2 S2'
_cell_volume   386.52030717
_cell_formula_units_Z   2
loop_
 _symmetry_equiv_pos_site_id
 _symmetry_equiv_pos_as_xyz
  1  'x, y, z'
loop_
 _atom_site_type_symbol
 _atom_site_label
 _atom_site_symmetry_multiplicity
 _atom_site_fract_x
 _atom_site_fract_y
 _atom_site_fract_z
 _atom_site_occupancy
  Te  Te0  1  0.33335200  0.66670475  0.70588030  1
  Te  Te1  1  0.66664311  0.33328541  0.04557236  1
  Te  Te2  1  0.66664575  0.33329071  0.14228759  1
  Te  Te3  1  0.33335764  0.66671574  0.60919429  1
  Mo  Mo4  1  0.33330499  0.66660939  0.09389969  1
  Mo  Mo5  1  0.66668804  0.33337671  0.65756050  1
  W  W6  1  0.33331126  0.66662200  0.46964993  1
  W  W7  1  0.66668696  0.33337448  0.28179001  1
  Se  Se8  1  0.66664802  0.33329529  0.42694545  1
  Se  Se9  1  0.66664937  0.33329814  0.51235724  1
  S  S10  1  0.33335852  0.66671795  0.32068624  1
  S  S11  1  0.33335434  0.66670943  0.24292441  1
