# generated using pymatgen
data_Te2MoWSeS
_symmetry_space_group_name_H-M   'P 1'
_cell_length_a   3.39415575
_cell_length_b   3.39412843
_cell_length_c   38.80657792
_cell_angle_alpha   89.99968719
_cell_angle_beta   90.00000000
_cell_angle_gamma   120.00026632
_symmetry_Int_Tables_number   1
_chemical_formula_structural   Te2MoWSeS
_chemical_formula_sum   'Te4 Mo2 W2 Se2 S2'
_cell_volume   387.16389699
_cell_formula_units_Z   2
loop_
 _symmetry_equiv_pos_site_id
 _symmetry_equiv_pos_as_xyz
  1  'x, y, z'
loop_
 _atom_site_type_symbol
 _atom_site_label
 _atom_site_symmetry_multiplicity
 _atom_site_fract_x
 _atom_site_fract_y
 _atom_site_fract_z
 _atom_site_occupancy
  Te  Te0  1  0.66663625  0.33327150  0.04561223  1
  Te  Te1  1  0.66665073  0.33330045  0.42130828  1
  Te  Te2  1  0.66664579  0.33329057  0.14224495  1
  Te  Te3  1  0.66664329  0.33328558  0.51798674  1
  Mo  Mo4  1  0.33330797  0.66661594  0.09391317  1
  Mo  Mo5  1  0.33331044  0.66662089  0.46962801  1
  W  W6  1  0.66669010  0.33338019  0.28179173  1
  W  W7  1  0.66669257  0.33338514  0.65756534  1
  Se  Se8  1  0.33335722  0.66671544  0.70024487  1
  Se  Se9  1  0.33335487  0.66671074  0.61486658  1
  S  S10  1  0.33335471  0.66671042  0.32060310  1
  S  S11  1  0.33335607  0.66671314  0.24298299  1
