# generated using pymatgen
data_Te2MoWSeS
_symmetry_space_group_name_H-M   'P 1'
_cell_length_a   3.39551644
_cell_length_b   3.39556001
_cell_length_c   39.86020570
_cell_angle_alpha   89.99912748
_cell_angle_beta   90.00000000
_cell_angle_gamma   119.99957551
_symmetry_Int_Tables_number   1
_chemical_formula_structural   Te2MoWSeS
_chemical_formula_sum   'Te4 Mo2 W2 Se2 S2'
_cell_volume   398.00568277
_cell_formula_units_Z   2
loop_
 _symmetry_equiv_pos_site_id
 _symmetry_equiv_pos_as_xyz
  1  'x, y, z'
loop_
 _atom_site_type_symbol
 _atom_site_label
 _atom_site_symmetry_multiplicity
 _atom_site_fract_x
 _atom_site_fract_y
 _atom_site_fract_z
 _atom_site_occupancy
  Te  Te0  1  0.33336663  0.66673426  0.32801441  1
  Te  Te1  1  0.66663830  0.33327559  0.42322430  1
  Te  Te2  1  0.66663628  0.33327157  0.51729806  1
  Te  Te3  1  0.33334788  0.66669676  0.23392903  1
  Mo  Mo4  1  0.33330814  0.66661627  0.47026494  1
  Mo  Mo5  1  0.66668518  0.33337037  0.28094925  1
  W  W6  1  0.33328784  0.66657568  0.09387871  1
  W  W7  1  0.66672182  0.33344364  0.65781593  1
  Se  Se8  1  0.33337157  0.66674413  0.69937898  1
  Se  Se9  1  0.33339864  0.66679829  0.61623687  1
  S  S10  1  0.66661658  0.33323217  0.05606280  1
  S  S11  1  0.66662113  0.33324127  0.13169471  1
