# generated using pymatgen
data_TeMoWS3
_symmetry_space_group_name_H-M   'P 1'
_cell_length_a   3.27127878
_cell_length_b   3.27127174
_cell_length_c   37.14651580
_cell_angle_alpha   90.00030266
_cell_angle_beta   90.00000000
_cell_angle_gamma   120.00007117
_symmetry_Int_Tables_number   1
_chemical_formula_structural   TeMoWS3
_chemical_formula_sum   'Te2 Mo2 W2 S6'
_cell_volume   344.25684461
_cell_formula_units_Z   2
loop_
 _symmetry_equiv_pos_site_id
 _symmetry_equiv_pos_as_xyz
  1  'x, y, z'
loop_
 _atom_site_type_symbol
 _atom_site_label
 _atom_site_symmetry_multiplicity
 _atom_site_fract_x
 _atom_site_fract_y
 _atom_site_fract_z
 _atom_site_occupancy
  Te  Te0  1  0.66663515  0.33326930  0.04200958  1
  Te  Te1  1  0.66664833  0.33329565  0.14574122  1
  Mo  Mo2  1  0.33330929  0.66661858  0.09386075  1
  Mo  Mo3  1  0.66669654  0.33339308  0.28183248  1
  W  W4  1  0.33330909  0.66661817  0.46965456  1
  W  W5  1  0.66669460  0.33338921  0.65755911  1
  S  S6  1  0.33335210  0.66670519  0.32324250  1
  S  S7  1  0.33335573  0.66671246  0.69912977  1
  S  S8  1  0.66664723  0.33329345  0.42807167  1
  S  S9  1  0.66664587  0.33329075  0.51124326  1
  S  S10  1  0.33335108  0.66670317  0.24043826  1
  S  S11  1  0.33335499  0.66671098  0.61596485  1
