# generated using pymatgen
data_Mg2Co3O8
_symmetry_space_group_name_H-M   'P 1'
_cell_length_a   5.83728773
_cell_length_b   5.83728733
_cell_length_c   9.44950723
_cell_angle_alpha   90.00000000
_cell_angle_beta   90.00000000
_cell_angle_gamma   120.00000223
_symmetry_Int_Tables_number   1
_chemical_formula_structural   Mg2Co3O8
_chemical_formula_sum   'Mg4 Co6 O16'
_cell_volume   278.84441825
_cell_formula_units_Z   2
loop_
 _symmetry_equiv_pos_site_id
 _symmetry_equiv_pos_as_xyz
  1  'x, y, z'
loop_
 _atom_site_type_symbol
 _atom_site_label
 _atom_site_symmetry_multiplicity
 _atom_site_fract_x
 _atom_site_fract_y
 _atom_site_fract_z
 _atom_site_occupancy
  Mg  Mg0  1  0.66666700  0.33333400  0.02146029  1
  Mg  Mg1  1  0.33333300  0.66666600  0.52146129  1
  Mg  Mg2  1  0.66666700  0.33333400  0.42306016  1
  Mg  Mg3  1  0.33333300  0.66666600  0.92306116  1
  Co  Co4  1  0.67280796  0.83640398  0.24451150  1
  Co  Co5  1  0.83640498  0.16359702  0.74451150  1
  Co  Co6  1  0.16359702  0.32719304  0.24451150  1
  Co  Co7  1  0.83640298  0.67280796  0.74451150  1
  Co  Co8  1  0.32719304  0.16359702  0.74451150  1
  Co  Co9  1  0.16359702  0.83640398  0.24451150  1
  O  O10  1  0.83994657  0.16005443  0.14630451  1
  O  O11  1  0.67989215  0.83994657  0.64630351  1
  O  O12  1  0.16005443  0.32010885  0.64630351  1
  O  O13  1  0.83994557  0.67989215  0.14630451  1
  O  O14  1  0.32010785  0.16005443  0.14630451  1
  O  O15  1  0.16005443  0.83994657  0.64630351  1
  O  O16  1  0.51858116  0.48141784  0.86246411  1
  O  O17  1  0.03716333  0.51858116  0.36246311  1
  O  O18  1  0.48141884  0.96283767  0.36246311  1
  O  O19  1  0.51858116  0.03716333  0.86246411  1
  O  O20  1  0.00000000  -0.00000000  0.35718766  1
  O  O21  1  0.00000000  -0.00000000  0.85718766  1
  O  O22  1  0.33333300  0.66666600  0.13195051  1
  O  O23  1  0.96283567  0.48141784  0.86246411  1
  O  O24  1  0.48141784  0.51858116  0.36246311  1
  O  O25  1  0.66666700  0.33333400  0.63195051  1
