# generated using pymatgen
data_TeMoWS3
_symmetry_space_group_name_H-M   'P 1'
_cell_length_a   3.27131759
_cell_length_b   3.27193932
_cell_length_c   39.05846840
_cell_angle_alpha   89.99980449
_cell_angle_beta   90.00000000
_cell_angle_gamma   119.99371456
_symmetry_Int_Tables_number   1
_chemical_formula_structural   TeMoWS3
_chemical_formula_sum   'Te2 Mo2 W2 S6'
_cell_volume   362.07729613
_cell_formula_units_Z   2
loop_
 _symmetry_equiv_pos_site_id
 _symmetry_equiv_pos_as_xyz
  1  'x, y, z'
loop_
 _atom_site_type_symbol
 _atom_site_label
 _atom_site_symmetry_multiplicity
 _atom_site_fract_x
 _atom_site_fract_y
 _atom_site_fract_z
 _atom_site_occupancy
  Te  Te0  1  0.66669066  0.33338031  0.41992070  1
  Te  Te1  1  0.66669250  0.33338400  0.51862601  1
  Mo  Mo2  1  0.33342707  0.66685414  0.46930628  1
  Mo  Mo3  1  0.66657383  0.33314766  0.28096285  1
  W  W4  1  0.33337941  0.66675883  0.09378853  1
  W  W5  1  0.66663398  0.33326796  0.65886026  1
  S  S6  1  0.33328268  0.66656636  0.32039411  1
  S  S7  1  0.33334171  0.66668443  0.69839918  1
  S  S8  1  0.66667843  0.33335586  0.05426222  1
  S  S9  1  0.66666730  0.33333361  0.13336198  1
  S  S10  1  0.33329561  0.66659222  0.24156837  1
  S  S11  1  0.33333681  0.66667462  0.61929750  1
