# generated using pymatgen
data_Te2MoWSeS
_symmetry_space_group_name_H-M   'P 1'
_cell_length_a   3.39384690
_cell_length_b   3.39383848
_cell_length_c   38.80844076
_cell_angle_alpha   90.00011161
_cell_angle_beta   90.00000000
_cell_angle_gamma   120.00008206
_symmetry_Int_Tables_number   1
_chemical_formula_structural   Te2MoWSeS
_chemical_formula_sum   'Te4 Mo2 W2 Se2 S2'
_cell_volume   387.11489602
_cell_formula_units_Z   2
loop_
 _symmetry_equiv_pos_site_id
 _symmetry_equiv_pos_as_xyz
  1  'x, y, z'
loop_
 _atom_site_type_symbol
 _atom_site_label
 _atom_site_symmetry_multiplicity
 _atom_site_fract_x
 _atom_site_fract_y
 _atom_site_fract_z
 _atom_site_occupancy
  Te  Te0  1  0.66664684  0.33329268  0.04560351  1
  Te  Te1  1  0.66664798  0.33329496  0.42137018  1
  Te  Te2  1  0.66664878  0.33329656  0.14222390  1
  Te  Te3  1  0.66664471  0.33328841  0.51799984  1
  Mo  Mo4  1  0.33330976  0.66661953  0.09390041  1
  Mo  Mo5  1  0.33331243  0.66662485  0.46966449  1
  W  W6  1  0.66668763  0.33337526  0.28178861  1
  W  W7  1  0.66669103  0.33338206  0.65753936  1
  Se  Se8  1  0.33335153  0.66670406  0.32450559  1
  Se  Se9  1  0.33334833  0.66669765  0.23908678  1
  S  S10  1  0.33335692  0.66671485  0.69638895  1
  S  S11  1  0.33335406  0.66670912  0.61867636  1
