# generated using pymatgen
data_Te2MoWSeS
_symmetry_space_group_name_H-M   'P 1'
_cell_length_a   3.39465688
_cell_length_b   3.39467951
_cell_length_c   39.84093198
_cell_angle_alpha   90.00216051
_cell_angle_beta   89.99941354
_cell_angle_gamma   119.99923116
_symmetry_Int_Tables_number   1
_chemical_formula_structural   Te2MoWSeS
_chemical_formula_sum   'Te4 Mo2 W2 Se2 S2'
_cell_volume   397.61077785
_cell_formula_units_Z   2
loop_
 _symmetry_equiv_pos_site_id
 _symmetry_equiv_pos_as_xyz
  1  'x, y, z'
loop_
 _atom_site_type_symbol
 _atom_site_label
 _atom_site_symmetry_multiplicity
 _atom_site_fract_x
 _atom_site_fract_y
 _atom_site_fract_z
 _atom_site_occupancy
  Te  Te0  1  0.33332411  0.66664369  0.33012484  1
  Te  Te1  1  0.66661204  0.33321811  0.04544833  1
  Te  Te2  1  0.66668668  0.33336950  0.13950754  1
  Te  Te3  1  0.33331728  0.66662682  0.23607459  1
  Mo  Mo4  1  0.33331602  0.66662937  0.09242077  1
  Mo  Mo5  1  0.66667537  0.33334100  0.28306384  1
  W  W6  1  0.33330578  0.66656023  0.46978627  1
  W  W7  1  0.66673349  0.33351082  0.65762312  1
  Se  Se8  1  0.33337097  0.66680645  0.69914528  1
  Se  Se9  1  0.33340070  0.66680660  0.61605521  1
  S  S10  1  0.66658624  0.33316613  0.43186393  1
  S  S11  1  0.66667132  0.33332127  0.50763427  1
