# generated using pymatgen
data_Te2MoWSeS
_symmetry_space_group_name_H-M   'P 1'
_cell_length_a   3.39441127
_cell_length_b   3.39452294
_cell_length_c   40.22552389
_cell_angle_alpha   90.00319987
_cell_angle_beta   90.00000000
_cell_angle_gamma   119.99891188
_symmetry_Int_Tables_number   1
_chemical_formula_structural   Te2MoWSeS
_chemical_formula_sum   'Te4 Mo2 W2 Se2 S2'
_cell_volume   401.40271910
_cell_formula_units_Z   2
loop_
 _symmetry_equiv_pos_site_id
 _symmetry_equiv_pos_as_xyz
  1  'x, y, z'
loop_
 _atom_site_type_symbol
 _atom_site_label
 _atom_site_symmetry_multiplicity
 _atom_site_fract_x
 _atom_site_fract_y
 _atom_site_fract_z
 _atom_site_occupancy
  Te  Te0  1  0.33337289  0.66674678  0.32961878  1
  Te  Te1  1  0.66671313  0.33342526  0.04567280  1
  Te  Te2  1  0.66671382  0.33342664  0.13889362  1
  Te  Te3  1  0.33332979  0.66666059  0.23642693  1
  Mo  Mo4  1  0.33336746  0.66673491  0.09226594  1
  Mo  Mo5  1  0.66669417  0.33338835  0.28301189  1
  W  W6  1  0.33320736  0.66641472  0.47016155  1
  W  W7  1  0.66674329  0.33348659  0.65748023  1
  Se  Se8  1  0.66651870  0.33303639  0.42897063  1
  Se  Se9  1  0.66658066  0.33316033  0.51129327  1
  S  S10  1  0.33339222  0.66678545  0.69497961  1
  S  S11  1  0.33336650  0.66673400  0.61997274  1
