# generated using pymatgen
data_TeMoWS3
_symmetry_space_group_name_H-M   'P 1'
_cell_length_a   3.27197338
_cell_length_b   3.27198880
_cell_length_c   37.17972520
_cell_angle_alpha   90.00025580
_cell_angle_beta   90.00000000
_cell_angle_gamma   119.99984413
_symmetry_Int_Tables_number   1
_chemical_formula_structural   TeMoWS3
_chemical_formula_sum   'Te2 Mo2 W2 S6'
_cell_volume   344.71410887
_cell_formula_units_Z   2
loop_
 _symmetry_equiv_pos_site_id
 _symmetry_equiv_pos_as_xyz
  1  'x, y, z'
loop_
 _atom_site_type_symbol
 _atom_site_label
 _atom_site_symmetry_multiplicity
 _atom_site_fract_x
 _atom_site_fract_y
 _atom_site_fract_z
 _atom_site_occupancy
  Te  Te0  1  0.66663913  0.33327727  0.04198538  1
  Te  Te1  1  0.66665038  0.33329975  0.14570448  1
  Mo  Mo2  1  0.33331091  0.66662182  0.09384560  1
  Mo  Mo3  1  0.33331115  0.66662231  0.46965423  1
  W  W4  1  0.66669495  0.33338990  0.28185148  1
  W  W5  1  0.66669336  0.33338672  0.65756446  1
  S  S6  1  0.33335395  0.66670890  0.32339590  1
  S  S7  1  0.33335693  0.66671486  0.69912865  1
  S  S8  1  0.66663813  0.33327525  0.42828755  1
  S  S9  1  0.66664567  0.33329034  0.51105049  1
  S  S10  1  0.33335206  0.66670512  0.24030133  1
  S  S11  1  0.33335338  0.66670775  0.61597845  1
