# generated using pymatgen
data_Te2Mo3WS6
_symmetry_space_group_name_H-M   'P 1'
_cell_length_a   3.27131593
_cell_length_b   3.27142913
_cell_length_c   37.16712711
_cell_angle_alpha   89.99979378
_cell_angle_beta   90.00000000
_cell_angle_gamma   119.99885544
_symmetry_Int_Tables_number   1
_chemical_formula_structural   Te2Mo3WS6
_chemical_formula_sum   'Te2 Mo3 W1 S6'
_cell_volume   344.47256478
_cell_formula_units_Z   1
loop_
 _symmetry_equiv_pos_site_id
 _symmetry_equiv_pos_as_xyz
  1  'x, y, z'
loop_
 _atom_site_type_symbol
 _atom_site_label
 _atom_site_symmetry_multiplicity
 _atom_site_fract_x
 _atom_site_fract_y
 _atom_site_fract_z
 _atom_site_occupancy
  Te  Te0  1  0.66664886  0.33329672  0.04195061  1
  Te  Te1  1  0.66663777  0.33327454  0.14576855  1
  Mo  Mo2  1  0.33331395  0.66662791  0.09383804  1
  Mo  Mo3  1  0.33331697  0.66663393  0.46965836  1
  Mo  Mo4  1  0.66670335  0.33340670  0.28184861  1
  W  W5  1  0.66669023  0.33338046  0.65755908  1
  S  S6  1  0.33334952  0.66670005  0.32321083  1
  S  S7  1  0.33335564  0.66671228  0.69914464  1
  S  S8  1  0.66663704  0.33327308  0.42829052  1
  S  S9  1  0.66663242  0.33326384  0.51104509  1
  S  S10  1  0.33335851  0.66671802  0.24047455  1
  S  S11  1  0.33335574  0.66671248  0.61595911  1
