# generated using pymatgen
data_Te4Mo3W(SeS)2
_symmetry_space_group_name_H-M   'P 1'
_cell_length_a   3.39866179
_cell_length_b   3.39860451
_cell_length_c   40.40517971
_cell_angle_alpha   89.99778024
_cell_angle_beta   90.00000000
_cell_angle_gamma   120.00055766
_symmetry_Int_Tables_number   1
_chemical_formula_structural   Te4Mo3W(SeS)2
_chemical_formula_sum   'Te4 Mo3 W1 Se2 S2'
_cell_volume   404.17906173
_cell_formula_units_Z   1
loop_
 _symmetry_equiv_pos_site_id
 _symmetry_equiv_pos_as_xyz
  1  'x, y, z'
loop_
 _atom_site_type_symbol
 _atom_site_label
 _atom_site_symmetry_multiplicity
 _atom_site_fract_x
 _atom_site_fract_y
 _atom_site_fract_z
 _atom_site_occupancy
  Te  Te0  1  0.33333183  0.66666465  0.32696401  1
  Te  Te1  1  0.66655035  0.33309970  0.42486759  1
  Te  Te2  1  0.66649201  0.33298301  0.51759025  1
  Te  Te3  1  0.33353298  0.66706696  0.23418395  1
  Mo  Mo4  1  0.33338358  0.66676716  0.09350331  1
  Mo  Mo5  1  0.33318293  0.66636586  0.47124154  1
  Mo  Mo6  1  0.66675701  0.33351402  0.28056408  1
  W  W7  1  0.66666528  0.33333056  0.65759230  1
  Se  Se8  1  0.66669144  0.33338187  0.05266661  1
  Se  Se9  1  0.66674094  0.33348087  0.13435248  1
  S  S10  1  0.33337997  0.66676093  0.69483044  1
  S  S11  1  0.33329170  0.66658441  0.62039144  1
