# generated using pymatgen
data_Te4Mo3W(SeS)2
_symmetry_space_group_name_H-M   'P 1'
_cell_length_a   3.39559282
_cell_length_b   3.39558463
_cell_length_c   38.67993844
_cell_angle_alpha   90.00031276
_cell_angle_beta   90.00000000
_cell_angle_gamma   120.00007975
_symmetry_Int_Tables_number   1
_chemical_formula_structural   Te4Mo3W(SeS)2
_chemical_formula_sum   'Te4 Mo3 W1 Se2 S2'
_cell_volume   386.23019468
_cell_formula_units_Z   1
loop_
 _symmetry_equiv_pos_site_id
 _symmetry_equiv_pos_as_xyz
  1  'x, y, z'
loop_
 _atom_site_type_symbol
 _atom_site_label
 _atom_site_symmetry_multiplicity
 _atom_site_fract_x
 _atom_site_fract_y
 _atom_site_fract_z
 _atom_site_occupancy
  Te  Te0  1  0.33335418  0.66670937  0.70595732  1
  Te  Te1  1  0.66664630  0.33329160  0.04549402  1
  Te  Te2  1  0.66664959  0.33329818  0.14236700  1
  Te  Te3  1  0.33335146  0.66670393  0.60909247  1
  Mo  Mo4  1  0.33331007  0.66662014  0.09390206  1
  Mo  Mo5  1  0.66669296  0.33338591  0.28179151  1
  Mo  Mo6  1  0.66668986  0.33337971  0.65754266  1
  W  W7  1  0.33331092  0.66662184  0.46964834  1
  Se  Se8  1  0.33335461  0.66671022  0.32446032  1
  Se  Se9  1  0.33335377  0.66670853  0.23917402  1
  S  S10  1  0.66663815  0.33327531  0.43067941  1
  S  S11  1  0.66664812  0.33329525  0.50863887  1
