# generated using pymatgen
data_Ca2Fe3O8
_symmetry_space_group_name_H-M   'P 1'
_cell_length_a   6.05589408
_cell_length_b   6.05589449
_cell_length_c   10.57972073
_cell_angle_alpha   90.00000000
_cell_angle_beta   90.00000000
_cell_angle_gamma   120.00000186
_symmetry_Int_Tables_number   1
_chemical_formula_structural   Ca2Fe3O8
_chemical_formula_sum   'Ca4 Fe6 O16'
_cell_volume   336.01711461
_cell_formula_units_Z   2
loop_
 _symmetry_equiv_pos_site_id
 _symmetry_equiv_pos_as_xyz
  1  'x, y, z'
loop_
 _atom_site_type_symbol
 _atom_site_label
 _atom_site_symmetry_multiplicity
 _atom_site_fract_x
 _atom_site_fract_y
 _atom_site_fract_z
 _atom_site_occupancy
  Ca  Ca0  1  0.66666700  0.33333400  0.02543487  1
  Ca  Ca1  1  0.33333300  0.66666600  0.52543587  1
  Ca  Ca2  1  0.66666700  0.33333400  0.42967049  1
  Ca  Ca3  1  0.33333300  0.66666600  0.92967149  1
  Fe  Fe4  1  0.67161496  0.83580798  0.24585457  1
  Fe  Fe5  1  0.83580898  0.16419302  0.74585457  1
  Fe  Fe6  1  0.16419302  0.32838604  0.24585457  1
  Fe  Fe7  1  0.83580698  0.67161496  0.74585457  1
  Fe  Fe8  1  0.32838604  0.16419302  0.74585457  1
  Fe  Fe9  1  0.16419302  0.83580798  0.24585457  1
  O  O10  1  0.84558074  0.15442026  0.15613198  1
  O  O11  1  0.69115948  0.84558074  0.65613098  1
  O  O12  1  0.15442026  0.30884152  0.65613098  1
  O  O13  1  0.84557974  0.69115948  0.15613198  1
  O  O14  1  0.30884052  0.15442026  0.15613198  1
  O  O15  1  0.15442026  0.84558074  0.65613098  1
  O  O16  1  0.52359082  0.47640818  0.84707204  1
  O  O17  1  0.04718263  0.52359082  0.34707104  1
  O  O18  1  0.47640918  0.95281837  0.34707104  1
  O  O19  1  0.52359082  0.04718263  0.84707204  1
  O  O20  1  0.00000000  -0.00000000  0.35064156  1
  O  O21  1  0.00000000  -0.00000000  0.85064156  1
  O  O22  1  0.33333300  0.66666600  0.14058031  1
  O  O23  1  0.95281637  0.47640818  0.84707204  1
  O  O24  1  0.47640818  0.52359082  0.34707104  1
  O  O25  1  0.66666700  0.33333400  0.64058031  1
