# generated using pymatgen
data_CaYMg30O32
_symmetry_space_group_name_H-M   'P 1'
_cell_length_a   8.64785975
_cell_length_b   8.64785975
_cell_length_c   8.69702359
_cell_angle_alpha   90.00000000
_cell_angle_beta   90.00000000
_cell_angle_gamma   90.00000000
_symmetry_Int_Tables_number   1
_chemical_formula_structural   CaYMg30O32
_chemical_formula_sum   'Ca1 Y1 Mg30 O32'
_cell_volume   650.41106858
_cell_formula_units_Z   1
loop_
 _symmetry_equiv_pos_site_id
 _symmetry_equiv_pos_as_xyz
  1  'x, y, z'
loop_
 _atom_site_type_symbol
 _atom_site_label
 _atom_site_symmetry_multiplicity
 _atom_site_fract_x
 _atom_site_fract_y
 _atom_site_fract_z
 _atom_site_occupancy
  Ca  Ca0  1  -0.00000000  0.00000000  0.00000000  1
  Y  Y1  1  -0.00000000  0.00000000  0.50000000  1
  Mg  Mg2  1  -0.00000000  0.50000000  0.00000000  1
  Mg  Mg3  1  -0.00000000  0.50000000  0.50000000  1
  Mg  Mg4  1  0.50000000  0.00000000  0.00000000  1
  Mg  Mg5  1  0.50000000  0.00000000  0.50000000  1
  Mg  Mg6  1  0.50000000  0.50000000  0.00000000  1
  Mg  Mg7  1  0.50000000  0.50000000  0.50000000  1
  Mg  Mg8  1  -0.00000000  0.25908699  0.24627295  1
  Mg  Mg9  1  -0.00000000  0.25908699  0.75372705  1
  Mg  Mg10  1  -0.00000000  0.74091301  0.24627295  1
  Mg  Mg11  1  -0.00000000  0.74091301  0.75372705  1
  Mg  Mg12  1  0.50000000  0.25100569  0.24929598  1
  Mg  Mg13  1  0.50000000  0.25100569  0.75070402  1
  Mg  Mg14  1  0.50000000  0.74899431  0.24929598  1
  Mg  Mg15  1  0.50000000  0.74899431  0.75070402  1
  Mg  Mg16  1  0.25908699  0.00000000  0.24627295  1
  Mg  Mg17  1  0.25908699  0.00000000  0.75372705  1
  Mg  Mg18  1  0.25100569  0.50000000  0.24929598  1
  Mg  Mg19  1  0.25100569  0.50000000  0.75070402  1
  Mg  Mg20  1  0.74091301  0.00000000  0.24627295  1
  Mg  Mg21  1  0.74091301  0.00000000  0.75372705  1
  Mg  Mg22  1  0.74899431  0.50000000  0.24929598  1
  Mg  Mg23  1  0.74899431  0.50000000  0.75070402  1
  Mg  Mg24  1  0.25355964  0.25355964  0.00000000  1
  Mg  Mg25  1  0.25639587  0.25639587  0.50000000  1
  Mg  Mg26  1  0.25355964  0.74644036  0.00000000  1
  Mg  Mg27  1  0.25639587  0.74360413  0.50000000  1
  Mg  Mg28  1  0.74644036  0.25355964  0.00000000  1
  Mg  Mg29  1  0.74360413  0.25639587  0.50000000  1
  Mg  Mg30  1  0.74644036  0.74644036  0.00000000  1
  Mg  Mg31  1  0.74360413  0.74360413  0.50000000  1
  O  O32  1  0.26285402  0.00000000  0.00000000  1
  O  O33  1  0.25957466  0.00000000  0.50000000  1
  O  O34  1  0.25157542  0.50000000  0.00000000  1
  O  O35  1  0.25106866  0.50000000  0.50000000  1
  O  O36  1  0.73714598  0.00000000  0.00000000  1
  O  O37  1  0.74042534  0.00000000  0.50000000  1
  O  O38  1  0.74842458  0.50000000  0.00000000  1
  O  O39  1  0.74893134  0.50000000  0.50000000  1
  O  O40  1  0.24892332  0.24892332  0.25050518  1
  O  O41  1  0.24892332  0.24892332  0.74949482  1
  O  O42  1  0.24892332  0.75107668  0.25050518  1
  O  O43  1  0.24892332  0.75107668  0.74949482  1
  O  O44  1  0.75107668  0.24892332  0.25050518  1
  O  O45  1  0.75107668  0.24892332  0.74949482  1
  O  O46  1  0.75107668  0.75107668  0.25050518  1
  O  O47  1  0.75107668  0.75107668  0.74949482  1
  O  O48  1  -0.00000000  0.00000000  0.25129947  1
  O  O49  1  -0.00000000  0.00000000  0.74870053  1
  O  O50  1  -0.00000000  0.50000000  0.25100497  1
  O  O51  1  -0.00000000  0.50000000  0.74899503  1
  O  O52  1  0.50000000  0.00000000  0.25100497  1
  O  O53  1  0.50000000  0.00000000  0.74899503  1
  O  O54  1  0.50000000  0.50000000  0.25050677  1
  O  O55  1  0.50000000  0.50000000  0.74949323  1
  O  O56  1  -0.00000000  0.26285402  0.00000000  1
  O  O57  1  -0.00000000  0.25957466  0.50000000  1
  O  O58  1  -0.00000000  0.73714598  0.00000000  1
  O  O59  1  -0.00000000  0.74042534  0.50000000  1
  O  O60  1  0.50000000  0.25157542  0.00000000  1
  O  O61  1  0.50000000  0.25106866  0.50000000  1
  O  O62  1  0.50000000  0.74842458  0.00000000  1
  O  O63  1  0.50000000  0.74893134  0.50000000  1
