# generated using pymatgen
data_KMg30AlO32
_symmetry_space_group_name_H-M   'P 1'
_cell_length_a   8.57266876
_cell_length_b   8.56452223
_cell_length_c   8.56452223
_cell_angle_alpha   90.00000000
_cell_angle_beta   90.00000000
_cell_angle_gamma   90.00000000
_symmetry_Int_Tables_number   1
_chemical_formula_structural   KMg30AlO32
_chemical_formula_sum   'K1 Mg30 Al1 O32'
_cell_volume   628.81417794
_cell_formula_units_Z   1
loop_
 _symmetry_equiv_pos_site_id
 _symmetry_equiv_pos_as_xyz
  1  'x, y, z'
loop_
 _atom_site_type_symbol
 _atom_site_label
 _atom_site_symmetry_multiplicity
 _atom_site_fract_x
 _atom_site_fract_y
 _atom_site_fract_z
 _atom_site_occupancy
  K  K0  1  0.00000000  0.50000000  0.50000000  1
  Mg  Mg1  1  0.00000000  0.00000000  0.50000000  1
  Mg  Mg2  1  0.00000000  0.50000000  0.00000000  1
  Mg  Mg3  1  0.50000000  0.00000000  0.00000000  1
  Mg  Mg4  1  0.50000000  0.00000000  0.50000000  1
  Mg  Mg5  1  0.50000000  0.50000000  0.00000000  1
  Mg  Mg6  1  0.50000000  0.50000000  0.50000000  1
  Mg  Mg7  1  0.00000000  0.25020579  0.25020579  1
  Mg  Mg8  1  0.00000000  0.25020579  0.74979421  1
  Mg  Mg9  1  0.00000000  0.74979421  0.25020579  1
  Mg  Mg10  1  0.00000000  0.74979421  0.74979421  1
  Mg  Mg11  1  0.50000000  0.25120261  0.25120261  1
  Mg  Mg12  1  0.50000000  0.25120261  0.74879739  1
  Mg  Mg13  1  0.50000000  0.74879739  0.25120261  1
  Mg  Mg14  1  0.50000000  0.74879739  0.74879739  1
  Mg  Mg15  1  0.25050462  0.00000000  0.25146098  1
  Mg  Mg16  1  0.25050462  0.00000000  0.74853902  1
  Mg  Mg17  1  0.25163944  0.50000000  0.24983086  1
  Mg  Mg18  1  0.25163944  0.50000000  0.75016914  1
  Mg  Mg19  1  0.74949538  0.00000000  0.25146098  1
  Mg  Mg20  1  0.74949538  0.00000000  0.74853902  1
  Mg  Mg21  1  0.74836056  0.50000000  0.24983086  1
  Mg  Mg22  1  0.74836056  0.50000000  0.75016914  1
  Mg  Mg23  1  0.25050462  0.25146098  0.00000000  1
  Mg  Mg24  1  0.25163944  0.24983086  0.50000000  1
  Mg  Mg25  1  0.25050462  0.74853902  0.00000000  1
  Mg  Mg26  1  0.25163944  0.75016914  0.50000000  1
  Mg  Mg27  1  0.74949538  0.25146098  0.00000000  1
  Mg  Mg28  1  0.74836056  0.24983086  0.50000000  1
  Mg  Mg29  1  0.74949538  0.74853902  0.00000000  1
  Mg  Mg30  1  0.74836056  0.75016914  0.50000000  1
  Al  Al31  1  0.00000000  0.00000000  0.00000000  1
  O  O32  1  0.23635523  0.00000000  0.00000000  1
  O  O33  1  0.25216091  0.00000000  0.50000000  1
  O  O34  1  0.25216091  0.50000000  0.00000000  1
  O  O35  1  0.27340386  0.50000000  0.50000000  1
  O  O36  1  0.76364477  0.00000000  0.00000000  1
  O  O37  1  0.74783909  0.00000000  0.50000000  1
  O  O38  1  0.74783909  0.50000000  0.00000000  1
  O  O39  1  0.72659614  0.50000000  0.50000000  1
  O  O40  1  0.24932123  0.24962386  0.24962386  1
  O  O41  1  0.24932123  0.24962386  0.75037614  1
  O  O42  1  0.24932123  0.75037614  0.24962386  1
  O  O43  1  0.24932123  0.75037614  0.75037614  1
  O  O44  1  0.75067877  0.24962386  0.24962386  1
  O  O45  1  0.75067877  0.24962386  0.75037614  1
  O  O46  1  0.75067877  0.75037614  0.24962386  1
  O  O47  1  0.75067877  0.75037614  0.75037614  1
  O  O48  1  0.00000000  0.00000000  0.23031710  1
  O  O49  1  0.00000000  0.00000000  0.76968290  1
  O  O50  1  0.00000000  0.50000000  0.22494446  1
  O  O51  1  0.00000000  0.50000000  0.77505554  1
  O  O52  1  0.50000000  0.00000000  0.24627900  1
  O  O53  1  0.50000000  0.00000000  0.75372100  1
  O  O54  1  0.50000000  0.50000000  0.24491545  1
  O  O55  1  0.50000000  0.50000000  0.75508455  1
  O  O56  1  0.00000000  0.23031710  0.00000000  1
  O  O57  1  0.00000000  0.22494446  0.50000000  1
  O  O58  1  0.00000000  0.76968290  0.00000000  1
  O  O59  1  0.00000000  0.77505554  0.50000000  1
  O  O60  1  0.50000000  0.24627900  0.00000000  1
  O  O61  1  0.50000000  0.24491545  0.50000000  1
  O  O62  1  0.50000000  0.75372100  0.00000000  1
  O  O63  1  0.50000000  0.75508455  0.50000000  1
