# generated using pymatgen
data_Mg30CoSnO32
_symmetry_space_group_name_H-M   'P 1'
_cell_length_a   8.61541983
_cell_length_b   8.58732899
_cell_length_c   8.58732899
_cell_angle_alpha   90.00000000
_cell_angle_beta   90.00000000
_cell_angle_gamma   90.00000000
_symmetry_Int_Tables_number   1
_chemical_formula_structural   Mg30CoSnO32
_chemical_formula_sum   'Mg30 Co1 Sn1 O32'
_cell_volume   635.32017745
_cell_formula_units_Z   1
loop_
 _symmetry_equiv_pos_site_id
 _symmetry_equiv_pos_as_xyz
  1  'x, y, z'
loop_
 _atom_site_type_symbol
 _atom_site_label
 _atom_site_symmetry_multiplicity
 _atom_site_fract_x
 _atom_site_fract_y
 _atom_site_fract_z
 _atom_site_occupancy
  Mg  Mg0  1  0.00000000  0.00000000  0.50000000  1
  Mg  Mg1  1  0.00000000  0.50000000  0.00000000  1
  Mg  Mg2  1  0.50000000  0.00000000  0.00000000  1
  Mg  Mg3  1  0.50000000  0.00000000  0.50000000  1
  Mg  Mg4  1  0.50000000  0.50000000  0.00000000  1
  Mg  Mg5  1  0.50000000  0.50000000  0.50000000  1
  Mg  Mg6  1  0.00000000  0.24569522  0.24569522  1
  Mg  Mg7  1  0.00000000  0.24569522  0.75430478  1
  Mg  Mg8  1  0.00000000  0.75430478  0.24569522  1
  Mg  Mg9  1  0.00000000  0.75430478  0.75430478  1
  Mg  Mg10  1  0.50000000  0.24919790  0.24919790  1
  Mg  Mg11  1  0.50000000  0.24919790  0.75080210  1
  Mg  Mg12  1  0.50000000  0.75080210  0.24919790  1
  Mg  Mg13  1  0.50000000  0.75080210  0.75080210  1
  Mg  Mg14  1  0.25050644  0.00000000  0.24821411  1
  Mg  Mg15  1  0.25050644  0.00000000  0.75178589  1
  Mg  Mg16  1  0.25456732  0.50000000  0.24529269  1
  Mg  Mg17  1  0.25456732  0.50000000  0.75470731  1
  Mg  Mg18  1  0.74949356  0.00000000  0.24821411  1
  Mg  Mg19  1  0.74949356  0.00000000  0.75178589  1
  Mg  Mg20  1  0.74543268  0.50000000  0.24529269  1
  Mg  Mg21  1  0.74543268  0.50000000  0.75470731  1
  Mg  Mg22  1  0.25050644  0.24821411  0.00000000  1
  Mg  Mg23  1  0.25456732  0.24529269  0.50000000  1
  Mg  Mg24  1  0.25050644  0.75178589  0.00000000  1
  Mg  Mg25  1  0.25456732  0.75470731  0.50000000  1
  Mg  Mg26  1  0.74949356  0.24821411  0.00000000  1
  Mg  Mg27  1  0.74543268  0.24529269  0.50000000  1
  Mg  Mg28  1  0.74949356  0.75178589  0.00000000  1
  Mg  Mg29  1  0.74543268  0.75470731  0.50000000  1
  Co  Co30  1  0.00000000  0.00000000  0.00000000  1
  Sn  Sn31  1  0.00000000  0.50000000  0.50000000  1
  O  O32  1  0.25694707  0.00000000  0.00000000  1
  O  O33  1  0.25294941  0.00000000  0.50000000  1
  O  O34  1  0.25294941  0.50000000  0.00000000  1
  O  O35  1  0.26986773  0.50000000  0.50000000  1
  O  O36  1  0.74305293  0.00000000  0.00000000  1
  O  O37  1  0.74705059  0.00000000  0.50000000  1
  O  O38  1  0.74705059  0.50000000  0.00000000  1
  O  O39  1  0.73013227  0.50000000  0.50000000  1
  O  O40  1  0.24930430  0.24998149  0.24998149  1
  O  O41  1  0.24930430  0.24998149  0.75001851  1
  O  O42  1  0.24930430  0.75001851  0.24998149  1
  O  O43  1  0.24930430  0.75001851  0.75001851  1
  O  O44  1  0.75069570  0.24998149  0.24998149  1
  O  O45  1  0.75069570  0.24998149  0.75001851  1
  O  O46  1  0.75069570  0.75001851  0.24998149  1
  O  O47  1  0.75069570  0.75001851  0.75001851  1
  O  O48  1  0.00000000  0.00000000  0.24726882  1
  O  O49  1  0.00000000  0.00000000  0.75273118  1
  O  O50  1  0.00000000  0.50000000  0.22986166  1
  O  O51  1  0.00000000  0.50000000  0.77013834  1
  O  O52  1  0.50000000  0.00000000  0.24988917  1
  O  O53  1  0.50000000  0.00000000  0.75011083  1
  O  O54  1  0.50000000  0.50000000  0.24690189  1
  O  O55  1  0.50000000  0.50000000  0.75309811  1
  O  O56  1  0.00000000  0.24726882  0.00000000  1
  O  O57  1  0.00000000  0.22986166  0.50000000  1
  O  O58  1  0.00000000  0.75273118  0.00000000  1
  O  O59  1  0.00000000  0.77013834  0.50000000  1
  O  O60  1  0.50000000  0.24988917  0.00000000  1
  O  O61  1  0.50000000  0.24690189  0.50000000  1
  O  O62  1  0.50000000  0.75011083  0.00000000  1
  O  O63  1  0.50000000  0.75309811  0.50000000  1
