# generated using pymatgen
data_Mg30CuBiO32
_symmetry_space_group_name_H-M   'P 1'
_cell_length_a   8.61088909
_cell_length_b   8.61236484
_cell_length_c   8.61236484
_cell_angle_alpha   90.00000000
_cell_angle_beta   90.00000000
_cell_angle_gamma   90.00000000
_symmetry_Int_Tables_number   1
_chemical_formula_structural   Mg30CuBiO32
_chemical_formula_sum   'Mg30 Cu1 Bi1 O32'
_cell_volume   638.69399658
_cell_formula_units_Z   1
loop_
 _symmetry_equiv_pos_site_id
 _symmetry_equiv_pos_as_xyz
  1  'x, y, z'
loop_
 _atom_site_type_symbol
 _atom_site_label
 _atom_site_symmetry_multiplicity
 _atom_site_fract_x
 _atom_site_fract_y
 _atom_site_fract_z
 _atom_site_occupancy
  Mg  Mg0  1  0.00000000  -0.00000000  0.50000000  1
  Mg  Mg1  1  0.00000000  0.50000000  0.00000000  1
  Mg  Mg2  1  0.50000000  -0.00000000  0.00000000  1
  Mg  Mg3  1  0.50000000  -0.00000000  0.50000000  1
  Mg  Mg4  1  0.50000000  0.50000000  0.00000000  1
  Mg  Mg5  1  0.50000000  0.50000000  0.50000000  1
  Mg  Mg6  1  0.00000000  0.23983252  0.23983252  1
  Mg  Mg7  1  0.00000000  0.23983252  0.76016748  1
  Mg  Mg8  1  0.00000000  0.76016748  0.23983252  1
  Mg  Mg9  1  0.00000000  0.76016748  0.76016748  1
  Mg  Mg10  1  0.50000000  0.24857985  0.24857985  1
  Mg  Mg11  1  0.50000000  0.24857985  0.75142015  1
  Mg  Mg12  1  0.50000000  0.75142015  0.24857985  1
  Mg  Mg13  1  0.50000000  0.75142015  0.75142015  1
  Mg  Mg14  1  0.24807920  -0.00000000  0.24671849  1
  Mg  Mg15  1  0.24807920  -0.00000000  0.75328151  1
  Mg  Mg16  1  0.25647265  0.50000000  0.24191181  1
  Mg  Mg17  1  0.25647265  0.50000000  0.75808819  1
  Mg  Mg18  1  0.75192080  -0.00000000  0.24671849  1
  Mg  Mg19  1  0.75192080  -0.00000000  0.75328151  1
  Mg  Mg20  1  0.74352735  0.50000000  0.24191181  1
  Mg  Mg21  1  0.74352735  0.50000000  0.75808819  1
  Mg  Mg22  1  0.24807920  0.24671849  0.00000000  1
  Mg  Mg23  1  0.25647265  0.24191181  0.50000000  1
  Mg  Mg24  1  0.24807920  0.75328151  0.00000000  1
  Mg  Mg25  1  0.25647265  0.75808819  0.50000000  1
  Mg  Mg26  1  0.75192080  0.24671849  0.00000000  1
  Mg  Mg27  1  0.74352735  0.24191181  0.50000000  1
  Mg  Mg28  1  0.75192080  0.75328151  0.00000000  1
  Mg  Mg29  1  0.74352735  0.75808819  0.50000000  1
  Cu  Cu30  1  0.00000000  -0.00000000  0.00000000  1
  Bi  Bi31  1  0.00000000  0.50000000  0.50000000  1
  O  O32  1  0.26367982  -0.00000000  0.00000000  1
  O  O33  1  0.25388316  -0.00000000  0.50000000  1
  O  O34  1  0.25388316  0.50000000  0.00000000  1
  O  O35  1  0.26696831  0.50000000  0.50000000  1
  O  O36  1  0.73632018  -0.00000000  0.00000000  1
  O  O37  1  0.74611684  -0.00000000  0.50000000  1
  O  O38  1  0.74611684  0.50000000  0.00000000  1
  O  O39  1  0.73303169  0.50000000  0.50000000  1
  O  O40  1  0.24880372  0.25144247  0.25144247  1
  O  O41  1  0.24880372  0.25144247  0.74855753  1
  O  O42  1  0.24880372  0.74855753  0.25144247  1
  O  O43  1  0.24880372  0.74855753  0.74855753  1
  O  O44  1  0.75119628  0.25144247  0.25144247  1
  O  O45  1  0.75119628  0.25144247  0.74855753  1
  O  O46  1  0.75119628  0.74855753  0.25144247  1
  O  O47  1  0.75119628  0.74855753  0.74855753  1
  O  O48  1  0.00000000  -0.00000000  0.26176674  1
  O  O49  1  0.00000000  -0.00000000  0.73823326  1
  O  O50  1  0.00000000  0.50000000  0.23452999  1
  O  O51  1  0.00000000  0.50000000  0.76547001  1
  O  O52  1  0.50000000  -0.00000000  0.25210358  1
  O  O53  1  0.50000000  -0.00000000  0.74789642  1
  O  O54  1  0.50000000  0.50000000  0.24891795  1
  O  O55  1  0.50000000  0.50000000  0.75108205  1
  O  O56  1  0.00000000  0.26176674  0.00000000  1
  O  O57  1  0.00000000  0.23452999  0.50000000  1
  O  O58  1  0.00000000  0.73823326  0.00000000  1
  O  O59  1  0.00000000  0.76547001  0.50000000  1
  O  O60  1  0.50000000  0.25210358  0.00000000  1
  O  O61  1  0.50000000  0.24891795  0.50000000  1
  O  O62  1  0.50000000  0.74789642  0.00000000  1
  O  O63  1  0.50000000  0.75108205  0.50000000  1
