# generated using pymatgen
data_Ca2Ni3O8
_symmetry_space_group_name_H-M   'P 1'
_cell_length_a   5.82906286
_cell_length_b   5.82906294
_cell_length_c   10.39934948
_cell_angle_alpha   90.00000000
_cell_angle_beta   90.00000000
_cell_angle_gamma   119.99999954
_symmetry_Int_Tables_number   1
_chemical_formula_structural   Ca2Ni3O8
_chemical_formula_sum   'Ca4 Ni6 O16'
_cell_volume   306.00906400
_cell_formula_units_Z   2
loop_
 _symmetry_equiv_pos_site_id
 _symmetry_equiv_pos_as_xyz
  1  'x, y, z'
loop_
 _atom_site_type_symbol
 _atom_site_label
 _atom_site_symmetry_multiplicity
 _atom_site_fract_x
 _atom_site_fract_y
 _atom_site_fract_z
 _atom_site_occupancy
  Ca  Ca0  1  0.66666700  0.33333400  0.02755178  1
  Ca  Ca1  1  0.33333300  0.66666600  0.52755278  1
  Ca  Ca2  1  0.66666700  0.33333400  0.43389244  1
  Ca  Ca3  1  0.33333300  0.66666600  0.93389344  1
  Ni  Ni4  1  0.67016563  0.83508282  0.24651156  1
  Ni  Ni5  1  0.83508382  0.16491818  0.74651156  1
  Ni  Ni6  1  0.16491818  0.32983537  0.24651156  1
  Ni  Ni7  1  0.83508182  0.67016563  0.74651156  1
  Ni  Ni8  1  0.32983537  0.16491818  0.74651156  1
  Ni  Ni9  1  0.16491818  0.83508282  0.24651156  1
  O  O10  1  0.84813791  0.15186309  0.15514309  1
  O  O11  1  0.69627581  0.84813791  0.65514209  1
  O  O12  1  0.15186309  0.30372519  0.65514209  1
  O  O13  1  0.84813691  0.69627581  0.15514309  1
  O  O14  1  0.30372419  0.15186309  0.15514309  1
  O  O15  1  0.15186309  0.84813791  0.65514209  1
  O  O16  1  0.52177950  0.47821950  0.84486970  1
  O  O17  1  0.04355999  0.52177950  0.34486870  1
  O  O18  1  0.47822050  0.95644101  0.34486870  1
  O  O19  1  0.52177950  0.04355999  0.84486970  1
  O  O20  1  -0.00000000  0.00000000  0.33828246  1
  O  O21  1  -0.00000000  0.00000000  0.83828246  1
  O  O22  1  0.33333300  0.66666600  0.15420328  1
  O  O23  1  0.95643901  0.47821950  0.84486970  1
  O  O24  1  0.47821950  0.52177950  0.34486870  1
  O  O25  1  0.66666700  0.33333400  0.65420328  1
