# generated using pymatgen
data_Ba2W2F11
_symmetry_space_group_name_H-M   'P 1'
_cell_length_a   8.51880636
_cell_length_b   8.51880579
_cell_length_c   13.82500814
_cell_angle_alpha   90.00000000
_cell_angle_beta   90.00000000
_cell_angle_gamma   119.99999774
_symmetry_Int_Tables_number   1
_chemical_formula_structural   Ba2W2F11
_chemical_formula_sum   'Ba6 W6 F33'
_cell_volume   868.86739710
_cell_formula_units_Z   3
loop_
 _symmetry_equiv_pos_site_id
 _symmetry_equiv_pos_as_xyz
  1  'x, y, z'
loop_
 _atom_site_type_symbol
 _atom_site_label
 _atom_site_symmetry_multiplicity
 _atom_site_fract_x
 _atom_site_fract_y
 _atom_site_fract_z
 _atom_site_occupancy
  Ba  Ba0  1  0.63378716  0.23035609  0.64915964  1
  Ba  Ba1  1  0.17980721  0.36652761  0.80747821  1
  Ba  Ba2  1  0.59656893  0.36621284  0.98249264  1
  Ba  Ba3  1  0.63347239  0.81327860  0.47414421  1
  Ba  Ba4  1  0.18672140  0.82019279  0.14081121  1
  Ba  Ba5  1  0.76964391  0.40343107  0.31582564  1
  W  W6  1  0.60186865  0.88321574  0.88449970  1
  W  W7  1  0.89471577  0.76963608  0.73713913  1
  W  W8  1  0.23036392  0.12507969  0.40380513  1
  W  W9  1  0.28134909  0.39813135  0.21783270  1
  W  W10  1  0.87492031  0.10528423  0.07047213  1
  W  W11  1  0.11678426  0.71865091  0.55116570  1
  F  F12  1  0.59934965  0.95518564  0.03606989  1
  F  F13  1  0.53604855  0.63075018  0.94188799  1
  F  F14  1  0.35583699  0.40065035  0.36940289  1
  F  F15  1  0.27346134  0.61781513  0.49589964  1
  F  F16  1  0.48422941  0.34625573  0.17077058  1
  F  F17  1  0.87692102  0.54736282  0.14026432  1
  F  F18  1  0.38218487  0.65564721  0.16256664  1
  F  F19  1  0.45263718  0.32955920  0.80693132  1
  F  F20  1  0.86202632  0.51577059  0.50410358  1
  F  F21  1  0.15426373  0.28826189  0.08009575  1
  F  F22  1  0.34435279  0.72653866  0.82923364  1
  F  F23  1  0.04481436  0.64416301  0.70273689  1
  F  F24  1  0.32453323  0.05153166  0.01366506  1
  F  F25  1  0.88638796  0.31724550  0.00345208  1
  F  F26  1  0.72699842  0.67546677  0.34699806  1
  F  F27  1  0.36924982  0.90529837  0.60855399  1
  F  F28  1  0.89508318  0.04356549  0.92687438  1
  F  F29  1  0.13399817  0.84573627  0.41342875  1
  F  F30  1  0.98948788  0.08944850  0.43122112  1
  F  F31  1  0.94846834  0.27300158  0.68033106  1
  F  F32  1  0.09996061  0.01051212  0.76455512  1
  F  F33  1  0.68275450  0.56914347  0.67011908  1
  F  F34  1  0.43085653  0.11361204  0.33678508  1
  F  F35  1  0.14848231  0.10491682  0.26020738  1
  F  F36  1  0.71173811  0.86600183  0.74676275  1
  F  F37  1  0.65374327  0.13797368  0.83743758  1
  F  F38  1  0.09470163  0.46395145  0.27522099  1
  F  F39  1  0.86294268  0.66937398  0.86759050  1
  F  F40  1  0.80643231  0.13705732  0.20092350  1
  F  F41  1  0.91055150  0.90003939  0.09788812  1
  F  F42  1  0.67044080  0.12307898  0.47359732  1
  F  F43  1  0.95643451  0.85151769  0.59354038  1
  F  F44  1  0.33062602  0.19356769  0.53425650  1
