# generated using pymatgen
data_HoMg(MoO3)2
_symmetry_space_group_name_H-M   'P 1'
_cell_length_a   5.39129996
_cell_length_b   5.64076445
_cell_length_c   7.95841430
_cell_angle_alpha   90.00004408
_cell_angle_beta   90.32725484
_cell_angle_gamma   89.99816868
_symmetry_Int_Tables_number   1
_chemical_formula_structural   HoMg(MoO3)2
_chemical_formula_sum   'Ho2 Mg2 Mo4 O12'
_cell_volume   242.01981249
_cell_formula_units_Z   2
loop_
 _symmetry_equiv_pos_site_id
 _symmetry_equiv_pos_as_xyz
  1  'x, y, z'
loop_
 _atom_site_type_symbol
 _atom_site_label
 _atom_site_symmetry_multiplicity
 _atom_site_fract_x
 _atom_site_fract_y
 _atom_site_fract_z
 _atom_site_occupancy
  Ho  Ho0  1  0.01089827  0.93869964  0.74917134  1
  Ho  Ho1  1  0.51107321  0.56135839  0.24914735  1
  Mg  Mg2  1  0.49650864  0.45887290  0.75100287  1
  Mg  Mg3  1  0.99634103  0.04124575  0.25102184  1
  Mo  Mo4  1  0.99946836  0.49622117  0.00003915  1
  Mo  Mo5  1  0.99965669  0.49354308  0.49971137  1
  Mo  Mo6  1  0.49935892  0.00378623  0.50000569  1
  Mo  Mo7  1  0.49961720  0.00646215  0.99972455  1
  O  O8  1  0.12875282  0.41272306  0.25284171  1
  O  O9  1  0.18921038  0.18364472  0.92939196  1
  O  O10  1  0.17282081  0.18982547  0.56811016  1
  O  O11  1  0.33144570  0.68810019  0.93046183  1
  O  O12  1  0.31325582  0.67886812  0.57291139  1
  O  O13  1  0.35799724  0.93451714  0.24638292  1
  O  O14  1  0.62862352  0.08737243  0.75282606  1
  O  O15  1  0.68922550  0.31631097  0.42937132  1
  O  O16  1  0.67305037  0.31002246  0.06820788  1
  O  O17  1  0.81327783  0.82112421  0.07286776  1
  O  O18  1  0.83129147  0.81182160  0.43040741  1
  O  O19  1  0.85812322  0.56548132  0.74639446  1
