# generated using pymatgen
data_BaCaBiF7
_symmetry_space_group_name_H-M   'P 1'
_cell_length_a   5.99757052
_cell_length_b   10.00127850
_cell_length_c   10.81071652
_cell_angle_alpha   90.00000000
_cell_angle_beta   90.00000000
_cell_angle_gamma   92.65482856
_symmetry_Int_Tables_number   1
_chemical_formula_structural   BaCaBiF7
_chemical_formula_sum   'Ba4 Ca4 Bi4 F28'
_cell_volume   647.76724862
_cell_formula_units_Z   4
loop_
 _symmetry_equiv_pos_site_id
 _symmetry_equiv_pos_as_xyz
  1  'x, y, z'
loop_
 _atom_site_type_symbol
 _atom_site_label
 _atom_site_symmetry_multiplicity
 _atom_site_fract_x
 _atom_site_fract_y
 _atom_site_fract_z
 _atom_site_occupancy
  Ba  Ba0  1  0.24755805  0.49880318  0.31163682  1
  Ba  Ba1  1  0.75244195  0.00119682  0.81163682  1
  Ba  Ba2  1  0.75244195  0.50119682  0.68836318  1
  Ba  Ba3  1  0.24755805  0.99880318  0.18836318  1
  Ca  Ca4  1  0.71546148  0.79518341  0.40464556  1
  Ca  Ca5  1  0.28453852  0.70481659  0.90464556  1
  Ca  Ca6  1  0.71546148  0.29518341  0.09535444  1
  Ca  Ca7  1  0.28453852  0.20481659  0.59535444  1
  Bi  Bi8  1  0.21762171  0.80654672  0.59242123  1
  Bi  Bi9  1  0.78237829  0.19345328  0.40757877  1
  Bi  Bi10  1  0.21762171  0.30654672  0.90757877  1
  Bi  Bi11  1  0.78237829  0.69345328  0.09242123  1
  F  F12  1  0.12018616  0.10279588  0.43048988  1
  F  F13  1  0.38411921  0.40086447  0.07916617  1
  F  F14  1  0.49881738  0.77824173  0.73864635  1
  F  F15  1  0.50118262  0.22175827  0.26135365  1
  F  F16  1  0.02284067  0.35648064  0.50571234  1
  F  F17  1  0.23817223  0.49987662  0.78877452  1
  F  F18  1  0.00463995  0.73087330  0.76129370  1
  F  F19  1  0.97715933  0.14351936  0.00571234  1
  F  F20  1  0.38411921  0.90086447  0.42083383  1
  F  F21  1  0.50118262  0.72175827  0.23864635  1
  F  F22  1  0.12018616  0.60279588  0.06951012  1
  F  F23  1  0.87981384  0.89720412  0.56951012  1
  F  F24  1  0.99536005  0.76912670  0.26129370  1
  F  F25  1  0.52344196  0.85686518  0.00755937  1
  F  F26  1  0.97715933  0.64351936  0.49428766  1
  F  F27  1  0.02284067  0.85648064  0.99428766  1
  F  F28  1  0.99536005  0.26912670  0.23870630  1
  F  F29  1  0.87981384  0.39720412  0.93048988  1
  F  F30  1  0.47655804  0.64313482  0.50755937  1
  F  F31  1  0.61588079  0.59913553  0.92083383  1
  F  F32  1  0.47655804  0.14313482  0.99244063  1
  F  F33  1  0.00463995  0.23087330  0.73870630  1
  F  F34  1  0.52344196  0.35686518  0.49244063  1
  F  F35  1  0.76182777  0.00012338  0.28877452  1
  F  F36  1  0.76182777  0.50012338  0.21122548  1
  F  F37  1  0.23817223  0.99987662  0.71122548  1
  F  F38  1  0.61588079  0.09913553  0.57916617  1
  F  F39  1  0.49881738  0.27824173  0.76135365  1
