# generated using pymatgen
data_AlW3O8
_symmetry_space_group_name_H-M   'P 1'
_cell_length_a   5.24106046
_cell_length_b   5.61319780
_cell_length_c   9.32323052
_cell_angle_alpha   90.09163476
_cell_angle_beta   89.79345338
_cell_angle_gamma   89.23713190
_symmetry_Int_Tables_number   1
_chemical_formula_structural   AlW3O8
_chemical_formula_sum   'Al2 W6 O16'
_cell_volume   274.25466906
_cell_formula_units_Z   2
loop_
 _symmetry_equiv_pos_site_id
 _symmetry_equiv_pos_as_xyz
  1  'x, y, z'
loop_
 _atom_site_type_symbol
 _atom_site_label
 _atom_site_symmetry_multiplicity
 _atom_site_fract_x
 _atom_site_fract_y
 _atom_site_fract_z
 _atom_site_occupancy
  Al  Al0  1  0.25192380  0.66534753  0.24880096  1
  Al  Al1  1  0.74807520  0.33465147  0.75119904  1
  W  W2  1  0.75954131  0.36223555  0.25074176  1
  W  W3  1  0.24045869  0.63776345  0.74925824  1
  W  W4  1  0.24467885  0.15475911  0.49850396  1
  W  W5  1  0.25672885  0.16249189  0.00438391  1
  W  W6  1  0.75532115  0.84524089  0.50149604  1
  W  W7  1  0.74327115  0.83750811  0.99561609  1
  O  O8  1  0.41275752  0.39742684  0.14135728  1
  O  O9  1  0.08370191  0.40297191  0.36111876  1
  O  O10  1  0.58724248  0.60257216  0.85864272  1
  O  O11  1  0.91629709  0.59702709  0.63888124  1
  O  O12  1  0.40539914  0.87451009  0.61572717  1
  O  O13  1  0.10351147  0.87022549  0.88400894  1
  O  O14  1  0.59460086  0.12548991  0.38427283  1
  O  O15  1  0.89648853  0.12977451  0.11599106  1
  O  O16  1  0.93377661  0.62923569  0.14282144  1
  O  O17  1  0.57323424  0.62094582  0.35764027  1
  O  O18  1  0.06622339  0.37076531  0.85717856  1
  O  O19  1  0.42676576  0.37905518  0.64235973  1
  O  O20  1  0.40380011  0.88101298  0.11816527  1
  O  O21  1  0.59619989  0.11898802  0.88183473  1
  O  O22  1  0.09756476  0.88549122  0.37859850  1
  O  O23  1  0.90243524  0.11450978  0.62140150  1
