# generated using pymatgen
data_Mg30TiAlO32
_symmetry_space_group_name_H-M   'P 1'
_cell_length_a   8.52953803
_cell_length_b   8.52953803
_cell_length_c   8.52311208
_cell_angle_alpha   90.00000000
_cell_angle_beta   90.00000000
_cell_angle_gamma   90.00000000
_symmetry_Int_Tables_number   1
_chemical_formula_structural   Mg30TiAlO32
_chemical_formula_sum   'Mg30 Ti1 Al1 O32'
_cell_volume   620.08213514
_cell_formula_units_Z   1
loop_
 _symmetry_equiv_pos_site_id
 _symmetry_equiv_pos_as_xyz
  1  'x, y, z'
loop_
 _atom_site_type_symbol
 _atom_site_label
 _atom_site_symmetry_multiplicity
 _atom_site_fract_x
 _atom_site_fract_y
 _atom_site_fract_z
 _atom_site_occupancy
  Mg  Mg0  1  -0.00000000  0.50000000  -0.00000000  1
  Mg  Mg1  1  -0.00000000  0.50000000  0.50000000  1
  Mg  Mg2  1  0.50000000  0.00000000  -0.00000000  1
  Mg  Mg3  1  0.50000000  0.00000000  0.50000000  1
  Mg  Mg4  1  0.50000000  0.50000000  -0.00000000  1
  Mg  Mg5  1  0.50000000  0.50000000  0.50000000  1
  Mg  Mg6  1  -0.00000000  0.25020977  0.25153850  1
  Mg  Mg7  1  -0.00000000  0.25020977  0.74846150  1
  Mg  Mg8  1  -0.00000000  0.74979023  0.25153850  1
  Mg  Mg9  1  -0.00000000  0.74979023  0.74846150  1
  Mg  Mg10  1  0.50000000  0.25009394  0.25048116  1
  Mg  Mg11  1  0.50000000  0.25009394  0.74951884  1
  Mg  Mg12  1  0.50000000  0.74990606  0.25048116  1
  Mg  Mg13  1  0.50000000  0.74990606  0.74951884  1
  Mg  Mg14  1  0.25020977  0.00000000  0.25153850  1
  Mg  Mg15  1  0.25020977  0.00000000  0.74846150  1
  Mg  Mg16  1  0.25009394  0.50000000  0.25048116  1
  Mg  Mg17  1  0.25009394  0.50000000  0.74951884  1
  Mg  Mg18  1  0.74979023  0.00000000  0.25153850  1
  Mg  Mg19  1  0.74979023  0.00000000  0.74846150  1
  Mg  Mg20  1  0.74990606  0.50000000  0.25048116  1
  Mg  Mg21  1  0.74990606  0.50000000  0.74951884  1
  Mg  Mg22  1  0.25041002  0.25041002  -0.00000000  1
  Mg  Mg23  1  0.25050541  0.25050541  0.50000000  1
  Mg  Mg24  1  0.25041002  0.74958998  -0.00000000  1
  Mg  Mg25  1  0.25050541  0.74949459  0.50000000  1
  Mg  Mg26  1  0.74958998  0.25041002  -0.00000000  1
  Mg  Mg27  1  0.74949459  0.25050541  0.50000000  1
  Mg  Mg28  1  0.74958998  0.74958998  -0.00000000  1
  Mg  Mg29  1  0.74949459  0.74949459  0.50000000  1
  Ti  Ti30  1  -0.00000000  0.00000000  0.50000000  1
  Al  Al31  1  -0.00000000  0.00000000  -0.00000000  1
  O  O32  1  0.23707346  0.00000000  -0.00000000  1
  O  O33  1  0.25957386  0.00000000  0.50000000  1
  O  O34  1  0.24816131  0.50000000  -0.00000000  1
  O  O35  1  0.25095187  0.50000000  0.50000000  1
  O  O36  1  0.76292654  0.00000000  -0.00000000  1
  O  O37  1  0.74042614  0.00000000  0.50000000  1
  O  O38  1  0.75183869  0.50000000  -0.00000000  1
  O  O39  1  0.74904813  0.50000000  0.50000000  1
  O  O40  1  0.24971757  0.24971757  0.24941553  1
  O  O41  1  0.24971757  0.24971757  0.75058447  1
  O  O42  1  0.24971757  0.75028243  0.24941553  1
  O  O43  1  0.24971757  0.75028243  0.75058447  1
  O  O44  1  0.75028243  0.24971757  0.24941553  1
  O  O45  1  0.75028243  0.24971757  0.75058447  1
  O  O46  1  0.75028243  0.75028243  0.24941553  1
  O  O47  1  0.75028243  0.75028243  0.75058447  1
  O  O48  1  -0.00000000  0.00000000  0.22407860  1
  O  O49  1  -0.00000000  0.00000000  0.77592140  1
  O  O50  1  -0.00000000  0.50000000  0.24572608  1
  O  O51  1  -0.00000000  0.50000000  0.75427392  1
  O  O52  1  0.50000000  0.00000000  0.24572608  1
  O  O53  1  0.50000000  0.00000000  0.75427392  1
  O  O54  1  0.50000000  0.50000000  0.24863369  1
  O  O55  1  0.50000000  0.50000000  0.75136631  1
  O  O56  1  -0.00000000  0.23707346  -0.00000000  1
  O  O57  1  -0.00000000  0.25957386  0.50000000  1
  O  O58  1  -0.00000000  0.76292654  -0.00000000  1
  O  O59  1  -0.00000000  0.74042614  0.50000000  1
  O  O60  1  0.50000000  0.24816131  -0.00000000  1
  O  O61  1  0.50000000  0.25095187  0.50000000  1
  O  O62  1  0.50000000  0.75183869  -0.00000000  1
  O  O63  1  0.50000000  0.74904813  0.50000000  1
