# generated using pymatgen
data_LiHfMg30O31
_symmetry_space_group_name_H-M   'P 1'
_cell_length_a   8.57206937
_cell_length_b   8.57498313
_cell_length_c   8.54081921
_cell_angle_alpha   90.00000000
_cell_angle_beta   90.00000000
_cell_angle_gamma   90.00000000
_symmetry_Int_Tables_number   1
_chemical_formula_structural   LiHfMg30O31
_chemical_formula_sum   'Li1 Hf1 Mg30 O31'
_cell_volume   627.79590734
_cell_formula_units_Z   1
loop_
 _symmetry_equiv_pos_site_id
 _symmetry_equiv_pos_as_xyz
  1  'x, y, z'
loop_
 _atom_site_type_symbol
 _atom_site_label
 _atom_site_symmetry_multiplicity
 _atom_site_fract_x
 _atom_site_fract_y
 _atom_site_fract_z
 _atom_site_occupancy
  Li  Li0  1  0.99974167  -0.00000000  0.00000000  1
  Hf  Hf1  1  0.00004027  0.50000000  0.50000000  1
  Mg  Mg2  1  0.99807587  -0.00000000  0.50000000  1
  Mg  Mg3  1  -0.00006154  0.50000000  0.00000000  1
  Mg  Mg4  1  0.50057925  -0.00000000  0.00000000  1
  Mg  Mg5  1  0.50153248  -0.00000000  0.50000000  1
  Mg  Mg6  1  0.50006862  0.50000000  0.00000000  1
  Mg  Mg7  1  0.50041439  0.50000000  0.50000000  1
  Mg  Mg8  1  0.00008506  0.23994783  0.24203659  1
  Mg  Mg9  1  0.00008506  0.23994783  0.75796341  1
  Mg  Mg10  1  0.00008506  0.76005217  0.24203659  1
  Mg  Mg11  1  0.00008506  0.76005217  0.75796341  1
  Mg  Mg12  1  0.49992160  0.24795814  0.24894700  1
  Mg  Mg13  1  0.49992160  0.24795814  0.75105300  1
  Mg  Mg14  1  0.49992160  0.75204186  0.24894700  1
  Mg  Mg15  1  0.49992160  0.75204186  0.75105300  1
  Mg  Mg16  1  0.24799782  -0.00000000  0.24450121  1
  Mg  Mg17  1  0.24799782  -0.00000000  0.75549879  1
  Mg  Mg18  1  0.25595478  0.50000000  0.24419930  1
  Mg  Mg19  1  0.25595478  0.50000000  0.75580070  1
  Mg  Mg20  1  0.75187674  -0.00000000  0.24606773  1
  Mg  Mg21  1  0.75187674  -0.00000000  0.75393227  1
  Mg  Mg22  1  0.74402934  0.50000000  0.24452931  1
  Mg  Mg23  1  0.74402934  0.50000000  0.75547069  1
  Mg  Mg24  1  0.24783857  0.24645038  0.00000000  1
  Mg  Mg25  1  0.25318637  0.24643090  0.50000000  1
  Mg  Mg26  1  0.24783857  0.75354962  0.00000000  1
  Mg  Mg27  1  0.25318637  0.75356910  0.50000000  1
  Mg  Mg28  1  0.75217890  0.24584815  0.00000000  1
  Mg  Mg29  1  0.74717115  0.24574381  0.50000000  1
  Mg  Mg30  1  0.75217890  0.75415185  0.00000000  1
  Mg  Mg31  1  0.74717115  0.75425619  0.50000000  1
  O  O32  1  0.25627766  -0.00000000  0.00000000  1
  O  O33  1  0.24994022  0.50000000  0.00000000  1
  O  O34  1  0.25525351  0.50000000  0.50000000  1
  O  O35  1  0.74392350  -0.00000000  0.00000000  1
  O  O36  1  0.74855891  -0.00000000  0.50000000  1
  O  O37  1  0.75004635  0.50000000  0.00000000  1
  O  O38  1  0.74472355  0.50000000  0.50000000  1
  O  O39  1  0.24913104  0.25229534  0.25001702  1
  O  O40  1  0.24913104  0.25229534  0.74998298  1
  O  O41  1  0.24913104  0.74770466  0.25001702  1
  O  O42  1  0.24913104  0.74770466  0.74998298  1
  O  O43  1  0.75086136  0.25145365  0.25077365  1
  O  O44  1  0.75086136  0.25145365  0.74922635  1
  O  O45  1  0.75086136  0.74854635  0.25077365  1
  O  O46  1  0.75086136  0.74854635  0.74922635  1
  O  O47  1  0.99961814  -0.00000000  0.25586229  1
  O  O48  1  0.99961814  -0.00000000  0.74413771  1
  O  O49  1  -0.00001457  0.50000000  0.25432777  1
  O  O50  1  -0.00001457  0.50000000  0.74567223  1
  O  O51  1  0.50073319  -0.00000000  0.25070520  1
  O  O52  1  0.50073319  -0.00000000  0.74929480  1
  O  O53  1  0.49998569  0.50000000  0.25032369  1
  O  O54  1  0.49998569  0.50000000  0.74967631  1
  O  O55  1  0.00002464  0.25845290  0.00000000  1
  O  O56  1  0.99904843  0.24644867  0.50000000  1
  O  O57  1  0.00002464  0.74154710  0.00000000  1
  O  O58  1  0.99904843  0.75355133  0.50000000  1
  O  O59  1  0.49996498  0.25195183  0.00000000  1
  O  O60  1  0.50085037  0.25132362  0.50000000  1
  O  O61  1  0.49996498  0.74804817  0.00000000  1
  O  O62  1  0.50085037  0.74867638  0.50000000  1
