# generated using pymatgen
data_BaMgSbF7
_symmetry_space_group_name_H-M   'P 1'
_cell_length_a   5.82403570
_cell_length_b   9.97286774
_cell_length_c   10.72473204
_cell_angle_alpha   90.00000000
_cell_angle_beta   90.00000000
_cell_angle_gamma   95.23835704
_symmetry_Int_Tables_number   1
_chemical_formula_structural   BaMgSbF7
_chemical_formula_sum   'Ba4 Mg4 Sb4 F28'
_cell_volume   620.31589466
_cell_formula_units_Z   4
loop_
 _symmetry_equiv_pos_site_id
 _symmetry_equiv_pos_as_xyz
  1  'x, y, z'
loop_
 _atom_site_type_symbol
 _atom_site_label
 _atom_site_symmetry_multiplicity
 _atom_site_fract_x
 _atom_site_fract_y
 _atom_site_fract_z
 _atom_site_occupancy
  Ba  Ba0  1  0.26381136  0.47638992  0.33958075  1
  Ba  Ba1  1  0.73618864  0.02361008  0.83958075  1
  Ba  Ba2  1  0.73618864  0.52361008  0.66041925  1
  Ba  Ba3  1  0.26381136  0.97638992  0.16041925  1
  Mg  Mg4  1  0.69806153  0.80274883  0.36625956  1
  Mg  Mg5  1  0.30193847  0.69725117  0.86625956  1
  Mg  Mg6  1  0.69806153  0.30274883  0.13374044  1
  Mg  Mg7  1  0.30193847  0.19725117  0.63374044  1
  Sb  Sb8  1  0.20550586  0.84446451  0.58854273  1
  Sb  Sb9  1  0.79449414  0.15553549  0.41145727  1
  Sb  Sb10  1  0.20550586  0.34446451  0.91145727  1
  Sb  Sb11  1  0.79449414  0.65553549  0.08854273  1
  F  F12  1  0.13263481  0.13696555  0.47624638  1
  F  F13  1  0.42135077  0.40239464  0.11612441  1
  F  F14  1  0.47440237  0.76952550  0.71075428  1
  F  F15  1  0.52559763  0.23047450  0.28924572  1
  F  F16  1  0.88846961  0.35563121  0.46710859  1
  F  F17  1  0.14983146  0.52423109  0.79180034  1
  F  F18  1  0.03389361  0.77071720  0.75166378  1
  F  F19  1  0.11153039  0.14436879  0.96710859  1
  F  F20  1  0.42135077  0.90239464  0.38387559  1
  F  F21  1  0.52559763  0.73047450  0.21075428  1
  F  F22  1  0.13263481  0.63696555  0.02375362  1
  F  F23  1  0.86736519  0.86303445  0.52375362  1
  F  F24  1  0.96610639  0.72928280  0.25166378  1
  F  F25  1  0.40450672  0.86546562  0.95010998  1
  F  F26  1  0.11153039  0.64436879  0.53289141  1
  F  F27  1  0.88846961  0.85563121  0.03289141  1
  F  F28  1  0.96610639  0.22928280  0.24833622  1
  F  F29  1  0.86736519  0.36303445  0.97624638  1
  F  F30  1  0.59549328  0.63453438  0.45010998  1
  F  F31  1  0.57864923  0.59760536  0.88387559  1
  F  F32  1  0.59549328  0.13453438  0.04989002  1
  F  F33  1  0.03389361  0.27071720  0.74833622  1
  F  F34  1  0.40450672  0.36546562  0.54989002  1
  F  F35  1  0.85016854  0.97576891  0.29180034  1
  F  F36  1  0.85016854  0.47576891  0.20819966  1
  F  F37  1  0.14983146  0.02423109  0.70819966  1
  F  F38  1  0.57864923  0.09760536  0.61612441  1
  F  F39  1  0.47440237  0.26952550  0.78924572  1
