# generated using pymatgen
data_HoMgV2O6
_symmetry_space_group_name_H-M   'P 1'
_cell_length_a   5.21294043
_cell_length_b   5.47437924
_cell_length_c   7.59234003
_cell_angle_alpha   89.79779111
_cell_angle_beta   90.08960529
_cell_angle_gamma   90.18179958
_symmetry_Int_Tables_number   1
_chemical_formula_structural   HoMgV2O6
_chemical_formula_sum   'Ho2 Mg2 V4 O12'
_cell_volume   216.66455957
_cell_formula_units_Z   2
loop_
 _symmetry_equiv_pos_site_id
 _symmetry_equiv_pos_as_xyz
  1  'x, y, z'
loop_
 _atom_site_type_symbol
 _atom_site_label
 _atom_site_symmetry_multiplicity
 _atom_site_fract_x
 _atom_site_fract_y
 _atom_site_fract_z
 _atom_site_occupancy
  Ho  Ho0  1  0.01610148  0.93138534  0.74871141  1
  Ho  Ho1  1  0.51426396  0.56755456  0.25007929  1
  Mg  Mg2  1  0.49051579  0.44894331  0.74970380  1
  Mg  Mg3  1  0.98401463  0.05566422  0.25145250  1
  V  V4  1  0.99924775  0.49259483  0.99943725  1
  V  V5  1  0.00014812  0.49440899  0.49937045  1
  V  V6  1  0.49835574  0.00879992  0.49893298  1
  V  V7  1  0.49937125  0.00874325  0.99931853  1
  O  O8  1  0.10892977  0.43949836  0.25036301  1
  O  O9  1  0.20646269  0.18356476  0.94250889  1
  O  O10  1  0.19774265  0.19915557  0.56559959  1
  O  O11  1  0.31566008  0.68708620  0.93729676  1
  O  O12  1  0.32968693  0.70311232  0.56067274  1
  O  O13  1  0.36611270  0.95716979  0.25144198  1
  O  O14  1  0.61523453  0.06003097  0.75001502  1
  O  O15  1  0.68194497  0.28880411  0.43850732  1
  O  O16  1  0.68952521  0.30232145  0.06315509  1
  O  O17  1  0.79847482  0.82064581  0.05936739  1
  O  O18  1  0.81447951  0.80975037  0.43554022  1
  O  O19  1  0.87372540  0.54076586  0.74852677  1
