# generated using pymatgen
data_BaYMnCuO5
_symmetry_space_group_name_H-M   'P 1'
_cell_length_a   3.90156595
_cell_length_b   3.90159814
_cell_length_c   7.85550630
_cell_angle_alpha   89.99883723
_cell_angle_beta   89.99765790
_cell_angle_gamma   89.98651289
_symmetry_Int_Tables_number   1
_chemical_formula_structural   BaYMnCuO5
_chemical_formula_sum   'Ba1 Y1 Mn1 Cu1 O5'
_cell_volume   119.57920349
_cell_formula_units_Z   1
loop_
 _symmetry_equiv_pos_site_id
 _symmetry_equiv_pos_as_xyz
  1  'x, y, z'
loop_
 _atom_site_type_symbol
 _atom_site_label
 _atom_site_symmetry_multiplicity
 _atom_site_fract_x
 _atom_site_fract_y
 _atom_site_fract_z
 _atom_site_occupancy
  Ba  Ba0  1  0.99999600  0.99998773  0.99051021  1
  Y  Y1  1  0.00000992  0.00000436  0.46009621  1
  Mn  Mn2  1  0.49997620  0.49998113  0.69866459  1
  Cu  Cu3  1  0.49999895  0.50000318  0.24432562  1
  O  O4  1  0.00001657  0.50000472  0.64205908  1
  O  O5  1  0.50000003  0.00000868  0.64206323  1
  O  O6  1  0.99999548  0.50000534  0.27926857  1
  O  O7  1  0.49999653  -0.00000321  0.27926529  1
  O  O8  1  0.50000531  0.50000307  0.95166521  1
