# generated using pymatgen
data_TiZn(GeO3)2
_symmetry_space_group_name_H-M   'P 1'
_cell_length_a   5.05527592
_cell_length_b   6.94537210
_cell_length_c   6.94537212
_cell_angle_alpha   79.32597862
_cell_angle_beta   79.96099258
_cell_angle_gamma   79.96098403
_symmetry_Int_Tables_number   1
_chemical_formula_structural   TiZn(GeO3)2
_chemical_formula_sum   'Ti2 Zn2 Ge4 O12'
_cell_volume   233.41314265
_cell_formula_units_Z   2
loop_
 _symmetry_equiv_pos_site_id
 _symmetry_equiv_pos_as_xyz
  1  'x, y, z'
loop_
 _atom_site_type_symbol
 _atom_site_label
 _atom_site_symmetry_multiplicity
 _atom_site_fract_x
 _atom_site_fract_y
 _atom_site_fract_z
 _atom_site_occupancy
  Ti  Ti0  1  0.75000000  0.89845770  0.10154230  1
  Ti  Ti1  1  0.25000000  0.10154230  0.89845770  1
  Zn  Zn2  1  0.75000000  0.34056711  0.65943289  1
  Zn  Zn3  1  0.25000000  0.65943289  0.34056711  1
  Ge  Ge4  1  0.87075599  0.41286340  0.16178469  1
  Ge  Ge5  1  0.62924401  0.83821531  0.58713660  1
  Ge  Ge6  1  0.12924401  0.58713660  0.83821531  1
  Ge  Ge7  1  0.37075599  0.16178469  0.41286340  1
  O  O8  1  0.65504620  0.30835367  0.39745803  1
  O  O9  1  0.84495380  0.60254197  0.69164633  1
  O  O10  1  0.34495380  0.69164633  0.60254197  1
  O  O11  1  0.15504620  0.39745803  0.30835367  1
  O  O12  1  0.11291722  0.15628449  0.65374502  1
  O  O13  1  0.38708278  0.34625498  0.84371551  1
  O  O14  1  0.88708278  0.84371551  0.34625498  1
  O  O15  1  0.61291722  0.65374502  0.15628449  1
  O  O16  1  0.89862366  0.18217440  0.04378088  1
  O  O17  1  0.60137634  0.95621912  0.81782560  1
  O  O18  1  0.10137634  0.81782560  0.95621912  1
  O  O19  1  0.39862366  0.04378088  0.18217440  1
