# generated using pymatgen
data_VZnAs2O7
_symmetry_space_group_name_H-M   'P 1'
_cell_length_a   7.84950188
_cell_length_b   8.16845115
_cell_length_c   11.07130001
_cell_angle_alpha   90.00000000
_cell_angle_beta   121.21062053
_cell_angle_gamma   90.00000000
_symmetry_Int_Tables_number   1
_chemical_formula_structural   VZnAs2O7
_chemical_formula_sum   'V4 Zn4 As8 O28'
_cell_volume   607.13150501
_cell_formula_units_Z   4
loop_
 _symmetry_equiv_pos_site_id
 _symmetry_equiv_pos_as_xyz
  1  'x, y, z'
loop_
 _atom_site_type_symbol
 _atom_site_label
 _atom_site_symmetry_multiplicity
 _atom_site_fract_x
 _atom_site_fract_y
 _atom_site_fract_z
 _atom_site_occupancy
  V  V0  1  0.81008677  0.05671548  0.70521808  1
  V  V1  1  0.18991323  0.55671548  0.79478192  1
  V  V2  1  0.18991323  0.94328452  0.29478192  1
  V  V3  1  0.81008677  0.44328452  0.20521808  1
  Zn  Zn4  1  0.26187284  0.93262479  0.88020115  1
  Zn  Zn5  1  0.73812716  0.43262479  0.61979885  1
  Zn  Zn6  1  0.73812716  0.06737521  0.11979885  1
  Zn  Zn7  1  0.26187284  0.56737521  0.38020115  1
  As  As8  1  0.45190203  0.21402802  0.76261415  1
  As  As9  1  0.54809797  0.71402802  0.73738585  1
  As  As10  1  0.54809797  0.78597198  0.23738585  1
  As  As11  1  0.45190203  0.28597198  0.26261315  1
  As  As12  1  0.02941251  0.28921435  0.96324009  1
  As  As13  1  0.97058749  0.78921435  0.53675991  1
  As  As14  1  0.97058749  0.71078565  0.03675991  1
  As  As15  1  0.02941251  0.21078565  0.46324009  1
  O  O16  1  0.76201067  0.30126718  0.07895110  1
  O  O17  1  0.23798933  0.80126718  0.42104890  1
  O  O18  1  0.23798933  0.69873282  0.92104890  1
  O  O19  1  0.76201067  0.19873282  0.57895110  1
  O  O20  1  0.35674356  0.39523963  0.78087162  1
  O  O21  1  0.64325644  0.89523963  0.71912838  1
  O  O22  1  0.64325644  0.60476037  0.21912838  1
  O  O23  1  0.35674356  0.10476037  0.28087162  1
  O  O24  1  0.46879853  0.07266139  0.88346836  1
  O  O25  1  0.53120147  0.57266139  0.61653164  1
  O  O26  1  0.53120147  0.92733861  0.11653164  1
  O  O27  1  0.46879853  0.42733861  0.38346836  1
  O  O28  1  0.30202142  0.15463053  0.58564646  1
  O  O29  1  0.69797858  0.65463053  0.91435354  1
  O  O30  1  0.69797858  0.84536947  0.41435354  1
  O  O31  1  0.30202142  0.34536947  0.08564646  1
  O  O32  1  0.00941903  0.08156151  0.32435515  1
  O  O33  1  0.99058097  0.58156151  0.17564485  1
  O  O34  1  0.99058097  0.91843849  0.67564485  1
  O  O35  1  0.00941903  0.41843849  0.82435515  1
  O  O36  1  0.67961842  0.26576493  0.27799873  1
  O  O37  1  0.32038158  0.76576493  0.22200127  1
  O  O38  1  0.32038158  0.73423507  0.72200127  1
  O  O39  1  0.67961842  0.23423507  0.77799873  1
  O  O40  1  0.05302273  0.40485691  0.38420584  1
  O  O41  1  0.94697727  0.90485691  0.11579416  1
  O  O42  1  0.94697727  0.59514309  0.61579416  1
  O  O43  1  0.05302273  0.09514309  0.88420584  1
