# generated using pymatgen
data_CaSn2(PO4)2
_symmetry_space_group_name_H-M   'P 1'
_cell_length_a   5.27865397
_cell_length_b   9.44528355
_cell_length_c   17.37777561
_cell_angle_alpha   86.78956690
_cell_angle_beta   81.26414954
_cell_angle_gamma   73.77360976
_symmetry_Int_Tables_number   1
_chemical_formula_structural   CaSn2(PO4)2
_chemical_formula_sum   'Ca4 Sn8 P8 O32'
_cell_volume   822.17875040
_cell_formula_units_Z   4
loop_
 _symmetry_equiv_pos_site_id
 _symmetry_equiv_pos_as_xyz
  1  'x, y, z'
loop_
 _atom_site_type_symbol
 _atom_site_label
 _atom_site_symmetry_multiplicity
 _atom_site_fract_x
 _atom_site_fract_y
 _atom_site_fract_z
 _atom_site_occupancy
  Ca  Ca0  1  0.46824099  0.83022524  0.83743982  1
  Ca  Ca1  1  0.13590505  0.66977476  0.66256018  1
  Ca  Ca2  1  0.86409495  0.33022524  0.33743982  1
  Ca  Ca3  1  0.53175901  0.16977476  0.16256018  1
  Sn  Sn4  1  0.18224806  0.20854962  0.97835919  1
  Sn  Sn5  1  0.36915487  0.29145038  0.52164081  1
  Sn  Sn6  1  0.81775194  0.79145038  0.02164081  1
  Sn  Sn7  1  0.50000000  0.50000000  -0.00000000  1
  Sn  Sn8  1  0.63084513  0.70854962  0.47835919  1
  Sn  Sn9  1  0.67714104  0.75000000  0.25000000  1
  Sn  Sn10  1  0.32285896  0.25000000  0.75000000  1
  Sn  Sn11  1  0.00000000  -0.00000000  0.50000000  1
  P  P12  1  0.05017355  0.59049410  0.86514042  1
  P  P13  1  0.72132172  0.42824046  0.61646693  1
  P  P14  1  0.94982645  0.40950590  0.13485958  1
  P  P15  1  0.23397088  0.92824046  0.11646693  1
  P  P16  1  0.49419294  0.09049410  0.36514042  1
  P  P17  1  0.50580706  0.90950590  0.63485958  1
  P  P18  1  0.27867828  0.57175954  0.38353307  1
  P  P19  1  0.76602912  0.07175954  0.88353307  1
  O  O20  1  0.74658103  0.33900811  0.10594300  1
  O  O21  1  0.67322338  0.93421031  0.91964897  1
  O  O22  1  0.80846787  0.83900811  0.60594300  1
  O  O23  1  0.76680394  0.29900232  0.55786615  1
  O  O24  1  0.20418245  0.37512732  0.06905544  1
  O  O25  1  0.56350172  0.39896502  0.69597873  1
  O  O26  1  0.62367342  0.20099768  0.94213385  1
  O  O27  1  0.92819720  0.96365426  0.12542394  1
  O  O28  1  0.23319606  0.70099768  0.44213385  1
  O  O29  1  0.52708265  0.56578969  0.58035103  1
  O  O30  1  0.82946544  0.57673661  0.14068800  1
  O  O31  1  0.59126437  0.16900181  0.29062254  1
  O  O32  1  0.32677662  0.06578969  0.08035103  1
  O  O33  1  0.98272560  0.46365426  0.62542394  1
  O  O34  1  0.25341797  0.66099189  0.89405700  1
  O  O35  1  0.17053456  0.42326339  0.85931200  1
  O  O36  1  0.94911129  0.66900181  0.79062254  1
  O  O37  1  0.37632658  0.79900232  0.05786615  1
  O  O38  1  0.45310995  0.07673661  0.64068800  1
  O  O39  1  0.40873563  0.83099819  0.70937746  1
  O  O40  1  0.01727440  0.53634574  0.37457606  1
  O  O41  1  0.35163479  0.87512732  0.56905544  1
  O  O42  1  0.07180280  0.03634574  0.87457606  1
  O  O43  1  0.34155352  0.89896502  0.19597873  1
  O  O44  1  0.47291735  0.43421031  0.41964897  1
  O  O45  1  0.19153213  0.16099189  0.39405700  1
  O  O46  1  0.05088871  0.33099819  0.20937746  1
  O  O47  1  0.64836521  0.12487268  0.43094456  1
  O  O48  1  0.79581755  0.62487268  0.93094456  1
  O  O49  1  0.65844648  0.10103498  0.80402127  1
  O  O50  1  0.43649828  0.60103498  0.30402127  1
  O  O51  1  0.54689005  0.92326339  0.35931200  1
