# generated using pymatgen
data_Sn2P2O9
_symmetry_space_group_name_H-M   'P 1'
_cell_length_a   6.59270995
_cell_length_b   8.00266701
_cell_length_c   14.45129120
_cell_angle_alpha   90.01634877
_cell_angle_beta   89.99997840
_cell_angle_gamma   90.00005421
_symmetry_Int_Tables_number   1
_chemical_formula_structural   Sn2P2O9
_chemical_formula_sum   'Sn8 P8 O36'
_cell_volume   762.43943368
_cell_formula_units_Z   4
loop_
 _symmetry_equiv_pos_site_id
 _symmetry_equiv_pos_as_xyz
  1  'x, y, z'
loop_
 _atom_site_type_symbol
 _atom_site_label
 _atom_site_symmetry_multiplicity
 _atom_site_fract_x
 _atom_site_fract_y
 _atom_site_fract_z
 _atom_site_occupancy
  Sn  Sn0  1  0.75000504  0.35649885  0.87384899  1
  Sn  Sn1  1  0.24999670  0.64352376  0.12614500  1
  Sn  Sn2  1  0.24999460  0.85660268  0.62613864  1
  Sn  Sn3  1  0.75000561  0.14339062  0.37386730  1
  Sn  Sn4  1  0.50000342  0.00000759  -0.00000298  1
  Sn  Sn5  1  0.49999704  0.49999924  0.50000296  1
  Sn  Sn6  1  0.00000211  0.49999878  0.50000187  1
  Sn  Sn7  1  -0.00000257  0.00000672  -0.00000308  1
  P  P8  1  0.25000087  0.35594534  0.93732181  1
  P  P9  1  0.74999940  0.64403651  0.06264510  1
  P  P10  1  0.74999751  0.85601911  0.56267836  1
  P  P11  1  0.25000111  0.14394319  0.43734573  1
  P  P12  1  0.75000137  0.39375799  0.68873099  1
  P  P13  1  0.75000051  0.10629804  0.18872046  1
  P  P14  1  0.25000040  0.89369016  0.81126617  1
  P  P15  1  0.25000134  0.60624300  0.31128620  1
  O  O16  1  0.05522847  0.59511872  0.37260927  1
  O  O17  1  0.55521945  0.40487817  0.62738416  1
  O  O18  1  0.94477166  0.09525139  0.12738727  1
  O  O19  1  0.44477844  0.90474452  0.87262117  1
  O  O20  1  0.94478307  0.40487832  0.62738337  1
  O  O21  1  0.44477322  0.59511847  0.37260955  1
  O  O22  1  0.05522203  0.90474362  0.87262191  1
  O  O23  1  0.55522964  0.09525113  0.12738791  1
  O  O24  1  0.24999836  0.32793302  0.48476795  1
  O  O25  1  0.75000131  0.67205153  0.51522893  1
  O  O26  1  0.74999915  0.82796346  0.01520575  1
  O  O27  1  0.24999940  0.17204038  0.98479197  1
  O  O28  1  0.75000216  0.13704195  0.95050781  1
  O  O29  1  0.24999947  0.86297420  0.04949959  1
  O  O30  1  0.24999744  0.63708017  0.54947350  1
  O  O31  1  0.75000123  0.36290705  0.45052672  1
  O  O32  1  0.75000379  0.22855443  0.74555061  1
  O  O33  1  0.24999970  0.77145864  0.25445020  1
  O  O34  1  0.24999834  0.72854064  0.75435041  1
  O  O35  1  0.75000385  0.27145388  0.24565595  1
  O  O36  1  0.43875510  0.13873954  0.37678482  1
  O  O37  1  0.93872665  0.86126642  0.62320340  1
  O  O38  1  0.56124136  0.63893666  0.12321145  1
  O  O39  1  0.06127515  0.36108544  0.87679475  1
  O  O40  1  0.56126159  0.86125527  0.62320104  1
  O  O41  1  0.06125378  0.13873034  0.37678296  1
  O  O42  1  0.43873722  0.36108002  0.87679948  1
  O  O43  1  0.93874967  0.63893684  0.12321487  1
  O  O44  1  0.75000351  0.51493049  0.98581339  1
  O  O45  1  0.25000049  0.03111077  0.73388278  1
  O  O46  1  0.25000246  0.46890505  0.23378965  1
  O  O47  1  0.75000162  0.53110041  0.76620072  1
  O  O48  1  0.74999490  0.98505341  0.48576456  1
  O  O49  1  0.25000212  0.01495100  0.51420474  1
  O  O50  1  0.24999824  0.48509929  0.01421839  1
  O  O51  1  0.75000148  0.96887378  0.26612247  1
