# generated using pymatgen
data_MgTaBiO5
_symmetry_space_group_name_H-M   'P 1'
_cell_length_a   5.42378603
_cell_length_b   7.99325624
_cell_length_c   12.00180885
_cell_angle_alpha   90.00000000
_cell_angle_beta   90.00000000
_cell_angle_gamma   106.13567516
_symmetry_Int_Tables_number   1
_chemical_formula_structural   MgTaBiO5
_chemical_formula_sum   'Mg4 Ta4 Bi4 O20'
_cell_volume   499.82551116
_cell_formula_units_Z   4
loop_
 _symmetry_equiv_pos_site_id
 _symmetry_equiv_pos_as_xyz
  1  'x, y, z'
loop_
 _atom_site_type_symbol
 _atom_site_label
 _atom_site_symmetry_multiplicity
 _atom_site_fract_x
 _atom_site_fract_y
 _atom_site_fract_z
 _atom_site_occupancy
  Mg  Mg0  1  0.62380547  0.17114681  0.92284857  1
  Mg  Mg1  1  0.37619453  0.82885319  0.07715143  1
  Mg  Mg2  1  0.87619453  0.32885319  0.42284857  1
  Mg  Mg3  1  0.12380547  0.67114681  0.57715143  1
  Ta  Ta4  1  0.78467914  0.96904711  0.64452420  1
  Ta  Ta5  1  0.21532086  0.03095289  0.35547580  1
  Ta  Ta6  1  0.71532086  0.53095289  0.14452420  1
  Ta  Ta7  1  0.28467914  0.46904711  0.85547580  1
  Bi  Bi8  1  0.11254033  0.16586762  0.09349973  1
  Bi  Bi9  1  0.88745967  0.83413238  0.90650027  1
  Bi  Bi10  1  0.61254033  0.66586762  0.40650027  1
  Bi  Bi11  1  0.38745967  0.33413238  0.59349973  1
  O  O12  1  0.55424122  0.32523670  0.06562187  1
  O  O13  1  0.01601144  0.31872515  0.93850248  1
  O  O14  1  0.47954043  0.65004418  0.17568747  1
  O  O15  1  0.75645474  0.51448376  0.52676841  1
  O  O16  1  0.80374334  0.48158813  0.28996001  1
  O  O17  1  0.30374334  0.98158813  0.21003999  1
  O  O18  1  0.51601144  0.81872515  0.56149752  1
  O  O19  1  0.48398856  0.18127485  0.43850248  1
  O  O20  1  0.24354526  0.48551624  0.47323159  1
  O  O21  1  0.94575878  0.17476330  0.56562187  1
  O  O22  1  0.19625666  0.51841187  0.71003999  1
  O  O23  1  0.44575878  0.67476330  0.93437813  1
  O  O24  1  0.05424122  0.82523670  0.43437813  1
  O  O25  1  0.69625666  0.01841187  0.78996001  1
  O  O26  1  0.74354526  0.98551624  0.02676841  1
  O  O27  1  0.25645474  0.01448376  0.97323159  1
  O  O28  1  0.52045957  0.34995582  0.82431253  1
  O  O29  1  0.98398856  0.68127485  0.06149752  1
  O  O30  1  0.02045957  0.84995582  0.67568747  1
  O  O31  1  0.97954043  0.15004418  0.32431253  1
