# generated using pymatgen
data_Al(NiO2)2
_symmetry_space_group_name_H-M   'P 1'
_cell_length_a   5.78617825
_cell_length_b   5.78626883
_cell_length_c   5.79430375
_cell_angle_alpha   120.00933887
_cell_angle_beta   120.04545133
_cell_angle_gamma   89.87465717
_symmetry_Int_Tables_number   1
_chemical_formula_structural   Al(NiO2)2
_chemical_formula_sum   'Al2 Ni4 O8'
_cell_volume   137.21152483
_cell_formula_units_Z   2
loop_
 _symmetry_equiv_pos_site_id
 _symmetry_equiv_pos_as_xyz
  1  'x, y, z'
loop_
 _atom_site_type_symbol
 _atom_site_label
 _atom_site_symmetry_multiplicity
 _atom_site_fract_x
 _atom_site_fract_y
 _atom_site_fract_z
 _atom_site_occupancy
  Al  Al0  1  0.00001094  0.50000555  0.00000704  1
  Al  Al1  1  0.00000424  0.00000397  0.50001140  1
  Ni  Ni2  1  0.37116284  0.62118671  0.74999177  1
  Ni  Ni3  1  0.62886676  0.37881708  0.25002692  1
  Ni  Ni4  1  0.49999535  0.00001003  0.49999725  1
  Ni  Ni5  1  0.00000126  0.99998193  -0.00002204  1
  O  O6  1  0.76711271  0.77396804  0.50843874  1
  O  O7  1  0.76553448  0.25866690  0.99154342  1
  O  O8  1  0.22319399  0.24816518  0.97364002  1
  O  O9  1  0.23286416  0.22603655  0.49154975  1
  O  O10  1  0.22543010  0.75045755  0.47360113  1
  O  O11  1  0.23445245  0.74132534  0.00843195  1
  O  O12  1  0.77455221  0.24953130  0.52640848  1
  O  O13  1  0.77681950  0.75184787  0.02637618  1
