# generated using pymatgen
data_MgCo3(P2O7)2
_symmetry_space_group_name_H-M   'P 1'
_cell_length_a   7.31508949
_cell_length_b   7.54476040
_cell_length_c   9.58000776
_cell_angle_alpha   90.00000000
_cell_angle_beta   111.96677692
_cell_angle_gamma   90.00000000
_symmetry_Int_Tables_number   1
_chemical_formula_structural   MgCo3(P2O7)2
_chemical_formula_sum   'Mg2 Co6 P8 O28'
_cell_volume   490.34130346
_cell_formula_units_Z   2
loop_
 _symmetry_equiv_pos_site_id
 _symmetry_equiv_pos_as_xyz
  1  'x, y, z'
loop_
 _atom_site_type_symbol
 _atom_site_label
 _atom_site_symmetry_multiplicity
 _atom_site_fract_x
 _atom_site_fract_y
 _atom_site_fract_z
 _atom_site_occupancy
  Mg  Mg0  1  0.50000000  0.00000000  0.00000000  1
  Mg  Mg1  1  0.50000000  0.50000000  0.50000000  1
  Co  Co2  1  0.18715010  0.87114010  0.52190802  1
  Co  Co3  1  0.81284990  0.37114010  0.97809198  1
  Co  Co4  1  0.81284990  0.12885990  0.47809198  1
  Co  Co5  1  0.18715010  0.62885990  0.02190802  1
  Co  Co6  1  0.00000000  0.00000000  0.00000000  1
  Co  Co7  1  0.00000000  0.50000000  0.50000000  1
  P  P8  1  0.58771897  0.07360740  0.70514244  1
  P  P9  1  0.41228103  0.57360740  0.79485756  1
  P  P10  1  0.41228103  0.92639260  0.29485756  1
  P  P11  1  0.58771897  0.42639260  0.20514244  1
  P  P12  1  0.86879230  0.79267148  0.68769763  1
  P  P13  1  0.13120770  0.29267148  0.81230237  1
  P  P14  1  0.13120770  0.20732852  0.31230237  1
  P  P15  1  0.86879230  0.70732852  0.18769763  1
  O  O16  1  0.80597018  0.61689840  0.60212257  1
  O  O17  1  0.19402982  0.11689840  0.89787743  1
  O  O18  1  0.19402982  0.38310160  0.39787743  1
  O  O19  1  0.80597018  0.88310160  0.10212257  1
  O  O20  1  0.28875330  0.61561779  0.62542026  1
  O  O21  1  0.71124670  0.11561779  0.87457974  1
  O  O22  1  0.71124670  0.38438221  0.37457974  1
  O  O23  1  0.28875330  0.88438221  0.12542026  1
  O  O24  1  0.61545904  0.20925810  0.59662248  1
  O  O25  1  0.38454096  0.70925810  0.90337752  1
  O  O26  1  0.38454096  0.79074190  0.40337752  1
  O  O27  1  0.61545904  0.29074190  0.09662248  1
  O  O28  1  0.66562078  0.88522216  0.67147342  1
  O  O29  1  0.33437922  0.38522216  0.82852658  1
  O  O30  1  0.33437922  0.11477784  0.32852658  1
  O  O31  1  0.66562078  0.61477784  0.17147342  1
  O  O32  1  0.37890208  0.47271197  0.19009929  1
  O  O33  1  0.62109792  0.97271197  0.30990071  1
  O  O34  1  0.62109792  0.52728803  0.80990071  1
  O  O35  1  0.37890208  0.02728803  0.69009929  1
  O  O36  1  0.01652618  0.21496138  0.14131457  1
  O  O37  1  0.98347382  0.71496138  0.35868543  1
  O  O38  1  0.98347382  0.78503862  0.85868543  1
  O  O39  1  0.01652618  0.28503862  0.64131457  1
  O  O40  1  0.96788016  0.58572451  0.10916259  1
  O  O41  1  0.03211984  0.08572451  0.39083741  1
  O  O42  1  0.03211984  0.41427549  0.89083741  1
  O  O43  1  0.96788016  0.91427549  0.60916259  1
