# generated using pymatgen
data_Mg2Ni9O13
_symmetry_space_group_name_H-M   'P 1'
_cell_length_a   2.92083884
_cell_length_b   5.10160898
_cell_length_c   16.19677082
_cell_angle_alpha   98.59205501
_cell_angle_beta   90.01900581
_cell_angle_gamma   106.62118869
_symmetry_Int_Tables_number   1
_chemical_formula_structural   Mg2Ni9O13
_chemical_formula_sum   'Mg2 Ni9 O13'
_cell_volume   228.43166547
_cell_formula_units_Z   1
loop_
 _symmetry_equiv_pos_site_id
 _symmetry_equiv_pos_as_xyz
  1  'x, y, z'
loop_
 _atom_site_type_symbol
 _atom_site_label
 _atom_site_symmetry_multiplicity
 _atom_site_fract_x
 _atom_site_fract_y
 _atom_site_fract_z
 _atom_site_occupancy
  Mg  Mg0  1  0.21641027  0.43215536  0.22878248  1
  Mg  Mg1  1  0.78358973  0.56784464  0.77121752  1
  Ni  Ni2  1  0.50000000  -0.00000000  0.50000000  1
  Ni  Ni3  1  0.64737567  0.29473812  0.04095722  1
  Ni  Ni4  1  0.35262433  0.70526188  0.95904278  1
  Ni  Ni5  1  0.75127947  0.50216884  0.41831014  1
  Ni  Ni6  1  0.24872053  0.49783116  0.58168986  1
  Ni  Ni7  1  0.93804149  0.87621799  0.12409831  1
  Ni  Ni8  1  0.06195851  0.12378201  0.87590169  1
  Ni  Ni9  1  0.99572741  0.99122517  0.33291260  1
  Ni  Ni10  1  0.00427259  0.00877483  0.66708740  1
  O  O11  1  -0.00000000  -0.00000000  -0.00000000  1
  O  O12  1  0.86413616  0.72777196  0.22846386  1
  O  O13  1  0.13586384  0.27222804  0.77153614  1
  O  O14  1  0.29551730  0.59085078  0.07156881  1
  O  O15  1  0.70448270  0.40914922  0.92843119  1
  O  O16  1  0.58552045  0.17145155  0.14835982  1
  O  O17  1  0.41447955  0.82854845  0.85164018  1
  O  O18  1  0.63056088  0.26080218  0.30928874  1
  O  O19  1  0.36943912  0.73919782  0.69071126  1
  O  O20  1  0.38329918  0.76676868  0.38750053  1
  O  O21  1  0.61670082  0.23323132  0.61249947  1
  O  O22  1  0.12850143  0.25700245  0.46241140  1
  O  O23  1  0.87149857  0.74299755  0.53758860  1
