# generated using pymatgen
data_MgVAs2O7
_symmetry_space_group_name_H-M   'P 1'
_cell_length_a   7.84374217
_cell_length_b   8.23229248
_cell_length_c   10.82201824
_cell_angle_alpha   90.00000000
_cell_angle_beta   121.49301149
_cell_angle_gamma   90.00000000
_symmetry_Int_Tables_number   1
_chemical_formula_structural   MgVAs2O7
_chemical_formula_sum   'Mg4 V4 As8 O28'
_cell_volume   595.86874534
_cell_formula_units_Z   4
loop_
 _symmetry_equiv_pos_site_id
 _symmetry_equiv_pos_as_xyz
  1  'x, y, z'
loop_
 _atom_site_type_symbol
 _atom_site_label
 _atom_site_symmetry_multiplicity
 _atom_site_fract_x
 _atom_site_fract_y
 _atom_site_fract_z
 _atom_site_occupancy
  Mg  Mg0  1  0.27671338  0.91895386  0.87826282  1
  Mg  Mg1  1  0.72328662  0.41895386  0.62173718  1
  Mg  Mg2  1  0.72328662  0.08104614  0.12173718  1
  Mg  Mg3  1  0.27671338  0.58104614  0.37826282  1
  V  V4  1  0.81865885  0.04836111  0.70299041  1
  V  V5  1  0.18134115  0.54836111  0.79700959  1
  V  V6  1  0.18134115  0.95163889  0.29700959  1
  V  V7  1  0.81865885  0.45163889  0.20299041  1
  As  As8  1  0.45644434  0.21934096  0.76465526  1
  As  As9  1  0.54355566  0.71934096  0.73534474  1
  As  As10  1  0.54355566  0.78065904  0.23534474  1
  As  As11  1  0.45644434  0.28065904  0.26465426  1
  As  As12  1  0.03169596  0.27783754  0.96557236  1
  As  As13  1  0.96830404  0.77783754  0.53442764  1
  As  As14  1  0.96830404  0.72216246  0.03442764  1
  As  As15  1  0.03169596  0.22216246  0.46557236  1
  O  O16  1  0.76525957  0.31279824  0.07424982  1
  O  O17  1  0.23474043  0.81279824  0.42575018  1
  O  O18  1  0.23474043  0.68720176  0.92575018  1
  O  O19  1  0.76525957  0.18720176  0.57424982  1
  O  O20  1  0.35485897  0.39796406  0.78022887  1
  O  O21  1  0.64514103  0.89796406  0.71977113  1
  O  O22  1  0.64514103  0.60203594  0.21977113  1
  O  O23  1  0.35485897  0.10203594  0.28022887  1
  O  O24  1  0.47895340  0.08140472  0.89016730  1
  O  O25  1  0.52104660  0.58140472  0.60983270  1
  O  O26  1  0.52104660  0.91859528  0.10983270  1
  O  O27  1  0.47895340  0.41859528  0.39016730  1
  O  O28  1  0.30071795  0.15406061  0.58574822  1
  O  O29  1  0.69928205  0.65406061  0.91425178  1
  O  O30  1  0.69928205  0.84593939  0.41425178  1
  O  O31  1  0.30071795  0.34593939  0.08574822  1
  O  O32  1  0.00040727  0.09005644  0.32169879  1
  O  O33  1  0.99959273  0.59005644  0.17830121  1
  O  O34  1  0.99959273  0.90994356  0.67830121  1
  O  O35  1  0.00040727  0.40994356  0.82169879  1
  O  O36  1  0.67587125  0.25328253  0.26773820  1
  O  O37  1  0.32412875  0.75328253  0.23226180  1
  O  O38  1  0.32412875  0.74671747  0.73226180  1
  O  O39  1  0.67587125  0.24671747  0.76773820  1
  O  O40  1  0.06450301  0.40946984  0.38532335  1
  O  O41  1  0.93549699  0.90946984  0.11467665  1
  O  O42  1  0.93549699  0.59053016  0.61467665  1
  O  O43  1  0.06450301  0.09053016  0.88532335  1
