# generated using pymatgen
data_ReBiO5
_symmetry_space_group_name_H-M   'P 1'
_cell_length_a   5.95635584
_cell_length_b   9.23586914
_cell_length_c   12.12681031
_cell_angle_alpha   90.00000000
_cell_angle_beta   90.00000000
_cell_angle_gamma   105.21847537
_symmetry_Int_Tables_number   1
_chemical_formula_structural   ReBiO5
_chemical_formula_sum   'Re4 Bi4 O20'
_cell_volume   643.72689478
_cell_formula_units_Z   4
loop_
 _symmetry_equiv_pos_site_id
 _symmetry_equiv_pos_as_xyz
  1  'x, y, z'
loop_
 _atom_site_type_symbol
 _atom_site_label
 _atom_site_symmetry_multiplicity
 _atom_site_fract_x
 _atom_site_fract_y
 _atom_site_fract_z
 _atom_site_occupancy
  Re  Re0  1  0.77679074  0.94207511  0.64750081  1
  Re  Re1  1  0.22320926  0.05792489  0.35249919  1
  Re  Re2  1  0.72320926  0.55792489  0.14750081  1
  Re  Re3  1  0.27679074  0.44207511  0.85249919  1
  Bi  Bi4  1  0.13658093  0.14193801  0.07131343  1
  Bi  Bi5  1  0.86341907  0.85806199  0.92868657  1
  Bi  Bi6  1  0.63658093  0.64193801  0.42868657  1
  Bi  Bi7  1  0.36341907  0.35806199  0.57131343  1
  O  O8  1  0.56717155  0.38507560  0.09359416  1
  O  O9  1  0.08035364  0.33520978  0.95273440  1
  O  O10  1  0.52983323  0.65873553  0.19066644  1
  O  O11  1  0.69931035  0.51006050  0.56103118  1
  O  O12  1  0.86583856  0.52898069  0.26914185  1
  O  O13  1  0.36583856  0.02898069  0.23085815  1
  O  O14  1  0.58035364  0.83520978  0.54726560  1
  O  O15  1  0.41964636  0.16479022  0.45273440  1
  O  O16  1  0.30068965  0.48993950  0.43896882  1
  O  O17  1  0.93282845  0.11492440  0.59359416  1
  O  O18  1  0.13416144  0.47101931  0.73085815  1
  O  O19  1  0.43282845  0.61492440  0.90640584  1
  O  O20  1  0.06717155  0.88507560  0.40640584  1
  O  O21  1  0.63416144  0.97101931  0.76914185  1
  O  O22  1  0.80068965  0.98993950  0.06103118  1
  O  O23  1  0.19931035  0.01006050  0.93896882  1
  O  O24  1  0.47016677  0.34126447  0.80933356  1
  O  O25  1  0.91964636  0.66479022  0.04726560  1
  O  O26  1  0.97016677  0.84126447  0.69066644  1
  O  O27  1  0.02983323  0.15873553  0.30933356  1
