# generated using pymatgen
data_YFe3Se2ClO8
_symmetry_space_group_name_H-M   'P 1'
_cell_length_a   6.51620330
_cell_length_b   7.25912992
_cell_length_c   9.67287051
_cell_angle_alpha   89.98833993
_cell_angle_beta   89.97800027
_cell_angle_gamma   90.00078208
_symmetry_Int_Tables_number   1
_chemical_formula_structural   YFe3Se2ClO8
_chemical_formula_sum   'Y2 Fe6 Se4 Cl2 O16'
_cell_volume   457.54575199
_cell_formula_units_Z   2
loop_
 _symmetry_equiv_pos_site_id
 _symmetry_equiv_pos_as_xyz
  1  'x, y, z'
loop_
 _atom_site_type_symbol
 _atom_site_label
 _atom_site_symmetry_multiplicity
 _atom_site_fract_x
 _atom_site_fract_y
 _atom_site_fract_z
 _atom_site_occupancy
  Y  Y0  1  0.24999641  0.27237619  0.24994884  1
  Y  Y1  1  0.74999835  0.72764039  0.75004223  1
  Fe  Fe2  1  0.50002705  0.99994376  0.00008222  1
  Fe  Fe3  1  0.49998506  0.00001750  0.50004147  1
  Fe  Fe4  1  0.00000134  -0.00000533  0.99995538  1
  Fe  Fe5  1  0.75000695  0.20147400  0.74999958  1
  Fe  Fe6  1  0.24996319  0.79850238  0.25001241  1
  Fe  Fe7  1  0.00000896  0.00001341  0.49994869  1
  Se  Se8  1  0.74998591  0.41447807  0.06289226  1
  Se  Se9  1  0.24998552  0.58549784  0.93712740  1
  Se  Se10  1  0.74998365  0.41444385  0.43705637  1
  Se  Se11  1  0.25002526  0.58555353  0.56292896  1
  Cl  Cl12  1  0.25000799  0.12804477  0.75028388  1
  Cl  Cl13  1  0.75002734  0.87200020  0.24969922  1
  O  O14  1  0.24990070  0.00886083  0.11340946  1
  O  O15  1  0.24990625  0.57552920  0.11739951  1
  O  O16  1  0.74997606  0.42446549  0.61734009  1
  O  O17  1  0.54197042  0.27137492  0.09126460  1
  O  O18  1  0.45804330  0.72864798  0.59126588  1
  O  O19  1  0.04198803  0.72867972  0.59129044  1
  O  O20  1  0.74999091  0.99112812  0.88661134  1
  O  O21  1  0.95801581  0.27143270  0.09125014  1
  O  O22  1  0.95802075  0.27133158  0.40870045  1
  O  O23  1  0.04196109  0.72857299  0.90872968  1
  O  O24  1  0.25011936  0.00883184  0.38663229  1
  O  O25  1  0.74999614  0.99117570  0.61334228  1
  O  O26  1  0.45800108  0.72860620  0.90873756  1
  O  O27  1  0.54197231  0.27137165  0.40874934  1
  O  O28  1  0.75003924  0.42447278  0.88258047  1
  O  O29  1  0.25009455  0.57553673  0.38267757  1
