# generated using pymatgen
data_Zn2FeWO6
_symmetry_space_group_name_H-M   'P 1'
_cell_length_a   5.33728726
_cell_length_b   5.61455640
_cell_length_c   7.73132092
_cell_angle_alpha   94.40182515
_cell_angle_beta   133.47926427
_cell_angle_gamma   118.40055937
_symmetry_Int_Tables_number   1
_chemical_formula_structural   Zn2FeWO6
_chemical_formula_sum   'Zn2 Fe1 W1 O6'
_cell_volume   114.48265270
_cell_formula_units_Z   1
loop_
 _symmetry_equiv_pos_site_id
 _symmetry_equiv_pos_as_xyz
  1  'x, y, z'
loop_
 _atom_site_type_symbol
 _atom_site_label
 _atom_site_symmetry_multiplicity
 _atom_site_fract_x
 _atom_site_fract_y
 _atom_site_fract_z
 _atom_site_occupancy
  Zn  Zn0  1  0.00086995  0.55032864  0.21239090  1
  Zn  Zn1  1  0.00732957  0.48443077  0.75570899  1
  Fe  Fe2  1  0.00283536  0.98295347  0.49986062  1
  W  W3  1  0.00480248  0.98857637  0.99919661  1
  O  O4  1  0.73507399  0.82595990  0.10313544  1
  O  O5  1  0.27868078  0.11437946  0.90619502  1
  O  O6  1  0.34276817  0.45408116  0.24213209  1
  O  O7  1  0.39614352  0.83661187  0.62819245  1
  O  O8  1  0.58749989  0.09454142  0.37474771  1
  O  O9  1  0.68674029  0.50413893  0.78808718  1
