# generated using pymatgen
data_Mn(PO3)4
_symmetry_space_group_name_H-M   'P 1'
_cell_length_a   7.46135192
_cell_length_b   7.46548676
_cell_length_c   10.07305477
_cell_angle_alpha   85.94221422
_cell_angle_beta   68.00201028
_cell_angle_gamma   113.60159846
_symmetry_Int_Tables_number   1
_chemical_formula_structural   Mn(PO3)4
_chemical_formula_sum   'Mn2 P8 O24'
_cell_volume   460.35921678
_cell_formula_units_Z   2
loop_
 _symmetry_equiv_pos_site_id
 _symmetry_equiv_pos_as_xyz
  1  'x, y, z'
loop_
 _atom_site_type_symbol
 _atom_site_label
 _atom_site_symmetry_multiplicity
 _atom_site_fract_x
 _atom_site_fract_y
 _atom_site_fract_z
 _atom_site_occupancy
  Mn  Mn0  1  0.00005170  -0.00005403  0.49995856  1
  Mn  Mn1  1  0.00000602  0.49999510  0.00002974  1
  P  P2  1  0.27520489  0.26528381  0.97355531  1
  P  P3  1  0.73779002  0.24869987  0.52742095  1
  P  P4  1  0.99371502  0.66209767  0.31411798  1
  P  P5  1  0.26216888  0.75124596  0.47255182  1
  P  P6  1  0.72477344  0.73476643  0.02648974  1
  P  P7  1  0.47651261  0.30828353  0.18606264  1
  P  P8  1  0.52348350  0.69164683  0.81392475  1
  P  P9  1  0.00615523  0.33785546  0.68591412  1
  O  O10  1  0.48784722  0.46287113  0.84684721  1
  O  O11  1  0.95845263  0.34120099  0.84332424  1
  O  O12  1  0.04157573  0.65882274  0.15669911  1
  O  O13  1  0.11264024  0.33588184  0.06519170  1
  O  O14  1  0.10038257  0.82314430  0.56413496  1
  O  O15  1  0.18915169  0.66360081  0.34724433  1
  O  O16  1  0.04684083  0.16238178  0.64360178  1
  O  O17  1  0.21288006  0.54757365  0.57723222  1
  O  O18  1  0.37600818  0.21095313  0.07712788  1
  O  O19  1  0.50069200  0.88896363  0.40045343  1
  O  O20  1  0.51219071  0.53717325  0.15311890  1
  O  O21  1  0.31477103  0.19888470  0.34339105  1
  O  O22  1  0.30569816  0.69060515  0.85651983  1
  O  O23  1  0.79217462  0.90179844  0.09740063  1
  O  O24  1  0.20781490  0.09818551  0.90256073  1
  O  O25  1  0.89943891  0.17693040  0.43591780  1
  O  O26  1  0.68524385  0.80112714  0.65659730  1
  O  O27  1  0.88747532  0.66409643  0.93475908  1
  O  O28  1  0.49935621  0.11103810  0.59955408  1
  O  O29  1  0.62406571  0.78905612  0.92286251  1
  O  O30  1  0.78709341  0.45244066  0.42276585  1
  O  O31  1  0.95315336  0.83764047  0.35640246  1
  O  O32  1  0.81084238  0.33636396  0.65278692  1
  O  O33  1  0.69434996  0.30944504  0.14347339  1
