# generated using pymatgen
data_Mg2Ta2SnO8
_symmetry_space_group_name_H-M   'P 1'
_cell_length_a   5.33246563
_cell_length_b   6.06065671
_cell_length_c   10.86530354
_cell_angle_alpha   106.20116242
_cell_angle_beta   91.92150032
_cell_angle_gamma   89.99226458
_symmetry_Int_Tables_number   1
_chemical_formula_structural   Mg2Ta2SnO8
_chemical_formula_sum   'Mg4 Ta4 Sn2 O16'
_cell_volume   336.99760467
_cell_formula_units_Z   2
loop_
 _symmetry_equiv_pos_site_id
 _symmetry_equiv_pos_as_xyz
  1  'x, y, z'
loop_
 _atom_site_type_symbol
 _atom_site_label
 _atom_site_symmetry_multiplicity
 _atom_site_fract_x
 _atom_site_fract_y
 _atom_site_fract_z
 _atom_site_occupancy
  Mg  Mg0  1  0.75969330  0.41216625  0.54295113  1
  Mg  Mg1  1  0.74080442  0.86957260  0.45659888  1
  Mg  Mg2  1  0.24093631  0.58649845  0.45722608  1
  Mg  Mg3  1  0.25956061  0.12915234  0.54319564  1
  Ta  Ta4  1  0.72857848  0.29314069  0.25494033  1
  Ta  Ta5  1  0.77241972  0.03732642  0.74494538  1
  Ta  Ta6  1  0.27233915  0.70609190  0.74511051  1
  Ta  Ta7  1  0.22874650  0.96213023  0.25513636  1
  Sn  Sn8  1  0.75078660  0.68770318  0.00030404  1
  Sn  Sn9  1  0.25052617  0.31316965  0.99945445  1
  O  O10  1  0.03703770  0.17271136  0.17026729  1
  O  O11  1  0.46463107  0.00138416  0.83034448  1
  O  O12  1  0.96454723  0.82762393  0.83039439  1
  O  O13  1  0.53722998  0.99736464  0.17003201  1
  O  O14  1  0.61618969  0.44739383  0.13915339  1
  O  O15  1  0.88499130  0.30768512  0.86035718  1
  O  O16  1  0.38460187  0.55145718  0.86083319  1
  O  O17  1  0.11573646  0.69248008  0.13897833  1
  O  O18  1  0.44437016  0.30091440  0.38168910  1
  O  O19  1  0.05673875  0.91857187  0.61839933  1
  O  O20  1  0.37375218  0.84433450  0.39380096  1
  O  O21  1  0.12660823  0.45030808  0.60629993  1
  O  O22  1  0.62676921  0.15385996  0.60593706  1
  O  O23  1  0.87391417  0.54860926  0.39403314  1
  O  O24  1  0.94461773  0.08022608  0.38193542  1
  O  O25  1  0.55621598  0.69763786  0.61839699  1
