# generated using pymatgen
data_PbS
_symmetry_space_group_name_H-M   'P 1'
_cell_length_a   4.24449591
_cell_length_b   4.24449591
_cell_length_c   16.68675604
_cell_angle_alpha   86.85970184
_cell_angle_beta   86.85970184
_cell_angle_gamma   89.93459525
_symmetry_Int_Tables_number   1
_chemical_formula_structural   PbS
_chemical_formula_sum   'Pb2 S2'
_cell_volume   299.72166456
_cell_formula_units_Z   2
loop_
 _symmetry_equiv_pos_site_id
 _symmetry_equiv_pos_as_xyz
  1  'x, y, z'
loop_
 _atom_site_type_symbol
 _atom_site_label
 _atom_site_symmetry_multiplicity
 _atom_site_fract_x
 _atom_site_fract_y
 _atom_site_fract_z
 _atom_site_occupancy
  Pb  Pb0  1  0.23253993  0.23253993  0.08664510  1
  Pb  Pb1  1  0.76746007  0.76746007  0.91335490  1
  S  S2  1  0.73390089  0.73390089  0.07494589  1
  S  S3  1  0.26609911  0.26609911  0.92505411  1
