# generated using pymatgen
data_Ba2YFe2F11
_symmetry_space_group_name_H-M   'P 1'
_cell_length_a   7.92317736
_cell_length_b   7.92317666
_cell_length_c   13.71772580
_cell_angle_alpha   90.00000000
_cell_angle_beta   90.00000000
_cell_angle_gamma   119.99999859
_symmetry_Int_Tables_number   1
_chemical_formula_structural   Ba2YFe2F11
_chemical_formula_sum   'Ba6 Y3 Fe6 F33'
_cell_volume   745.78127096
_cell_formula_units_Z   3
loop_
 _symmetry_equiv_pos_site_id
 _symmetry_equiv_pos_as_xyz
  1  'x, y, z'
loop_
 _atom_site_type_symbol
 _atom_site_label
 _atom_site_symmetry_multiplicity
 _atom_site_fract_x
 _atom_site_fract_y
 _atom_site_fract_z
 _atom_site_occupancy
  Ba  Ba0  1  0.55368015  0.19089454  0.66503917  1
  Ba  Ba1  1  0.17982215  0.52074758  0.81560614  1
  Ba  Ba2  1  0.63721440  0.44631985  0.99837217  1
  Ba  Ba3  1  0.47925242  0.65907358  0.48227214  1
  Ba  Ba4  1  0.34092642  0.82017785  0.14893914  1
  Ba  Ba5  1  0.80910546  0.36278560  0.33170517  1
  Y  Y6  1  0.13433061  0.00608003  0.89300382  1
  Y  Y7  1  0.87175042  0.86566939  0.22633682  1
  Y  Y8  1  0.99391997  0.12824958  0.55966982  1
  Fe  Fe9  1  0.63351007  0.99429203  0.88610913  1
  Fe  Fe10  1  0.77234113  0.73823310  0.72311612  1
  Fe  Fe11  1  0.26176690  0.03410904  0.38978212  1
  Fe  Fe12  1  0.36078196  0.36648993  0.21944213  1
  Fe  Fe13  1  0.96589096  0.22765887  0.05644912  1
  Fe  Fe14  1  0.00570797  0.63921804  0.55277513  1
  F  F15  1  0.67380478  0.09590426  0.03097402  1
  F  F16  1  0.50759898  0.71661512  0.92754646  1
  F  F17  1  0.42209848  0.32619522  0.36430702  1
  F  F18  1  0.09066283  0.42020157  0.49100928  1
  F  F19  1  0.56521885  0.29898506  0.17875429  1
  F  F20  1  0.95195620  0.64658925  0.19105608  1
  F  F21  1  0.57979843  0.67046126  0.15767628  1
  F  F22  1  0.35341075  0.30536695  0.85772308  1
  F  F23  1  0.73376522  0.43478115  0.51208729  1
  F  F24  1  0.25754827  0.33961621  0.07480651  1
  F  F25  1  0.32953874  0.90933717  0.82434328  1
  F  F26  1  0.90409574  0.57790152  0.69764102  1
  F  F27  1  0.31803349  0.02438958  0.00953403  1
  F  F28  1  0.03107179  0.50125132  0.00724044  1
  F  F29  1  0.70635608  0.68196651  0.34286703  1
  F  F30  1  0.28338488  0.79098386  0.59421246  1
  F  F31  1  0.95820794  0.15353964  0.90240451  1
  F  F32  1  0.08206794  0.74245173  0.40813951  1
  F  F33  1  0.99376974  0.05924685  0.39306002  1
  F  F34  1  0.97561042  0.29364392  0.67620003  1
  F  F35  1  0.06547711  0.00623026  0.72639402  1
  F  F36  1  0.49874868  0.52982047  0.67390744  1
  F  F37  1  0.47017953  0.96892821  0.34057344  1
  F  F38  1  0.19533170  0.04179206  0.23573751  1
  F  F39  1  0.66038379  0.91793206  0.74147351  1
  F  F40  1  0.70101494  0.26623478  0.84542129  1
  F  F41  1  0.20901614  0.49240102  0.26087946  1
  F  F42  1  0.86816123  0.72183809  0.86871199  1
  F  F43  1  0.85367686  0.13183877  0.20204499  1
  F  F44  1  0.94075315  0.93452289  0.05972702  1
  F  F45  1  0.69463305  0.04804380  0.52438908  1
  F  F46  1  0.84646036  0.80466830  0.56907051  1
  F  F47  1  0.27816191  0.14632314  0.53537799  1
