# generated using pymatgen
data_MgV4O6
_symmetry_space_group_name_H-M   'P 1'
_cell_length_a   2.93633687
_cell_length_b   5.26949583
_cell_length_c   15.70180385
_cell_angle_alpha   90.00000000
_cell_angle_beta   90.00000000
_cell_angle_gamma   106.17764995
_symmetry_Int_Tables_number   1
_chemical_formula_structural   MgV4O6
_chemical_formula_sum   'Mg2 V8 O12'
_cell_volume   233.33384985
_cell_formula_units_Z   2
loop_
 _symmetry_equiv_pos_site_id
 _symmetry_equiv_pos_as_xyz
  1  'x, y, z'
loop_
 _atom_site_type_symbol
 _atom_site_label
 _atom_site_symmetry_multiplicity
 _atom_site_fract_x
 _atom_site_fract_y
 _atom_site_fract_z
 _atom_site_occupancy
  Mg  Mg0  1  0.65065675  0.30131350  0.75000000  1
  Mg  Mg1  1  0.34934325  0.69868650  0.25000000  1
  V  V2  1  0.86527594  0.73055588  0.04704936  1
  V  V3  1  0.39818952  0.79637804  0.63916941  1
  V  V4  1  0.13472206  0.26944312  0.95295064  1
  V  V5  1  0.60181048  0.20362196  0.36083159  1
  V  V6  1  0.86527594  0.73055588  0.45295064  1
  V  V7  1  0.13472206  0.26944312  0.54704936  1
  V  V8  1  0.60181048  0.20362196  0.13916841  1
  V  V9  1  0.39818952  0.79637804  0.86083059  1
  O  O10  1  0.49999900  0.00000000  0.50000000  1
  O  O11  1  0.49999900  0.00000000  -0.00000000  1
  O  O12  1  0.03703359  0.07406619  0.83651475  1
  O  O13  1  0.96296641  0.92593381  0.16348625  1
  O  O14  1  0.96296641  0.92593381  0.33651375  1
  O  O15  1  0.03703359  0.07406619  0.66348625  1
  O  O16  1  0.77739571  0.55479442  0.92058539  1
  O  O17  1  0.22260329  0.44520658  0.07941461  1
  O  O18  1  0.22260329  0.44520658  0.42058539  1
  O  O19  1  0.77739571  0.55479442  0.57941461  1
  O  O20  1  0.29135185  0.58270369  0.75000000  1
  O  O21  1  0.70864615  0.41729531  0.25000000  1
