# generated using pymatgen
data_MgCo3P3O13
_symmetry_space_group_name_H-M   'P 1'
_cell_length_a   6.28560998
_cell_length_b   7.52057261
_cell_length_c   10.04732546
_cell_angle_alpha   100.38990420
_cell_angle_beta   90.00000000
_cell_angle_gamma   90.00000000
_symmetry_Int_Tables_number   1
_chemical_formula_structural   MgCo3P3O13
_chemical_formula_sum   'Mg2 Co6 P6 O26'
_cell_volume   467.16335601
_cell_formula_units_Z   2
loop_
 _symmetry_equiv_pos_site_id
 _symmetry_equiv_pos_as_xyz
  1  'x, y, z'
loop_
 _atom_site_type_symbol
 _atom_site_label
 _atom_site_symmetry_multiplicity
 _atom_site_fract_x
 _atom_site_fract_y
 _atom_site_fract_z
 _atom_site_occupancy
  Mg  Mg0  1  0.75000000  0.63090716  0.17870757  1
  Mg  Mg1  1  0.25000000  0.36909284  0.82129243  1
  Co  Co2  1  0.25000000  0.35080185  0.20203279  1
  Co  Co3  1  0.75000000  0.64919815  0.79796721  1
  Co  Co4  1  0.25000000  0.79005867  0.43220809  1
  Co  Co5  1  0.50000000  0.00000000  0.00000000  1
  Co  Co6  1  0.75000000  0.20994133  0.56779191  1
  Co  Co7  1  -0.00000000  0.00000000  0.00000000  1
  P  P8  1  0.25000000  0.22096641  0.49613156  1
  P  P9  1  0.75000000  0.77903359  0.50386844  1
  P  P10  1  0.25000000  0.73330821  0.76157473  1
  P  P11  1  0.75000000  0.26669179  0.23842527  1
  P  P12  1  0.75000000  0.31788390  0.88845408  1
  P  P13  1  0.25000000  0.68211610  0.11154592  1
  O  O14  1  0.75000000  0.37013739  0.74562454  1
  O  O15  1  0.55938795  0.74670446  0.40513907  1
  O  O16  1  0.25000000  0.78205345  0.62121929  1
  O  O17  1  0.54102394  0.21104085  0.90104160  1
  O  O18  1  0.75000000  0.65275497  0.60697636  1
  O  O19  1  0.75000000  0.87565191  0.90720541  1
  O  O20  1  0.25000000  0.34724503  0.39302364  1
  O  O21  1  0.04102394  0.78895915  0.09895840  1
  O  O22  1  0.25000000  0.02406011  0.41236737  1
  O  O23  1  0.75000000  0.97593989  0.58763263  1
  O  O24  1  0.06179539  0.61103972  0.78871720  1
  O  O25  1  0.25000000  0.12434809  0.09279459  1
  O  O26  1  0.56179539  0.38896028  0.21128280  1
  O  O27  1  0.75000000  0.50867633  0.97777721  1
  O  O28  1  0.75000000  0.21794655  0.37878071  1
  O  O29  1  0.45897606  0.78895915  0.09895840  1
  O  O30  1  0.94061205  0.74670446  0.40513907  1
  O  O31  1  0.44061205  0.25329554  0.59486093  1
  O  O32  1  0.43820461  0.61103972  0.78871720  1
  O  O33  1  0.25000000  0.62986261  0.25437546  1
  O  O34  1  0.75000000  0.08880546  0.13039654  1
  O  O35  1  0.25000000  0.91119454  0.86960346  1
  O  O36  1  0.93820461  0.38896028  0.21128280  1
  O  O37  1  0.95897606  0.21104085  0.90104160  1
  O  O38  1  0.05938795  0.25329554  0.59486093  1
  O  O39  1  0.25000000  0.49132367  0.02222279  1
