# generated using pymatgen
data_Ba2YMn2F11
_symmetry_space_group_name_H-M   'P 1'
_cell_length_a   8.02298729
_cell_length_b   8.02298729
_cell_length_c   13.66651906
_cell_angle_alpha   90.00000000
_cell_angle_beta   90.00000000
_cell_angle_gamma   119.99999559
_symmetry_Int_Tables_number   1
_chemical_formula_structural   Ba2YMn2F11
_chemical_formula_sum   'Ba6 Y3 Mn6 F33'
_cell_volume   761.83473686
_cell_formula_units_Z   3
loop_
 _symmetry_equiv_pos_site_id
 _symmetry_equiv_pos_as_xyz
  1  'x, y, z'
loop_
 _atom_site_type_symbol
 _atom_site_label
 _atom_site_symmetry_multiplicity
 _atom_site_fract_x
 _atom_site_fract_y
 _atom_site_fract_z
 _atom_site_occupancy
  Ba  Ba0  1  0.55005546  0.17622010  0.66333330  1
  Ba  Ba1  1  0.16933943  0.51917543  0.81450248  1
  Ba  Ba2  1  0.62616465  0.44994454  0.99666630  1
  Ba  Ba3  1  0.48082457  0.65016300  0.48116848  1
  Ba  Ba4  1  0.34983700  0.83066057  0.14783548  1
  Ba  Ba5  1  0.82377990  0.37383535  0.32999930  1
  Y  Y6  1  0.12586343  0.00773022  0.89246542  1
  Y  Y7  1  0.88186780  0.87413657  0.22579842  1
  Y  Y8  1  0.99226978  0.11813220  0.55913142  1
  Mn  Mn9  1  0.61359706  0.99264903  0.89118014  1
  Mn  Mn10  1  0.75910705  0.73006874  0.72470241  1
  Mn  Mn11  1  0.26993126  0.02903831  0.39136841  1
  Mn  Mn12  1  0.37905298  0.38640294  0.22451314  1
  Mn  Mn13  1  0.97096169  0.24089295  0.05803541  1
  Mn  Mn14  1  0.00735097  0.62094702  0.55784614  1
  F  F15  1  0.67369994  0.09608894  0.03638588  1
  F  F16  1  0.48522089  0.70704455  0.93047675  1
  F  F17  1  0.42238900  0.32630006  0.36971888  1
  F  F18  1  0.09462889  0.40557703  0.48614049  1
  F  F19  1  0.58515918  0.31784578  0.17989106  1
  F  F20  1  0.96614072  0.66090885  0.19147227  1
  F  F21  1  0.59442297  0.68905186  0.15280749  1
  F  F22  1  0.33909115  0.30523088  0.85813927  1
  F  F23  1  0.73268461  0.41484082  0.51322406  1
  F  F24  1  0.26505640  0.34595656  0.07918109  1
  F  F25  1  0.31094814  0.90537111  0.81947449  1
  F  F26  1  0.90391106  0.57761100  0.70305288  1
  F  F27  1  0.32806456  0.02974175  0.00186330  1
  F  F28  1  0.02569420  0.50691756  0.00182456  1
  F  F29  1  0.70167719  0.67193544  0.33519630  1
  F  F30  1  0.29295545  0.77817635  0.59714275  1
  F  F31  1  0.95239769  0.15517903  0.90172107  1
  F  F32  1  0.08090116  0.73494460  0.41251409  1
  F  F33  1  0.99099452  0.04122371  0.39072549  1
  F  F34  1  0.97025825  0.29832281  0.66852930  1
  F  F35  1  0.05022919  0.00900548  0.72405949  1
  F  F36  1  0.49308244  0.51877665  0.66849156  1
  F  F37  1  0.48122335  0.97430580  0.33515756  1
  F  F38  1  0.20278134  0.04760231  0.23505407  1
  F  F39  1  0.65404344  0.91909884  0.74584809  1
  F  F40  1  0.68215422  0.26731539  0.84655806  1
  F  F41  1  0.22182365  0.51477911  0.26380975  1
  F  F42  1  0.85901902  0.73023414  0.87210430  1
  F  F43  1  0.87121512  0.14098098  0.20543730  1
  F  F44  1  0.95877629  0.94977081  0.05739249  1
  F  F45  1  0.69476912  0.03385928  0.52480527  1
  F  F46  1  0.84482097  0.79721866  0.56838707  1
  F  F47  1  0.26976586  0.12878488  0.53877030  1
