# generated using pymatgen
data_Sr2YMn2AlO7
_symmetry_space_group_name_H-M   'P 1'
_cell_length_a   11.81209964
_cell_length_b   11.81209964
_cell_length_c   11.81209964
_cell_angle_alpha   40.75594027
_cell_angle_beta   150.94189229
_cell_angle_gamma   152.05156213
_symmetry_Int_Tables_number   1
_chemical_formula_structural   Sr2YMn2AlO7
_chemical_formula_sum   'Sr4 Y2 Mn4 Al2 O14'
_cell_volume   374.38167138
_cell_formula_units_Z   2
loop_
 _symmetry_equiv_pos_site_id
 _symmetry_equiv_pos_as_xyz
  1  'x, y, z'
loop_
 _atom_site_type_symbol
 _atom_site_label
 _atom_site_symmetry_multiplicity
 _atom_site_fract_x
 _atom_site_fract_y
 _atom_site_fract_z
 _atom_site_occupancy
  Sr  Sr0  1  0.04045293  0.85452930  0.87405391  1
  Sr  Sr1  1  0.98047539  0.16639902  0.12594609  1
  Sr  Sr2  1  0.04045293  0.66639902  0.68592363  1
  Sr  Sr3  1  0.98047539  0.35452930  0.31407637  1
  Y  Y4  1  0.01074501  0.51074501  0.50000000  1
  Y  Y5  1  0.01074501  0.01074501  -0.00000000  1
  Mn  Mn6  1  0.51365368  0.43361028  0.91181862  1
  Mn  Mn7  1  0.52179066  0.60183506  0.08818138  1
  Mn  Mn8  1  0.51365368  0.10183506  0.58004440  1
  Mn  Mn9  1  0.52179066  0.93361028  0.41995560  1
  Al  Al10  1  0.57194078  0.74123199  0.33070879  1
  Al  Al11  1  0.41052221  0.24123199  0.66929121  1
  O  O12  1  0.01029253  0.93767209  0.57262043  1
  O  O13  1  0.36505166  0.43767209  0.42737957  1
  O  O14  1  0.42630114  0.15966816  0.13610230  1
  O  O15  1  0.02356686  0.29019984  0.86389770  1
  O  O16  1  0.42630114  0.79019984  0.76663298  1
  O  O17  1  0.02356686  0.65966816  0.23336702  1
  O  O18  1  0.63043303  0.75194645  0.73365520  1
  O  O19  1  0.01829225  0.89677783  0.26634480  1
  O  O20  1  0.63043303  0.39677783  0.37848658  1
  O  O21  1  0.01829225  0.25194645  0.62151342  1
  O  O22  1  0.47533017  0.85643932  0.25638452  1
  O  O23  1  0.60005481  0.21894465  0.74361548  1
  O  O24  1  0.47533017  0.71894465  0.11889084  1
  O  O25  1  0.60005481  0.35643932  0.88110916  1
