# generated using pymatgen
data_YNi3Se2ClO8
_symmetry_space_group_name_H-M   'P 1'
_cell_length_a   6.41588367
_cell_length_b   7.15707572
_cell_length_c   9.63638369
_cell_angle_alpha   90.00539811
_cell_angle_beta   90.01305152
_cell_angle_gamma   89.99466663
_symmetry_Int_Tables_number   1
_chemical_formula_structural   YNi3Se2ClO8
_chemical_formula_sum   'Y2 Ni6 Se4 Cl2 O16'
_cell_volume   442.49275210
_cell_formula_units_Z   2
loop_
 _symmetry_equiv_pos_site_id
 _symmetry_equiv_pos_as_xyz
  1  'x, y, z'
loop_
 _atom_site_type_symbol
 _atom_site_label
 _atom_site_symmetry_multiplicity
 _atom_site_fract_x
 _atom_site_fract_y
 _atom_site_fract_z
 _atom_site_occupancy
  Y  Y0  1  0.25002939  0.25923828  0.24999538  1
  Y  Y1  1  0.74997038  0.74075639  0.75000478  1
  Ni  Ni2  1  0.50000114  0.99999905  0.00000217  1
  Ni  Ni3  1  0.50000685  0.00000579  0.49999235  1
  Ni  Ni4  1  -0.00000099  0.99999942  0.00000021  1
  Ni  Ni5  1  0.75002578  0.20431955  0.74996829  1
  Ni  Ni6  1  0.24996968  0.79567898  0.25003331  1
  Ni  Ni7  1  0.99999883  0.00000289  0.50000043  1
  Se  Se8  1  0.74999060  0.40572007  0.05955404  1
  Se  Se9  1  0.25000960  0.59427932  0.94044760  1
  Se  Se10  1  0.75003018  0.40565970  0.44036277  1
  Se  Se11  1  0.24997080  0.59434162  0.55963661  1
  Cl  Cl12  1  0.24989644  0.14232761  0.75006134  1
  Cl  Cl13  1  0.75010239  0.85767707  0.24993995  1
  O  O14  1  0.25004688  0.99816712  0.11256274  1
  O  O15  1  0.25001726  0.57527876  0.11927388  1
  O  O16  1  0.74993864  0.42472995  0.61919027  1
  O  O17  1  0.53878091  0.25954869  0.08823010  1
  O  O18  1  0.46107450  0.74062275  0.58845034  1
  O  O19  1  0.03867355  0.74045444  0.58827023  1
  O  O20  1  0.74995160  0.00182940  0.88743581  1
  O  O21  1  0.96122386  0.25953745  0.08826327  1
  O  O22  1  0.96132496  0.25954742  0.41172985  1
  O  O23  1  0.03877591  0.74046204  0.91173595  1
  O  O24  1  0.24997228  0.99813760  0.38751656  1
  O  O25  1  0.75002556  0.00185933  0.61248620  1
  O  O26  1  0.46122049  0.74045134  0.91176972  1
  O  O27  1  0.53892696  0.25937848  0.41154894  1
  O  O28  1  0.74998392  0.42472118  0.88072360  1
  O  O29  1  0.25006163  0.57526933  0.38081230  1
