# generated using pymatgen
data_Sr2Ca6TiMn7O20
_symmetry_space_group_name_H-M   'P 1'
_cell_length_a   10.94783901
_cell_length_b   11.18285033
_cell_length_c   17.30870192
_cell_angle_alpha   108.76857993
_cell_angle_beta   108.33810776
_cell_angle_gamma   89.99692234
_symmetry_Int_Tables_number   1
_chemical_formula_structural   Sr2Ca6TiMn7O20
_chemical_formula_sum   'Sr8 Ca24 Ti4 Mn28 O80'
_cell_volume   1892.39273075
_cell_formula_units_Z   4
loop_
 _symmetry_equiv_pos_site_id
 _symmetry_equiv_pos_as_xyz
  1  'x, y, z'
loop_
 _atom_site_type_symbol
 _atom_site_label
 _atom_site_symmetry_multiplicity
 _atom_site_fract_x
 _atom_site_fract_y
 _atom_site_fract_z
 _atom_site_occupancy
  Sr  Sr0  1  0.31057331  0.56140207  0.61011159  1
  Sr  Sr1  1  0.80724634  0.06045638  0.60841221  1
  Sr  Sr2  1  0.20112642  0.44042401  0.89050533  1
  Sr  Sr3  1  0.05744676  0.29734081  0.60791999  1
  Sr  Sr4  1  0.06000538  0.80055196  0.60952563  1
  Sr  Sr5  1  0.56068608  0.30127962  0.61071118  1
  Sr  Sr6  1  0.44717419  0.20283210  0.88910742  1
  Sr  Sr7  1  0.94638765  0.19837828  0.38567519  1
  Ca  Ca8  1  0.30539041  0.06822158  0.11303193  1
  Ca  Ca9  1  0.30669752  0.06141379  0.60230681  1
  Ca  Ca10  1  0.31033089  0.56650688  0.11182040  1
  Ca  Ca11  1  0.80459580  0.06744055  0.10991991  1
  Ca  Ca12  1  0.80291590  0.56254270  0.11088860  1
  Ca  Ca13  1  0.80405079  0.56428618  0.60508886  1
  Ca  Ca14  1  0.20124780  0.43485451  0.39308112  1
  Ca  Ca15  1  0.19842268  0.93341078  0.39206231  1
  Ca  Ca16  1  0.19481495  0.93657056  0.89236522  1
  Ca  Ca17  1  0.69847292  0.43480474  0.39274792  1
  Ca  Ca18  1  0.69540673  0.43043012  0.89194706  1
  Ca  Ca19  1  0.69959827  0.93331832  0.39147996  1
  Ca  Ca20  1  0.69567502  0.94147523  0.88938545  1
  Ca  Ca21  1  0.05732850  0.29576918  0.11269571  1
  Ca  Ca22  1  0.05800314  0.79243541  0.11103419  1
  Ca  Ca23  1  0.55539215  0.29629000  0.11152907  1
  Ca  Ca24  1  0.55162981  0.79086447  0.11121343  1
  Ca  Ca25  1  0.55809355  0.79277125  0.60543787  1
  Ca  Ca26  1  0.44988696  0.20691527  0.39219570  1
  Ca  Ca27  1  0.44867969  0.70517231  0.39178736  1
  Ca  Ca28  1  0.43851723  0.70401739  0.89097877  1
  Ca  Ca29  1  0.94974090  0.20701648  0.89224983  1
  Ca  Ca30  1  0.94872353  0.70572071  0.39161446  1
  Ca  Ca31  1  0.95061214  0.70744760  0.89120478  1
  Ti  Ti32  1  0.00735540  0.00172464  0.00225966  1
  Ti  Ti33  1  0.00608025  0.50082978  0.00200511  1
  Ti  Ti34  1  0.50595846  0.00138421  0.00296069  1
  Ti  Ti35  1  0.75235167  0.74982800  0.99750114  1
  Mn  Mn36  1  0.00450581  0.99777971  0.49714605  1
  Mn  Mn37  1  0.00302035  0.50009281  0.49660293  1
  Mn  Mn38  1  0.50350597  0.99772300  0.49695613  1
  Mn  Mn39  1  0.50799828  0.50144042  0.00214393  1
  Mn  Mn40  1  0.50538500  0.50132664  0.49796754  1
  Mn  Mn41  1  0.25595439  0.25144788  0.00316341  1
  Mn  Mn42  1  0.25535941  0.24823902  0.49651429  1
  Mn  Mn43  1  0.25635957  0.75347578  0.00329908  1
  Mn  Mn44  1  0.25660987  0.74936088  0.49744614  1
  Mn  Mn45  1  0.75696423  0.24996823  0.00198302  1
  Mn  Mn46  1  0.75368633  0.24968861  0.49742624  1
  Mn  Mn47  1  0.75419000  0.74745482  0.49627018  1
  Mn  Mn48  1  0.11384122  0.08931608  0.24805370  1
  Mn  Mn49  1  0.10760539  0.09327363  0.75179776  1
  Mn  Mn50  1  0.11102551  0.59373659  0.25092320  1
  Mn  Mn51  1  0.10380000  0.59881603  0.74750948  1
  Mn  Mn52  1  0.60755976  0.09037127  0.24977747  1
  Mn  Mn53  1  0.60538007  0.09289179  0.74510563  1
  Mn  Mn54  1  0.61038907  0.59182287  0.25031719  1
  Mn  Mn55  1  0.61637374  0.60329196  0.75400177  1
  Mn  Mn56  1  0.35702532  0.40414564  0.25225772  1
  Mn  Mn57  1  0.36822909  0.40677281  0.75108164  1
  Mn  Mn58  1  0.35679877  0.90404485  0.25326020  1
  Mn  Mn59  1  0.36800472  0.90612576  0.75008440  1
  Mn  Mn60  1  0.85699669  0.40750453  0.25197700  1
  Mn  Mn61  1  0.85947565  0.40988624  0.75218836  1
  Mn  Mn62  1  0.85618886  0.89566881  0.24558918  1
  Mn  Mn63  1  0.85900138  0.90169134  0.75087299  1
  O  O64  1  0.12791406  0.11855773  0.48999704  1
  O  O65  1  0.12336546  0.12081931  0.98614739  1
  O  O66  1  0.12202363  0.62077000  0.48475624  1
  O  O67  1  0.12169727  0.62602208  0.99035374  1
  O  O68  1  0.61978460  0.11738863  0.48363529  1
  O  O69  1  0.62968859  0.11737363  0.99080300  1
  O  O70  1  0.62177893  0.61752361  0.48398049  1
  O  O71  1  0.62676247  0.62330064  0.98565336  1
  O  O72  1  0.13924594  0.38195785  0.01873580  1
  O  O73  1  0.13186674  0.37838794  0.50414205  1
  O  O74  1  0.13968329  0.88432038  0.01585901  1
  O  O75  1  0.13608594  0.87928823  0.50547904  1
  O  O76  1  0.64179811  0.37586311  0.01437883  1
  O  O77  1  0.63404645  0.38182025  0.50665077  1
  O  O78  1  0.64089738  0.88090544  0.01873344  1
  O  O79  1  0.63033380  0.87372907  0.50616949  1
  O  O80  1  0.37203838  0.11358455  0.48510291  1
  O  O81  1  0.37357925  0.11677751  0.99185852  1
  O  O82  1  0.37463263  0.61712258  0.48409462  1
  O  O83  1  0.37482210  0.62955902  0.99443860  1
  O  O84  1  0.87154538  0.11457758  0.48656358  1
  O  O85  1  0.87577817  0.11775099  0.98906677  1
  O  O86  1  0.87111974  0.61582505  0.48389294  1
  O  O87  1  0.87465854  0.61799648  0.98841015  1
  O  O88  1  0.38616611  0.38231111  0.01714794  1
  O  O89  1  0.38454234  0.37948892  0.50533405  1
  O  O90  1  0.38702189  0.88392034  0.01322335  1
  O  O91  1  0.38749908  0.88200391  0.51155022  1
  O  O92  1  0.88616128  0.38272316  0.01252908  1
  O  O93  1  0.88078903  0.38490411  0.50766180  1
  O  O94  1  0.89263960  0.88777622  0.01974836  1
  O  O95  1  0.88348159  0.87703748  0.50339019  1
  O  O96  1  0.08632533  0.09717731  0.12843071  1
  O  O97  1  0.07417324  0.07866180  0.63355547  1
  O  O98  1  0.07739059  0.59299229  0.12842452  1
  O  O99  1  0.06970094  0.58439161  0.62959376  1
  O  O100  1  0.58052430  0.09399179  0.12907208  1
  O  O101  1  0.57429952  0.08338839  0.62863942  1
  O  O102  1  0.58282534  0.59280807  0.12967909  1
  O  O103  1  0.57794586  0.59141968  0.62865695  1
  O  O104  1  0.44378840  0.40880165  0.36659956  1
  O  O105  1  0.44743719  0.41627418  0.87306775  1
  O  O106  1  0.44329448  0.90743027  0.36764897  1
  O  O107  1  0.46002476  0.90881052  0.87475743  1
  O  O108  1  0.94355319  0.41504676  0.36613468  1
  O  O109  1  0.95364571  0.40828370  0.87489469  1
  O  O110  1  0.94526397  0.90865251  0.36222350  1
  O  O111  1  0.95214308  0.90627809  0.87482154  1
  O  O112  1  0.33473113  0.28952184  0.14164082  1
  O  O113  1  0.32456266  0.29232165  0.62826693  1
  O  O114  1  0.33380510  0.79260813  0.14206900  1
  O  O115  1  0.32573257  0.79058393  0.62656967  1
  O  O116  1  0.83903078  0.29169321  0.14172094  1
  O  O117  1  0.82034969  0.29451181  0.62759060  1
  O  O118  1  0.83073599  0.78230439  0.13167290  1
  O  O119  1  0.82128450  0.78753027  0.62611474  1
  O  O120  1  0.19698111  0.21136546  0.36852526  1
  O  O121  1  0.19165446  0.20634298  0.86273496  1
  O  O122  1  0.20249331  0.71499556  0.37042918  1
  O  O123  1  0.19204605  0.71075342  0.86075367  1
  O  O124  1  0.69354830  0.21362016  0.36955788  1
  O  O125  1  0.69084708  0.20322214  0.85930294  1
  O  O126  1  0.69708411  0.71310311  0.36916332  1
  O  O127  1  0.71156930  0.72718876  0.87627458  1
  O  O128  1  0.41883303  0.06836627  0.25041491  1
  O  O129  1  0.42410672  0.07850296  0.74191623  1
  O  O130  1  0.42144822  0.56774447  0.24963272  1
  O  O131  1  0.43448992  0.57999254  0.75845182  1
  O  O132  1  0.92312527  0.05361721  0.23969824  1
  O  O133  1  0.93019697  0.07897027  0.75696320  1
  O  O134  1  0.92023793  0.57075510  0.24939806  1
  O  O135  1  0.92406253  0.58579768  0.75029892  1
  O  O136  1  0.17537872  0.41801355  0.25109739  1
  O  O137  1  0.18271251  0.44313994  0.74947225  1
  O  O138  1  0.17517239  0.91395793  0.25012089  1
  O  O139  1  0.18497924  0.93746386  0.75934952  1
  O  O140  1  0.67507614  0.41687422  0.25010883  1
  O  O141  1  0.67755207  0.43239169  0.76011902  1
  O  O142  1  0.67489982  0.91569211  0.24924754  1
  O  O143  1  0.66963510  0.92777197  0.74915640  1
