# generated using pymatgen
data_Ba3Sr5Co3Cu5O24
_symmetry_space_group_name_H-M   'P 1'
_cell_length_a   7.89010282
_cell_length_b   7.89891876
_cell_length_c   7.85341710
_cell_angle_alpha   89.85737883
_cell_angle_beta   89.97807383
_cell_angle_gamma   89.91097276
_symmetry_Int_Tables_number   1
_chemical_formula_structural   Ba3Sr5Co3Cu5O24
_chemical_formula_sum   'Ba3 Sr5 Co3 Cu5 O24'
_cell_volume   489.44857980
_cell_formula_units_Z   1
loop_
 _symmetry_equiv_pos_site_id
 _symmetry_equiv_pos_as_xyz
  1  'x, y, z'
loop_
 _atom_site_type_symbol
 _atom_site_label
 _atom_site_symmetry_multiplicity
 _atom_site_fract_x
 _atom_site_fract_y
 _atom_site_fract_z
 _atom_site_occupancy
  Ba  Ba0  1  0.24885768  0.75123363  0.24847706  1
  Ba  Ba1  1  0.24896736  0.75142713  0.75190111  1
  Ba  Ba2  1  0.75076571  0.75162643  0.75182307  1
  Sr  Sr3  1  0.24843784  0.24809208  0.24686275  1
  Sr  Sr4  1  0.24845449  0.24828441  0.75269344  1
  Sr  Sr5  1  0.75168065  0.24826971  0.24703318  1
  Sr  Sr6  1  0.75161889  0.24838225  0.75328722  1
  Sr  Sr7  1  0.75131947  0.75203588  0.24760525  1
  Co  Co8  1  0.99992926  0.49572799  0.49881099  1
  Co  Co9  1  0.50223588  0.00164187  0.49893812  1
  Co  Co10  1  0.50125543  0.49636052  0.49886509  1
  Cu  Cu11  1  0.99963673  0.00096903  0.00037701  1
  Cu  Cu12  1  0.00009095  0.00015362  0.49937876  1
  Cu  Cu13  1  0.99940160  0.49877616  0.00002316  1
  Cu  Cu14  1  0.50037508  0.00154283  0.00012708  1
  Cu  Cu15  1  0.50048691  0.49886467  0.00035747  1
  O  O16  1  0.25004375  0.01356742  0.00099399  1
  O  O17  1  0.25875563  0.00912889  0.49879875  1
  O  O18  1  0.25078328  0.48606602  0.00060688  1
  O  O19  1  0.24796689  0.48936090  0.49881102  1
  O  O20  1  0.74991138  0.00852667  0.00592807  1
  O  O21  1  0.74222536  0.00721503  0.49563122  1
  O  O22  1  0.74897725  0.49133285  0.00617486  1
  O  O23  1  0.75228263  0.49335977  0.49662333  1
  O  O24  1  0.99866000  0.25065347  0.00103213  1
  O  O25  1  0.99840740  0.25040697  0.49752115  1
  O  O26  1  0.99333615  0.74909953  0.00654278  1
  O  O27  1  0.99429406  0.74696667  0.49559928  1
  O  O28  1  0.50119363  0.25177754  0.00114382  1
  O  O29  1  0.50151795  0.24676655  0.49848523  1
  O  O30  1  0.50671169  0.74901099  0.00672016  1
  O  O31  1  0.50442294  0.75416889  0.49572613  1
  O  O32  1  0.99373557  0.00824421  0.25125543  1
  O  O33  1  0.99906432  0.01380056  0.74845460  1
  O  O34  1  0.99575430  0.49207369  0.25709314  1
  O  O35  1  0.99860923  0.49074196  0.74178021  1
  O  O36  1  0.50437255  0.00715516  0.25072354  1
  O  O37  1  0.50030648  0.01254204  0.74873495  1
  O  O38  1  0.50461510  0.49453717  0.26269995  1
  O  O39  1  0.50053855  0.49010884  0.73635864  1
