# generated using pymatgen
data_TeMoWS3
_symmetry_space_group_name_H-M   'P 1'
_cell_length_a   3.26977159
_cell_length_b   3.26977365
_cell_length_c   37.13128409
_cell_angle_alpha   89.99946712
_cell_angle_beta   90.00000000
_cell_angle_gamma   119.99998669
_symmetry_Int_Tables_number   1
_chemical_formula_structural   TeMoWS3
_chemical_formula_sum   'Te2 Mo2 W2 S6'
_cell_volume   343.79991428
_cell_formula_units_Z   2
loop_
 _symmetry_equiv_pos_site_id
 _symmetry_equiv_pos_as_xyz
  1  'x, y, z'
loop_
 _atom_site_type_symbol
 _atom_site_label
 _atom_site_symmetry_multiplicity
 _atom_site_fract_x
 _atom_site_fract_y
 _atom_site_fract_z
 _atom_site_occupancy
  Te  Te0  1  0.66664177  0.33328254  0.41785601  1
  Te  Te1  1  0.66664901  0.33329702  0.52146880  1
  Mo  Mo2  1  0.33330739  0.66661478  0.09392277  1
  Mo  Mo3  1  0.33331015  0.66662030  0.46965492  1
  W  W4  1  0.66669257  0.33338515  0.28175412  1
  W  W5  1  0.66669461  0.33338922  0.65758353  1
  S  S6  1  0.33335330  0.66670760  0.32334679  1
  S  S7  1  0.33335295  0.66670691  0.69915479  1
  S  S8  1  0.66664630  0.33329159  0.05246004  1
  S  S9  1  0.66664694  0.33329289  0.13540285  1
  S  S10  1  0.33335296  0.66670691  0.24017736  1
  S  S11  1  0.33335204  0.66670509  0.61596602  1
