# generated using pymatgen
data_Te4Mo3W(SeS)2
_symmetry_space_group_name_H-M   'P 1'
_cell_length_a   3.39211888
_cell_length_b   3.39214768
_cell_length_c   38.76555835
_cell_angle_alpha   89.99870691
_cell_angle_beta   90.00000000
_cell_angle_gamma   119.99971086
_symmetry_Int_Tables_number   1
_chemical_formula_structural   Te4Mo3W(SeS)2
_chemical_formula_sum   'Te4 Mo3 W1 Se2 S2'
_cell_volume   386.29915333
_cell_formula_units_Z   1
loop_
 _symmetry_equiv_pos_site_id
 _symmetry_equiv_pos_as_xyz
  1  'x, y, z'
loop_
 _atom_site_type_symbol
 _atom_site_label
 _atom_site_symmetry_multiplicity
 _atom_site_fract_x
 _atom_site_fract_y
 _atom_site_fract_z
 _atom_site_occupancy
  Te  Te0  1  0.66664237  0.33328374  0.04553515  1
  Te  Te1  1  0.66665083  0.33330065  0.42130041  1
  Te  Te2  1  0.66663773  0.33327446  0.14230258  1
  Te  Te3  1  0.66664738  0.33329376  0.51805353  1
  Mo  Mo4  1  0.33330820  0.66661639  0.09392726  1
  Mo  Mo5  1  0.33331104  0.66662208  0.46965045  1
  Mo  Mo6  1  0.66668844  0.33337689  0.28182276  1
  W  W7  1  0.66669248  0.33338495  0.65751337  1
  Se  Se8  1  0.33335053  0.66670206  0.32436111  1
  Se  Se9  1  0.33335197  0.66670493  0.23921003  1
  S  S10  1  0.33336435  0.66672970  0.69639949  1
  S  S11  1  0.33335469  0.66671038  0.61867185  1
