# generated using pymatgen
data_SrCa3Mn4O10
_symmetry_space_group_name_H-M   'P 1'
_cell_length_a   10.99701915
_cell_length_b   11.18815893
_cell_length_c   17.27463532
_cell_angle_alpha   108.85355326
_cell_angle_beta   108.49040574
_cell_angle_gamma   89.99940027
_symmetry_Int_Tables_number   1
_chemical_formula_structural   SrCa3Mn4O10
_chemical_formula_sum   'Sr8 Ca24 Mn32 O80'
_cell_volume   1895.06694433
_cell_formula_units_Z   8
loop_
 _symmetry_equiv_pos_site_id
 _symmetry_equiv_pos_as_xyz
  1  'x, y, z'
loop_
 _atom_site_type_symbol
 _atom_site_label
 _atom_site_symmetry_multiplicity
 _atom_site_fract_x
 _atom_site_fract_y
 _atom_site_fract_z
 _atom_site_occupancy
  Sr  Sr0  1  0.30816115  0.56103003  0.60994139  1
  Sr  Sr1  1  0.80638570  0.05953155  0.60980020  1
  Sr  Sr2  1  0.19831760  0.44098397  0.89238245  1
  Sr  Sr3  1  0.05708710  0.29860569  0.60869715  1
  Sr  Sr4  1  0.05778218  0.80039589  0.61001045  1
  Sr  Sr5  1  0.55790866  0.29933997  0.61010751  1
  Sr  Sr6  1  0.44823686  0.20031826  0.89053532  1
  Sr  Sr7  1  0.94621364  0.19968722  0.38736968  1
  Ca  Ca8  1  0.30574372  0.06336063  0.10697537  1
  Ca  Ca9  1  0.30610161  0.06034108  0.60434742  1
  Ca  Ca10  1  0.30621616  0.56415092  0.10843081  1
  Ca  Ca11  1  0.80515903  0.06250640  0.10520539  1
  Ca  Ca12  1  0.80616389  0.56341551  0.10709765  1
  Ca  Ca13  1  0.80533120  0.56266427  0.60609114  1
  Ca  Ca14  1  0.19944089  0.43674040  0.39227939  1
  Ca  Ca15  1  0.19942658  0.93552699  0.39237923  1
  Ca  Ca16  1  0.19964926  0.93820973  0.89569301  1
  Ca  Ca17  1  0.69811884  0.43725986  0.39280296  1
  Ca  Ca18  1  0.70112433  0.43808848  0.89556589  1
  Ca  Ca19  1  0.69827577  0.93557050  0.39199761  1
  Ca  Ca20  1  0.70021461  0.93692314  0.89402960  1
  Ca  Ca21  1  0.05627863  0.29372627  0.10748998  1
  Ca  Ca22  1  0.05589432  0.79347935  0.10696545  1
  Ca  Ca23  1  0.55664775  0.29388325  0.10808678  1
  Ca  Ca24  1  0.55642498  0.79373555  0.10717388  1
  Ca  Ca25  1  0.55653128  0.79418908  0.60625764  1
  Ca  Ca26  1  0.44892903  0.20610491  0.39172018  1
  Ca  Ca27  1  0.44908703  0.70624105  0.39265405  1
  Ca  Ca28  1  0.45109841  0.70731336  0.89532336  1
  Ca  Ca29  1  0.95015238  0.20686570  0.89528506  1
  Ca  Ca30  1  0.94859448  0.70501934  0.39171724  1
  Ca  Ca31  1  0.94885974  0.70763873  0.89438692  1
  Mn  Mn32  1  0.00608085  0.00022399  0.00044797  1
  Mn  Mn33  1  0.00466144  0.99792194  0.49784048  1
  Mn  Mn34  1  0.00576750  0.50113958  0.00187528  1
  Mn  Mn35  1  0.00317423  0.50019980  0.49736321  1
  Mn  Mn36  1  0.50683052  0.00003718  0.00158295  1
  Mn  Mn37  1  0.50380642  0.99835517  0.49774791  1
  Mn  Mn38  1  0.50761737  0.50180553  0.00228956  1
  Mn  Mn39  1  0.50493306  0.50013822  0.49800652  1
  Mn  Mn40  1  0.25604750  0.25069739  0.00247154  1
  Mn  Mn41  1  0.25453043  0.24765765  0.49696514  1
  Mn  Mn42  1  0.25628913  0.75200018  0.00165587  1
  Mn  Mn43  1  0.25517881  0.74968675  0.49758853  1
  Mn  Mn44  1  0.75669531  0.25058756  0.00084312  1
  Mn  Mn45  1  0.75286409  0.24991933  0.49785074  1
  Mn  Mn46  1  0.75620816  0.75033621  0.00032701  1
  Mn  Mn47  1  0.75330922  0.74775343  0.49731397  1
  Mn  Mn48  1  0.11144168  0.09444515  0.24741739  1
  Mn  Mn49  1  0.11209239  0.09521274  0.75326644  1
  Mn  Mn50  1  0.11005709  0.59623192  0.24979403  1
  Mn  Mn51  1  0.10917135  0.60045656  0.75115348  1
  Mn  Mn52  1  0.60750829  0.09568526  0.24917454  1
  Mn  Mn53  1  0.61092877  0.09412843  0.74951562  1
  Mn  Mn54  1  0.60934826  0.59602779  0.24947475  1
  Mn  Mn55  1  0.61498687  0.60169518  0.75297344  1
  Mn  Mn56  1  0.35916813  0.40363802  0.24998015  1
  Mn  Mn57  1  0.36612600  0.40479774  0.75195455  1
  Mn  Mn58  1  0.35906483  0.90305640  0.24989593  1
  Mn  Mn59  1  0.36404261  0.90324224  0.75047667  1
  Mn  Mn60  1  0.85858301  0.40583910  0.24873138  1
  Mn  Mn61  1  0.85981913  0.40686689  0.75260796  1
  Mn  Mn62  1  0.85876313  0.89983281  0.24744122  1
  Mn  Mn63  1  0.85940979  0.90088481  0.75214175  1
  O  O64  1  0.12723818  0.11658276  0.48925155  1
  O  O65  1  0.12326560  0.11986135  0.98899161  1
  O  O66  1  0.12239462  0.62093649  0.48555194  1
  O  O67  1  0.12254745  0.62549855  0.99163008  1
  O  O68  1  0.61984980  0.11850902  0.48476315  1
  O  O69  1  0.62801279  0.11904546  0.99136505  1
  O  O70  1  0.62334507  0.61976864  0.48758393  1
  O  O71  1  0.62545928  0.62147484  0.98894478  1
  O  O72  1  0.13437597  0.37965817  0.01451592  1
  O  O73  1  0.13267064  0.37788225  0.50537321  1
  O  O74  1  0.13606027  0.88112118  0.01247161  1
  O  O75  1  0.13608497  0.87961228  0.50721774  1
  O  O76  1  0.63824614  0.38208113  0.01400237  1
  O  O77  1  0.63479272  0.38204885  0.50823492  1
  O  O78  1  0.63565273  0.87918643  0.01231023  1
  O  O79  1  0.62998187  0.87408428  0.50743877  1
  O  O80  1  0.37153346  0.11458641  0.48576752  1
  O  O81  1  0.37344488  0.11652029  0.99240335  1
  O  O82  1  0.37501207  0.61954474  0.48667808  1
  O  O83  1  0.37838551  0.62372817  0.99237469  1
  O  O84  1  0.87064941  0.11537724  0.48813002  1
  O  O85  1  0.87455645  0.11791867  0.98819491  1
  O  O86  1  0.87052044  0.61686724  0.48646406  1
  O  O87  1  0.87347806  0.61803409  0.98841217  1
  O  O88  1  0.38720816  0.38440957  0.01572573  1
  O  O89  1  0.38285695  0.37871932  0.50511065  1
  O  O90  1  0.38612856  0.88228414  0.01229922  1
  O  O91  1  0.38493919  0.88076901  0.51020161  1
  O  O92  1  0.88562852  0.38235528  0.01265360  1
  O  O93  1  0.87930623  0.38461121  0.50829830  1
  O  O94  1  0.88609221  0.88226382  0.01239340  1
  O  O95  1  0.88162961  0.87687853  0.50464453  1
  O  O96  1  0.07984512  0.09387542  0.13103552  1
  O  O97  1  0.07864680  0.08275606  0.63477002  1
  O  O98  1  0.07830064  0.59462520  0.13246629  1
  O  O99  1  0.07354188  0.58633303  0.63274603  1
  O  O100  1  0.57912832  0.09343880  0.13291182  1
  O  O101  1  0.57550347  0.08560473  0.63100892  1
  O  O102  1  0.58016729  0.59521921  0.13327085  1
  O  O103  1  0.57816790  0.59153925  0.63281899  1
  O  O104  1  0.44557102  0.40676628  0.36554129  1
  O  O105  1  0.44784700  0.41245028  0.86943383  1
  O  O106  1  0.44436721  0.90484700  0.36543956  1
  O  O107  1  0.44916568  0.90812620  0.86785472  1
  O  O108  1  0.94391927  0.41320893  0.36423799  1
  O  O109  1  0.94396791  0.40576245  0.86810309  1
  O  O110  1  0.94534563  0.90731127  0.36421523  1
  O  O111  1  0.94654574  0.90456990  0.86894416  1
  O  O112  1  0.32876669  0.28908852  0.13456958  1
  O  O113  1  0.32638974  0.29139948  0.63334957  1
  O  O114  1  0.32913860  0.79039716  0.13438114  1
  O  O115  1  0.32703298  0.79502465  0.63224505  1
  O  O116  1  0.82992146  0.28960708  0.13407096  1
  O  O117  1  0.82336725  0.29799857  0.63451500  1
  O  O118  1  0.82747879  0.78653076  0.13175426  1
  O  O119  1  0.82375944  0.79147826  0.63270677  1
  O  O120  1  0.19382052  0.20872049  0.36448302  1
  O  O121  1  0.19374767  0.20699253  0.86877842  1
  O  O122  1  0.19670916  0.71130423  0.36680906  1
  O  O123  1  0.19548076  0.71091911  0.86763286  1
  O  O124  1  0.69007584  0.21065833  0.36522605  1
  O  O125  1  0.69495467  0.21070004  0.86696084  1
  O  O126  1  0.69395066  0.70934305  0.36559426  1
  O  O127  1  0.69907962  0.71546653  0.86965289  1
  O  O128  1  0.42514344  0.07168633  0.24932856  1
  O  O129  1  0.42674037  0.06578480  0.74330317  1
  O  O130  1  0.42657661  0.57210971  0.24981692  1
  O  O131  1  0.43716965  0.57325833  0.75743126  1
  O  O132  1  0.92673752  0.06177273  0.24131721  1
  O  O133  1  0.93425774  0.07076568  0.75746793  1
  O  O134  1  0.92508653  0.57266415  0.24911636  1
  O  O135  1  0.92820882  0.57474783  0.75154867  1
  O  O136  1  0.17707064  0.42599818  0.24964165  1
  O  O137  1  0.18561994  0.43962008  0.75059065  1
  O  O138  1  0.17802717  0.92537441  0.24943174  1
  O  O139  1  0.18651564  0.93404247  0.75861143  1
  O  O140  1  0.67650932  0.42591040  0.24945833  1
  O  O141  1  0.68461045  0.43542168  0.75819966  1
  O  O142  1  0.67742867  0.92740922  0.25006771  1
  O  O143  1  0.67718273  0.92580376  0.75077278  1
