# generated using pymatgen
data_Yb2CuGe6
_symmetry_space_group_name_H-M   'P 1'
_cell_length_a   4.09698420
_cell_length_b   3.99907432
_cell_length_c   11.21437103
_cell_angle_alpha   100.27083212
_cell_angle_beta   90.00000000
_cell_angle_gamma   90.00000000
_symmetry_Int_Tables_number   1
_chemical_formula_structural   Yb2CuGe6
_chemical_formula_sum   'Yb2 Cu1 Ge6'
_cell_volume   180.79364545
_cell_formula_units_Z   1
loop_
 _symmetry_equiv_pos_site_id
 _symmetry_equiv_pos_as_xyz
  1  'x, y, z'
loop_
 _atom_site_type_symbol
 _atom_site_label
 _atom_site_symmetry_multiplicity
 _atom_site_fract_x
 _atom_site_fract_y
 _atom_site_fract_z
 _atom_site_occupancy
  Yb  Yb0  1  0.00000000  0.00311093  0.00622185  1
  Yb  Yb1  1  0.00000000  0.66996690  0.33993379  1
  Cu  Cu2  1  0.50000000  0.22361916  0.44723833  1
  Ge  Ge3  1  0.00000000  0.28408622  0.56817244  1
  Ge  Ge4  1  0.00000000  0.39705305  0.79410610  1
  Ge  Ge5  1  0.50000000  0.55044628  0.10089257  1
  Ge  Ge6  1  0.50000000  0.11730326  0.23460653  1
  Ge  Ge7  1  0.50000000  0.89916728  0.79833456  1
  Ge  Ge8  1  0.50000000  0.78624692  0.57249384  1
