# generated using pymatgen
data_MgCu3(MoO3)4
_symmetry_space_group_name_H-M   'P 1'
_cell_length_a   6.65824776
_cell_length_b   6.62478981
_cell_length_c   6.63229550
_cell_angle_alpha   109.34689801
_cell_angle_beta   109.59737605
_cell_angle_gamma   109.61993533
_symmetry_Int_Tables_number   1
_chemical_formula_structural   MgCu3(MoO3)4
_chemical_formula_sum   'Mg1 Cu3 Mo4 O12'
_cell_volume   224.78235882
_cell_formula_units_Z   1
loop_
 _symmetry_equiv_pos_site_id
 _symmetry_equiv_pos_as_xyz
  1  'x, y, z'
loop_
 _atom_site_type_symbol
 _atom_site_label
 _atom_site_symmetry_multiplicity
 _atom_site_fract_x
 _atom_site_fract_y
 _atom_site_fract_z
 _atom_site_occupancy
  Mg  Mg0  1  0.00000002  0.00000007  0.00000009  1
  Cu  Cu1  1  0.49999926  0.50000072  0.00000066  1
  Cu  Cu2  1  0.99999941  0.49999921  0.49999938  1
  Cu  Cu3  1  0.50000063  0.00000063  0.50000005  1
  Mo  Mo4  1  0.00000005  0.99999993  0.49999989  1
  Mo  Mo5  1  0.99999980  0.50000010  0.00000010  1
  Mo  Mo6  1  0.50000023  0.49999995  0.50000018  1
  Mo  Mo7  1  0.49999987  0.99999985  0.99999998  1
  O  O8  1  0.82967188  0.30160160  0.13330201  1
  O  O9  1  0.17032798  0.69839819  0.86669850  1
  O  O10  1  0.83499226  0.70119076  0.52634809  1
  O  O11  1  0.30546163  0.47024259  0.17251749  1
  O  O12  1  0.47240393  0.17036468  0.30447960  1
  O  O13  1  0.13319546  0.82469954  0.29902050  1
  O  O14  1  0.69587158  0.86618245  0.16964551  1
  O  O15  1  0.52759624  0.82963476  0.69552035  1
  O  O16  1  0.16500831  0.29880828  0.47365097  1
  O  O17  1  0.69453815  0.52975742  0.82748330  1
  O  O18  1  0.86680395  0.17530053  0.70097871  1
  O  O19  1  0.30412837  0.13381774  0.83035463  1
