# generated using pymatgen
data_Mg2Ga
_symmetry_space_group_name_H-M   'P 1'
_cell_length_a   4.76013128
_cell_length_b   3.33300136
_cell_length_c   15.61641341
_cell_angle_alpha   90.00000000
_cell_angle_beta   90.00000000
_cell_angle_gamma   90.00000000
_symmetry_Int_Tables_number   1
_chemical_formula_structural   Mg2Ga
_chemical_formula_sum   'Mg8 Ga4'
_cell_volume   247.76258222
_cell_formula_units_Z   4
loop_
 _symmetry_equiv_pos_site_id
 _symmetry_equiv_pos_as_xyz
  1  'x, y, z'
loop_
 _atom_site_type_symbol
 _atom_site_label
 _atom_site_symmetry_multiplicity
 _atom_site_fract_x
 _atom_site_fract_y
 _atom_site_fract_z
 _atom_site_occupancy
  Mg  Mg0  1  0.00000000  0.50000000  0.49834150  1
  Mg  Mg1  1  0.00000000  0.50000000  0.17190693  1
  Mg  Mg2  1  0.00000000  -0.00000000  0.33563862  1
  Mg  Mg3  1  0.50000000  0.50000000  0.05281862  1
  Mg  Mg4  1  0.00000000  -0.00000000  0.99834150  1
  Mg  Mg5  1  0.00000000  0.00000000  0.67190693  1
  Mg  Mg6  1  0.00000000  0.50000000  0.83563862  1
  Mg  Mg7  1  0.50000000  0.00000000  0.55281862  1
  Ga  Ga8  1  0.50000000  0.50000000  0.38544399  1
  Ga  Ga9  1  0.50000000  -0.00000000  0.22251734  1
  Ga  Ga10  1  0.50000000  -0.00000000  0.88544399  1
  Ga  Ga11  1  0.50000000  0.50000000  0.72251734  1
