# generated using pymatgen
data_MnHO2
_symmetry_space_group_name_H-M   'P 1'
_cell_length_a   6.11736413
_cell_length_b   6.25815146
_cell_length_c   8.79356798
_cell_angle_alpha   89.96697722
_cell_angle_beta   90.67702180
_cell_angle_gamma   90.00190200
_symmetry_Int_Tables_number   1
_chemical_formula_structural   MnHO2
_chemical_formula_sum   'Mn8 H8 O16'
_cell_volume   336.62404581
_cell_formula_units_Z   8
loop_
 _symmetry_equiv_pos_site_id
 _symmetry_equiv_pos_as_xyz
  1  'x, y, z'
loop_
 _atom_site_type_symbol
 _atom_site_label
 _atom_site_symmetry_multiplicity
 _atom_site_fract_x
 _atom_site_fract_y
 _atom_site_fract_z
 _atom_site_occupancy
  Mn  Mn0  1  0.22842039  0.74607795  0.74854339  1
  Mn  Mn1  1  0.77163069  0.24613728  0.25140843  1
  Mn  Mn2  1  0.73051076  0.74742731  0.75529882  1
  Mn  Mn3  1  0.26935288  0.24728707  0.24468033  1
  Mn  Mn4  1  0.99594781  0.52290018  0.50085249  1
  Mn  Mn5  1  0.50389622  0.97743732  0.99574135  1
  Mn  Mn6  1  0.00388704  0.02307280  0.49925438  1
  Mn  Mn7  1  0.49606944  0.47761325  0.00455429  1
  H  H8  1  0.96832712  0.63090821  0.21406467  1
  H  H9  1  0.44986270  0.35172072  0.73241585  1
  H  H10  1  0.57504925  0.76249727  0.49550024  1
  H  H11  1  0.90312597  0.27075328  0.97364797  1
  H  H12  1  0.02990211  0.13224347  0.78527882  1
  H  H13  1  0.55281416  0.85177812  0.26769657  1
  H  H14  1  0.42459252  0.26136849  0.50471819  1
  H  H15  1  0.09692466  0.77049372  0.02599088  1
  O  O16  1  0.98045056  0.55382503  0.72706997  1
  O  O17  1  0.52787960  0.99145318  0.22187153  1
  O  O18  1  0.98973883  0.00466786  0.72720292  1
  O  O19  1  0.51867174  0.43923330  0.22774776  1
  O  O20  1  0.19276182  0.76814332  0.52092556  1
  O  O21  1  0.76366669  0.23869423  0.02162360  1
  O  O22  1  0.72914284  0.76697884  0.52833641  1
  O  O23  1  0.30463029  0.22759326  0.01890892  1
  O  O24  1  0.01934426  0.05397571  0.27311642  1
  O  O25  1  0.47263289  0.49158683  0.77830820  1
  O  O26  1  0.01015263  0.50432857  0.27274354  1
  O  O27  1  0.48128083  0.93937169  0.77243267  1
  O  O28  1  0.27043312  0.26637570  0.47150036  1
  O  O29  1  0.69553396  0.72739416  0.98127588  1
  O  O30  1  0.80698193  0.26795083  0.47908331  1
  O  O31  1  0.23645229  0.73872002  0.97850429  1
