# generated using pymatgen
data_MgSn
_symmetry_space_group_name_H-M   'P 1'
_cell_length_a   11.57895554
_cell_length_b   3.41071542
_cell_length_c   7.98360683
_cell_angle_alpha   90.00000000
_cell_angle_beta   110.04630144
_cell_angle_gamma   90.00000000
_symmetry_Int_Tables_number   1
_chemical_formula_structural   MgSn
_chemical_formula_sum   'Mg6 Sn6'
_cell_volume   296.19104842
_cell_formula_units_Z   6
loop_
 _symmetry_equiv_pos_site_id
 _symmetry_equiv_pos_as_xyz
  1  'x, y, z'
loop_
 _atom_site_type_symbol
 _atom_site_label
 _atom_site_symmetry_multiplicity
 _atom_site_fract_x
 _atom_site_fract_y
 _atom_site_fract_z
 _atom_site_occupancy
  Mg  Mg0  1  0.01197089  -0.00000000  0.00359944  1
  Mg  Mg1  1  0.38858610  0.00000000  0.27514625  1
  Mg  Mg2  1  0.32309267  -0.00000000  0.66474415  1
  Mg  Mg3  1  0.51197089  0.50000000  0.00359944  1
  Mg  Mg4  1  0.88858610  0.50000000  0.27514625  1
  Mg  Mg5  1  0.82309267  0.50000000  0.66474415  1
  Sn  Sn6  1  0.16791882  0.50000000  0.32722753  1
  Sn  Sn7  1  0.04075388  0.00000000  0.61596341  1
  Sn  Sn8  1  0.23434464  0.50000000  0.94665222  1
  Sn  Sn9  1  0.66791882  -0.00000000  0.32722753  1
  Sn  Sn10  1  0.54075388  0.50000000  0.61596341  1
  Sn  Sn11  1  0.73434464  -0.00000000  0.94665222  1
