# generated using pymatgen
data_Mg2Zn
_symmetry_space_group_name_H-M   'P 1'
_cell_length_a   11.60155560
_cell_length_b   3.06376355
_cell_length_c   7.00076626
_cell_angle_alpha   90.00000000
_cell_angle_beta   105.88176312
_cell_angle_gamma   90.00000000
_symmetry_Int_Tables_number   1
_chemical_formula_structural   Mg2Zn
_chemical_formula_sum   'Mg8 Zn4'
_cell_volume   239.33966137
_cell_formula_units_Z   4
loop_
 _symmetry_equiv_pos_site_id
 _symmetry_equiv_pos_as_xyz
  1  'x, y, z'
loop_
 _atom_site_type_symbol
 _atom_site_label
 _atom_site_symmetry_multiplicity
 _atom_site_fract_x
 _atom_site_fract_y
 _atom_site_fract_z
 _atom_site_occupancy
  Mg  Mg0  1  0.19863469  0.50000000  0.15546776  1
  Mg  Mg1  1  0.47473633  0.50000000  0.21859230  1
  Mg  Mg2  1  0.02526367  0.00000000  0.78140770  1
  Mg  Mg3  1  0.30136531  -0.00000000  0.84453224  1
  Mg  Mg4  1  0.69863469  0.00000000  0.15546776  1
  Mg  Mg5  1  0.97473633  0.00000000  0.21859230  1
  Mg  Mg6  1  0.52526367  0.50000000  0.78140770  1
  Mg  Mg7  1  0.80136531  0.50000000  0.84453224  1
  Zn  Zn8  1  0.35845006  0.00000000  0.47436074  1
  Zn  Zn9  1  0.14154994  0.50000000  0.52563926  1
  Zn  Zn10  1  0.85845006  0.50000000  0.47436074  1
  Zn  Zn11  1  0.64154994  -0.00000000  0.52563926  1
