# generated using pymatgen
data_MgNiSbP2O9
_symmetry_space_group_name_H-M   'P 1'
_cell_length_a   6.49083207
_cell_length_b   7.31408208
_cell_length_c   14.56698271
_cell_angle_alpha   90.09171998
_cell_angle_beta   89.99033798
_cell_angle_gamma   89.99725494
_symmetry_Int_Tables_number   1
_chemical_formula_structural   MgNiSbP2O9
_chemical_formula_sum   'Mg4 Ni4 Sb4 P8 O36'
_cell_volume   691.55901113
_cell_formula_units_Z   4
loop_
 _symmetry_equiv_pos_site_id
 _symmetry_equiv_pos_as_xyz
  1  'x, y, z'
loop_
 _atom_site_type_symbol
 _atom_site_label
 _atom_site_symmetry_multiplicity
 _atom_site_fract_x
 _atom_site_fract_y
 _atom_site_fract_z
 _atom_site_occupancy
  Mg  Mg0  1  0.74998802  0.94401858  0.80311596  1
  Mg  Mg1  1  0.75001083  0.55445855  0.30410660  1
  Mg  Mg2  1  0.25002553  0.05577549  0.19666590  1
  Mg  Mg3  1  0.24999092  0.44566362  0.69591258  1
  Ni  Ni4  1  0.49998685  0.99997265  0.99994176  1
  Ni  Ni5  1  0.49995133  0.50015285  0.50002801  1
  Ni  Ni6  1  0.00001274  0.50010521  0.50003781  1
  Ni  Ni7  1  0.00002575  0.99997885  0.99994602  1
  Sb  Sb8  1  0.75003940  0.36559784  0.88094023  1
  Sb  Sb9  1  0.24997776  0.63432259  0.11896472  1
  Sb  Sb10  1  0.24999063  0.86706852  0.61856708  1
  Sb  Sb11  1  0.74999860  0.13338252  0.38138151  1
  P  P12  1  0.25006878  0.36356077  0.91830709  1
  P  P13  1  0.74994549  0.63653668  0.08164753  1
  P  P14  1  0.74999891  0.86316024  0.58238433  1
  P  P15  1  0.24999245  0.13662111  0.41779063  1
  P  P16  1  0.75000927  0.38027935  0.68720756  1
  P  P17  1  0.24997286  0.61963098  0.31282471  1
  P  P18  1  0.24999148  0.88047187  0.81278584  1
  P  P19  1  0.75001630  0.11967519  0.18722519  1
  O  O20  1  0.04640080  0.61844542  0.36832698  1
  O  O21  1  0.54647396  0.38164158  0.63175828  1
  O  O22  1  0.95365839  0.11891261  0.13147610  1
  O  O23  1  0.45382024  0.88098073  0.86851021  1
  O  O24  1  0.95351630  0.38159594  0.63173974  1
  O  O25  1  0.45356918  0.61844987  0.36831485  1
  O  O26  1  0.04627222  0.88102149  0.86856623  1
  O  O27  1  0.54627352  0.11894853  0.13152582  1
  O  O28  1  0.24997442  0.31374845  0.47441453  1
  O  O29  1  0.75000671  0.68613139  0.52558119  1
  O  O30  1  0.74985189  0.81424899  0.02538087  1
  O  O31  1  0.25016050  0.18581580  0.97455762  1
  O  O32  1  0.75002895  0.11205030  0.93037439  1
  O  O33  1  0.24998374  0.88817559  0.06964847  1
  O  O34  1  0.24998545  0.61170942  0.56962527  1
  O  O35  1  0.74997581  0.38799381  0.43049946  1
  O  O36  1  0.75000292  0.20758670  0.75326924  1
  O  O37  1  0.24998240  0.79236200  0.24678736  1
  O  O38  1  0.24995012  0.70793727  0.74672097  1
  O  O39  1  0.75005276  0.29213843  0.25329792  1
  O  O40  1  0.43198401  0.12921376  0.34784291  1
  O  O41  1  0.93170429  0.87070437  0.65221639  1
  O  O42  1  0.56795897  0.62824354  0.15130207  1
  O  O43  1  0.06788765  0.37159433  0.84870644  1
  O  O44  1  0.56826448  0.87070722  0.65222233  1
  O  O45  1  0.06802598  0.12920209  0.34785327  1
  O  O46  1  0.43221490  0.37168215  0.84867573  1
  O  O47  1  0.93197690  0.62832337  0.15126518  1
  O  O48  1  0.75002737  0.95637069  0.25706417  1
  O  O49  1  0.24997316  0.04387466  0.74323528  1
  O  O50  1  0.24999257  0.45691300  0.24215196  1
  O  O51  1  0.75002592  0.54286973  0.75807841  1
  O  O52  1  0.75002380  0.03678600  0.52260055  1
  O  O53  1  0.24999540  0.96291680  0.47691391  1
  O  O54  1  0.24997276  0.53669838  0.97830414  1
  O  O55  1  0.75003564  0.46357015  0.02141072  1
