# generated using pymatgen
data_MgZn5
_symmetry_space_group_name_H-M   'P 1'
_cell_length_a   10.53222495
_cell_length_b   2.86526769
_cell_length_c   6.57922313
_cell_angle_alpha   90.00000000
_cell_angle_beta   105.23819812
_cell_angle_gamma   90.00000000
_symmetry_Int_Tables_number   1
_chemical_formula_structural   MgZn5
_chemical_formula_sum   'Mg2 Zn10'
_cell_volume   191.56488891
_cell_formula_units_Z   2
loop_
 _symmetry_equiv_pos_site_id
 _symmetry_equiv_pos_as_xyz
  1  'x, y, z'
loop_
 _atom_site_type_symbol
 _atom_site_label
 _atom_site_symmetry_multiplicity
 _atom_site_fract_x
 _atom_site_fract_y
 _atom_site_fract_z
 _atom_site_occupancy
  Mg  Mg0  1  0.38732114  -0.00000000  0.27426706  1
  Mg  Mg1  1  0.88732114  0.50000000  0.27426706  1
  Zn  Zn2  1  0.00235084  -0.00000000  0.99490070  1
  Zn  Zn3  1  0.16447776  0.50000000  0.33642411  1
  Zn  Zn4  1  0.05913590  -0.00000000  0.61905454  1
  Zn  Zn5  1  0.33340493  -0.00000000  0.66856381  1
  Zn  Zn6  1  0.21997642  0.50000000  0.94012279  1
  Zn  Zn7  1  0.50235084  0.50000000  0.99490070  1
  Zn  Zn8  1  0.66447776  -0.00000000  0.33642411  1
  Zn  Zn9  1  0.55913590  0.50000000  0.61905454  1
  Zn  Zn10  1  0.83340493  0.50000000  0.66856381  1
  Zn  Zn11  1  0.71997642  0.00000000  0.94012279  1
