# generated using pymatgen
data_V3Ni2P6WO24
_symmetry_space_group_name_H-M   'P 1'
_cell_length_a   8.55447153
_cell_length_b   8.69758550
_cell_length_c   8.69758578
_cell_angle_alpha   59.99999684
_cell_angle_beta   59.44502300
_cell_angle_gamma   59.44502561
_symmetry_Int_Tables_number   1
_chemical_formula_structural   V3Ni2P6WO24
_chemical_formula_sum   'V3 Ni2 P6 W1 O24'
_cell_volume   453.71292398
_cell_formula_units_Z   1
loop_
 _symmetry_equiv_pos_site_id
 _symmetry_equiv_pos_as_xyz
  1  'x, y, z'
loop_
 _atom_site_type_symbol
 _atom_site_label
 _atom_site_symmetry_multiplicity
 _atom_site_fract_x
 _atom_site_fract_y
 _atom_site_fract_z
 _atom_site_occupancy
  V  V0  1  0.07509066  0.64163611  0.64163611  1
  V  V1  1  0.42973237  0.85675588  0.85675588  1
  V  V2  1  0.92451919  0.35849327  0.35849327  1
  Ni  Ni3  1  0.01523316  0.99492195  0.99492195  1
  Ni  Ni4  1  0.50154183  0.49948639  0.49948639  1
  P  P5  1  0.24549897  0.25233155  0.54913328  1
  P  P6  1  0.24549897  0.95303720  0.25233155  1
  P  P7  1  0.24549897  0.54913328  0.95303720  1
  P  P8  1  0.74860622  0.46026344  0.04567514  1
  P  P9  1  0.74860622  0.04567514  0.74545520  1
  P  P10  1  0.74860622  0.74545520  0.46026344  1
  W  W11  1  0.57253428  0.14248857  0.14248857  1
  O  O12  1  0.06922152  0.10981014  0.31841772  1
  O  O13  1  0.06922152  0.50255063  0.10981014  1
  O  O14  1  0.06922152  0.31841772  0.50255063  1
  O  O15  1  0.22684862  0.09146166  0.74293951  1
  O  O16  1  0.43293540  0.17856124  0.38971670  1
  O  O17  1  0.28039650  0.40671608  0.55564751  1
  O  O18  1  0.22684862  0.93875020  0.09146166  1
  O  O19  1  0.28039650  0.75723991  0.40671608  1
  O  O20  1  0.56551196  0.61146660  0.00583046  1
  O  O21  1  0.28039650  0.55564751  0.75723991  1
  O  O22  1  0.76742799  0.25793961  0.06485025  1
  O  O23  1  0.56551196  0.00583046  0.81719198  1
  O  O24  1  0.43293540  0.99878566  0.17856124  1
  O  O25  1  0.22684862  0.74293951  0.93875020  1
  O  O26  1  0.72450672  0.43799670  0.24469231  1
  O  O27  1  0.43293540  0.38971670  0.99878566  1
  O  O28  1  0.72450672  0.24469231  0.59280327  1
  O  O29  1  0.76742799  0.06485025  0.90978215  1
  O  O30  1  0.72450672  0.59280327  0.43799670  1
  O  O31  1  0.56551196  0.81719198  0.61146660  1
  O  O32  1  0.76742799  0.90978215  0.25793961  1
  O  O33  1  0.93282826  0.68728718  0.49054110  1
  O  O34  1  0.93282826  0.49054110  0.88934447  1
  O  O35  1  0.93282826  0.88934447  0.68728718  1
