# generated using pymatgen
data_ZnNi2P2O9
_symmetry_space_group_name_H-M   'P 1'
_cell_length_a   6.23456883
_cell_length_b   6.95437785
_cell_length_c   14.44124571
_cell_angle_alpha   90.03917861
_cell_angle_beta   90.00182159
_cell_angle_gamma   90.02589356
_symmetry_Int_Tables_number   1
_chemical_formula_structural   ZnNi2P2O9
_chemical_formula_sum   'Zn4 Ni8 P8 O36'
_cell_volume   626.13678443
_cell_formula_units_Z   4
loop_
 _symmetry_equiv_pos_site_id
 _symmetry_equiv_pos_as_xyz
  1  'x, y, z'
loop_
 _atom_site_type_symbol
 _atom_site_label
 _atom_site_symmetry_multiplicity
 _atom_site_fract_x
 _atom_site_fract_y
 _atom_site_fract_z
 _atom_site_occupancy
  Zn  Zn0  1  0.74998160  0.88585540  0.77325824  1
  Zn  Zn1  1  0.75001605  0.61383602  0.27315246  1
  Zn  Zn2  1  0.25002427  0.11427960  0.22673616  1
  Zn  Zn3  1  0.24997636  0.38667005  0.72688321  1
  Ni  Ni4  1  0.75029088  0.36032192  0.87420251  1
  Ni  Ni5  1  0.24971118  0.63982956  0.12582533  1
  Ni  Ni6  1  0.25036192  0.86012002  0.62577221  1
  Ni  Ni7  1  0.74964834  0.13967214  0.37415930  1
  Ni  Ni8  1  0.50001492  0.00008068  0.99997526  1
  Ni  Ni9  1  0.49997096  0.49981263  0.50001224  1
  Ni  Ni10  1  0.00001163  0.49978444  0.50000505  1
  Ni  Ni11  1  0.00000162  0.00008963  0.99999253  1
  P  P12  1  0.25020992  0.36867799  0.92758739  1
  P  P13  1  0.74978506  0.63150780  0.07240844  1
  P  P14  1  0.75024754  0.86860027  0.57237909  1
  P  P15  1  0.24976304  0.13107694  0.42758508  1
  P  P16  1  0.75007788  0.38369198  0.69716386  1
  P  P17  1  0.24991025  0.61628932  0.30288960  1
  P  P18  1  0.25010851  0.88373014  0.80287844  1
  P  P19  1  0.74989836  0.11648667  0.19708147  1
  O  O20  1  0.03856878  0.60435557  0.35997460  1
  O  O21  1  0.53868583  0.39562289  0.64008832  1
  O  O22  1  0.96130425  0.10456005  0.14001581  1
  O  O23  1  0.46140200  0.89556313  0.85999059  1
  O  O24  1  0.96142218  0.39556736  0.64007535  1
  O  O25  1  0.46129793  0.60429991  0.35996066  1
  O  O26  1  0.03873759  0.89567470  0.85994401  1
  O  O27  1  0.53857263  0.10468388  0.13996897  1
  O  O28  1  0.24927782  0.32286213  0.48240086  1
  O  O29  1  0.75071728  0.67670977  0.51767502  1
  O  O30  1  0.74930642  0.82308884  0.01762733  1
  O  O31  1  0.25068536  0.17706046  0.98233970  1
  O  O32  1  0.74999301  0.15338627  0.95440526  1
  O  O33  1  0.25001925  0.84680058  0.04561244  1
  O  O34  1  0.24999524  0.65283214  0.54563511  1
  O  O35  1  0.74999429  0.34671779  0.45441803  1
  O  O36  1  0.74991214  0.19790176  0.75771567  1
  O  O37  1  0.25008061  0.80212169  0.24236014  1
  O  O38  1  0.24994319  0.69777128  0.74226954  1
  O  O39  1  0.75007456  0.30231501  0.25775956  1
  O  O40  1  0.43803413  0.12816445  0.35760334  1
  O  O41  1  0.93876843  0.87429501  0.64218110  1
  O  O42  1  0.56137494  0.62584790  0.14219896  1
  O  O43  1  0.06195979  0.37182009  0.85765699  1
  O  O44  1  0.56196505  0.87165095  0.64237929  1
  O  O45  1  0.06127203  0.12549691  0.35778770  1
  O  O46  1  0.43862767  0.37437145  0.85782122  1
  O  O47  1  0.93804632  0.62839154  0.14235152  1
  O  O48  1  0.74937609  0.95158658  0.27336150  1
  O  O49  1  0.25062665  0.04841717  0.72653392  1
  O  O50  1  0.24946023  0.45134868  0.22645289  1
  O  O51  1  0.75053030  0.54871815  0.77355757  1
  O  O52  1  0.74888995  0.02702285  0.50064465  1
  O  O53  1  0.25111291  0.97239382  0.49923799  1
  O  O54  1  0.24898064  0.52745313  0.99941293  1
  O  O55  1  0.75097319  0.47271191  0.00063258  1
