# generated using pymatgen
data_Sr2Ti2O5
_symmetry_space_group_name_H-M   'P 1'
_cell_length_a   5.62381924
_cell_length_b   5.62713925
_cell_length_c   8.80244688
_cell_angle_alpha   108.57845844
_cell_angle_beta   108.56625592
_cell_angle_gamma   90.18662988
_symmetry_Int_Tables_number   1
_chemical_formula_structural   Sr2Ti2O5
_chemical_formula_sum   'Sr4 Ti4 O10'
_cell_volume   248.59898653
_cell_formula_units_Z   2
loop_
 _symmetry_equiv_pos_site_id
 _symmetry_equiv_pos_as_xyz
  1  'x, y, z'
loop_
 _atom_site_type_symbol
 _atom_site_label
 _atom_site_symmetry_multiplicity
 _atom_site_fract_x
 _atom_site_fract_y
 _atom_site_fract_z
 _atom_site_occupancy
  Sr  Sr0  1  0.39932308  0.88394268  0.76359515  1
  Sr  Sr1  1  0.63605197  0.11762690  0.23606990  1
  Sr  Sr2  1  0.89988446  0.38159283  0.76392701  1
  Sr  Sr3  1  0.13578450  0.62034032  0.23639795  1
  Ti  Ti4  1  0.01807026  0.00102388  0.00018742  1
  Ti  Ti5  1  0.51792454  0.50083052  0.99983258  1
  Ti  Ti6  1  0.76695252  0.73243787  0.49997406  1
  Ti  Ti7  1  0.26697097  0.26586796  0.50002765  1
  O  O8  1  0.77493104  0.25784355  0.01432221  1
  O  O9  1  0.75861949  0.74204692  0.98179432  1
  O  O10  1  0.27699524  0.25997685  0.01819657  1
  O  O11  1  0.26032928  0.74336446  0.98566931  1
  O  O12  1  0.89331094  0.90901115  0.74153919  1
  O  O13  1  0.14315891  0.09238244  0.25753090  1
  O  O14  1  0.38565127  0.33482268  0.74244749  1
  O  O15  1  0.65177262  0.66742792  0.25847182  1
  O  O16  1  0.01152111  0.49136433  0.50000347  1
  O  O17  1  0.51594879  0.49809672  0.50001501  1
