# generated using pymatgen
data_FeCu2BO5
_symmetry_space_group_name_H-M   'P 1'
_cell_length_a   3.14545845
_cell_length_b   9.74670192
_cell_length_c   12.14921392
_cell_angle_alpha   89.42873628
_cell_angle_beta   90.46160874
_cell_angle_gamma   98.40592627
_symmetry_Int_Tables_number   1
_chemical_formula_structural   FeCu2BO5
_chemical_formula_sum   'Fe4 Cu8 B4 O20'
_cell_volume   368.44086569
_cell_formula_units_Z   4
loop_
 _symmetry_equiv_pos_site_id
 _symmetry_equiv_pos_as_xyz
  1  'x, y, z'
loop_
 _atom_site_type_symbol
 _atom_site_label
 _atom_site_symmetry_multiplicity
 _atom_site_fract_x
 _atom_site_fract_y
 _atom_site_fract_z
 _atom_site_occupancy
  Fe  Fe0  1  0.93867992  0.76495784  0.11664248  1
  Fe  Fe1  1  0.08399809  0.72407756  0.62056483  1
  Fe  Fe2  1  0.05616197  0.23413077  0.88356085  1
  Fe  Fe3  1  0.00947084  0.00579169  0.49646456  1
  Cu  Cu4  1  0.93412316  0.27400114  0.38121408  1
  Cu  Cu5  1  0.99637439  0.49921082  0.00048071  1
  Cu  Cu6  1  0.54998492  0.49058665  0.78001103  1
  Cu  Cu7  1  0.48514107  0.00497749  0.27674180  1
  Cu  Cu8  1  0.43403461  0.51026399  0.22286377  1
  Cu  Cu9  1  0.52467473  0.99461424  0.72132209  1
  Cu  Cu10  1  0.49862457  0.00007474  0.99962330  1
  Cu  Cu11  1  0.49311648  0.49824486  0.49834269  1
  B  B12  1  0.03779579  0.76299614  0.86513930  1
  B  B13  1  0.94710446  0.73501387  0.36579281  1
  B  B14  1  0.96146881  0.23632488  0.13621340  1
  B  B15  1  0.05481875  0.26594752  0.63391238  1
  O  O16  1  0.48986671  0.90016414  0.14318422  1
  O  O17  1  0.51860046  0.59923567  0.64528690  1
  O  O18  1  0.50703476  0.09937399  0.85531921  1
  O  O19  1  0.43724237  0.40835770  0.35528858  1
  O  O20  1  0.04938647  0.83941696  0.96015484  1
  O  O21  1  0.92832808  0.66113445  0.46406624  1
  O  O22  1  0.94693592  0.15977891  0.03985435  1
  O  O23  1  0.05375700  0.34197021  0.53775803  1
  O  O24  1  0.96006704  0.61929214  0.86875458  1
  O  O25  1  0.04017556  0.87793204  0.36748097  1
  O  O26  1  0.04520771  0.38006658  0.13058179  1
  O  O27  1  0.97913984  0.12178232  0.63255309  1
  O  O28  1  0.61154426  0.36973840  0.91194825  1
  O  O29  1  0.55041638  0.10142286  0.42267169  1
  O  O30  1  0.38778379  0.62934161  0.08748852  1
  O  O31  1  0.49226201  0.89082772  0.57774628  1
  O  O32  1  0.12252455  0.33058869  0.73432657  1
  O  O33  1  0.90090437  0.17198287  0.23714164  1
  O  O34  1  0.87728121  0.66914899  0.26639127  1
  O  O35  1  0.09596896  0.82722954  0.76311290  1
