# generated using pymatgen
data_Sr2Ca6Mn7FeO20
_symmetry_space_group_name_H-M   'P 1'
_cell_length_a   10.96801236
_cell_length_b   11.16127273
_cell_length_c   17.29634791
_cell_angle_alpha   108.73665025
_cell_angle_beta   108.34476398
_cell_angle_gamma   90.11975351
_symmetry_Int_Tables_number   1
_chemical_formula_structural   Sr2Ca6Mn7FeO20
_chemical_formula_sum   'Sr8 Ca24 Mn28 Fe4 O80'
_cell_volume   1890.67195954
_cell_formula_units_Z   4
loop_
 _symmetry_equiv_pos_site_id
 _symmetry_equiv_pos_as_xyz
  1  'x, y, z'
loop_
 _atom_site_type_symbol
 _atom_site_label
 _atom_site_symmetry_multiplicity
 _atom_site_fract_x
 _atom_site_fract_y
 _atom_site_fract_z
 _atom_site_occupancy
  Sr  Sr0  1  0.30829807  0.56046955  0.60945458  1
  Sr  Sr1  1  0.80682355  0.05996913  0.60954830  1
  Sr  Sr2  1  0.19907313  0.44073400  0.89177828  1
  Sr  Sr3  1  0.05781802  0.29793727  0.60841436  1
  Sr  Sr4  1  0.05855170  0.80025675  0.60952171  1
  Sr  Sr5  1  0.55887608  0.29941152  0.61038251  1
  Sr  Sr6  1  0.44894371  0.20056271  0.88983858  1
  Sr  Sr7  1  0.94571353  0.19991769  0.38665234  1
  Ca  Ca8  1  0.30579602  0.06448397  0.10874708  1
  Ca  Ca9  1  0.30748421  0.05970003  0.60376559  1
  Ca  Ca10  1  0.30568432  0.56556748  0.10924270  1
  Ca  Ca11  1  0.80362872  0.06207703  0.10515388  1
  Ca  Ca12  1  0.80681370  0.56325980  0.10801837  1
  Ca  Ca13  1  0.80685570  0.56157845  0.60601741  1
  Ca  Ca14  1  0.19901010  0.43656458  0.39215902  1
  Ca  Ca15  1  0.19940072  0.93530013  0.39152001  1
  Ca  Ca16  1  0.19915497  0.93836249  0.89566143  1
  Ca  Ca17  1  0.69861704  0.43680067  0.39250802  1
  Ca  Ca18  1  0.70126289  0.43734573  0.89521123  1
  Ca  Ca19  1  0.69892293  0.93550362  0.39209837  1
  Ca  Ca20  1  0.69946641  0.93673899  0.89345116  1
  Ca  Ca21  1  0.05760103  0.29374337  0.10874963  1
  Ca  Ca22  1  0.05618703  0.79278197  0.10788774  1
  Ca  Ca23  1  0.55800992  0.29388520  0.10918921  1
  Ca  Ca24  1  0.55646635  0.79332502  0.10801067  1
  Ca  Ca25  1  0.55765988  0.79422944  0.60570441  1
  Ca  Ca26  1  0.45049525  0.20566243  0.39170207  1
  Ca  Ca27  1  0.44895600  0.70648756  0.39261770  1
  Ca  Ca28  1  0.45097694  0.70829502  0.89510838  1
  Ca  Ca29  1  0.95075399  0.20722561  0.89463990  1
  Ca  Ca30  1  0.94936927  0.70504475  0.39169879  1
  Ca  Ca31  1  0.94830640  0.70740401  0.89422601  1
  Mn  Mn32  1  0.00442215  0.99810576  0.49760913  1
  Mn  Mn33  1  0.00292159  0.50016086  0.49697430  1
  Mn  Mn34  1  0.50410547  0.99868625  0.49760734  1
  Mn  Mn35  1  0.50727053  0.50110379  0.00214376  1
  Mn  Mn36  1  0.50437878  0.49934643  0.49723882  1
  Mn  Mn37  1  0.25683764  0.25153583  0.00288072  1
  Mn  Mn38  1  0.25435212  0.24719994  0.49676730  1
  Mn  Mn39  1  0.25646212  0.75267889  0.00188057  1
  Mn  Mn40  1  0.25501831  0.74986472  0.49690618  1
  Mn  Mn41  1  0.75725054  0.25080689  0.00098552  1
  Mn  Mn42  1  0.75292878  0.25011348  0.49788305  1
  Mn  Mn43  1  0.75278564  0.74748130  0.49669520  1
  Mn  Mn44  1  0.11174585  0.09411172  0.24736121  1
  Mn  Mn45  1  0.11166958  0.09281694  0.75293984  1
  Mn  Mn46  1  0.11084171  0.59608369  0.25006686  1
  Mn  Mn47  1  0.10824196  0.60097563  0.75125454  1
  Mn  Mn48  1  0.60755277  0.09610089  0.24977090  1
  Mn  Mn49  1  0.61102236  0.09245723  0.74931598  1
  Mn  Mn50  1  0.60836275  0.59490231  0.24962886  1
  Mn  Mn51  1  0.61523511  0.60327372  0.75277268  1
  Mn  Mn52  1  0.35793847  0.40527177  0.25069158  1
  Mn  Mn53  1  0.36740282  0.40616992  0.75165726  1
  Mn  Mn54  1  0.35865181  0.90332518  0.25005054  1
  Mn  Mn55  1  0.36466882  0.90160809  0.74976918  1
  Mn  Mn56  1  0.85713661  0.40674330  0.24820414  1
  Mn  Mn57  1  0.86088110  0.40735688  0.75253580  1
  Mn  Mn58  1  0.85790366  0.89910809  0.24761193  1
  Mn  Mn59  1  0.85836280  0.89938171  0.75154524  1
  Fe  Fe60  1  0.00578502  0.00023842  0.00061380  1
  Fe  Fe61  1  0.00639357  0.50083230  0.00222463  1
  Fe  Fe62  1  0.50679003  0.00144728  0.00286574  1
  Fe  Fe63  1  0.75572922  0.74962134  0.00092097  1
  O  O64  1  0.12734300  0.11782406  0.49006197  1
  O  O65  1  0.12549741  0.12291225  0.99004603  1
  O  O66  1  0.12276785  0.62126743  0.48559238  1
  O  O67  1  0.12508308  0.62816077  0.99143952  1
  O  O68  1  0.61994689  0.11790450  0.48417277  1
  O  O69  1  0.63082382  0.12159072  0.99181794  1
  O  O70  1  0.62310022  0.61933727  0.48799183  1
  O  O71  1  0.62341423  0.61832628  0.98993712  1
  O  O72  1  0.13861857  0.37858222  0.01540446  1
  O  O73  1  0.13172643  0.37735069  0.50334070  1
  O  O74  1  0.13745271  0.88115760  0.01257234  1
  O  O75  1  0.13532508  0.87921572  0.50555161  1
  O  O76  1  0.64112217  0.37897860  0.01493545  1
  O  O77  1  0.63447820  0.38105477  0.50714182  1
  O  O78  1  0.63404668  0.87789422  0.01284853  1
  O  O79  1  0.62980576  0.87306641  0.50576783  1
  O  O80  1  0.37109799  0.11503076  0.48530833  1
  O  O81  1  0.37273631  0.12021439  0.99329911  1
  O  O82  1  0.37449350  0.61978790  0.48710444  1
  O  O83  1  0.37688759  0.62725006  0.99356640  1
  O  O84  1  0.87104829  0.11608841  0.48866847  1
  O  O85  1  0.87462654  0.11935470  0.98890917  1
  O  O86  1  0.87100640  0.61747115  0.48670989  1
  O  O87  1  0.87231892  0.61578543  0.98770831  1
  O  O88  1  0.38834585  0.38561341  0.01706077  1
  O  O89  1  0.38191351  0.37772490  0.50288257  1
  O  O90  1  0.38368674  0.88219179  0.01251216  1
  O  O91  1  0.38565125  0.88094931  0.51034810  1
  O  O92  1  0.88610417  0.37967267  0.01369894  1
  O  O93  1  0.87907703  0.38340386  0.50681176  1
  O  O94  1  0.88670632  0.88352277  0.01394347  1
  O  O95  1  0.88022817  0.87569035  0.50268903  1
  O  O96  1  0.08477309  0.09519907  0.13407014  1
  O  O97  1  0.07569700  0.07889009  0.63410399  1
  O  O98  1  0.08165147  0.59623224  0.13188971  1
  O  O99  1  0.07154889  0.58547113  0.63309647  1
  O  O100  1  0.58088878  0.09604996  0.13298295  1
  O  O101  1  0.57509280  0.08421459  0.62914662  1
  O  O102  1  0.58019392  0.59429690  0.13422373  1
  O  O103  1  0.57669825  0.58921487  0.63332130  1
  O  O104  1  0.44501092  0.40874069  0.36534393  1
  O  O105  1  0.44787781  0.41252602  0.87023767  1
  O  O106  1  0.44332563  0.90584025  0.36505941  1
  O  O107  1  0.45130456  0.91060984  0.86738326  1
  O  O108  1  0.94245952  0.41380702  0.36230831  1
  O  O109  1  0.94815862  0.40424767  0.86894302  1
  O  O110  1  0.94449918  0.90990906  0.36389392  1
  O  O111  1  0.94622334  0.90467287  0.86736178  1
  O  O112  1  0.32947650  0.29143711  0.13744686  1
  O  O113  1  0.32563590  0.29311969  0.63144385  1
  O  O114  1  0.32999663  0.79220269  0.13471393  1
  O  O115  1  0.32445551  0.79514077  0.63096013  1
  O  O116  1  0.82995044  0.29047800  0.13383933  1
  O  O117  1  0.82045963  0.29851389  0.63174519  1
  O  O118  1  0.82804623  0.78535522  0.13407423  1
  O  O119  1  0.82175220  0.79376088  0.63239222  1
  O  O120  1  0.19107871  0.20487008  0.36331864  1
  O  O121  1  0.19382525  0.20590228  0.86715192  1
  O  O122  1  0.19934412  0.71279850  0.36914241  1
  O  O123  1  0.19649771  0.71098263  0.86839443  1
  O  O124  1  0.69017957  0.21123501  0.36771416  1
  O  O125  1  0.69586573  0.21192089  0.86920559  1
  O  O126  1  0.69233495  0.70721831  0.36534054  1
  O  O127  1  0.69881527  0.71430066  0.86735826  1
  O  O128  1  0.42230117  0.07017281  0.24982171  1
  O  O129  1  0.42418163  0.06435012  0.74247936  1
  O  O130  1  0.42570434  0.57294559  0.25004975  1
  O  O131  1  0.43853341  0.57878243  0.75771114  1
  O  O132  1  0.92904285  0.06076386  0.24026265  1
  O  O133  1  0.93286541  0.06894492  0.75750009  1
  O  O134  1  0.92272563  0.57162191  0.24937180  1
  O  O135  1  0.92687081  0.57910152  0.75153928  1
  O  O136  1  0.17752107  0.42237802  0.25024231  1
  O  O137  1  0.18602709  0.44168315  0.75003607  1
  O  O138  1  0.17554616  0.92417005  0.24906417  1
  O  O139  1  0.18607600  0.93145350  0.75891802  1
  O  O140  1  0.67412333  0.42491031  0.24973275  1
  O  O141  1  0.68236191  0.43917022  0.75898477  1
  O  O142  1  0.67947859  0.92551292  0.25020220  1
  O  O143  1  0.67701452  0.92096792  0.75057977  1
