# generated using pymatgen
data_Mg6CdSn
_symmetry_space_group_name_H-M   'P 1'
_cell_length_a   6.40733742
_cell_length_b   6.40733726
_cell_length_c   5.20960160
_cell_angle_alpha   90.00000000
_cell_angle_beta   90.00000000
_cell_angle_gamma   121.50505300
_symmetry_Int_Tables_number   1
_chemical_formula_structural   Mg6CdSn
_chemical_formula_sum   'Mg6 Cd1 Sn1'
_cell_volume   182.34842000
_cell_formula_units_Z   1
loop_
 _symmetry_equiv_pos_site_id
 _symmetry_equiv_pos_as_xyz
  1  'x, y, z'
loop_
 _atom_site_type_symbol
 _atom_site_label
 _atom_site_symmetry_multiplicity
 _atom_site_fract_x
 _atom_site_fract_y
 _atom_site_fract_z
 _atom_site_occupancy
  Mg  Mg0  1  0.16563169  0.83680061  0.25000000  1
  Mg  Mg1  1  0.66319939  0.33436831  0.25000000  1
  Mg  Mg2  1  0.66721026  0.83278974  0.25000000  1
  Mg  Mg3  1  0.33650212  0.67006907  0.75000000  1
  Mg  Mg4  1  0.82993093  0.16349788  0.75000000  1
  Mg  Mg5  1  0.83154435  0.66845565  0.75000000  1
  Cd  Cd6  1  0.34446682  0.15553318  0.75000000  1
  Sn  Sn7  1  0.16151444  0.33848556  0.25000000  1
