# generated using pymatgen
data_Sr2FeCu2O7
_symmetry_space_group_name_H-M   'P 1'
_cell_length_a   5.13095603
_cell_length_b   5.17158844
_cell_length_c   13.17670520
_cell_angle_alpha   101.32626668
_cell_angle_beta   101.04891892
_cell_angle_gamma   89.99895778
_symmetry_Int_Tables_number   1
_chemical_formula_structural   Sr2FeCu2O7
_chemical_formula_sum   'Sr4 Fe2 Cu4 O14'
_cell_volume   336.22489362
_cell_formula_units_Z   2
loop_
 _symmetry_equiv_pos_site_id
 _symmetry_equiv_pos_as_xyz
  1  'x, y, z'
loop_
 _atom_site_type_symbol
 _atom_site_label
 _atom_site_symmetry_multiplicity
 _atom_site_fract_x
 _atom_site_fract_y
 _atom_site_fract_z
 _atom_site_occupancy
  Sr  Sr0  1  0.32902591  0.34766284  0.70254961  1
  Sr  Sr1  1  0.62970406  0.65218268  0.29810036  1
  Sr  Sr2  1  0.82893781  0.85441569  0.70250610  1
  Sr  Sr3  1  0.12979081  0.14527857  0.29807323  1
  Fe  Fe4  1  0.27768767  0.68412859  0.50022208  1
  Fe  Fe5  1  0.77768284  0.31531556  0.50019843  1
  Cu  Cu6  1  0.91874174  0.44132281  0.88084487  1
  Cu  Cu7  1  0.04393963  0.55859799  0.11962182  1
  Cu  Cu8  1  0.41876305  0.93967524  0.88098178  1
  Cu  Cu9  1  0.54394918  0.06037399  0.11972415  1
  O  O10  1  0.15423407  0.33570656  0.50030463  1
  O  O11  1  0.65433105  0.66389444  0.50030120  1
  O  O12  1  0.15366266  0.17519775  0.84920477  1
  O  O13  1  0.31001493  0.82473178  0.15120682  1
  O  O14  1  0.65387763  0.17415547  0.84931476  1
  O  O15  1  0.81008396  0.82591676  0.15127457  1
  O  O16  1  0.65176830  0.67324512  0.84755568  1
  O  O17  1  0.80951371  0.32667668  0.15288856  1
  O  O18  1  0.15177306  0.67420180  0.84764214  1
  O  O19  1  0.30963726  0.32558891  0.15297763  1
  O  O20  1  0.29036514  0.83420699  0.63896098  1
  O  O21  1  0.65394886  0.16532510  0.36173463  1
  O  O22  1  0.79030875  0.30405278  0.63893688  1
  O  O23  1  0.15396193  0.69538689  0.36177931  1
