# generated using pymatgen
data_Mg2Si
_symmetry_space_group_name_H-M   'P 1'
_cell_length_a   4.20420273
_cell_length_b   7.00953119
_cell_length_c   8.03950714
_cell_angle_alpha   90.00000000
_cell_angle_beta   90.00000000
_cell_angle_gamma   90.00000000
_symmetry_Int_Tables_number   1
_chemical_formula_structural   Mg2Si
_chemical_formula_sum   'Mg8 Si4'
_cell_volume   236.92017659
_cell_formula_units_Z   4
loop_
 _symmetry_equiv_pos_site_id
 _symmetry_equiv_pos_as_xyz
  1  'x, y, z'
loop_
 _atom_site_type_symbol
 _atom_site_label
 _atom_site_symmetry_multiplicity
 _atom_site_fract_x
 _atom_site_fract_y
 _atom_site_fract_z
 _atom_site_occupancy
  Mg  Mg0  1  0.75000000  0.46861782  0.66551492  1
  Mg  Mg1  1  0.75000000  0.96861782  0.83448508  1
  Mg  Mg2  1  0.25000000  0.53138218  0.33448508  1
  Mg  Mg3  1  0.25000000  0.03138218  0.16551492  1
  Mg  Mg4  1  0.75000000  0.35934490  0.06136015  1
  Mg  Mg5  1  0.75000000  0.85934490  0.43863985  1
  Mg  Mg6  1  0.25000000  0.64065510  0.93863985  1
  Mg  Mg7  1  0.25000000  0.14065510  0.56136015  1
  Si  Si8  1  0.75000000  0.24698797  0.37419782  1
  Si  Si9  1  0.75000000  0.74698797  0.12580218  1
  Si  Si10  1  0.25000000  0.75301203  0.62580218  1
  Si  Si11  1  0.25000000  0.25301203  0.87419782  1
