# generated using pymatgen
data_ReTe2
_symmetry_space_group_name_H-M   'P 1'
_cell_length_a   7.09984180
_cell_length_b   7.25039663
_cell_length_c   7.75133476
_cell_angle_alpha   73.92062447
_cell_angle_beta   76.09525995
_cell_angle_gamma   61.10476015
_symmetry_Int_Tables_number   1
_chemical_formula_structural   ReTe2
_chemical_formula_sum   'Re4 Te8'
_cell_volume   332.97177154
_cell_formula_units_Z   4
loop_
 _symmetry_equiv_pos_site_id
 _symmetry_equiv_pos_as_xyz
  1  'x, y, z'
loop_
 _atom_site_type_symbol
 _atom_site_label
 _atom_site_symmetry_multiplicity
 _atom_site_fract_x
 _atom_site_fract_y
 _atom_site_fract_z
 _atom_site_occupancy
  Re  Re0  1  0.98923389  0.70200833  0.49643781  1
  Re  Re1  1  0.01076611  0.29799167  0.50356219  1
  Re  Re2  1  0.57648971  0.67859081  0.48908789  1
  Re  Re3  1  0.42351029  0.32140919  0.51091211  1
  Te  Te4  1  0.90080036  0.61997009  0.21740085  1
  Te  Te5  1  0.09919964  0.38002991  0.78259915  1
  Te  Te6  1  0.35309834  0.66166636  0.25313314  1
  Te  Te7  1  0.64690166  0.33833364  0.74686686  1
  Te  Te8  1  0.61188116  0.89285559  0.70583637  1
  Te  Te9  1  0.38811884  0.10714441  0.29416363  1
  Te  Te10  1  0.15718945  0.86332125  0.67826433  1
  Te  Te11  1  0.84281055  0.13667875  0.32173567  1
