# generated using pymatgen
data_V5Fe(PO4)6
_symmetry_space_group_name_H-M   'P 1'
_cell_length_a   8.57826699
_cell_length_b   8.62585655
_cell_length_c   8.62585619
_cell_angle_alpha   60.00000308
_cell_angle_beta   59.81631245
_cell_angle_gamma   59.81630917
_symmetry_Int_Tables_number   1
_chemical_formula_structural   V5Fe(PO4)6
_chemical_formula_sum   'V5 Fe1 P6 O24'
_cell_volume   450.06746363
_cell_formula_units_Z   1
loop_
 _symmetry_equiv_pos_site_id
 _symmetry_equiv_pos_as_xyz
  1  'x, y, z'
loop_
 _atom_site_type_symbol
 _atom_site_label
 _atom_site_symmetry_multiplicity
 _atom_site_fract_x
 _atom_site_fract_y
 _atom_site_fract_z
 _atom_site_occupancy
  V  V0  1  0.99851745  0.00049418  0.00049418  1
  V  V1  1  0.06718811  0.64427063  0.64427063  1
  V  V2  1  0.49938793  0.50020369  0.50020369  1
  V  V3  1  0.43071995  0.85642668  0.85642668  1
  V  V4  1  0.93110616  0.35629761  0.35629761  1
  Fe  Fe5  1  0.56437332  0.14520923  0.14520923  1
  P  P6  1  0.25017797  0.24967930  0.54322320  1
  P  P7  1  0.25017797  0.95691853  0.24967930  1
  P  P8  1  0.25017797  0.54322320  0.95691853  1
  P  P9  1  0.75108561  0.45631686  0.04271804  1
  P  P10  1  0.75108561  0.04271804  0.74987848  1
  P  P11  1  0.75108561  0.74987848  0.45631686  1
  O  O12  1  0.06729152  0.11637665  0.31156201  1
  O  O13  1  0.06729152  0.50477081  0.11637665  1
  O  O14  1  0.06729152  0.31156201  0.50477081  1
  O  O15  1  0.23105286  0.08773386  0.74076140  1
  O  O16  1  0.43222781  0.18873840  0.38707910  1
  O  O17  1  0.26350399  0.41372715  0.56219536  1
  O  O18  1  0.23105286  0.94045188  0.08773386  1
  O  O19  1  0.26350399  0.76057350  0.41372715  1
  O  O20  1  0.56864195  0.61554645  0.00531470  1
  O  O21  1  0.26350399  0.56219536  0.76057350  1
  O  O22  1  0.77148777  0.26135983  0.05653221  1
  O  O23  1  0.56864195  0.00531470  0.81049790  1
  O  O24  1  0.43222781  0.99195370  0.18873840  1
  O  O25  1  0.23105286  0.74076140  0.94045188  1
  O  O26  1  0.73449341  0.44009467  0.23939341  1
  O  O27  1  0.43222781  0.38707910  0.99195370  1
  O  O28  1  0.73449341  0.23939341  0.58601751  1
  O  O29  1  0.77148777  0.05653221  0.91061919  1
  O  O30  1  0.73449341  0.58601751  0.44009467  1
  O  O31  1  0.56864195  0.81049790  0.61554645  1
  O  O32  1  0.77148777  0.91061919  0.26135983  1
  O  O33  1  0.93293715  0.68301625  0.49896502  1
  O  O34  1  0.93293715  0.49896502  0.88508158  1
  O  O35  1  0.93293715  0.88508158  0.68301625  1
