# generated using pymatgen
data_MnInCu4
_symmetry_space_group_name_H-M   'P 1'
_cell_length_a   4.97526356
_cell_length_b   4.97526356
_cell_length_c   7.89675997
_cell_angle_alpha   90.00000000
_cell_angle_beta   90.00000000
_cell_angle_gamma   120.08509486
_symmetry_Int_Tables_number   1
_chemical_formula_structural   MnInCu4
_chemical_formula_sum   'Mn2 In2 Cu8'
_cell_volume   169.13703698
_cell_formula_units_Z   2
loop_
 _symmetry_equiv_pos_site_id
 _symmetry_equiv_pos_as_xyz
  1  'x, y, z'
loop_
 _atom_site_type_symbol
 _atom_site_label
 _atom_site_symmetry_multiplicity
 _atom_site_fract_x
 _atom_site_fract_y
 _atom_site_fract_z
 _atom_site_occupancy
  Mn  Mn0  1  0.33404123  0.66595877  0.43584172  1
  Mn  Mn1  1  0.66595877  0.33404123  0.93584172  1
  In  In2  1  0.33318404  0.66681596  0.06254490  1
  In  In3  1  0.66681596  0.33318404  0.56254490  1
  Cu  Cu4  1  0.83026357  0.16973643  0.24966289  1
  Cu  Cu5  1  0.33965909  0.16968759  0.24937855  1
  Cu  Cu6  1  0.83031241  0.66034091  0.24937855  1
  Cu  Cu7  1  0.16973643  0.83026357  0.74966289  1
  Cu  Cu8  1  0.66034091  0.83031241  0.74937855  1
  Cu  Cu9  1  0.16968759  0.33965909  0.74937855  1
  Cu  Cu10  1  0.00011445  -0.00011445  0.49929339  1
  Cu  Cu11  1  -0.00011445  0.00011445  0.99929339  1
