# generated using pymatgen
data_VBiO4
_symmetry_space_group_name_H-M   'P 1'
_cell_length_a   5.33855299
_cell_length_b   4.80111662
_cell_length_c   4.78990314
_cell_angle_alpha   76.08054967
_cell_angle_beta   65.11249646
_cell_angle_gamma   65.07395054
_symmetry_Int_Tables_number   1
_chemical_formula_structural   VBiO4
_chemical_formula_sum   'V1 Bi1 O4'
_cell_volume   100.69692775
_cell_formula_units_Z   1
loop_
 _symmetry_equiv_pos_site_id
 _symmetry_equiv_pos_as_xyz
  1  'x, y, z'
loop_
 _atom_site_type_symbol
 _atom_site_label
 _atom_site_symmetry_multiplicity
 _atom_site_fract_x
 _atom_site_fract_y
 _atom_site_fract_z
 _atom_site_occupancy
  V  V0  1  0.49974605  0.35410717  0.64662185  1
  Bi  Bi1  1  0.00021949  0.95061576  0.04995267  1
  O  O2  1  0.83994928  0.07180098  0.66999670  1
  O  O3  1  0.46217808  0.72069624  0.67682479  1
  O  O4  1  0.53777504  0.32326177  0.27841069  1
  O  O5  1  0.16013206  0.32951808  0.92819331  1
