# generated using pymatgen
data_VOF
_symmetry_space_group_name_H-M   'P 1'
_cell_length_a   4.67885892
_cell_length_b   10.54277976
_cell_length_c   5.63778022
_cell_angle_alpha   83.46628443
_cell_angle_beta   92.00847098
_cell_angle_gamma   89.19436980
_symmetry_Int_Tables_number   1
_chemical_formula_structural   VOF
_chemical_formula_sum   'V8 O8 F8'
_cell_volume   276.07982018
_cell_formula_units_Z   8
loop_
 _symmetry_equiv_pos_site_id
 _symmetry_equiv_pos_as_xyz
  1  'x, y, z'
loop_
 _atom_site_type_symbol
 _atom_site_label
 _atom_site_symmetry_multiplicity
 _atom_site_fract_x
 _atom_site_fract_y
 _atom_site_fract_z
 _atom_site_occupancy
  V  V0  1  0.48653299  0.26146710  0.74883928  1
  V  V1  1  0.50000000  0.00000000  0.50000000  1
  V  V2  1  0.51346701  0.73853290  0.25116072  1
  V  V3  1  0.50000000  0.50000000  -0.00000000  1
  V  V4  1  0.98256533  0.23751343  0.25495180  1
  V  V5  1  0.01743467  0.76248657  0.74504820  1
  V  V6  1  -0.00000000  0.50000000  0.50000000  1
  V  V7  1  -0.00000000  0.00000000  -0.00000000  1
  O  O8  1  0.80540831  0.06933948  0.26521291  1
  O  O9  1  0.68985398  0.82319645  0.52125760  1
  O  O10  1  0.70452560  0.56744790  0.27410028  1
  O  O11  1  0.70118154  0.32708278  0.01755087  1
  O  O12  1  0.29547440  0.43255210  0.72589972  1
  O  O13  1  0.29881846  0.67291722  0.98244913  1
  O  O14  1  0.31014602  0.17680355  0.47874240  1
  O  O15  1  0.19459169  0.93066052  0.73478709  1
  F  F16  1  0.80642230  0.58362739  0.76915323  1
  F  F17  1  0.80141921  0.32450458  0.52800787  1
  F  F18  1  0.79748577  0.82712390  0.02456535  1
  F  F19  1  0.70051658  0.08150681  0.77612032  1
  F  F20  1  0.29948342  0.91849319  0.22387968  1
  F  F21  1  0.19858079  0.67549542  0.47199213  1
  F  F22  1  0.20251423  0.17287610  0.97543465  1
  F  F23  1  0.19357770  0.41637261  0.23084677  1
