# generated using pymatgen
data_LiMo(PO4)2
_symmetry_space_group_name_H-M   'P 1'
_cell_length_a   5.08789506
_cell_length_b   5.03602539
_cell_length_c   8.78480116
_cell_angle_alpha   93.03536585
_cell_angle_beta   92.59597707
_cell_angle_gamma   59.43710559
_symmetry_Int_Tables_number   1
_chemical_formula_structural   LiMo(PO4)2
_chemical_formula_sum   'Li1 Mo1 P2 O8'
_cell_volume   193.50330299
_cell_formula_units_Z   1
loop_
 _symmetry_equiv_pos_site_id
 _symmetry_equiv_pos_as_xyz
  1  'x, y, z'
loop_
 _atom_site_type_symbol
 _atom_site_label
 _atom_site_symmetry_multiplicity
 _atom_site_fract_x
 _atom_site_fract_y
 _atom_site_fract_z
 _atom_site_occupancy
  Li  Li0  1  0.63601854  0.46883814  0.44624205  1
  Mo  Mo1  1  0.00238456  0.01661837  0.98979857  1
  P  P2  1  0.65413107  0.68338676  0.79181357  1
  P  P3  1  0.34922126  0.35236019  0.18963104  1
  O  O4  1  0.29257070  0.09434915  0.12281293  1
  O  O5  1  0.32574107  0.39807431  0.35952169  1
  O  O6  1  0.11074983  0.65923020  0.10756466  1
  O  O7  1  0.69000183  0.64473599  0.62336845  1
  O  O8  1  0.89088969  0.37405546  0.87376258  1
  O  O9  1  0.70843939  0.93986356  0.86462269  1
  O  O10  1  0.67437654  0.27819458  0.14198399  1
  O  O11  1  0.33185552  0.75719630  0.84146778  1
