# generated using pymatgen
data_BaTmFe4O7
_symmetry_space_group_name_H-M   'P 1'
_cell_length_a   6.48447517
_cell_length_b   6.48447517
_cell_length_c   6.39527686
_cell_angle_alpha   120.46246678
_cell_angle_beta   120.46246678
_cell_angle_gamma   90.00000000
_symmetry_Int_Tables_number   1
_chemical_formula_structural   BaTmFe4O7
_chemical_formula_sum   'Ba1 Tm1 Fe4 O7'
_cell_volume   187.45933940
_cell_formula_units_Z   1
loop_
 _symmetry_equiv_pos_site_id
 _symmetry_equiv_pos_as_xyz
  1  'x, y, z'
loop_
 _atom_site_type_symbol
 _atom_site_label
 _atom_site_symmetry_multiplicity
 _atom_site_fract_x
 _atom_site_fract_y
 _atom_site_fract_z
 _atom_site_occupancy
  Ba  Ba0  1  0.25000000  0.75000000  0.50000000  1
  Tm  Tm1  1  0.00000000  0.00000000  0.00000000  1
  Fe  Fe2  1  0.14182842  0.40607616  0.76431111  1
  Fe  Fe3  1  0.62248269  0.35823495  0.76431111  1
  Fe  Fe4  1  0.64176505  0.85817158  0.23568889  1
  Fe  Fe5  1  0.59392384  0.37751731  0.23568889  1
  O  O6  1  0.81609727  0.73965356  0.03906583  1
  O  O7  1  0.22296856  0.29941227  0.03906583  1
  O  O8  1  0.70058773  0.18390273  0.96093417  1
  O  O9  1  0.26034644  0.77703144  0.96093417  1
  O  O10  1  0.74840463  0.74840463  0.49680926  1
  O  O11  1  0.25159537  0.25159537  0.50319074  1
  O  O12  1  0.75000000  0.25000000  0.50000000  1
