# generated using pymatgen
data_Ho(Mo3Se4)2
_symmetry_space_group_name_H-M   'P 1'
_cell_length_a   6.77941996
_cell_length_b   6.77941996
_cell_length_c   6.77941976
_cell_angle_alpha   89.34137362
_cell_angle_beta   89.34137362
_cell_angle_gamma   89.34137699
_symmetry_Int_Tables_number   1
_chemical_formula_structural   Ho(Mo3Se4)2
_chemical_formula_sum   'Ho1 Mo6 Se8'
_cell_volume   311.52447041
_cell_formula_units_Z   1
loop_
 _symmetry_equiv_pos_site_id
 _symmetry_equiv_pos_as_xyz
  1  'x, y, z'
loop_
 _atom_site_type_symbol
 _atom_site_label
 _atom_site_symmetry_multiplicity
 _atom_site_fract_x
 _atom_site_fract_y
 _atom_site_fract_z
 _atom_site_occupancy
  Ho  Ho0  1  -0.00000000  0.00000000  0.00000000  1
  Mo  Mo1  1  0.57676839  0.76672815  0.44162803  1
  Mo  Mo2  1  0.76672815  0.44162803  0.57676839  1
  Mo  Mo3  1  0.44162803  0.57676839  0.76672815  1
  Mo  Mo4  1  0.42323161  0.23327185  0.55837197  1
  Mo  Mo5  1  0.23327185  0.55837197  0.42323161  1
  Mo  Mo6  1  0.55837197  0.42323161  0.23327185  1
  Se  Se7  1  0.76376000  0.76376000  0.76376000  1
  Se  Se8  1  0.23624000  0.23624000  0.23624000  1
  Se  Se9  1  0.63008214  0.24332026  0.87684973  1
  Se  Se10  1  0.24332026  0.87684973  0.63008214  1
  Se  Se11  1  0.87684973  0.63008214  0.24332026  1
  Se  Se12  1  0.36991786  0.75667974  0.12315027  1
  Se  Se13  1  0.75667974  0.12315027  0.36991786  1
  Se  Se14  1  0.12315027  0.36991786  0.75667974  1
