# generated using pymatgen
data_BaGe6
_symmetry_space_group_name_H-M   'P 1'
_cell_length_a   4.86649036
_cell_length_b   5.98210356
_cell_length_c   12.48049703
_cell_angle_alpha   90.00000000
_cell_angle_beta   90.00000000
_cell_angle_gamma   114.00109517
_symmetry_Int_Tables_number   1
_chemical_formula_structural   BaGe6
_chemical_formula_sum   'Ba2 Ge12'
_cell_volume   331.91596529
_cell_formula_units_Z   2
loop_
 _symmetry_equiv_pos_site_id
 _symmetry_equiv_pos_as_xyz
  1  'x, y, z'
loop_
 _atom_site_type_symbol
 _atom_site_label
 _atom_site_symmetry_multiplicity
 _atom_site_fract_x
 _atom_site_fract_y
 _atom_site_fract_z
 _atom_site_occupancy
  Ba  Ba0  1  0.26946056  0.53892112  0.25000000  1
  Ba  Ba1  1  0.73053944  0.46107888  0.75000000  1
  Ge  Ge2  1  0.24878948  0.49757896  0.96371448  1
  Ge  Ge3  1  0.75121052  0.50242104  0.03628552  1
  Ge  Ge4  1  0.24878948  0.49757896  0.53628552  1
  Ge  Ge5  1  0.75121052  0.50242104  0.46371448  1
  Ge  Ge6  1  0.44540661  0.89081322  0.85441605  1
  Ge  Ge7  1  0.55459339  0.10918678  0.14558395  1
  Ge  Ge8  1  0.44540661  0.89081322  0.64558395  1
  Ge  Ge9  1  0.55459339  0.10918678  0.35441605  1
  Ge  Ge10  1  0.02405488  0.04810976  0.89919418  1
  Ge  Ge11  1  0.97594512  0.95189024  0.10080582  1
  Ge  Ge12  1  0.02405488  0.04810976  0.60080582  1
  Ge  Ge13  1  0.97594512  0.95189024  0.39919418  1
