# generated using pymatgen
data_MgGe2WO6
_symmetry_space_group_name_H-M   'P 1'
_cell_length_a   5.57907693
_cell_length_b   8.51801437
_cell_length_c   12.33356776
_cell_angle_alpha   90.00000000
_cell_angle_beta   100.62947902
_cell_angle_gamma   90.00000000
_symmetry_Int_Tables_number   1
_chemical_formula_structural   MgGe2WO6
_chemical_formula_sum   'Mg4 Ge8 W4 O24'
_cell_volume   576.06636696
_cell_formula_units_Z   4
loop_
 _symmetry_equiv_pos_site_id
 _symmetry_equiv_pos_as_xyz
  1  'x, y, z'
loop_
 _atom_site_type_symbol
 _atom_site_label
 _atom_site_symmetry_multiplicity
 _atom_site_fract_x
 _atom_site_fract_y
 _atom_site_fract_z
 _atom_site_occupancy
  Mg  Mg0  1  0.46158776  0.41851700  0.23566421  1
  Mg  Mg1  1  0.03841224  0.91851700  0.76433579  1
  Mg  Mg2  1  0.53841224  0.58148300  0.76433579  1
  Mg  Mg3  1  0.96158776  0.08148300  0.23566421  1
  Ge  Ge4  1  0.84778844  0.37018565  0.08268456  1
  Ge  Ge5  1  0.65221156  0.87018565  0.91731544  1
  Ge  Ge6  1  0.15221156  0.62981435  0.91731544  1
  Ge  Ge7  1  0.34778844  0.12981435  0.08268456  1
  Ge  Ge8  1  0.21246357  0.34079440  0.46226366  1
  Ge  Ge9  1  0.28753643  0.84079440  0.53773634  1
  Ge  Ge10  1  0.78753643  0.65920560  0.53773634  1
  Ge  Ge11  1  0.71246357  0.15920560  0.46226366  1
  W  W12  1  0.98512922  0.66209772  0.29239238  1
  W  W13  1  0.51487078  0.16209772  0.70760762  1
  W  W14  1  0.01487078  0.33790228  0.70760762  1
  W  W15  1  0.48512922  0.83790228  0.29239238  1
  O  O16  1  0.46848474  0.28821405  0.39606571  1
  O  O17  1  0.03151526  0.78821405  0.60393429  1
  O  O18  1  0.53151526  0.71178595  0.60393429  1
  O  O19  1  0.96848474  0.21178595  0.39606571  1
  O  O20  1  0.15725535  0.28826714  0.16019320  1
  O  O21  1  0.34274465  0.78826714  0.83980780  1
  O  O22  1  0.84274465  0.71173286  0.83980780  1
  O  O23  1  0.65725535  0.21173286  0.16019320  1
  O  O24  1  0.66232770  0.96708321  0.42228789  1
  O  O25  1  0.83767230  0.46708321  0.57771211  1
  O  O26  1  0.33767230  0.03291679  0.57771211  1
  O  O27  1  0.16232770  0.53291679  0.42228789  1
  O  O28  1  0.28276076  0.99882753  0.19878552  1
  O  O29  1  0.21723924  0.49882753  0.80121448  1
  O  O30  1  0.71723924  0.00117247  0.80121448  1
  O  O31  1  0.78276076  0.50117247  0.19878552  1
  O  O32  1  0.69606094  0.35751720  0.77231292  1
  O  O33  1  0.80393906  0.85751720  0.22768708  1
  O  O34  1  0.30393906  0.64248280  0.22768708  1
  O  O35  1  0.19606094  0.14248280  0.77231292  1
  O  O36  1  0.29771584  0.33650603  0.60672182  1
  O  O37  1  0.20228416  0.83650603  0.39327818  1
  O  O38  1  0.70228416  0.66349397  0.39327818  1
  O  O39  1  0.79771584  0.16349397  0.60672182  1
