# generated using pymatgen
data_BaLuFe4O7
_symmetry_space_group_name_H-M   'P 1'
_cell_length_a   6.41502166
_cell_length_b   6.41502166
_cell_length_c   6.39561889
_cell_angle_alpha   120.10040243
_cell_angle_beta   120.10040243
_cell_angle_gamma   90.00000000
_symmetry_Int_Tables_number   1
_chemical_formula_structural   BaLuFe4O7
_chemical_formula_sum   'Ba1 Lu1 Fe4 O7'
_cell_volume   185.54118321
_cell_formula_units_Z   1
loop_
 _symmetry_equiv_pos_site_id
 _symmetry_equiv_pos_as_xyz
  1  'x, y, z'
loop_
 _atom_site_type_symbol
 _atom_site_label
 _atom_site_symmetry_multiplicity
 _atom_site_fract_x
 _atom_site_fract_y
 _atom_site_fract_z
 _atom_site_occupancy
  Ba  Ba0  1  0.25000000  0.75000000  0.50000000  1
  Lu  Lu1  1  0.00000000  0.00000000  0.00000000  1
  Fe  Fe2  1  0.14082654  0.40561822  0.76141207  1
  Fe  Fe3  1  0.62058553  0.35579385  0.76141207  1
  Fe  Fe4  1  0.64420615  0.85917346  0.23858793  1
  Fe  Fe5  1  0.59438178  0.37941447  0.23858793  1
  O  O6  1  0.81681015  0.73866382  0.04097777  1
  O  O7  1  0.22416762  0.30231395  0.04097777  1
  O  O8  1  0.69768605  0.18318985  0.95902223  1
  O  O9  1  0.26133618  0.77583238  0.95902223  1
  O  O10  1  0.75411959  0.75411959  0.50823918  1
  O  O11  1  0.24588041  0.24588041  0.49176082  1
  O  O12  1  0.75000000  0.25000000  0.50000000  1
