# generated using pymatgen
data_Mg(SiNi)6
_symmetry_space_group_name_H-M   'P 1'
_cell_length_a   4.89449408
_cell_length_b   4.90883301
_cell_length_c   7.61262713
_cell_angle_alpha   90.00000000
_cell_angle_beta   90.00000000
_cell_angle_gamma   119.90342657
_symmetry_Int_Tables_number   1
_chemical_formula_structural   Mg(SiNi)6
_chemical_formula_sum   'Mg1 Si6 Ni6'
_cell_volume   158.55248821
_cell_formula_units_Z   1
loop_
 _symmetry_equiv_pos_site_id
 _symmetry_equiv_pos_as_xyz
  1  'x, y, z'
loop_
 _atom_site_type_symbol
 _atom_site_label
 _atom_site_symmetry_multiplicity
 _atom_site_fract_x
 _atom_site_fract_y
 _atom_site_fract_z
 _atom_site_occupancy
  Mg  Mg0  1  0.99998143  1.00000000  0.00000000  1
  Si  Si1  1  0.99999317  0.00000000  0.34629821  1
  Si  Si2  1  0.99999317  0.00000000  0.65370179  1
  Si  Si3  1  0.33298460  0.66601306  0.00000000  1
  Si  Si4  1  0.66697155  0.33398694  0.00000000  1
  Si  Si5  1  0.33300664  0.66607953  0.50000000  1
  Si  Si6  1  0.66692711  0.33392047  0.50000000  1
  Ni  Ni7  1  0.49999304  0.00000000  0.25012021  1
  Ni  Ni8  1  0.49999043  0.50000274  0.25013567  1
  Ni  Ni9  1  0.99998769  0.49999726  0.25013567  1
  Ni  Ni10  1  0.49999304  0.00000000  0.74987979  1
  Ni  Ni11  1  0.49999043  0.50000274  0.74986433  1
  Ni  Ni12  1  0.99998769  0.49999726  0.74986433  1
