# generated using pymatgen
data_Ce2Ga2Co15
_symmetry_space_group_name_H-M   'P 1'
_cell_length_a   6.35841882
_cell_length_b   6.35841882
_cell_length_c   6.35841919
_cell_angle_alpha   82.80871349
_cell_angle_beta   82.80871349
_cell_angle_gamma   82.80871414
_symmetry_Int_Tables_number   1
_chemical_formula_structural   Ce2Ga2Co15
_chemical_formula_sum   'Ce2 Ga2 Co15'
_cell_volume   251.46833557
_cell_formula_units_Z   1
loop_
 _symmetry_equiv_pos_site_id
 _symmetry_equiv_pos_as_xyz
  1  'x, y, z'
loop_
 _atom_site_type_symbol
 _atom_site_label
 _atom_site_symmetry_multiplicity
 _atom_site_fract_x
 _atom_site_fract_y
 _atom_site_fract_z
 _atom_site_occupancy
  Ce  Ce0  1  0.64755647  0.64755647  0.64755647  1
  Ce  Ce1  1  0.35244353  0.35244353  0.35244353  1
  Ga  Ga2  1  0.89452974  0.89452974  0.89452974  1
  Ga  Ga3  1  0.10547026  0.10547026  0.10547026  1
  Co  Co4  1  0.00000000  -0.00000000  0.50000000  1
  Co  Co5  1  0.00000000  0.50000000  -0.00000000  1
  Co  Co6  1  0.50000000  -0.00000000  -0.00000000  1
  Co  Co7  1  0.28917618  0.71082382  -0.00000000  1
  Co  Co8  1  0.71082382  1.00000000  0.28917618  1
  Co  Co9  1  0.00000000  0.28917618  0.71082382  1
  Co  Co10  1  0.28917618  0.00000000  0.71082382  1
  Co  Co11  1  1.00000000  0.71082382  0.28917618  1
  Co  Co12  1  0.71082382  0.28917618  0.00000000  1
  Co  Co13  1  0.35031551  0.35031551  0.85075327  1
  Co  Co14  1  0.35031551  0.85075327  0.35031551  1
  Co  Co15  1  0.85075327  0.35031551  0.35031551  1
  Co  Co16  1  0.64968449  0.64968449  0.14924673  1
  Co  Co17  1  0.64968449  0.14924673  0.64968449  1
  Co  Co18  1  0.14924673  0.64968449  0.64968449  1
