# generated using pymatgen
data_Ti2Zn(PO5)2
_symmetry_space_group_name_H-M   'P 1'
_cell_length_a   6.66472321
_cell_length_b   6.66472296
_cell_length_c   9.17580794
_cell_angle_alpha   102.13101231
_cell_angle_beta   102.13101125
_cell_angle_gamma   114.91977424
_symmetry_Int_Tables_number   1
_chemical_formula_structural   Ti2Zn(PO5)2
_chemical_formula_sum   'Ti4 Zn2 P4 O20'
_cell_volume   340.25285419
_cell_formula_units_Z   2
loop_
 _symmetry_equiv_pos_site_id
 _symmetry_equiv_pos_as_xyz
  1  'x, y, z'
loop_
 _atom_site_type_symbol
 _atom_site_label
 _atom_site_symmetry_multiplicity
 _atom_site_fract_x
 _atom_site_fract_y
 _atom_site_fract_z
 _atom_site_occupancy
  Ti  Ti0  1  0.88822443  0.62551079  0.27042005  1
  Ti  Ti1  1  0.35509074  0.61780238  0.72957995  1
  Ti  Ti2  1  0.86780238  0.10509074  0.22957995  1
  Ti  Ti3  1  0.87551079  0.63822443  0.77042005  1
  Zn  Zn4  1  0.51613087  0.01613087  0.50000000  1
  Zn  Zn5  1  0.26613087  0.26613087  1.00000000  1
  P  P6  1  0.03004933  0.03620359  0.58144506  1
  P  P7  1  0.69860427  0.20475953  0.91855494  1
  P  P8  1  0.45475953  0.44860427  0.41855494  1
  P  P9  1  0.28620359  0.78004933  0.08144506  1
  O  O10  1  0.59351297  0.55965578  0.31631019  1
  O  O11  1  0.65671601  0.66264606  0.83754700  1
  O  O12  1  0.30181113  0.57769328  0.97030977  1
  O  O13  1  0.80965578  0.34351297  0.81631019  1
  O  O14  1  0.21611439  0.24254256  0.30514845  1
  O  O15  1  0.42933289  0.64835665  0.52752121  1
  O  O16  1  0.06916901  0.57509906  0.66245300  1
  O  O17  1  0.82509906  0.81916901  0.16245300  1
  O  O18  1  0.91264606  0.40671601  0.33754700  1
  O  O19  1  0.16096594  0.68739411  0.19485155  1
  O  O20  1  0.24334560  0.27720378  0.68368981  1
  O  O21  1  0.49254256  0.96611439  0.80514845  1
  O  O22  1  0.93739411  0.91096594  0.69485155  1
  O  O23  1  0.15181268  0.87083645  0.97247879  1
  O  O24  1  0.12083645  0.90181268  0.47247879  1
  O  O25  1  0.89835665  0.17933289  0.02752121  1
  O  O26  1  0.82769328  0.05181113  0.47030977  1
  O  O27  1  0.60738351  0.33150136  0.02969023  1
  O  O28  1  0.52720378  0.99334560  0.18368981  1
  O  O29  1  0.58150136  0.35738351  0.52969023  1
