# generated using pymatgen
data_TiNiP2O9
_symmetry_space_group_name_H-M   'P 1'
_cell_length_a   6.40297817
_cell_length_b   7.91704673
_cell_length_c   14.02713833
_cell_angle_alpha   90.00499574
_cell_angle_beta   90.05631869
_cell_angle_gamma   90.04782730
_symmetry_Int_Tables_number   1
_chemical_formula_structural   TiNiP2O9
_chemical_formula_sum   'Ti4 Ni4 P8 O36'
_cell_volume   711.07260363
_cell_formula_units_Z   4
loop_
 _symmetry_equiv_pos_site_id
 _symmetry_equiv_pos_as_xyz
  1  'x, y, z'
loop_
 _atom_site_type_symbol
 _atom_site_label
 _atom_site_symmetry_multiplicity
 _atom_site_fract_x
 _atom_site_fract_y
 _atom_site_fract_z
 _atom_site_occupancy
  Ti  Ti0  1  0.74966848  0.33837824  0.88409804  1
  Ti  Ti1  1  0.25029423  0.66236941  0.11670441  1
  Ti  Ti2  1  0.25024034  0.83831200  0.61607473  1
  Ti  Ti3  1  0.74978543  0.16221771  0.38304197  1
  Ni  Ni4  1  0.49992485  0.99948653  0.00050492  1
  Ni  Ni5  1  0.50011125  0.49948563  0.49946314  1
  Ni  Ni6  1  0.99989971  0.49953676  0.49947300  1
  Ni  Ni7  1  0.00002606  0.99951008  0.00052826  1
  P  P8  1  0.25011201  0.34633883  0.94085796  1
  P  P9  1  0.74991992  0.65344206  0.05930353  1
  P  P10  1  0.75015392  0.84615174  0.55885539  1
  P  P11  1  0.24985169  0.15346427  0.44095388  1
  P  P12  1  0.75033790  0.39380481  0.68624565  1
  P  P13  1  0.24966232  0.60712598  0.31346292  1
  P  P14  1  0.25031826  0.89342843  0.81392376  1
  P  P15  1  0.74966564  0.10688163  0.18644206  1
  O  O16  1  0.04918447  0.60165102  0.37367091  1
  O  O17  1  0.54929042  0.39962771  0.62618930  1
  O  O18  1  0.95051382  0.10118505  0.12662554  1
  O  O19  1  0.45112969  0.89941963  0.87428036  1
  O  O20  1  0.95086801  0.39968109  0.62607671  1
  O  O21  1  0.45056584  0.60173355  0.37359184  1
  O  O22  1  0.04929204  0.89947220  0.87369866  1
  O  O23  1  0.54886723  0.10133455  0.12602224  1
  O  O24  1  0.25006184  0.33574189  0.48172129  1
  O  O25  1  0.74993217  0.66356284  0.51867797  1
  O  O26  1  0.74983285  0.83542279  0.01824591  1
  O  O27  1  0.25013252  0.16394473  0.98148867  1
  O  O28  1  0.74930773  0.14983059  0.94954479  1
  O  O29  1  0.25066544  0.85034161  0.05056984  1
  O  O30  1  0.24960280  0.64976438  0.55066562  1
  O  O31  1  0.75040270  0.35003937  0.44929186  1
  O  O32  1  0.75061730  0.23465835  0.75129554  1
  O  O33  1  0.24944742  0.76580130  0.24816695  1
  O  O34  1  0.25140417  0.73438047  0.74881070  1
  O  O35  1  0.74868479  0.26560288  0.25162152  1
  O  O36  1  0.44640034  0.13142823  0.37918061  1
  O  O37  1  0.94665389  0.86809860  0.62111394  1
  O  O38  1  0.55367288  0.63142981  0.12114720  1
  O  O39  1  0.05345753  0.36779604  0.87878523  1
  O  O40  1  0.55388647  0.86817941  0.62097830  1
  O  O41  1  0.05314339  0.13141140  0.37907420  1
  O  O42  1  0.44616149  0.36804313  0.87861443  1
  O  O43  1  0.94668661  0.63172482  0.12098004  1
  O  O44  1  0.74990870  0.95774250  0.25923182  1
  O  O45  1  0.25008404  0.04184159  0.74048016  1
  O  O46  1  0.24976932  0.45794863  0.24067624  1
  O  O47  1  0.75036215  0.54194069  0.75971339  1
  O  O48  1  0.75000807  0.97864498  0.47925950  1
  O  O49  1  0.25001393  0.02076980  0.52062566  1
  O  O50  1  0.25016623  0.47961594  0.02012440  1
  O  O51  1  0.74984773  0.52025633  0.97982406  1
