# generated using pymatgen
data_Rb2InSbBr6
_symmetry_space_group_name_H-M   'P 1'
_cell_length_a   8.32117801
_cell_length_b   8.32117845
_cell_length_c   8.32117843
_cell_angle_alpha   59.99999863
_cell_angle_beta   59.99999798
_cell_angle_gamma   59.99999804
_symmetry_Int_Tables_number   1
_chemical_formula_structural   Rb2InSbBr6
_chemical_formula_sum   'Rb2 In1 Sb1 Br6'
_cell_volume   407.41730122
_cell_formula_units_Z   1
loop_
 _symmetry_equiv_pos_site_id
 _symmetry_equiv_pos_as_xyz
  1  'x, y, z'
loop_
 _atom_site_type_symbol
 _atom_site_label
 _atom_site_symmetry_multiplicity
 _atom_site_fract_x
 _atom_site_fract_y
 _atom_site_fract_z
 _atom_site_occupancy
  Rb  Rb0  1  0.25000000  0.25000000  0.25000000  1
  Rb  Rb1  1  0.75000000  0.75000000  0.75000000  1
  In  In2  1  0.50000000  0.50000000  0.50000000  1
  Sb  Sb3  1  0.00000000  0.00000000  0.00000000  1
  Br  Br4  1  0.24040893  0.75959107  0.24040893  1
  Br  Br5  1  0.75959107  0.75959107  0.24040893  1
  Br  Br6  1  0.75959107  0.24040893  0.75959107  1
  Br  Br7  1  0.75959107  0.24040893  0.24040893  1
  Br  Br8  1  0.24040893  0.75959107  0.75959107  1
  Br  Br9  1  0.24040893  0.24040893  0.75959107  1
