# generated using pymatgen
data_Li2NiPO4F
_symmetry_space_group_name_H-M   'P 1'
_cell_length_a   5.30800585
_cell_length_b   5.34362437
_cell_length_c   7.37958722
_cell_angle_alpha   72.91004758
_cell_angle_beta   71.80855297
_cell_angle_gamma   94.68882649
_symmetry_Int_Tables_number   1
_chemical_formula_structural   Li2NiPO4F
_chemical_formula_sum   'Li4 Ni2 P2 O8 F2'
_cell_volume   186.57111583
_cell_formula_units_Z   2
loop_
 _symmetry_equiv_pos_site_id
 _symmetry_equiv_pos_as_xyz
  1  'x, y, z'
loop_
 _atom_site_type_symbol
 _atom_site_label
 _atom_site_symmetry_multiplicity
 _atom_site_fract_x
 _atom_site_fract_y
 _atom_site_fract_z
 _atom_site_occupancy
  Li  Li0  1  0.76658710  0.41379898  0.15408795  1
  Li  Li1  1  0.55938878  0.86850906  0.84783471  1
  Li  Li2  1  0.49919488  0.00747411  0.48418959  1
  Li  Li3  1  0.19564388  0.55803828  0.82906698  1
  Ni  Ni4  1  0.00436077  0.99899722  0.00663162  1
  Ni  Ni5  1  0.01391577  0.01372908  0.48948765  1
  P  P6  1  0.33861334  0.63193163  0.24306371  1
  P  P7  1  0.66255551  0.37186757  0.76528062  1
  O  O8  1  0.73007038  0.21055801  0.61813707  1
  O  O9  1  0.26444200  0.77807543  0.39709121  1
  O  O10  1  0.67159275  0.67384315  0.66109763  1
  O  O11  1  0.85988876  0.33950849  0.88571515  1
  O  O12  1  0.15633603  0.66511328  0.10919989  1
  O  O13  1  0.63696345  0.74955437  0.08911355  1
  O  O14  1  0.33625489  0.33269805  0.34488734  1
  O  O15  1  0.36951384  0.25314597  0.91385458  1
  F  F16  1  0.15449345  0.91876645  0.73245849  1
  F  F17  1  0.85230243  0.08275786  0.27021226  1
