# generated using pymatgen
data_VZn(Si2O5)2
_symmetry_space_group_name_H-M   'P 1'
_cell_length_a   7.34782906
_cell_length_b   7.34782906
_cell_length_c   15.03407685
_cell_angle_alpha   90.00000000
_cell_angle_beta   90.00000000
_cell_angle_gamma   90.00000000
_symmetry_Int_Tables_number   1
_chemical_formula_structural   VZn(Si2O5)2
_chemical_formula_sum   'V4 Zn4 Si16 O40'
_cell_volume   811.69870773
_cell_formula_units_Z   4
loop_
 _symmetry_equiv_pos_site_id
 _symmetry_equiv_pos_as_xyz
  1  'x, y, z'
loop_
 _atom_site_type_symbol
 _atom_site_label
 _atom_site_symmetry_multiplicity
 _atom_site_fract_x
 _atom_site_fract_y
 _atom_site_fract_z
 _atom_site_occupancy
  V  V0  1  0.25000000  0.25000000  0.57033511  1
  V  V1  1  0.75000000  0.75000000  0.92966489  1
  V  V2  1  0.75000000  0.75000000  0.42966489  1
  V  V3  1  0.25000000  0.25000000  0.07033511  1
  Zn  Zn4  1  0.25000000  0.75000000  0.50000000  1
  Zn  Zn5  1  0.75000000  0.25000000  0.50000000  1
  Zn  Zn6  1  0.75000000  0.25000000  0.00000000  1
  Zn  Zn7  1  0.25000000  0.75000000  0.00000000  1
  Si  Si8  1  0.90564341  0.48899623  0.64613799  1
  Si  Si9  1  0.59435659  0.01100377  0.64613799  1
  Si  Si10  1  0.98899623  0.40564341  0.85386201  1
  Si  Si11  1  0.48899623  0.59435659  0.64613799  1
  Si  Si12  1  0.01100377  0.90564341  0.64613799  1
  Si  Si13  1  0.09435659  0.98899623  0.85386201  1
  Si  Si14  1  0.40564341  0.51100377  0.85386201  1
  Si  Si15  1  0.51100377  0.09435659  0.85386201  1
  Si  Si16  1  0.09435659  0.51100377  0.35386201  1
  Si  Si17  1  0.40564341  0.98899623  0.35386201  1
  Si  Si18  1  0.01100377  0.59435659  0.14613799  1
  Si  Si19  1  0.51100377  0.40564341  0.35386201  1
  Si  Si20  1  0.98899623  0.09435659  0.35386201  1
  Si  Si21  1  0.90564341  0.01100377  0.14613799  1
  Si  Si22  1  0.59435659  0.48899623  0.14613799  1
  Si  Si23  1  0.48899623  0.90564341  0.14613799  1
  O  O24  1  0.97775362  0.33773667  0.57570031  1
  O  O25  1  0.52224638  0.16226333  0.57570031  1
  O  O26  1  0.83773667  0.47775362  0.92429969  1
  O  O27  1  0.33773667  0.52224638  0.57570031  1
  O  O28  1  0.16226333  0.97775362  0.57570031  1
  O  O29  1  0.02224638  0.83773667  0.92429969  1
  O  O30  1  0.47775362  0.66226333  0.92429969  1
  O  O31  1  0.66226333  0.02224638  0.92429969  1
  O  O32  1  0.02224638  0.66226333  0.42429969  1
  O  O33  1  0.47775362  0.83773667  0.42429969  1
  O  O34  1  0.16226333  0.52224638  0.07570031  1
  O  O35  1  0.66226333  0.47775362  0.42429969  1
  O  O36  1  0.83773667  0.02224638  0.42429969  1
  O  O37  1  0.97775362  0.16226333  0.07570031  1
  O  O38  1  0.52224638  0.33773667  0.07570031  1
  O  O39  1  0.00382752  0.31228972  0.37218934  1
  O  O40  1  0.33773667  0.97775362  0.07570031  1
  O  O41  1  0.50382752  0.81228972  0.62781066  1
  O  O42  1  0.18771028  0.49617248  0.87218934  1
  O  O43  1  0.68771028  0.50382752  0.62781066  1
  O  O44  1  0.81228972  0.99617248  0.62781066  1
  O  O45  1  0.00382752  0.18771028  0.87218934  1
  O  O46  1  0.49617248  0.31228972  0.87218934  1
  O  O47  1  0.31228972  0.00382752  0.87218934  1
  O  O48  1  0.43877297  0.93877297  0.25000000  1
  O  O49  1  0.56122703  0.43877297  0.25000000  1
  O  O50  1  0.93877297  0.06122803  0.25000000  1
  O  O51  1  0.06122803  0.56122703  0.25000000  1
  O  O52  1  0.56122703  0.06122803  0.75000000  1
  O  O53  1  0.43877297  0.56122703  0.75000000  1
  O  O54  1  0.06122803  0.93877297  0.75000000  1
  O  O55  1  0.93877297  0.43877297  0.75000000  1
  O  O56  1  0.68771028  0.99617248  0.12781066  1
  O  O57  1  0.50382752  0.68771028  0.12781066  1
  O  O58  1  0.99617248  0.81228972  0.12781066  1
  O  O59  1  0.18771028  0.00382752  0.37218934  1
  O  O60  1  0.31228972  0.49617248  0.37218934  1
  O  O61  1  0.81228972  0.50382752  0.12781066  1
  O  O62  1  0.49617248  0.18771028  0.37218934  1
  O  O63  1  0.99617248  0.68771028  0.62781066  1
