# generated using pymatgen
data_PH10C2NO4
_symmetry_space_group_name_H-M   'P 1'
_cell_length_a   7.08719257
_cell_length_b   9.48911242
_cell_length_c   19.25509724
_cell_angle_alpha   89.99643817
_cell_angle_beta   89.90275740
_cell_angle_gamma   89.92561063
_symmetry_Int_Tables_number   1
_chemical_formula_structural   PH10C2NO4
_chemical_formula_sum   'P8 H80 C16 N8 O32'
_cell_volume   1294.92480296
_cell_formula_units_Z   8
loop_
 _symmetry_equiv_pos_site_id
 _symmetry_equiv_pos_as_xyz
  1  'x, y, z'
loop_
 _atom_site_type_symbol
 _atom_site_label
 _atom_site_symmetry_multiplicity
 _atom_site_fract_x
 _atom_site_fract_y
 _atom_site_fract_z
 _atom_site_occupancy
  P  P0  1  0.23772941  0.32868465  0.23507217  1
  P  P1  1  0.25092098  0.33905164  0.73618639  1
  P  P2  1  0.24259747  0.16793012  0.48716132  1
  P  P3  1  0.24361840  0.16841011  0.98698094  1
  P  P4  1  0.73732882  0.82875462  0.51525750  1
  P  P5  1  0.73740130  0.82872964  0.01553744  1
  P  P6  1  0.74384587  0.66810204  0.26339042  1
  P  P7  1  0.75920956  0.67498534  0.76493128  1
  H  H8  1  0.08517612  0.86042353  0.38602996  1
  H  H9  1  0.08447722  0.85849777  0.88539218  1
  H  H10  1  0.08439152  0.81230938  0.09129536  1
  H  H11  1  0.08464078  0.81363350  0.59130840  1
  H  H12  1  0.10448348  0.62297705  0.44085629  1
  H  H13  1  0.10416129  0.62055044  0.94026268  1
  H  H14  1  0.14702665  0.86347434  0.20939727  1
  H  H15  1  0.14784479  0.86321086  0.70957535  1
  H  H16  1  0.19168213  0.66027363  0.31981626  1
  H  H17  1  0.18837036  0.65906266  0.81909177  1
  H  H18  1  0.17395069  0.61260265  0.16150790  1
  H  H19  1  0.17551466  0.61544331  0.66232829  1
  H  H20  1  0.22447516  0.20624654  0.33444902  1
  H  H21  1  0.22233094  0.21434794  0.83451615  1
  H  H22  1  0.23151391  0.00389776  0.15525143  1
  H  H23  1  0.23080247  0.00500008  0.65565434  1
  H  H24  1  0.26265572  0.90930958  0.32394755  1
  H  H25  1  0.26168540  0.90715988  0.82332241  1
  H  H26  1  0.24024423  0.59203249  0.07266201  1
  H  H27  1  0.23810138  0.59309480  0.57301613  1
  H  H28  1  0.26860401  0.49717642  0.40651848  1
  H  H29  1  0.26888162  0.49537851  0.90573542  1
  H  H30  1  0.27208955  0.29175395  0.08580934  1
  H  H31  1  0.27024234  0.29399669  0.58514116  1
  H  H32  1  0.32353480  0.88776531  0.41340735  1
  H  H33  1  0.32292884  0.88598652  0.91279633  1
  H  H34  1  0.31610420  0.83994815  0.06898852  1
  H  H35  1  0.31602734  0.84133402  0.56896355  1
  H  H36  1  0.35190045  0.63794098  0.46081934  1
  H  H37  1  0.35149217  0.63614099  0.96011229  1
  H  H38  1  0.39506153  0.87844480  0.18999439  1
  H  H39  1  0.39537367  0.87951995  0.68993276  1
  H  H40  1  0.42012227  0.69089672  0.34342896  1
  H  H41  1  0.41768235  0.68834787  0.84243596  1
  H  H42  1  0.41397397  0.63978011  0.13604701  1
  H  H43  1  0.41457879  0.64137281  0.63516940  1
  H  H44  1  0.47321937  0.48870894  0.25242928  1
  H  H45  1  0.48643366  0.02127642  0.49665390  1
  H  H46  1  0.48652815  0.02083299  0.99624688  1
  H  H47  1  0.52587277  0.51334352  0.74736875  1
  H  H48  1  0.58543660  0.36042826  0.36405233  1
  H  H49  1  0.58635224  0.36174597  0.86299735  1
  H  H50  1  0.58433926  0.31240423  0.15901007  1
  H  H51  1  0.58188751  0.31007207  0.65774870  1
  H  H52  1  0.60490442  0.12252985  0.30929127  1
  H  H53  1  0.60566851  0.12337376  0.80916536  1
  H  H54  1  0.64707778  0.36368576  0.04096371  1
  H  H55  1  0.64692783  0.36165729  0.54004408  1
  H  H56  1  0.69069869  0.16019915  0.43032460  1
  H  H57  1  0.68981492  0.16122254  0.93027262  1
  H  H58  1  0.67395871  0.11288956  0.08865623  1
  H  H59  1  0.67356958  0.11054195  0.58813113  1
  H  H60  1  0.72446140  0.70641731  0.41587967  1
  H  H61  1  0.72421088  0.70690772  0.91590464  1
  H  H62  1  0.73145443  0.50415706  0.09498111  1
  H  H63  1  0.73200933  0.50207866  0.59397900  1
  H  H64  1  0.76257041  0.40926284  0.42602836  1
  H  H65  1  0.75980381  0.40976691  0.92658341  1
  H  H66  1  0.74003937  0.09210275  0.17738639  1
  H  H67  1  0.73944307  0.08996936  0.67688611  1
  H  H68  1  0.76874926  0.99684314  0.34366319  1
  H  H69  1  0.76837174  0.99759933  0.84405577  1
  H  H70  1  0.77202312  0.79221996  0.16471813  1
  H  H71  1  0.76922800  0.79525353  0.66495889  1
  H  H72  1  0.82409836  0.38725378  0.33658067  1
  H  H73  1  0.82632017  0.38975166  0.83770336  1
  H  H74  1  0.81573231  0.34011592  0.18115493  1
  H  H75  1  0.81186249  0.33908989  0.68034858  1
  H  H76  1  0.85257917  0.13759885  0.28936290  1
  H  H77  1  0.85391744  0.13721508  0.78967740  1
  H  H78  1  0.89513045  0.37874057  0.06000458  1
  H  H79  1  0.89501099  0.37592735  0.55933287  1
  H  H80  1  0.91939587  0.19033173  0.40677993  1
  H  H81  1  0.91908841  0.19127636  0.90711995  1
  H  H82  1  0.91394723  0.13989223  0.11381283  1
  H  H83  1  0.91339761  0.13786605  0.61320404  1
  H  H84  1  0.97244772  0.98825957  0.49781402  1
  H  H85  1  0.97311567  0.98838994  0.99787014  1
  H  H86  1  0.98685170  0.52071084  0.25404998  1
  H  H87  1  0.00813612  0.48911589  0.74488986  1
  C  C88  1  0.23380335  0.84941113  0.37135574  1
  C  C89  1  0.23312346  0.84740345  0.87079557  1
  C  C90  1  0.24857929  0.60742282  0.42138840  1
  C  C91  1  0.24821490  0.60554240  0.92067821  1
  C  C92  1  0.25149858  0.89365659  0.17017858  1
  C  C93  1  0.25156647  0.89470676  0.67033619  1
  C  C94  1  0.26639778  0.65173651  0.12030984  1
  C  C95  1  0.26635259  0.65324227  0.62036619  1
  C  C96  1  0.73390596  0.34919037  0.37868341  1
  C  C97  1  0.73392025  0.35028559  0.87884446  1
  C  C98  1  0.74880021  0.10707391  0.32877455  1
  C  C99  1  0.74921587  0.10779895  0.82895478  1
  C  C100  1  0.75159311  0.39393466  0.08001159  1
  C  C101  1  0.75137359  0.39175407  0.57913690  1
  C  C102  1  0.76643734  0.15192946  0.12975718  1
  C  C103  1  0.76586397  0.14968809  0.62923395  1
  N  N104  1  0.22530841  0.80320057  0.10782294  1
  N  N105  1  0.22534217  0.80461552  0.60782068  1
  N  N106  1  0.27742460  0.69817124  0.35919595  1
  N  N107  1  0.27596202  0.69624951  0.85846520  1
  N  N108  1  0.72522210  0.30336004  0.14235968  1
  N  N109  1  0.72359035  0.30123874  0.64150832  1
  N  N110  1  0.77695120  0.19790383  0.39094971  1
  N  N111  1  0.77687870  0.19890466  0.89105149  1
  O  O112  1  0.02998083  0.37284533  0.23035096  1
  O  O113  1  0.03483692  0.38540098  0.72745003  1
  O  O114  1  0.14323310  0.04739321  0.02374361  1
  O  O115  1  0.14268803  0.04726111  0.52440718  1
  O  O116  1  0.16158707  0.21019544  0.41718455  1
  O  O117  1  0.16237116  0.21286906  0.91727623  1
  O  O118  1  0.25796911  0.19274721  0.28372615  1
  O  O119  1  0.24755673  0.20050259  0.78307581  1
  O  O120  1  0.24439480  0.30602638  0.03446115  1
  O  O121  1  0.24175657  0.30683454  0.53382122  1
  O  O122  1  0.33480868  0.29173893  0.16667588  1
  O  O123  1  0.33293799  0.29468490  0.66627547  1
  O  O124  1  0.35342187  0.45811661  0.77319489  1
  O  O125  1  0.34418107  0.45228577  0.27374353  1
  O  O126  1  0.46036032  0.12393557  0.47921806  1
  O  O127  1  0.46072905  0.12316244  0.97824257  1
  O  O128  1  0.52946255  0.87396481  0.02049356  1
  O  O129  1  0.52957245  0.87351655  0.51995246  1
  O  O130  1  0.64364859  0.54716206  0.22659782  1
  O  O131  1  0.65656451  0.54839337  0.72714514  1
  O  O132  1  0.66237544  0.71166316  0.33332530  1
  O  O133  1  0.66413750  0.71182595  0.83363136  1
  O  O134  1  0.75725456  0.69271751  0.46665224  1
  O  O135  1  0.75635543  0.69299672  0.96677399  1
  O  O136  1  0.74464261  0.80608037  0.21626964  1
  O  O137  1  0.73383623  0.80921481  0.71566440  1
  O  O138  1  0.83360179  0.79179634  0.08377758  1
  O  O139  1  0.83384004  0.79232539  0.58360250  1
  O  O140  1  0.84407897  0.95223954  0.47633285  1
  O  O141  1  0.84421414  0.95212842  0.97664904  1
  O  O142  1  0.96094609  0.62304751  0.27186931  1
  O  O143  1  0.96846440  0.63349963  0.76885053  1
