# generated using pymatgen
data_Sr2La14Mg4(Fe4O15)3
_symmetry_space_group_name_H-M   'P 1'
_cell_length_a   5.67287623
_cell_length_b   5.60694051
_cell_length_c   31.64192662
_cell_angle_alpha   89.89824199
_cell_angle_beta   89.91274847
_cell_angle_gamma   89.98044735
_symmetry_Int_Tables_number   1
_chemical_formula_structural   Sr2La14Mg4(Fe4O15)3
_chemical_formula_sum   'Sr2 La14 Mg4 Fe12 O45'
_cell_volume   1006.44712111
_cell_formula_units_Z   1
loop_
 _symmetry_equiv_pos_site_id
 _symmetry_equiv_pos_as_xyz
  1  'x, y, z'
loop_
 _atom_site_type_symbol
 _atom_site_label
 _atom_site_symmetry_multiplicity
 _atom_site_fract_x
 _atom_site_fract_y
 _atom_site_fract_z
 _atom_site_occupancy
  Sr  Sr0  1  0.02650618  0.01614616  0.18938932  1
  Sr  Sr1  1  0.02581767  0.01716482  0.43845801  1
  La  La2  1  0.03502224  0.01123178  0.68621318  1
  La  La3  1  0.03496471  0.00963615  0.93796804  1
  La  La4  1  0.47088459  0.50982101  0.06198741  1
  La  La5  1  0.46012692  0.50975039  0.81232137  1
  La  La6  1  0.47427126  0.50780232  0.31163146  1
  La  La7  1  0.46948131  0.51396294  0.56234949  1
  La  La8  1  0.53170742  0.48890599  0.44017220  1
  La  La9  1  0.53409315  0.49198768  0.19070147  1
  La  La10  1  0.53577236  0.48787247  0.68623366  1
  La  La11  1  0.53625191  0.48930909  0.93800862  1
  La  La12  1  0.95733728  0.98332108  0.31076116  1
  La  La13  1  0.95822726  0.98001143  0.06160979  1
  La  La14  1  0.95961957  0.99114074  0.81225195  1
  La  La15  1  0.95691520  0.97817987  0.56176921  1
  Mg  Mg16  1  0.00435183  0.50549429  0.99442016  1
  Mg  Mg17  1  0.00366431  0.50765695  0.24562410  1
  Mg  Mg18  1  0.00418920  0.50746805  0.63071534  1
  Mg  Mg19  1  0.00283583  0.50644485  0.49540485  1
  Fe  Fe20  1  0.49856277  0.99768498  0.00162122  1
  Fe  Fe21  1  0.49856125  0.00280406  0.12446286  1
  Fe  Fe22  1  0.49675489  0.00086585  0.25149746  1
  Fe  Fe23  1  0.49756397  0.00002551  0.37399453  1
  Fe  Fe24  1  0.49856031  0.99907936  0.74970006  1
  Fe  Fe25  1  0.49926786  0.99858159  0.62338669  1
  Fe  Fe26  1  0.49919889  0.00228540  0.50140842  1
  Fe  Fe27  1  0.49865670  0.99966731  0.87512050  1
  Fe  Fe28  1  0.00098717  0.50679103  0.12981749  1
  Fe  Fe29  1  0.00136940  0.50776213  0.37955596  1
  Fe  Fe30  1  0.99753128  0.50232653  0.75020190  1
  Fe  Fe31  1  0.99789959  0.50206140  0.87479221  1
  O  O32  1  0.01919421  0.41607335  0.81285002  1
  O  O33  1  0.21576130  0.77250166  0.01478263  1
  O  O34  1  0.21737608  0.76419019  0.10969231  1
  O  O35  1  0.22108473  0.77274920  0.26351545  1
  O  O36  1  0.21591847  0.76481223  0.35880838  1
  O  O37  1  0.21971287  0.77149909  0.51526095  1
  O  O38  1  0.21043340  0.79336815  0.86390910  1
  O  O39  1  0.21587470  0.77525876  0.61075532  1
  O  O40  1  0.21126855  0.79005562  0.76210355  1
  O  O41  1  0.28475680  0.29141165  0.13132340  1
  O  O42  1  0.28679624  0.29270866  0.38133777  1
  O  O43  1  0.28781241  0.28939675  0.24423144  1
  O  O44  1  0.28732466  0.28487162  0.63298729  1
  O  O45  1  0.28893658  0.28986674  0.88746852  1
  O  O46  1  0.29095745  0.28963147  0.49283663  1
  O  O47  1  0.29079152  0.29019261  0.73812216  1
  O  O48  1  0.28835805  0.28487727  0.99355744  1
  O  O49  1  0.49186930  0.92202162  0.18670461  1
  O  O50  1  0.49027691  0.91632272  0.43633398  1
  O  O51  1  0.47894152  0.91321676  0.68639983  1
  O  O52  1  0.47642824  0.91345319  0.93930191  1
  O  O53  1  0.51641150  0.07670320  0.06315589  1
  O  O54  1  0.51272300  0.07588375  0.31312920  1
  O  O55  1  0.52325063  0.08782169  0.81269486  1
  O  O56  1  0.51952989  0.08537772  0.56290856  1
  O  O57  1  0.72368896  0.71657329  0.26331323  1
  O  O58  1  0.72416194  0.70891286  0.01457325  1
  O  O59  1  0.72974731  0.71207483  0.10962074  1
  O  O60  1  0.73094489  0.71277952  0.35871401  1
  O  O61  1  0.70727362  0.71161913  0.76231014  1
  O  O62  1  0.72194700  0.71362864  0.51430938  1
  O  O63  1  0.72408221  0.70890521  0.61015723  1
  O  O64  1  0.70657991  0.71014473  0.86386158  1
  O  O65  1  0.79005557  0.22316532  0.12889812  1
  O  O66  1  0.78120553  0.22433713  0.24623535  1
  O  O67  1  0.79176366  0.22339397  0.37784629  1
  O  O68  1  0.78502302  0.21857747  0.49507413  1
  O  O69  1  0.79415979  0.20920732  0.63276027  1
  O  O70  1  0.78975840  0.20867934  0.73815820  1
  O  O71  1  0.78678902  0.20831741  0.88762977  1
  O  O72  1  0.79437253  0.20770658  0.99351557  1
  O  O73  1  0.96279773  0.57739716  0.18639037  1
  O  O74  1  0.97196296  0.59252755  0.69017897  1
  O  O75  1  0.97424525  0.58984766  0.93504162  1
  O  O76  1  0.96479740  0.57919599  0.43619053  1
