# generated using pymatgen
data_K4Ca(WO4)3
_symmetry_space_group_name_H-M   'P 1'
_cell_length_a   7.10699755
_cell_length_b   7.10699696
_cell_length_c   7.10699741
_cell_angle_alpha   109.47122195
_cell_angle_beta   109.47122027
_cell_angle_gamma   109.47121841
_symmetry_Int_Tables_number   1
_chemical_formula_structural   K4Ca(WO4)3
_chemical_formula_sum   'K4 Ca1 W3 O12'
_cell_volume   276.33542827
_cell_formula_units_Z   1
loop_
 _symmetry_equiv_pos_site_id
 _symmetry_equiv_pos_as_xyz
  1  'x, y, z'
loop_
 _atom_site_type_symbol
 _atom_site_label
 _atom_site_symmetry_multiplicity
 _atom_site_fract_x
 _atom_site_fract_y
 _atom_site_fract_z
 _atom_site_occupancy
  K  K0  1  -0.00000000  0.00000000  0.50000000  1
  K  K1  1  -0.00000000  0.50000000  -0.00000000  1
  K  K2  1  0.50000000  0.00000000  -0.00000000  1
  K  K3  1  0.50000000  0.50000000  0.50000000  1
  Ca  Ca4  1  -0.00000000  0.00000000  -0.00000000  1
  W  W5  1  0.50000000  0.50000000  -0.00000000  1
  W  W6  1  0.50000000  0.00000000  0.50000000  1
  W  W7  1  -0.00000000  0.50000000  0.50000000  1
  O  O8  1  0.50000000  0.25000000  0.75000000  1
  O  O9  1  0.25000000  0.75000000  0.50000000  1
  O  O10  1  0.75000000  0.25000000  0.50000000  1
  O  O11  1  0.25000000  0.50000000  0.75000000  1
  O  O12  1  0.75000000  0.50000000  0.25000000  1
  O  O13  1  0.50000000  0.75000000  0.25000000  1
  O  O14  1  1.00000000  0.72587839  0.72587839  1
  O  O15  1  0.27412161  0.27412161  1.00000000  1
  O  O16  1  0.00000000  0.27412161  0.27412161  1
  O  O17  1  0.27412161  1.00000000  0.27412161  1
  O  O18  1  0.72587839  0.00000000  0.72587839  1
  O  O19  1  0.72587839  0.72587839  0.00000000  1
