# generated using pymatgen
data_CuSCl
_symmetry_space_group_name_H-M   'P 1'
_cell_length_a   7.90003391
_cell_length_b   9.21778840
_cell_length_c   11.67024133
_cell_angle_alpha   90.00000000
_cell_angle_beta   90.00000000
_cell_angle_gamma   107.40162972
_symmetry_Int_Tables_number   1
_chemical_formula_structural   CuSCl
_chemical_formula_sum   'Cu12 S12 Cl12'
_cell_volume   810.94130624
_cell_formula_units_Z   12
loop_
 _symmetry_equiv_pos_site_id
 _symmetry_equiv_pos_as_xyz
  1  'x, y, z'
loop_
 _atom_site_type_symbol
 _atom_site_label
 _atom_site_symmetry_multiplicity
 _atom_site_fract_x
 _atom_site_fract_y
 _atom_site_fract_z
 _atom_site_occupancy
  Cu  Cu0  1  0.89825844  0.91927249  0.38049176  1
  Cu  Cu1  1  0.10174156  0.08072751  0.88049176  1
  Cu  Cu2  1  0.10174156  0.08072751  0.61950824  1
  Cu  Cu3  1  0.89825844  0.91927249  0.11950824  1
  Cu  Cu4  1  0.58244357  0.55424110  0.37302774  1
  Cu  Cu5  1  0.41755643  0.44575890  0.87302774  1
  Cu  Cu6  1  0.41755643  0.44575890  0.62697226  1
  Cu  Cu7  1  0.58244357  0.55424110  0.12697226  1
  Cu  Cu8  1  0.14860739  0.80037132  0.25000000  1
  Cu  Cu9  1  0.85139261  0.19962868  0.75000000  1
  Cu  Cu10  1  0.83530683  0.43028883  0.25000000  1
  Cu  Cu11  1  0.16469317  0.56971117  0.75000000  1
  S  S12  1  0.02838534  0.60061522  0.12394360  1
  S  S13  1  0.14673646  0.31734069  0.53782113  1
  S  S14  1  0.85326354  0.68265931  0.03782113  1
  S  S15  1  0.97161466  0.39938478  0.62394360  1
  S  S16  1  0.85326354  0.68265931  0.46217887  1
  S  S17  1  0.02838534  0.60061522  0.37605640  1
  S  S18  1  0.97161466  0.39938478  0.87605640  1
  S  S19  1  0.59307936  0.80370793  0.33592723  1
  S  S20  1  0.40692064  0.19629207  0.83592723  1
  S  S21  1  0.40692064  0.19629207  0.66407277  1
  S  S22  1  0.59307936  0.80370793  0.16407277  1
  S  S23  1  0.14673646  0.31734069  0.96217887  1
  Cl  Cl24  1  0.63591475  0.32656644  0.39689269  1
  Cl  Cl25  1  0.63591475  0.32656644  0.10310731  1
  Cl  Cl26  1  0.36408525  0.67343356  0.60310731  1
  Cl  Cl27  1  0.34199846  0.46263421  0.25000000  1
  Cl  Cl28  1  0.65800154  0.53736579  0.75000000  1
  Cl  Cl29  1  0.79331480  0.02294893  0.89928110  1
  Cl  Cl30  1  0.09084822  0.89011057  0.75000000  1
  Cl  Cl31  1  0.20668520  0.97705107  0.10071890  1
  Cl  Cl32  1  0.79331480  0.02294893  0.60071890  1
  Cl  Cl33  1  0.90915178  0.10988943  0.25000000  1
  Cl  Cl34  1  0.36408525  0.67343356  0.89689269  1
  Cl  Cl35  1  0.20668520  0.97705107  0.39928110  1
