# generated using pymatgen
data_Sr14Nb6O29
_symmetry_space_group_name_H-M   'P 1'
_cell_length_a   6.04881603
_cell_length_b   6.07196658
_cell_length_c   30.55875512
_cell_angle_alpha   57.57702463
_cell_angle_beta   62.58151918
_cell_angle_gamma   61.35957414
_symmetry_Int_Tables_number   1
_chemical_formula_structural   Sr14Nb6O29
_chemical_formula_sum   'Sr14 Nb6 O29'
_cell_volume   799.50192654
_cell_formula_units_Z   1
loop_
 _symmetry_equiv_pos_site_id
 _symmetry_equiv_pos_as_xyz
  1  'x, y, z'
loop_
 _atom_site_type_symbol
 _atom_site_label
 _atom_site_symmetry_multiplicity
 _atom_site_fract_x
 _atom_site_fract_y
 _atom_site_fract_z
 _atom_site_occupancy
  Sr  Sr0  1  0.00311047  0.28776157  0.06958109  1
  Sr  Sr1  1  0.19408479  0.23922572  0.23832273  1
  Sr  Sr2  1  0.32336004  0.58917626  0.10034889  1
  Sr  Sr3  1  0.61312457  0.75821851  0.16467507  1
  Sr  Sr4  1  0.29028421  0.23147227  0.46632654  1
  Sr  Sr5  1  0.46644698  0.43152603  0.30702634  1
  Sr  Sr6  1  0.75634040  0.71967693  0.34563539  1
  Sr  Sr7  1  0.06530121  0.30744489  0.68092927  1
  Sr  Sr8  1  0.11504974  0.35397949  0.84296617  1
  Sr  Sr9  1  0.35504770  0.60809575  0.70052531  1
  Sr  Sr10  1  0.81975767  0.82145855  0.54677834  1
  Sr  Sr11  1  0.55211321  0.81465075  0.77718935  1
  Sr  Sr12  1  0.38906008  0.51411474  0.91627343  1
  Sr  Sr13  1  0.70741058  0.80487161  0.94135341  1
  Nb  Nb14  1  0.94195640  0.98443556  0.00129852  1
  Nb  Nb15  1  0.61983086  0.54268006  0.50345644  1
  Nb  Nb16  1  0.89770460  0.99244281  0.20544201  1
  Nb  Nb17  1  0.78696478  0.11223967  0.62115677  1
  Nb  Nb18  1  0.00549763  0.92622588  0.39419258  1
  Nb  Nb19  1  0.84684746  0.07558358  0.80964691  1
  O  O20  1  0.01900397  0.32532052  0.97794002  1
  O  O21  1  0.19652225  0.87267566  0.14489012  1
  O  O22  1  0.63506908  0.20477549  0.15769252  1
  O  O23  1  0.69951331  0.76361147  0.03438628  1
  O  O24  1  0.60446112  0.11590411  0.26399701  1
  O  O25  1  0.90174580  0.92729049  0.07422504  1
  O  O26  1  0.15376017  0.79079752  0.25148636  1
  O  O27  1  0.01089366  0.33034225  0.16675093  1
  O  O28  1  0.31782506  0.65214209  0.37520861  1
  O  O29  1  0.89338504  0.09622824  0.33057835  1
  O  O30  1  0.79352245  0.65885054  0.23626721  1
  O  O31  1  0.07064252  0.22913771  0.38336717  1
  O  O32  1  0.58590470  0.29570939  0.48862602  1
  O  O33  1  0.27524479  0.75004479  0.52108051  1
  O  O34  1  0.89756758  0.18833447  0.54171986  1
  O  O35  1  0.64167732  0.85422237  0.42487517  1
  O  O36  1  0.57365800  0.50451523  0.58258744  1
  O  O37  1  0.94754954  0.68331442  0.47368151  1
  O  O38  1  0.08695579  0.05715561  0.63478871  1
  O  O39  1  0.14077243  0.85210280  0.76408187  1
  O  O40  1  0.63436353  0.24226741  0.75875171  1
  O  O41  1  0.75838670  0.76582421  0.63941241  1
  O  O42  1  0.98888276  0.40668163  0.76212348  1
  O  O43  1  0.52071221  0.16744991  0.68347734  1
  O  O44  1  0.09833982  0.90358546  0.85581304  1
  O  O45  1  0.26629500  0.70536100  0.98964268  1
  O  O46  1  0.80827655  0.17224173  0.93890277  1
  O  O47  1  0.70616281  0.75714817  0.85578991  1
  O  O48  1  0.55071267  0.27318469  0.85715137  1
