# generated using pymatgen
data_Li7Co5O12
_symmetry_space_group_name_H-M   'P 1'
_cell_length_a   5.07275012
_cell_length_b   7.64622834
_cell_length_c   5.77761213
_cell_angle_alpha   79.65108338
_cell_angle_beta   107.22383571
_cell_angle_gamma   84.21157408
_symmetry_Int_Tables_number   1
_chemical_formula_structural   Li7Co5O12
_chemical_formula_sum   'Li7 Co5 O12'
_cell_volume   207.71761650
_cell_formula_units_Z   1
loop_
 _symmetry_equiv_pos_site_id
 _symmetry_equiv_pos_as_xyz
  1  'x, y, z'
loop_
 _atom_site_type_symbol
 _atom_site_label
 _atom_site_symmetry_multiplicity
 _atom_site_fract_x
 _atom_site_fract_y
 _atom_site_fract_z
 _atom_site_occupancy
  Li  Li0  1  0.50862646  0.15989648  0.08851690  1
  Li  Li1  1  0.49697172  0.16201995  0.58226150  1
  Li  Li2  1  0.49708681  0.49902957  0.24960489  1
  Li  Li3  1  0.50291319  0.50097043  0.75039511  1
  Li  Li4  1  0.50302828  0.83798005  0.41773850  1
  Li  Li5  1  0.49137354  0.84010352  0.91148310  1
  Li  Li6  1  0.00000000  0.00000000  0.50000000  1
  Co  Co7  1  0.00000000  0.00000000  -0.00000000  1
  Co  Co8  1  0.00213924  0.32497061  0.17091084  1
  Co  Co9  1  0.00036547  0.32760530  0.66447225  1
  Co  Co10  1  -0.00036547  0.67239470  0.33552775  1
  Co  Co11  1  0.99786076  0.67502939  0.82908916  1
  O  O12  1  0.21918977  0.08512719  0.80412361  1
  O  O13  1  0.22489300  0.08968041  0.26606400  1
  O  O14  1  0.21235790  0.42589364  0.95024563  1
  O  O15  1  0.23110830  0.41172258  0.44382745  1
  O  O16  1  0.22423453  0.76258977  0.10595769  1
  O  O17  1  0.23225134  0.73754511  0.62922611  1
  O  O18  1  0.76774866  0.26245489  0.37077389  1
  O  O19  1  0.77576547  0.23741023  0.89404231  1
  O  O20  1  0.76889170  0.58827742  0.55617255  1
  O  O21  1  0.78764210  0.57410636  0.04975437  1
  O  O22  1  0.77510700  0.91031959  0.73393600  1
  O  O23  1  0.78081023  0.91487281  0.19587639  1
