# generated using pymatgen
data_Li4Co3O7
_symmetry_space_group_name_H-M   'P 1'
_cell_length_a   5.10103722
_cell_length_b   10.01526786
_cell_length_c   5.14855293
_cell_angle_alpha   99.28825530
_cell_angle_beta   80.38693443
_cell_angle_gamma   78.39390884
_symmetry_Int_Tables_number   1
_chemical_formula_structural   Li4Co3O7
_chemical_formula_sum   'Li8 Co6 O14'
_cell_volume   248.80295239
_cell_formula_units_Z   2
loop_
 _symmetry_equiv_pos_site_id
 _symmetry_equiv_pos_as_xyz
  1  'x, y, z'
loop_
 _atom_site_type_symbol
 _atom_site_label
 _atom_site_symmetry_multiplicity
 _atom_site_fract_x
 _atom_site_fract_y
 _atom_site_fract_z
 _atom_site_occupancy
  Li  Li0  1  0.28808548  0.92724685  0.44027120  1
  Li  Li1  1  0.72162214  0.07164384  0.57015291  1
  Li  Li2  1  0.14069358  0.21588274  0.72300365  1
  Li  Li3  1  0.42123486  0.64264216  0.14413309  1
  Li  Li4  1  0.85477152  0.78703815  0.27401380  1
  Li  Li5  1  0.57142900  0.35714300  0.85714300  1
  Li  Li6  1  0.00216342  0.49840326  0.99128235  1
  Li  Li7  1  0.57142900  0.85714300  0.85714300  1
  Co  Co8  1  0.00635861  0.99597895  0.99413128  1
  Co  Co9  1  0.13649839  0.71830705  0.72015472  1
  Co  Co10  1  0.42993688  0.13430197  0.13613822  1
  Co  Co11  1  0.85612631  0.28772727  0.28279062  1
  Co  Co12  1  0.28673069  0.42655773  0.43149438  1
  Co  Co13  1  0.71292012  0.57998403  0.57814778  1
  O  O14  1  0.19111693  0.82619204  0.04448440  1
  O  O15  1  0.65961954  0.97480829  0.20194145  1
  O  O16  1  0.06643326  0.10336988  0.32229991  1
  O  O17  1  0.35021660  0.54920624  0.77369665  1
  O  O18  1  0.82038904  0.67984649  0.90353463  1
  O  O19  1  0.49273448  0.25814032  0.49539115  1
  O  O20  1  0.92202698  0.39723107  0.62580336  1
  O  O21  1  0.32246796  0.03443951  0.81075137  1
  O  O22  1  0.79264040  0.16507876  0.94058835  1
  O  O23  1  0.22083002  0.31705393  0.08848164  1
  O  O24  1  0.48323846  0.73947771  0.51234455  1
  O  O25  1  0.95174007  0.88809396  0.66980160  1
  O  O26  1  0.65012252  0.45614568  0.21889485  1
  O  O27  1  0.07642374  0.61091612  0.39198609  1
