# generated using pymatgen
data_Li7Mn2(CoO4)3
_symmetry_space_group_name_H-M   'P 1'
_cell_length_a   5.06035558
_cell_length_b   9.85221588
_cell_length_c   5.06755152
_cell_angle_alpha   94.60050011
_cell_angle_beta   60.14119653
_cell_angle_gamma   100.26428612
_symmetry_Int_Tables_number   1
_chemical_formula_structural   Li7Mn2(CoO4)3
_chemical_formula_sum   'Li7 Mn2 Co3 O12'
_cell_volume   215.59158259
_cell_formula_units_Z   1
loop_
 _symmetry_equiv_pos_site_id
 _symmetry_equiv_pos_as_xyz
  1  'x, y, z'
loop_
 _atom_site_type_symbol
 _atom_site_label
 _atom_site_symmetry_multiplicity
 _atom_site_fract_x
 _atom_site_fract_y
 _atom_site_fract_z
 _atom_site_occupancy
  Li  Li0  1  0.74587775  0.24597168  0.00318318  1
  Li  Li1  1  0.57847889  0.75142827  0.33320109  1
  Li  Li2  1  0.41518952  0.24860395  0.66175133  1
  Li  Li3  1  0.08818711  0.24857173  0.33346491  1
  Li  Li4  1  0.92078925  0.75402832  0.66348382  1
  Li  Li5  1  0.25147748  0.75139605  0.00491567  1
  Li  Li6  1  0.33333300  -0.00000000  0.33333300  1
  Mn  Mn7  1  0.00044618  -0.00000796  0.00034016  1
  Mn  Mn8  1  0.66622082  0.00000796  0.66632684  1
  Co  Co9  1  0.83333300  0.50000000  0.33333300  1
  Co  Co10  1  0.49876651  0.50085227  0.00127873  1
  Co  Co11  1  0.16790049  0.49914773  0.66538827  1
  O  O12  1  0.01386001  0.11156738  0.69030963  1
  O  O13  1  0.86300347  0.61361926  0.00894467  1
  O  O14  1  0.73340404  0.11145167  0.32965126  1
  O  O15  1  0.37475520  0.11158723  0.97018387  1
  O  O16  1  0.20318434  0.61791463  0.33695856  1
  O  O17  1  0.53064431  0.61472509  0.67022528  1
  O  O18  1  0.46348266  0.38208537  0.32970844  1
  O  O19  1  0.29191080  0.88841277  0.69648213  1
  O  O20  1  0.13602269  0.38527491  0.99644172  1
  O  O21  1  0.80366253  0.38638074  0.65772133  1
  O  O22  1  0.65280699  0.88843262  0.97635737  1
  O  O23  1  0.93326296  0.88854833  0.33701574  1
