# generated using pymatgen
data_ZnSi4NiO10
_symmetry_space_group_name_H-M   'P 1'
_cell_length_a   7.27014107
_cell_length_b   7.27014107
_cell_length_c   14.93009503
_cell_angle_alpha   90.00000000
_cell_angle_beta   90.00000000
_cell_angle_gamma   90.00000000
_symmetry_Int_Tables_number   1
_chemical_formula_structural   ZnSi4NiO10
_chemical_formula_sum   'Zn4 Si16 Ni4 O40'
_cell_volume   789.12944389
_cell_formula_units_Z   4
loop_
 _symmetry_equiv_pos_site_id
 _symmetry_equiv_pos_as_xyz
  1  'x, y, z'
loop_
 _atom_site_type_symbol
 _atom_site_label
 _atom_site_symmetry_multiplicity
 _atom_site_fract_x
 _atom_site_fract_y
 _atom_site_fract_z
 _atom_site_occupancy
  Zn  Zn0  1  0.25000000  0.75000000  0.50000000  1
  Zn  Zn1  1  0.75000000  0.25000000  0.50000000  1
  Zn  Zn2  1  0.75000000  0.25000000  -0.00000000  1
  Zn  Zn3  1  0.25000000  0.75000000  -0.00000000  1
  Si  Si4  1  0.91284894  0.49003134  0.64442105  1
  Si  Si5  1  0.58715106  0.00996866  0.64442105  1
  Si  Si6  1  0.99003134  0.41284894  0.85557895  1
  Si  Si7  1  0.49003134  0.58715106  0.64442105  1
  Si  Si8  1  0.00996866  0.91284894  0.64442105  1
  Si  Si9  1  0.08715106  0.99003134  0.85557895  1
  Si  Si10  1  0.41284894  0.50996866  0.85557895  1
  Si  Si11  1  0.50996866  0.08715106  0.85557895  1
  Si  Si12  1  0.08715106  0.50996866  0.35557895  1
  Si  Si13  1  0.41284894  0.99003134  0.35557895  1
  Si  Si14  1  0.00996866  0.58715106  0.14442105  1
  Si  Si15  1  0.50996866  0.41284894  0.35557895  1
  Si  Si16  1  0.99003134  0.08715106  0.35557895  1
  Si  Si17  1  0.91284894  0.00996866  0.14442105  1
  Si  Si18  1  0.58715106  0.49003134  0.14442105  1
  Si  Si19  1  0.49003134  0.91284894  0.14442105  1
  Ni  Ni20  1  0.25000000  0.25000000  0.57002758  1
  Ni  Ni21  1  0.75000000  0.75000000  0.92997242  1
  Ni  Ni22  1  0.75000000  0.75000000  0.42997242  1
  Ni  Ni23  1  0.25000000  0.25000000  0.07002758  1
  O  O24  1  0.98682761  0.33466057  0.57497570  1
  O  O25  1  0.51317239  0.16533943  0.57497570  1
  O  O26  1  0.83466057  0.48682761  0.92502430  1
  O  O27  1  0.33466057  0.51317239  0.57497570  1
  O  O28  1  0.16533943  0.98682761  0.57497570  1
  O  O29  1  0.01317239  0.83466057  0.92502430  1
  O  O30  1  0.48682761  0.66533943  0.92502430  1
  O  O31  1  0.66533943  0.01317239  0.92502430  1
  O  O32  1  0.01317239  0.66533943  0.42502430  1
  O  O33  1  0.48682761  0.83466057  0.42502430  1
  O  O34  1  0.16533943  0.51317239  0.07497570  1
  O  O35  1  0.66533943  0.48682761  0.42502430  1
  O  O36  1  0.83466057  0.01317239  0.42502430  1
  O  O37  1  0.98682761  0.16533943  0.07497570  1
  O  O38  1  0.51317239  0.33466057  0.07497570  1
  O  O39  1  0.00052262  0.30743910  0.37543359  1
  O  O40  1  0.33466057  0.98682761  0.07497570  1
  O  O41  1  0.50052262  0.80743910  0.62456641  1
  O  O42  1  0.19256090  0.49947738  0.87543359  1
  O  O43  1  0.69256090  0.50052262  0.62456641  1
  O  O44  1  0.80743910  -0.00052262  0.62456641  1
  O  O45  1  0.00052262  0.19256090  0.87543359  1
  O  O46  1  0.49947738  0.30743910  0.87543359  1
  O  O47  1  0.30743910  0.00052262  0.87543359  1
  O  O48  1  0.44703924  0.94703924  0.25000000  1
  O  O49  1  0.55296076  0.44703924  0.25000000  1
  O  O50  1  0.94703924  0.05296176  0.25000000  1
  O  O51  1  0.05296176  0.55296076  0.25000000  1
  O  O52  1  0.55296076  0.05296176  0.75000000  1
  O  O53  1  0.44703924  0.55296076  0.75000000  1
  O  O54  1  0.05296176  0.94703924  0.75000000  1
  O  O55  1  0.94703924  0.44703924  0.75000000  1
  O  O56  1  0.69256090  -0.00052262  0.12456641  1
  O  O57  1  0.50052262  0.69256090  0.12456641  1
  O  O58  1  -0.00052262  0.80743910  0.12456641  1
  O  O59  1  0.19256090  0.00052262  0.37543359  1
  O  O60  1  0.30743910  0.49947738  0.37543359  1
  O  O61  1  0.80743910  0.50052262  0.12456641  1
  O  O62  1  0.49947738  0.19256090  0.37543359  1
  O  O63  1  -0.00052262  0.69256090  0.62456641  1
