# generated using pymatgen
data_Li5Mn(CoO4)2
_symmetry_space_group_name_H-M   'P 1'
_cell_length_a   4.96924789
_cell_length_b   5.90963171
_cell_length_c   5.87003648
_cell_angle_alpha   120.22338345
_cell_angle_beta   105.76943826
_cell_angle_gamma   89.99999638
_symmetry_Int_Tables_number   1
_chemical_formula_structural   Li5Mn(CoO4)2
_chemical_formula_sum   'Li5 Mn1 Co2 O8'
_cell_volume   141.39092976
_cell_formula_units_Z   1
loop_
 _symmetry_equiv_pos_site_id
 _symmetry_equiv_pos_as_xyz
  1  'x, y, z'
loop_
 _atom_site_type_symbol
 _atom_site_label
 _atom_site_symmetry_multiplicity
 _atom_site_fract_x
 _atom_site_fract_y
 _atom_site_fract_z
 _atom_site_occupancy
  Li  Li0  1  0.49594442  0.74925042  0.49850085  1
  Li  Li1  1  0.00000000  0.00000000  0.50000000  1
  Li  Li2  1  0.50405558  0.25074958  0.50149915  1
  Li  Li3  1  0.00000000  0.50000000  0.50000000  1
  Li  Li4  1  0.00000000  0.50000000  0.00000000  1
  Mn  Mn5  1  0.00000000  0.00000000  0.00000000  1
  Co  Co6  1  0.50000000  0.26000331  0.00000000  1
  Co  Co7  1  0.50000000  0.73999669  1.00000000  1
  O  O8  1  0.75870613  0.11566365  0.23132730  1
  O  O9  1  0.24977001  0.34149251  0.22032014  1
  O  O10  1  0.72314543  0.61766383  0.23532765  1
  O  O11  1  0.24977001  0.87882763  0.22032014  1
  O  O12  1  0.27685457  0.38233617  0.76467235  1
  O  O13  1  0.75022999  0.65850749  0.77967986  1
  O  O14  1  0.24129387  0.88433635  0.76867270  1
  O  O15  1  0.75022999  0.12117237  0.77967986  1
