# generated using pymatgen
data_Li5Mn(CoO4)2
_symmetry_space_group_name_H-M   'P 1'
_cell_length_a   5.07106444
_cell_length_b   4.97136827
_cell_length_c   5.90796415
_cell_angle_alpha   90.00000000
_cell_angle_beta   90.00000000
_cell_angle_gamma   108.40786247
_symmetry_Int_Tables_number   1
_chemical_formula_structural   Li5Mn(CoO4)2
_chemical_formula_sum   'Li5 Mn1 Co2 O8'
_cell_volume   141.31965049
_cell_formula_units_Z   1
loop_
 _symmetry_equiv_pos_site_id
 _symmetry_equiv_pos_as_xyz
  1  'x, y, z'
loop_
 _atom_site_type_symbol
 _atom_site_label
 _atom_site_symmetry_multiplicity
 _atom_site_fract_x
 _atom_site_fract_y
 _atom_site_fract_z
 _atom_site_occupancy
  Li  Li0  1  0.50000000  0.50000000  -0.00000000  1
  Li  Li1  1  0.50000000  0.00000000  0.26000400  1
  Li  Li2  1  0.50000000  0.50000000  0.50000000  1
  Li  Li3  1  0.50000000  -0.00000000  0.73999600  1
  Li  Li4  1  -0.00000000  -0.00000000  0.50000000  1
  Mn  Mn5  1  0.00000000  0.00000000  -0.00000000  1
  Co  Co6  1  -0.00000000  0.50000000  0.25908092  1
  Co  Co7  1  0.00000000  0.50000000  0.74091908  1
  O  O8  1  0.22884597  0.75766669  -0.00000000  1
  O  O9  1  0.22042103  0.24984088  0.23151850  1
  O  O10  1  0.23969510  0.72451862  0.50000000  1
  O  O11  1  0.22042103  0.24984088  0.76848150  1
  O  O12  1  0.77115403  0.24233331  -0.00000000  1
  O  O13  1  0.77957897  0.75015912  0.23151850  1
  O  O14  1  0.76030490  0.27548138  0.50000000  1
  O  O15  1  0.77957897  0.75015912  0.76848150  1
