# generated using pymatgen
data_Li4Co3O7
_symmetry_space_group_name_H-M   'P 1'
_cell_length_a   5.08958073
_cell_length_b   7.72597878
_cell_length_c   6.44909809
_cell_angle_alpha   87.08714654
_cell_angle_beta   96.42548700
_cell_angle_gamma   101.62209673
_symmetry_Int_Tables_number   1
_chemical_formula_structural   Li4Co3O7
_chemical_formula_sum   'Li8 Co6 O14'
_cell_volume   246.72767745
_cell_formula_units_Z   2
loop_
 _symmetry_equiv_pos_site_id
 _symmetry_equiv_pos_as_xyz
  1  'x, y, z'
loop_
 _atom_site_type_symbol
 _atom_site_label
 _atom_site_symmetry_multiplicity
 _atom_site_fract_x
 _atom_site_fract_y
 _atom_site_fract_z
 _atom_site_occupancy
  Li  Li0  1  0.92011543  0.35361939  0.86554148  1
  Li  Li1  1  0.22274157  0.93209461  0.42017252  1
  Li  Li2  1  0.49725732  0.49584365  -0.00020480  1
  Li  Li3  1  0.07142900  0.64285700  0.14285700  1
  Li  Li4  1  0.35538391  0.21458211  0.71611344  1
  Li  Li5  1  0.64559968  0.78987035  0.28591880  1
  Li  Li6  1  0.78747309  0.07113289  0.56960156  1
  Li  Li7  1  0.57142900  0.14285700  0.14285700  1
  Co  Co8  1  0.99667876  0.00486478  0.00177969  1
  Co  Co9  1  0.14617824  0.28084922  0.28393431  1
  Co  Co10  1  0.28611460  0.57184509  0.57518602  1
  Co  Co11  1  0.85674240  0.71386991  0.71052898  1
  Co  Co12  1  0.43262866  0.86504143  0.86311540  1
  Co  Co13  1  0.71022834  0.42067257  0.42259860  1
  O  O14  1  0.70490888  0.09295436  0.86736711  1
  O  O15  1  0.96051148  0.67896540  0.44493483  1
  O  O16  1  0.22306600  0.23754071  0.01825104  1
  O  O17  1  0.84067956  0.38781583  0.16741237  1
  O  O18  1  0.10378607  0.96218479  0.73704792  1
  O  O19  1  0.38099048  0.51812784  0.29514426  1
  O  O20  1  0.52971522  0.81653135  0.57863982  1
  O  O21  1  0.18234652  0.60674860  0.84077917  1
  O  O22  1  0.43794812  0.19276064  0.41834789  1
  O  O23  1  0.76186652  0.76758616  0.99056974  1
  O  O24  1  0.30217744  0.89789817  0.11830163  1
  O  O25  1  0.61314178  0.46918265  0.70707418  1
  O  O26  1  0.91979100  0.04817429  0.26746396  1
  O  O27  1  0.03907093  0.32352921  0.54866608  1
