# generated using pymatgen
data_Li3Mn(CoO3)2
_symmetry_space_group_name_H-M   'P 1'
_cell_length_a   2.89734414
_cell_length_b   5.19618154
_cell_length_c   7.88490562
_cell_angle_alpha   109.24021363
_cell_angle_beta   79.41306737
_cell_angle_gamma   90.00000066
_symmetry_Int_Tables_number   1
_chemical_formula_structural   Li3Mn(CoO3)2
_chemical_formula_sum   'Li3 Mn1 Co2 O6'
_cell_volume   109.93529248
_cell_formula_units_Z   1
loop_
 _symmetry_equiv_pos_site_id
 _symmetry_equiv_pos_as_xyz
  1  'x, y, z'
loop_
 _atom_site_type_symbol
 _atom_site_label
 _atom_site_symmetry_multiplicity
 _atom_site_fract_x
 _atom_site_fract_y
 _atom_site_fract_z
 _atom_site_occupancy
  Li  Li0  1  0.84130345  0.48998694  0.31739210  1
  Li  Li1  1  0.16666700  0.50000000  0.66666700  1
  Li  Li2  1  0.49202955  0.51001306  0.01594090  1
  Mn  Mn3  1  0.66666700  -0.00000000  0.66666700  1
  Co  Co4  1  0.99706229  0.00151613  0.00587543  1
  Co  Co5  1  0.33627071  -0.00151613  0.32745757  1
  O  O6  1  0.74631057  0.22005830  0.50737986  1
  O  O7  1  0.09312204  0.22040725  0.81375591  1
  O  O8  1  0.41679134  0.24070916  0.16641632  1
  O  O9  1  0.91654166  0.75929084  0.16691668  1
  O  O10  1  0.24021096  0.77959275  0.51957709  1
  O  O11  1  0.58702343  0.77994170  0.82595414  1
