# generated using pymatgen
data_Li6Mn3CoO10
_symmetry_space_group_name_H-M   'P 1'
_cell_length_a   2.87245052
_cell_length_b   8.52079150
_cell_length_c   7.75964482
_cell_angle_alpha   73.73205257
_cell_angle_beta   79.33368334
_cell_angle_gamma   90.00000443
_symmetry_Int_Tables_number   1
_chemical_formula_structural   Li6Mn3CoO10
_chemical_formula_sum   'Li6 Mn3 Co1 O10'
_cell_volume   178.89660345
_cell_formula_units_Z   1
loop_
 _symmetry_equiv_pos_site_id
 _symmetry_equiv_pos_as_xyz
  1  'x, y, z'
loop_
 _atom_site_type_symbol
 _atom_site_label
 _atom_site_symmetry_multiplicity
 _atom_site_fract_x
 _atom_site_fract_y
 _atom_site_fract_z
 _atom_site_occupancy
  Li  Li0  1  0.59954729  0.29902592  0.80090541  1
  Li  Li1  1  0.79292594  0.89016199  0.41414811  1
  Li  Li2  1  0.00323887  0.52723132  0.99352227  1
  Li  Li3  1  0.19808401  0.07904342  0.60383198  1
  Li  Li4  1  0.40665488  0.70669548  0.18669024  1
  Li  Li5  1  0.60088736  0.79976735  0.79822527  1
  Mn  Mn6  1  0.00284883  0.98451808  0.99430234  1
  Mn  Mn7  1  0.19753829  0.61148571  0.60492341  1
  Mn  Mn8  1  0.39856915  0.19752228  0.20286170  1
  Co  Co9  1  0.80009980  0.40844989  0.39980040  1
  O  O10  1  0.59209022  0.04916601  0.81581956  1
  O  O11  1  0.78757232  0.64707351  0.42485537  1
  O  O12  1  0.99110245  0.22866841  0.01779510  1
  O  O13  1  0.20006284  0.82728976  0.59987432  1
  O  O14  1  0.38961212  0.45187562  0.22077576  1
  O  O15  1  0.60819122  0.54834729  0.78361756  1
  O  O16  1  0.80661729  0.15288741  0.38676542  1
  O  O17  1  0.00112391  0.76943371  0.99775217  1
  O  O18  1  0.21039650  0.37288211  0.57920700  1
  O  O19  1  0.41283670  0.94847472  0.17432661  1
