# generated using pymatgen
data_MnCo9O10
_symmetry_space_group_name_H-M   'P 1'
_cell_length_a   3.05304476
_cell_length_b   8.11117626
_cell_length_c   8.63907389
_cell_angle_alpha   105.42468594
_cell_angle_beta   89.81132471
_cell_angle_gamma   79.04667613
_symmetry_Int_Tables_number   1
_chemical_formula_structural   MnCo9O10
_chemical_formula_sum   'Mn1 Co9 O10'
_cell_volume   202.14555851
_cell_formula_units_Z   1
loop_
 _symmetry_equiv_pos_site_id
 _symmetry_equiv_pos_as_xyz
  1  'x, y, z'
loop_
 _atom_site_type_symbol
 _atom_site_label
 _atom_site_symmetry_multiplicity
 _atom_site_fract_x
 _atom_site_fract_y
 _atom_site_fract_z
 _atom_site_occupancy
  Mn  Mn0  1  0.00000000  0.00000000  0.00000000  1
  Co  Co1  1  0.79870790  0.40317858  0.10140926  1
  Co  Co2  1  0.60140835  0.79921883  0.20207587  1
  Co  Co3  1  0.79921358  0.40000497  0.59935339  1
  Co  Co4  1  0.60087898  0.79622883  0.69699839  1
  Co  Co5  1  0.39912102  0.20377117  0.30300161  1
  Co  Co6  1  0.20078642  0.59999503  0.40064661  1
  Co  Co7  1  0.39859165  0.20078117  0.79792413  1
  Co  Co8  1  0.20129210  0.59682142  0.89859074  1
  Co  Co9  1  0.00000000  0.00000000  0.50000000  1
  O  O10  1  0.80395854  0.40196799  0.34975993  1
  O  O11  1  0.59812952  0.79756500  0.45074051  1
  O  O12  1  0.79642798  0.39645533  0.84971286  1
  O  O13  1  0.60596436  0.79205137  0.94674279  1
  O  O14  1  0.39403564  0.20794863  0.05325721  1
  O  O15  1  0.20357202  0.60354467  0.15028714  1
  O  O16  1  0.40187048  0.20243500  0.54925949  1
  O  O17  1  0.19604146  0.59803201  0.65024007  1
  O  O18  1  0.99728804  -0.00036393  0.25591889  1
  O  O19  1  0.00271196  0.00036393  0.74408111  1
