# generated using pymatgen
data_Li9Co7O16
_symmetry_space_group_name_H-M   'P 1'
_cell_length_a   5.06310489
_cell_length_b   10.37215848
_cell_length_c   5.82772149
_cell_angle_alpha   106.44012535
_cell_angle_beta   106.73288634
_cell_angle_gamma   94.47868790
_symmetry_Int_Tables_number   1
_chemical_formula_structural   Li9Co7O16
_chemical_formula_sum   'Li9 Co7 O16'
_cell_volume   276.82885465
_cell_formula_units_Z   1
loop_
 _symmetry_equiv_pos_site_id
 _symmetry_equiv_pos_as_xyz
  1  'x, y, z'
loop_
 _atom_site_type_symbol
 _atom_site_label
 _atom_site_symmetry_multiplicity
 _atom_site_fract_x
 _atom_site_fract_y
 _atom_site_fract_z
 _atom_site_occupancy
  Li  Li0  1  0.50266743  0.12742050  0.94412771  1
  Li  Li1  1  0.49812354  0.36810705  0.31268323  1
  Li  Li2  1  0.49733257  0.37257950  0.80587229  1
  Li  Li3  1  0.49740825  0.62309226  0.18614063  1
  Li  Li4  1  0.49751763  0.62696424  0.68872722  1
  Li  Li5  1  0.50248237  0.87303576  0.06127278  1
  Li  Li6  1  0.50259175  0.87690774  0.56385937  1
  Li  Li7  1  0.50187646  0.13189295  0.43731677  1
  Li  Li8  1  -0.00000000  0.25000000  0.37500000  1
  Co  Co9  1  0.00449153  0.00994103  0.01059804  1
  Co  Co10  1  -0.00000000  0.25000000  0.87500000  1
  Co  Co11  1  0.99550847  0.49005897  0.73940196  1
  Co  Co12  1  0.99936787  0.75054450  0.12406460  1
  Co  Co13  1  0.99662083  0.00493131  0.50049499  1
  Co  Co14  1  0.00337917  0.49506869  0.24950501  1
  Co  Co15  1  0.00063213  0.74945550  0.62593540  1
  O  O16  1  0.22110812  0.93557399  0.75560158  1
  O  O17  1  0.22868497  0.18173317  0.13390197  1
  O  O18  1  0.21440156  0.17498988  0.65832044  1
  O  O19  1  0.22176135  0.43103114  0.03088608  1
  O  O20  1  0.23259556  0.44722453  0.51486720  1
  O  O21  1  0.23171983  0.68571327  0.90667223  1
  O  O22  1  0.22353177  0.67628424  0.39523296  1
  O  O23  1  0.22098007  0.93973328  0.28934875  1
  O  O24  1  0.78559844  0.32501012  0.09167956  1
  O  O25  1  0.77901993  0.56026672  0.46065125  1
  O  O26  1  0.77889188  0.56442601  0.99439842  1
  O  O27  1  0.77646823  0.82371576  0.35476704  1
  O  O28  1  0.76828017  0.81428673  0.84332777  1
  O  O29  1  0.76740444  0.05277547  0.23513280  1
  O  O30  1  0.77823865  0.06896886  0.71911392  1
  O  O31  1  0.77131503  0.31826683  0.61609803  1
