# generated using pymatgen
data_Li9Co7O16
_symmetry_space_group_name_H-M   'P 1'
_cell_length_a   4.98744157
_cell_length_b   5.05689118
_cell_length_c   11.56761065
_cell_angle_alpha   89.64889518
_cell_angle_beta   89.28832084
_cell_angle_gamma   108.83982338
_symmetry_Int_Tables_number   1
_chemical_formula_structural   Li9Co7O16
_chemical_formula_sum   'Li9 Co7 O16'
_cell_volume   276.07868942
_cell_formula_units_Z   1
loop_
 _symmetry_equiv_pos_site_id
 _symmetry_equiv_pos_as_xyz
  1  'x, y, z'
loop_
 _atom_site_type_symbol
 _atom_site_label
 _atom_site_symmetry_multiplicity
 _atom_site_fract_x
 _atom_site_fract_y
 _atom_site_fract_z
 _atom_site_occupancy
  Li  Li0  1  -0.00000000  0.50000000  0.12500000  1
  Li  Li1  1  0.50103603  0.50128793  0.24778120  1
  Li  Li2  1  0.99862198  0.49857213  0.37312937  1
  Li  Li3  1  0.50066462  0.49961411  0.50252339  1
  Li  Li4  1  -0.00000000  0.50000000  0.62500000  1
  Li  Li5  1  0.49933538  0.50038589  0.74747661  1
  Li  Li6  1  0.00137802  0.50142787  0.87687063  1
  Li  Li7  1  0.49896397  0.49871207  0.00221880  1
  Li  Li8  1  0.50000000  0.00000000  0.12500000  1
  Co  Co9  1  0.99398041  -0.00005026  0.00352183  1
  Co  Co10  1  0.00601959  0.00005026  0.24647817  1
  Co  Co11  1  0.50321685  0.00381805  0.36895156  1
  Co  Co12  1  -0.00165007  0.00288356  0.50002261  1
  Co  Co13  1  0.50000000  0.00000000  0.62500000  1
  Co  Co14  1  0.00165007  0.99711644  0.74997739  1
  Co  Co15  1  0.49678315  0.99618195  0.88104844  1
  O  O16  1  0.76659125  0.22430440  0.99525342  1
  O  O17  1  0.21360229  0.21995686  0.12670495  1
  O  O18  1  0.75722989  0.22200061  0.25629790  1
  O  O19  1  0.23608879  0.22995424  0.36565990  1
  O  O20  1  0.74551685  0.22722994  0.50563289  1
  O  O21  1  0.25456420  0.22969294  0.62445504  1
  O  O22  1  0.73437993  0.22016022  0.74682286  1
  O  O23  1  0.22949322  0.22788363  0.88321913  1
  O  O24  1  0.23340875  0.77569560  0.25474558  1
  O  O25  1  0.77050678  0.77211637  0.36677987  1
  O  O26  1  0.26562007  0.77983978  0.50317614  1
  O  O27  1  0.74543580  0.77030706  0.62554496  1
  O  O28  1  0.25448315  0.77277006  0.74436611  1
  O  O29  1  0.76391121  0.77004576  0.88433910  1
  O  O30  1  0.24277011  0.77799939  0.99370310  1
  O  O31  1  0.78639771  0.78004314  0.12329605  1
