# generated using pymatgen
data_Li7Mn2(CoO4)3
_symmetry_space_group_name_H-M   'P 1'
_cell_length_a   5.09268338
_cell_length_b   4.99101934
_cell_length_c   8.73910804
_cell_angle_alpha   90.00000000
_cell_angle_beta   90.00000000
_cell_angle_gamma   108.58173634
_symmetry_Int_Tables_number   1
_chemical_formula_structural   Li7Mn2(CoO4)3
_chemical_formula_sum   'Li7 Mn2 Co3 O12'
_cell_volume   210.54834440
_cell_formula_units_Z   1
loop_
 _symmetry_equiv_pos_site_id
 _symmetry_equiv_pos_as_xyz
  1  'x, y, z'
loop_
 _atom_site_type_symbol
 _atom_site_label
 _atom_site_symmetry_multiplicity
 _atom_site_fract_x
 _atom_site_fract_y
 _atom_site_fract_z
 _atom_site_occupancy
  Li  Li0  1  0.50000000  0.50000000  0.01002210  1
  Li  Li1  1  0.50000000  0.00000000  0.17041495  1
  Li  Li2  1  0.50000000  0.50000000  0.32352831  1
  Li  Li3  1  0.50000000  0.00000000  0.49374296  1
  Li  Li4  1  0.50000000  0.00000000  0.83876177  1
  Li  Li5  1  0.50000000  0.50000000  0.66594600  1
  Li  Li6  1  0.00000000  0.50000000  0.16433992  1
  Mn  Mn7  1  0.00000000  0.00000000  0.00349684  1
  Mn  Mn8  1  0.00000000  0.00000000  0.66775290  1
  Co  Co9  1  0.00000000  0.00000000  0.32664409  1
  Co  Co10  1  0.00000000  0.50000000  0.49116489  1
  Co  Co11  1  0.00000000  0.50000000  0.83524938  1
  O  O12  1  0.21992970  0.74975935  0.98749075  1
  O  O13  1  0.23372928  0.22332947  0.15733094  1
  O  O14  1  0.23222863  0.75209827  0.34351707  1
  O  O15  1  0.22997107  0.23529605  0.51124209  1
  O  O16  1  0.21697696  0.24043470  0.83242902  1
  O  O17  1  0.21808705  0.74636557  0.67245808  1
  O  O18  1  0.78007030  0.25024065  0.98749075  1
  O  O19  1  0.76627072  0.77667053  0.15733094  1
  O  O20  1  0.76777137  0.24790173  0.34351707  1
  O  O21  1  0.77002893  0.76470395  0.51124209  1
  O  O22  1  0.78302304  0.75956530  0.83242902  1
  O  O23  1  0.78191295  0.25363443  0.67245808  1
