# generated using pymatgen
data_Li7Mn4CoO12
_symmetry_space_group_name_H-M   'P 1'
_cell_length_a   2.87420551
_cell_length_b   13.25065304
_cell_length_c   5.86590239
_cell_angle_alpha   77.57425151
_cell_angle_beta   90.00000000
_cell_angle_gamma   90.00000000
_symmetry_Int_Tables_number   1
_chemical_formula_structural   Li7Mn4CoO12
_chemical_formula_sum   'Li7 Mn4 Co1 O12'
_cell_volume   218.17040413
_cell_formula_units_Z   1
loop_
 _symmetry_equiv_pos_site_id
 _symmetry_equiv_pos_as_xyz
  1  'x, y, z'
loop_
 _atom_site_type_symbol
 _atom_site_label
 _atom_site_symmetry_multiplicity
 _atom_site_fract_x
 _atom_site_fract_y
 _atom_site_fract_z
 _atom_site_occupancy
  Li  Li0  1  0.50000000  0.16666700  0.16666700  1
  Li  Li1  1  0.50000000  0.49382134  0.50638189  1
  Li  Li2  1  0.50000000  0.83951166  0.82695111  1
  Li  Li3  1  -0.00000000  0.31291759  0.83801862  1
  Li  Li4  1  -0.00000000  0.66666700  0.16666700  1
  Li  Li5  1  -0.00000000  0.02041541  0.49531438  1
  Li  Li6  1  0.50000000  0.16666700  0.66666700  1
  Mn  Mn7  1  -0.00000000  0.01410804  0.98916086  1
  Mn  Mn8  1  0.00000000  0.31922496  0.34417214  1
  Mn  Mn9  1  0.50000000  0.49540517  0.00002215  1
  Mn  Mn10  1  0.50000000  0.83792783  0.33331085  1
  Co  Co11  1  -0.00000000  0.66666700  0.66666700  1
  O  O12  1  0.50000000  0.00647171  0.22141354  1
  O  O13  1  0.50000000  0.33199859  0.55823679  1
  O  O14  1  0.50000000  0.66917672  0.89028829  1
  O  O15  1  -0.00000000  0.15362075  0.92064945  1
  O  O16  1  -0.00000000  0.48847817  0.23401638  1
  O  O17  1  -0.00000000  0.83491527  0.56144087  1
  O  O18  1  0.50000000  0.32686229  0.11192046  1
  O  O19  1  0.50000000  0.66415628  0.44304471  1
  O  O20  1  0.50000000  0.00133441  0.77509621  1
  O  O21  1  -0.00000000  0.49841773  0.77189213  1
  O  O22  1  -0.00000000  0.84485583  0.09931762  1
  O  O23  1  -0.00000000  0.17971225  0.41268355  1
