# generated using pymatgen
data_Li6Mn3CoO10
_symmetry_space_group_name_H-M   'P 1'
_cell_length_a   2.94497727
_cell_length_b   8.17089147
_cell_length_c   7.77562976
_cell_angle_alpha   75.20279978
_cell_angle_beta   97.47674322
_cell_angle_gamma   89.19404074
_symmetry_Int_Tables_number   1
_chemical_formula_structural   Li6Mn3CoO10
_chemical_formula_sum   'Li6 Mn3 Co1 O10'
_cell_volume   179.14395004
_cell_formula_units_Z   1
loop_
 _symmetry_equiv_pos_site_id
 _symmetry_equiv_pos_as_xyz
  1  'x, y, z'
loop_
 _atom_site_type_symbol
 _atom_site_label
 _atom_site_symmetry_multiplicity
 _atom_site_fract_x
 _atom_site_fract_y
 _atom_site_fract_z
 _atom_site_occupancy
  Li  Li0  1  0.77320193  0.10467575  0.58226603  1
  Li  Li1  1  0.99625659  0.48189404  0.00191482  1
  Li  Li2  1  0.20209012  0.91384967  0.39961208  1
  Li  Li3  1  0.42545350  0.29812649  0.81663190  1
  Li  Li4  1  0.60313815  0.70074364  0.19923856  1
  Li  Li5  1  0.60022378  0.20022057  0.20129143  1
  Mn  Mn6  1  0.01228823  0.00785072  0.00599298  1
  Mn  Mn7  1  0.18976237  0.39442870  0.39514534  1
  Mn  Mn8  1  0.40891068  0.79595958  0.80087681  1
  Co  Co9  1  0.78421774  0.60105782  0.59579364  1
  O  O10  1  0.44257957  0.03611131  0.82490536  1
  O  O11  1  0.62394874  0.44492626  0.22427233  1
  O  O12  1  0.77290166  0.83790776  0.60486193  1
  O  O13  1  0.99566458  0.23402517  0.99514666  1
  O  O14  1  0.16346761  0.63677963  0.41169687  1
  O  O15  1  0.20605221  0.16738823  0.40740913  1
  O  O16  1  0.42040834  0.55746308  0.78825649  1
  O  O17  1  0.57835068  0.95666813  0.17664656  1
  O  O18  1  0.76037740  0.36780465  0.57481301  1
  O  O19  1  0.04070612  0.76211880  0.99322807  1
