# generated using pymatgen
data_Ca(Co2O3)2
_symmetry_space_group_name_H-M   'P 1'
_cell_length_a   3.11063475
_cell_length_b   5.21289310
_cell_length_c   15.28212669
_cell_angle_alpha   90.00000000
_cell_angle_beta   90.00000000
_cell_angle_gamma   107.35911124
_symmetry_Int_Tables_number   1
_chemical_formula_structural   Ca(Co2O3)2
_chemical_formula_sum   'Ca2 Co8 O12'
_cell_volume   236.51920247
_cell_formula_units_Z   2
loop_
 _symmetry_equiv_pos_site_id
 _symmetry_equiv_pos_as_xyz
  1  'x, y, z'
loop_
 _atom_site_type_symbol
 _atom_site_label
 _atom_site_symmetry_multiplicity
 _atom_site_fract_x
 _atom_site_fract_y
 _atom_site_fract_z
 _atom_site_occupancy
  Ca  Ca0  1  0.66233033  0.32466165  0.75000000  1
  Ca  Ca1  1  0.33766967  0.67533835  0.25000000  1
  Co  Co2  1  0.86221495  0.72443290  0.04413320  1
  Co  Co3  1  0.40924614  0.81849128  0.63464570  1
  Co  Co4  1  0.13778305  0.27556610  0.95586680  1
  Co  Co5  1  0.59075386  0.18150872  0.36535530  1
  Co  Co6  1  0.86221495  0.72443290  0.45586680  1
  Co  Co7  1  0.13778305  0.27556610  0.54413320  1
  Co  Co8  1  0.59075386  0.18150872  0.13464470  1
  Co  Co9  1  0.40924614  0.81849128  0.86535430  1
  O  O10  1  0.49999900  0.00000000  0.50000000  1
  O  O11  1  0.49999900  0.00000000  0.00000000  1
  O  O12  1  0.05203203  0.10406205  0.84894734  1
  O  O13  1  0.94796797  0.89593795  0.15105366  1
  O  O14  1  0.94796797  0.89593795  0.34894634  1
  O  O15  1  0.05203203  0.10406205  0.65105366  1
  O  O16  1  0.77436742  0.54873784  0.92726205  1
  O  O17  1  0.22563158  0.45126316  0.07273795  1
  O  O18  1  0.22563158  0.45126316  0.42726205  1
  O  O19  1  0.77436742  0.54873784  0.57273795  1
  O  O20  1  0.32727831  0.65455763  0.75000000  1
  O  O21  1  0.67271969  0.34544137  0.25000000  1
