# generated using pymatgen
data_Na3CoO3
_symmetry_space_group_name_H-M   'P 1'
_cell_length_a   9.15764529
_cell_length_b   9.20513202
_cell_length_c   4.50147082
_cell_angle_alpha   90.00000000
_cell_angle_beta   90.00000000
_cell_angle_gamma   90.00374942
_symmetry_Int_Tables_number   1
_chemical_formula_structural   Na3CoO3
_chemical_formula_sum   'Na12 Co4 O12'
_cell_volume   379.46198788
_cell_formula_units_Z   4
loop_
 _symmetry_equiv_pos_site_id
 _symmetry_equiv_pos_as_xyz
  1  'x, y, z'
loop_
 _atom_site_type_symbol
 _atom_site_label
 _atom_site_symmetry_multiplicity
 _atom_site_fract_x
 _atom_site_fract_y
 _atom_site_fract_z
 _atom_site_occupancy
  Na  Na0  1  0.12932996  0.62770791  0.00000000  1
  Na  Na1  1  0.12630461  0.36996622  0.50000000  1
  Na  Na2  1  0.14664638  0.85406672  0.50000000  1
  Na  Na3  1  0.35357861  0.35422572  0.00000000  1
  Na  Na4  1  0.37352921  0.87005249  0.00000000  1
  Na  Na5  1  0.37065686  0.12797062  0.50000000  1
  Na  Na6  1  0.62947467  0.87216470  0.50000000  1
  Na  Na7  1  0.62655008  0.13024416  0.00000000  1
  Na  Na8  1  0.64674734  0.64564669  0.00000000  1
  Na  Na9  1  0.85358732  0.14607006  0.50000000  1
  Na  Na10  1  0.87351535  0.62962437  0.50000000  1
  Na  Na11  1  0.87049531  0.37214280  0.00000000  1
  Co  Co12  1  0.11414503  0.11324898  0.00000000  1
  Co  Co13  1  0.38566300  0.61297254  0.50000000  1
  Co  Co14  1  0.61408774  0.38707064  0.50000000  1
  Co  Co15  1  0.88600026  0.88672369  0.00000000  1
  O  O16  1  0.09661906  0.90465900  0.00000000  1
  O  O17  1  0.10470086  0.30827470  0.00000000  1
  O  O18  1  0.18841997  0.60514085  0.50000000  1
  O  O19  1  0.31145460  0.10490139  0.00000000  1
  O  O20  1  0.39554776  0.80826879  0.50000000  1
  O  O21  1  0.40227074  0.40524766  0.50000000  1
  O  O22  1  0.59668353  0.59413167  0.50000000  1
  O  O23  1  0.60475313  0.19236352  0.50000000  1
  O  O24  1  0.68864116  0.89518244  0.00000000  1
  O  O25  1  0.81194280  0.39516599  0.50000000  1
  O  O26  1  0.89527025  0.69159804  -0.00000000  1
  O  O27  1  0.90342541  0.09520863  0.00000000  1
