# generated using pymatgen
data_Li7Mn4CoO12
_symmetry_space_group_name_H-M   'P 1'
_cell_length_a   2.87264202
_cell_length_b   14.62320970
_cell_length_c   5.20566443
_cell_angle_alpha   87.21515632
_cell_angle_beta   90.00000000
_cell_angle_gamma   90.00000000
_symmetry_Int_Tables_number   1
_chemical_formula_structural   Li7Mn4CoO12
_chemical_formula_sum   'Li7 Mn4 Co1 O12'
_cell_volume   218.41737934
_cell_formula_units_Z   1
loop_
 _symmetry_equiv_pos_site_id
 _symmetry_equiv_pos_as_xyz
  1  'x, y, z'
loop_
 _atom_site_type_symbol
 _atom_site_label
 _atom_site_symmetry_multiplicity
 _atom_site_fract_x
 _atom_site_fract_y
 _atom_site_fract_z
 _atom_site_occupancy
  Li  Li0  1  0.50000000  0.00495187  0.49523712  1
  Li  Li1  1  0.00000000  0.16666700  0.66666700  1
  Li  Li2  1  0.50000000  0.32838113  0.83809588  1
  Li  Li3  1  -0.00000000  0.49948122  -0.00022059  1
  Li  Li4  1  0.00000000  0.83385178  0.33355359  1
  Li  Li5  1  0.50000000  0.66666700  0.16666700  1
  Li  Li6  1  0.50000000  0.16666700  0.16666700  1
  Mn  Mn7  1  0.00000000  0.00673401  0.01798352  1
  Mn  Mn8  1  -0.00000000  0.32659899  0.31534948  1
  Mn  Mn9  1  0.50000000  0.49917894  0.49607727  1
  Mn  Mn10  1  0.50000000  0.83415406  0.83725573  1
  Co  Co11  1  0.00000000  0.66666700  0.66666700  1
  O  O12  1  0.50000000  0.92651988  0.15811980  1
  O  O13  1  -0.00000000  0.07477150  0.30167829  1
  O  O14  1  0.50000000  0.25848431  0.48687919  1
  O  O15  1  -0.00000000  0.42018387  0.63459766  1
  O  O16  1  0.00000000  0.75719754  0.99036556  1
  O  O17  1  0.50000000  0.59328004  0.81999209  1
  O  O18  1  0.50000000  0.07484869  0.84645381  1
  O  O19  1  0.00000000  0.25856250  0.03165571  1
  O  O20  1  0.50000000  0.40681312  0.17521320  1
  O  O21  1  -0.00000000  0.57613546  0.34296744  1
  O  O22  1  0.00000000  0.91314913  0.69873534  1
  O  O23  1  0.50000000  0.74005396  0.51334191  1
