# generated using pymatgen
data_Li9Co7O16
_symmetry_space_group_name_H-M   'P 1'
_cell_length_a   5.07027002
_cell_length_b   9.94144457
_cell_length_c   5.83649282
_cell_angle_alpha   89.76406944
_cell_angle_beta   106.43564031
_cell_angle_gamma   80.00460447
_symmetry_Int_Tables_number   1
_chemical_formula_structural   Li9Co7O16
_chemical_formula_sum   'Li9 Co7 O16'
_cell_volume   277.44743393
_cell_formula_units_Z   1
loop_
 _symmetry_equiv_pos_site_id
 _symmetry_equiv_pos_as_xyz
  1  'x, y, z'
loop_
 _atom_site_type_symbol
 _atom_site_label
 _atom_site_symmetry_multiplicity
 _atom_site_fract_x
 _atom_site_fract_y
 _atom_site_fract_z
 _atom_site_occupancy
  Li  Li0  1  0.49838922  0.12496599  0.12446443  1
  Li  Li1  1  0.50349269  0.12356637  0.62585183  1
  Li  Li2  1  0.50161078  0.37503401  0.37553557  1
  Li  Li3  1  0.49650731  0.37643363  0.87414817  1
  Li  Li4  1  0.49271066  0.62961307  0.62322119  1
  Li  Li5  1  0.50318571  0.62931862  0.12672711  1
  Li  Li6  1  0.50728934  0.87038693  0.87677881  1
  Li  Li7  1  0.49681429  0.87068138  0.37327289  1
  Li  Li8  1  -0.00000000  0.75000000  0.25000000  1
  Co  Co9  1  -0.00184163  0.99586981  0.00280679  1
  Co  Co10  1  -0.00000000  0.75000000  0.75000000  1
  Co  Co11  1  0.00421959  0.99103047  0.49873694  1
  Co  Co12  1  -0.00000000  0.25000000  0.25000000  1
  Co  Co13  1  -0.00000000  0.25000000  0.75000000  1
  Co  Co14  1  0.00184163  0.50413019  0.49719321  1
  Co  Co15  1  0.99578041  0.50896953  0.00126306  1
  O  O16  1  0.21290256  0.06846451  0.81552985  1
  O  O17  1  0.22967789  0.05874608  0.29539953  1
  O  O18  1  0.22757271  0.31448900  0.05714918  1
  O  O19  1  0.22614258  0.32240793  0.55711979  1
  O  O20  1  0.22721430  0.55361161  0.32252242  1
  O  O21  1  0.22453067  0.56708039  0.79156663  1
  O  O22  1  0.22803763  0.81750653  0.57020614  1
  O  O23  1  0.21937447  0.82340409  0.03811020  1
  O  O24  1  0.77242729  0.18551100  0.44285082  1
  O  O25  1  0.77385742  0.17759207  0.94288021  1
  O  O26  1  0.78709744  0.43153549  0.68447015  1
  O  O27  1  0.77032211  0.44125392  0.20460047  1
  O  O28  1  0.77196237  0.68249347  0.92979386  1
  O  O29  1  0.78062553  0.67659591  0.46188980  1
  O  O30  1  0.77278570  0.94638839  0.17747758  1
  O  O31  1  0.77546933  0.93291961  0.70843337  1
