# generated using pymatgen
data_Li6MnV3(PO4)6
_symmetry_space_group_name_H-M   'P 1'
_cell_length_a   9.83174915
_cell_length_b   9.84176106
_cell_length_c   9.80350445
_cell_angle_alpha   86.97276992
_cell_angle_beta   92.99301528
_cell_angle_gamma   95.36721864
_symmetry_Int_Tables_number   1
_chemical_formula_structural   Li6MnV3(PO4)6
_chemical_formula_sum   'Li12 Mn2 V6 P12 O48'
_cell_volume   942.06030655
_cell_formula_units_Z   2
loop_
 _symmetry_equiv_pos_site_id
 _symmetry_equiv_pos_as_xyz
  1  'x, y, z'
loop_
 _atom_site_type_symbol
 _atom_site_label
 _atom_site_symmetry_multiplicity
 _atom_site_fract_x
 _atom_site_fract_y
 _atom_site_fract_z
 _atom_site_occupancy
  Li  Li0  1  0.01410899  0.51048254  0.23651499  1
  Li  Li1  1  0.99507444  0.25802459  0.38386331  1
  Li  Li2  1  0.21296820  0.56699368  0.46487759  1
  Li  Li3  1  0.23146011  0.73549143  0.17538845  1
  Li  Li4  1  0.25063209  0.98546809  0.60720877  1
  Li  Li5  1  0.37241726  0.74654621  0.81244721  1
  Li  Li6  1  0.50300561  0.01182128  0.75887516  1
  Li  Li7  1  0.56298178  0.21531467  0.53623391  1
  Li  Li8  1  0.70334364  0.92672734  0.97350561  1
  Li  Li9  1  0.73325881  0.23505532  0.82067923  1
  Li  Li10  1  0.74900207  0.38045932  0.18879513  1
  Li  Li11  1  0.92852085  0.70210706  0.02095168  1
  Mn  Mn12  1  0.26211670  0.02903168  0.21826895  1
  Mn  Mn13  1  0.97489592  0.74245441  0.72191998  1
  V  V14  1  0.02900727  0.25139089  0.78194399  1
  V  V15  1  0.24602554  0.24664037  0.00130702  1
  V  V16  1  0.46674033  0.46383798  0.00141774  1
  V  V17  1  0.53364546  0.53129299  0.50222757  1
  V  V18  1  0.74826037  0.96684982  0.28163539  1
  V  V19  1  0.75047419  0.74719465  0.50324517  1
  P  P20  1  0.05310137  0.82554214  0.40009080  1
  P  P21  1  0.17205898  0.94674426  0.90571711  1
  P  P22  1  0.16096804  0.54986252  0.92787114  1
  P  P23  1  0.31702722  0.34207072  0.30255362  1
  P  P24  1  0.34287666  0.31608675  0.69958069  1
  P  P25  1  0.44539089  0.83341274  0.42809713  1
  P  P26  1  0.55148796  0.15345771  0.07449026  1
  P  P27  1  0.64992914  0.68045312  0.80579805  1
  P  P28  1  0.68283931  0.65188298  0.19740839  1
  P  P29  1  0.83844861  0.44365690  0.57129803  1
  P  P30  1  0.81615956  0.05333493  0.59330549  1
  P  P31  1  0.94307133  0.17712214  0.09433361  1
  O  O32  1  0.03025401  0.87267842  0.87391139  1
  O  O33  1  0.08650110  0.82583828  0.55545693  1
  O  O34  1  0.11482221  0.61158861  0.78974187  1
  O  O35  1  0.11731038  0.96364839  0.33861372  1
  O  O36  1  0.09932791  0.69963837  0.33494912  1
  O  O37  1  0.12551797  0.38944632  0.92393463  1
  O  O38  1  0.09710932  0.60107409  0.05363798  1
  O  O39  1  0.10142626  0.16885053  0.12179919  1
  O  O40  1  0.16230112  0.10656876  0.87535315  1
  O  O41  1  0.18606540  0.31170779  0.66978186  1
  O  O42  1  0.20336547  0.91139518  0.06146118  1
  O  O43  1  0.19215522  0.40600043  0.34889049  1
  O  O44  1  0.28458250  0.91168480  0.81454503  1
  O  O45  1  0.32068114  0.58620904  0.94173812  1
  O  O46  1  0.30894479  0.18526674  0.33285004  1
  O  O47  1  0.32595730  0.37685643  0.14172831  1
  O  O48  1  0.37799474  0.87018263  0.28781837  1
  O  O49  1  0.40606408  0.90836726  0.54861631  1
  O  O50  1  0.37900601  0.32212828  0.86079902  1
  O  O51  1  0.40230954  0.45435184  0.63495709  1
  O  O52  1  0.40889214  0.67351505  0.45043675  1
  O  O53  1  0.40406618  0.19094093  0.65118657  1
  O  O54  1  0.38965386  0.12174747  0.08016747  1
  O  O55  1  0.45546709  0.39873737  0.36944796  1
  O  O56  1  0.57569939  0.80258746  0.84370632  1
  O  O57  1  0.54516524  0.59256612  0.13876092  1
  O  O58  1  0.58853830  0.54107280  0.86256809  1
  O  O59  1  0.60837255  0.86497727  0.41826174  1
  O  O60  1  0.62346732  0.66919127  0.64264582  1
  O  O61  1  0.59927581  0.09606021  0.94444664  1
  O  O62  1  0.58786421  0.31196202  0.07344197  1
  O  O63  1  0.61087753  0.08909773  0.20843105  1
  O  O64  1  0.67266982  0.62410032  0.36043956  1
  O  O65  1  0.70270293  0.80810933  0.15855271  1
  O  O66  1  0.67818278  0.40777502  0.55438950  1
  O  O67  1  0.69316244  0.10773584  0.65619324  1
  O  O68  1  0.80330923  0.69816559  0.84661771  1
  O  O69  1  0.81140146  0.89378222  0.62353342  1
  O  O70  1  0.80624723  0.58093758  0.15762594  1
  O  O71  1  0.81911558  0.08706917  0.43524786  1
  O  O72  1  0.86838124  0.60663275  0.57888079  1
  O  O73  1  0.89016632  0.82871084  0.37186994  1
  O  O74  1  0.88127630  0.37684337  0.71062851  1
  O  O75  1  0.90518874  0.21021100  0.93930414  1
  O  O76  1  0.91017243  0.40476877  0.44880696  1
  O  O77  1  0.86893137  0.03504077  0.12768557  1
  O  O78  1  0.90709940  0.28807183  0.18684316  1
  O  O79  1  0.95445596  0.11209949  0.65744872  1
