# generated using pymatgen
data_Li6Mn3Co(PO4)6
_symmetry_space_group_name_H-M   'P 1'
_cell_length_a   8.53489260
_cell_length_b   8.55515114
_cell_length_c   8.50678456
_cell_angle_alpha   61.64001048
_cell_angle_beta   61.86072729
_cell_angle_gamma   62.52890314
_symmetry_Int_Tables_number   1
_chemical_formula_structural   Li6Mn3Co(PO4)6
_chemical_formula_sum   'Li6 Mn3 Co1 P6 O24'
_cell_volume   458.90130102
_cell_formula_units_Z   1
loop_
 _symmetry_equiv_pos_site_id
 _symmetry_equiv_pos_as_xyz
  1  'x, y, z'
loop_
 _atom_site_type_symbol
 _atom_site_label
 _atom_site_symmetry_multiplicity
 _atom_site_fract_x
 _atom_site_fract_y
 _atom_site_fract_z
 _atom_site_occupancy
  Li  Li0  1  0.00777849  0.00686833  0.99095445  1
  Li  Li1  1  0.75073448  0.14892289  0.34871244  1
  Li  Li2  1  0.47248367  0.50864975  0.50712466  1
  Li  Li3  1  0.21819348  0.85216316  0.66257812  1
  Li  Li4  1  0.66275440  0.22523503  0.83372562  1
  Li  Li5  1  0.84940743  0.65772446  0.22389690  1
  Mn  Mn6  1  0.14384678  0.13942249  0.14043137  1
  Mn  Mn7  1  0.36037749  0.36175906  0.35402796  1
  Mn  Mn8  1  0.64090301  0.65246982  0.64677839  1
  Co  Co9  1  0.85496471  0.85020649  0.85307684  1
  P  P10  1  0.05299228  0.74691214  0.44821906  1
  P  P11  1  0.44321040  0.05974707  0.75124753  1
  P  P12  1  0.74419073  0.45555762  0.04693336  1
  P  P13  1  0.25110914  0.53814955  0.96244957  1
  P  P14  1  0.55086351  0.96532114  0.25462440  1
  P  P15  1  0.96389725  0.24516026  0.53173566  1
  O  O16  1  0.13642994  0.29737715  0.47865283  1
  O  O17  1  0.32398568  0.49857286  0.11624250  1
  O  O18  1  0.05618585  0.91486931  0.25984471  1
  O  O19  1  0.53598994  0.12364816  0.30839910  1
  O  O20  1  0.24156332  0.58491366  0.42827932  1
  O  O21  1  0.03569660  0.79812373  0.60709059  1
  O  O22  1  0.25176479  0.07949795  0.91039920  1
  O  O23  1  0.43944224  0.24863505  0.57843338  1
  O  O24  1  0.58121805  0.43943679  0.24444230  1
  O  O25  1  0.19220534  0.37825576  0.99801450  1
  O  O26  1  0.09101071  0.72648062  0.95325601  1
  O  O27  1  0.37887195  0.00166363  0.21826247  1
  O  O28  1  0.60482671  0.03562284  0.80326954  1
  O  O29  1  0.88585839  0.25865223  0.07200188  1
  O  O30  1  0.80585945  0.60719173  0.02812783  1
  O  O31  1  0.40590319  0.56673191  0.76198082  1
  O  O32  1  0.57591205  0.76717517  0.41484447  1
  O  O33  1  0.73707749  0.94632135  0.08832205  1
  O  O34  1  0.97506917  0.19248277  0.37480011  1
  O  O35  1  0.77368542  0.39947255  0.56351267  1
  O  O36  1  0.47102959  0.90119655  0.69516076  1
  O  O37  1  0.95813776  0.08094728  0.72272299  1
  O  O38  1  0.68531486  0.49896906  0.88138343  1
  O  O39  1  0.88925725  0.68849362  0.48704420  1
