# generated using pymatgen
data_LiMnBO4
_symmetry_space_group_name_H-M   'P 1'
_cell_length_a   9.97252762
_cell_length_b   5.88607716
_cell_length_c   4.35888916
_cell_angle_alpha   90.00000000
_cell_angle_beta   90.00000000
_cell_angle_gamma   90.00000000
_symmetry_Int_Tables_number   1
_chemical_formula_structural   LiMnBO4
_chemical_formula_sum   'Li4 Mn4 B4 O16'
_cell_volume   255.86272707
_cell_formula_units_Z   4
loop_
 _symmetry_equiv_pos_site_id
 _symmetry_equiv_pos_as_xyz
  1  'x, y, z'
loop_
 _atom_site_type_symbol
 _atom_site_label
 _atom_site_symmetry_multiplicity
 _atom_site_fract_x
 _atom_site_fract_y
 _atom_site_fract_z
 _atom_site_occupancy
  Li  Li0  1  0.22380559  0.75000000  0.48306267  1
  Li  Li1  1  0.27619441  0.25000000  0.98306267  1
  Li  Li2  1  0.72380559  0.75000000  0.01693733  1
  Li  Li3  1  0.77619441  0.25000000  0.51693733  1
  Mn  Mn4  1  -0.00000000  -0.00000000  -0.00000000  1
  Mn  Mn5  1  -0.00000000  0.50000000  -0.00000000  1
  Mn  Mn6  1  0.50000000  0.00000000  0.50000000  1
  Mn  Mn7  1  0.50000000  0.50000000  0.50000000  1
  B  B8  1  0.08743051  0.25000000  0.41154833  1
  B  B9  1  0.41256949  0.75000000  0.91154833  1
  B  B10  1  0.58743051  0.25000000  0.08845167  1
  B  B11  1  0.91256949  0.75000000  0.58845167  1
  O  O12  1  0.05778166  0.75000000  0.74895623  1
  O  O13  1  0.07893700  0.25000000  0.74943081  1
  O  O14  1  0.14440764  0.45786840  0.28383650  1
  O  O15  1  0.14440764  0.04213160  0.28383650  1
  O  O16  1  0.35559236  0.54213160  0.78383650  1
  O  O17  1  0.35559236  0.95786840  0.78383650  1
  O  O18  1  0.42106300  0.75000000  0.24943081  1
  O  O19  1  0.44221834  0.25000000  0.24895623  1
  O  O20  1  0.55778166  0.75000000  0.75104377  1
  O  O21  1  0.57893700  0.25000000  0.75056919  1
  O  O22  1  0.64440764  0.04213160  0.21616350  1
  O  O23  1  0.64440764  0.45786840  0.21616350  1
  O  O24  1  0.85559236  0.54213160  0.71616350  1
  O  O25  1  0.85559236  0.95786840  0.71616350  1
  O  O26  1  0.92106300  0.75000000  0.25056919  1
  O  O27  1  0.94221834  0.25000000  0.25104377  1
