# generated using pymatgen
data_MgTaTi(PO4)3
_symmetry_space_group_name_H-M   'P 1'
_cell_length_a   8.59506350
_cell_length_b   8.59506372
_cell_length_c   8.59506347
_cell_angle_alpha   61.56946616
_cell_angle_beta   61.56946826
_cell_angle_gamma   61.56947359
_symmetry_Int_Tables_number   1
_chemical_formula_structural   MgTaTi(PO4)3
_chemical_formula_sum   'Mg2 Ta2 Ti2 P6 O24'
_cell_volume   464.79575608
_cell_formula_units_Z   2
loop_
 _symmetry_equiv_pos_site_id
 _symmetry_equiv_pos_as_xyz
  1  'x, y, z'
loop_
 _atom_site_type_symbol
 _atom_site_label
 _atom_site_symmetry_multiplicity
 _atom_site_fract_x
 _atom_site_fract_y
 _atom_site_fract_z
 _atom_site_occupancy
  Mg  Mg0  1  0.00406415  0.00406415  0.00406415  1
  Mg  Mg1  1  0.50406415  0.50406415  0.50406415  1
  Ta  Ta2  1  0.35613910  0.35613910  0.35613910  1
  Ta  Ta3  1  0.85613910  0.85613910  0.85613910  1
  Ti  Ti4  1  0.14489603  0.14489603  0.14489603  1
  Ti  Ti5  1  0.64489603  0.64489603  0.64489603  1
  P  P6  1  0.04530118  0.44954962  0.75150372  1
  P  P7  1  0.44954962  0.75150372  0.04530118  1
  P  P8  1  0.75150372  0.04530118  0.44954962  1
  P  P9  1  0.25150372  0.94954962  0.54530118  1
  P  P10  1  0.54530118  0.25150372  0.94954962  1
  P  P11  1  0.94954962  0.54530118  0.25150372  1
  O  O12  1  0.10860410  0.50782137  0.31636555  1
  O  O13  1  0.31636555  0.10860410  0.50782137  1
  O  O14  1  0.05966003  0.25793933  0.90806004  1
  O  O15  1  0.50782137  0.31636555  0.10860410  1
  O  O16  1  0.00782137  0.60860410  0.81636555  1
  O  O17  1  0.24097231  0.43972901  0.59253310  1
  O  O18  1  0.25793933  0.90806004  0.05966003  1
  O  O19  1  0.43972901  0.59253310  0.24097231  1
  O  O20  1  0.18144071  0.99420658  0.39121308  1
  O  O21  1  0.59253310  0.24097231  0.43972901  1
  O  O22  1  0.09253310  0.93972901  0.74097231  1
  O  O23  1  0.39121308  0.18144071  0.99420658  1
  O  O24  1  0.60860410  0.81636555  0.00782137  1
  O  O25  1  0.90806004  0.05966003  0.25793933  1
  O  O26  1  0.40806004  0.75793933  0.55966003  1
  O  O27  1  0.81636555  0.00782137  0.60860410  1
  O  O28  1  0.55966003  0.40806004  0.75793933  1
  O  O29  1  0.74097231  0.09253310  0.93972901  1
  O  O30  1  0.75793933  0.55966003  0.40806004  1
  O  O31  1  0.99420658  0.39121308  0.18144071  1
  O  O32  1  0.49420658  0.68144071  0.89121308  1
  O  O33  1  0.93972901  0.74097231  0.09253310  1
  O  O34  1  0.68144071  0.89121308  0.49420658  1
  O  O35  1  0.89121308  0.49420658  0.68144071  1
