# generated using pymatgen
data_Li5Nb6NiO18
_symmetry_space_group_name_H-M   'P 1'
_cell_length_a   11.24015076
_cell_length_b   9.04688314
_cell_length_c   7.67100238
_cell_angle_alpha   113.21042348
_cell_angle_beta   95.56237880
_cell_angle_gamma   105.62576620
_symmetry_Int_Tables_number   1
_chemical_formula_structural   Li5Nb6NiO18
_chemical_formula_sum   'Li10 Nb12 Ni2 O36'
_cell_volume   672.00093354
_cell_formula_units_Z   2
loop_
 _symmetry_equiv_pos_site_id
 _symmetry_equiv_pos_as_xyz
  1  'x, y, z'
loop_
 _atom_site_type_symbol
 _atom_site_label
 _atom_site_symmetry_multiplicity
 _atom_site_fract_x
 _atom_site_fract_y
 _atom_site_fract_z
 _atom_site_occupancy
  Li  Li0  1  0.71301753  0.99925943  0.78697844  1
  Li  Li1  1  0.54620887  0.33331382  0.95328525  1
  Li  Li2  1  0.87935508  0.66619515  0.62015880  1
  Li  Li3  1  0.04616070  0.33276180  0.95327970  1
  Li  Li4  1  0.21342427  0.00075667  0.28766701  1
  Li  Li5  1  0.54601782  0.33353573  0.45402594  1
  Li  Li6  1  0.87959684  0.66731365  0.12057921  1
  Li  Li7  1  0.04653405  0.33306303  0.45383943  1
  Li  Li8  1  0.37989366  0.66722212  0.62105885  1
  Li  Li9  1  0.37975100  0.66663364  0.11989944  1
  Nb  Nb10  1  0.83318915  0.33421054  0.67057244  1
  Nb  Nb11  1  0.49710998  0.00040268  0.50276250  1
  Nb  Nb12  1  0.66584637  0.66454307  0.83347156  1
  Nb  Nb13  1  0.99931239  -0.00002507  0.50294469  1
  Nb  Nb14  1  0.33345293  0.33613556  0.66921431  1
  Nb  Nb15  1  0.49896503  0.00021711  0.00290947  1
  Nb  Nb16  1  0.83152041  0.33338645  0.16692763  1
  Nb  Nb17  1  0.66510543  0.66515973  0.33410839  1
  Nb  Nb18  1  0.16555311  0.66519774  0.83582880  1
  Nb  Nb19  1  0.33203209  0.33496286  0.16917409  1
  Nb  Nb20  1  0.99714869  0.99926061  0.00228506  1
  Nb  Nb21  1  0.16423201  0.66640334  0.33341295  1
  Ni  Ni22  1  0.70980851  0.99812808  0.28692797  1
  Ni  Ni23  1  0.21068837  0.00179041  0.78840341  1
  O  O24  1  0.89362723  0.12988113  0.98091774  1
  O  O25  1  0.97720105  0.21412635  0.64917860  1
  O  O26  1  0.87637838  0.41897522  0.94642693  1
  O  O27  1  0.39707048  0.13193020  0.98116769  1
  O  O28  1  0.70482429  0.12109872  0.60617254  1
  O  O29  1  0.99557878  0.53768689  0.68466705  1
  O  O30  1  0.83402311  0.24801094  0.35901425  1
  O  O31  1  0.47757008  0.21423499  0.64962082  1
  O  O32  1  0.53764988  0.08752121  0.28039478  1
  O  O33  1  0.37576670  0.41788773  0.94569981  1
  O  O34  1  0.72719520  0.46207436  0.64632118  1
  O  O35  1  0.87034728  0.78549203  0.93512757  1
  O  O36  1  0.20557029  0.12098503  0.59802764  1
  O  O37  1  0.66274989  0.20403987  0.01758451  1
  O  O38  1  0.49513119  0.53663950  0.68360488  1
  O  O39  1  0.33362610  0.24953992  0.35933513  1
  O  O40  1  0.81063264  0.54667063  0.31531143  1
  O  O41  1  0.64529090  0.87920014  0.97776085  1
  O  O42  1  0.70887743  0.75020568  0.60985431  1
  O  O43  1  0.04188838  0.08408526  0.27776128  1
  O  O44  1  0.22643290  0.46374102  0.64768905  1
  O  O45  1  0.37026086  0.78626058  0.93526312  1
  O  O46  1  0.53728440  0.45309032  0.26887402  1
  O  O47  1  0.16171496  0.20427658  0.01543069  1
  O  O48  1  0.83136070  0.86817477  0.34954205  1
  O  O49  1  0.66694235  0.58192288  0.02746989  1
  O  O50  1  0.49998478  0.91587516  0.69378932  1
  O  O51  1  0.14393039  0.87869589  0.98522115  1
  O  O52  1  0.31121109  0.54711461  0.31599339  1
  O  O53  1  0.20991868  0.75236251  0.61106698  1
  O  O54  1  0.55961084  0.79553421  0.31128103  1
  O  O55  1  0.03771428  0.45316201  0.26853721  1
  O  O56  1  0.32860653  0.86994127  0.35097331  1
  O  O57  1  0.99394320  0.91255997  0.69301836  1
  O  O58  1  0.16683849  0.58119082  0.02762085  1
  O  O59  1  0.06052298  0.79598046  0.31336625  1
