# generated using pymatgen
data_LiMnP2O7
_symmetry_space_group_name_H-M   'P 1'
_cell_length_a   9.95398220
_cell_length_b   9.71883162
_cell_length_c   11.11280987
_cell_angle_alpha   89.67443713
_cell_angle_beta   99.30150267
_cell_angle_gamma   89.83519164
_symmetry_Int_Tables_number   1
_chemical_formula_structural   LiMnP2O7
_chemical_formula_sum   'Li8 Mn8 P16 O56'
_cell_volume   1060.90470490
_cell_formula_units_Z   8
loop_
 _symmetry_equiv_pos_site_id
 _symmetry_equiv_pos_as_xyz
  1  'x, y, z'
loop_
 _atom_site_type_symbol
 _atom_site_label
 _atom_site_symmetry_multiplicity
 _atom_site_fract_x
 _atom_site_fract_y
 _atom_site_fract_z
 _atom_site_occupancy
  Li  Li0  1  0.08728046  0.10976661  0.01899602  1
  Li  Li1  1  0.41804338  0.59121253  0.98078201  1
  Li  Li2  1  0.39732944  0.19587595  0.54406369  1
  Li  Li3  1  0.60365444  0.80415413  0.45966294  1
  Li  Li4  1  0.64978746  0.13300254  0.04845127  1
  Li  Li5  1  0.91152851  0.88455233  0.98049454  1
  Li  Li6  1  0.89810747  0.55703507  0.50522559  1
  Li  Li7  1  0.89333233  0.27853016  0.55144842  1
  Mn  Mn8  1  0.19011546  0.91639513  0.65561420  1
  Mn  Mn9  1  0.28976928  0.22799325  0.84042048  1
  Mn  Mn10  1  0.21163327  0.71894956  0.15804128  1
  Mn  Mn11  1  0.30807586  0.42674022  0.33937270  1
  Mn  Mn12  1  0.68994273  0.57714888  0.66690502  1
  Mn  Mn13  1  0.77825235  0.28359658  0.83637288  1
  Mn  Mn14  1  0.70727933  0.77418154  0.15974703  1
  Mn  Mn15  1  0.81028417  0.07626516  0.33970415  1
  P  P16  1  0.02572616  0.43774239  0.75548381  1
  P  P17  1  0.12438141  0.70743651  0.87750041  1
  P  P18  1  0.06006924  0.93234008  0.24427715  1
  P  P19  1  0.13421434  0.14892758  0.43205131  1
  P  P20  1  0.36894611  0.65131086  0.56511477  1
  P  P21  1  0.43354482  0.43035605  0.75357761  1
  P  P22  1  0.54081240  0.06422226  0.76663333  1
  P  P23  1  0.37702797  0.21220453  0.12202429  1
  P  P24  1  0.61821013  0.78468868  0.87656698  1
  P  P25  1  0.45669054  0.93454306  0.23668851  1
  P  P26  1  0.56107750  0.57148900  0.24636463  1
  P  P27  1  0.63271269  0.35245160  0.43062579  1
  P  P28  1  0.86964704  0.85422827  0.56640512  1
  P  P29  1  0.94063205  0.06299719  0.75644295  1
  P  P30  1  0.88198019  0.28997534  0.12099967  1
  P  P31  1  0.96086632  0.56654705  0.23533910  1
  O  O32  1  0.00530801  0.42789740  0.61841934  1
  O  O33  1  0.01566374  0.84316789  0.54859207  1
  O  O34  1  0.08610041  0.06391580  0.72454913  1
  O  O35  1  0.11283248  0.32644582  0.82940727  1
  O  O36  1  0.10240001  0.57993586  0.78437982  1
  O  O37  1  0.19479090  0.81441855  0.80573808  1
  O  O38  1  0.22784312  0.65699954  0.99099457  1
  O  O39  1  0.02024795  0.25103350  0.10034114  1
  O  O40  1  0.13151676  0.06668953  0.30635626  1
  O  O41  1  0.06324961  0.93977055  0.10856167  1
  O  O42  1  0.10356411  0.55845819  0.19264473  1
  O  O43  1  0.20605456  0.28431647  0.41425326  1
  O  O44  1  0.14847699  0.80809695  0.29598748  1
  O  O45  1  0.22300106  0.06679191  0.53471401  1
  O  O46  1  0.28541068  0.56636475  0.46407855  1
  O  O47  1  0.35055309  0.30638681  0.69143890  1
  O  O48  1  0.30874584  0.79087566  0.58725809  1
  O  O49  1  0.39939866  0.06366156  0.81135359  1
  O  O50  1  0.36783907  0.56702941  0.69213798  1
  O  O51  1  0.40919266  0.42369396  0.88449880  1
  O  O52  1  0.48396686  0.73894296  0.90129397  1
  O  O53  1  0.27194212  0.16995908  0.00637171  1
  O  O54  1  0.31323677  0.32651151  0.19019425  1
  O  O55  1  0.38561024  0.08343209  0.21467051  1
  O  O56  1  0.41286996  0.57334118  0.27236895  1
  O  O57  1  0.36677057  0.83575570  0.14973922  1
  O  O58  1  0.54242810  0.10295378  0.63759286  1
  O  O59  1  0.48608869  0.33539657  0.44883494  1
  O  O60  1  0.52056909  0.66377951  0.55500441  1
  O  O61  1  0.46776188  0.90876186  0.36978889  1
  O  O62  1  0.64012415  0.14887402  0.86273667  1
  O  O63  1  0.58622264  0.42656106  0.73690864  1
  O  O64  1  0.59897613  0.91005713  0.78055790  1
  O  O65  1  0.70226879  0.68049891  0.81311788  1
  O  O66  1  0.71554449  0.84177113  0.99177359  1
  O  O67  1  0.51372668  0.23948267  0.09049975  1
  O  O68  1  0.57242383  0.58529307  0.11323389  1
  O  O69  1  0.62993215  0.43098800  0.30178354  1
  O  O70  1  0.59948833  0.94251472  0.18955929  1
  O  O71  1  0.71044987  0.21872315  0.41828724  1
  O  O72  1  0.65199164  0.69020684  0.31002769  1
  O  O73  1  0.72086907  0.44151693  0.52995213  1
  O  O74  1  0.77564720  0.93677520  0.46636181  1
  O  O75  1  0.85403276  0.18906958  0.70081767  1
  O  O76  1  0.80217742  0.71264929  0.58098479  1
  O  O77  1  0.88220782  0.44500931  0.79988875  1
  O  O78  1  0.93359672  0.05849144  0.89104841  1
  O  O79  1  0.86392249  0.93014454  0.69451954  1
  O  O80  1  0.99021321  0.74541316  0.90959833  1
  O  O81  1  0.77891331  0.32937926  0.00510188  1
  O  O82  1  0.80424105  0.17724669  0.18582560  1
  O  O83  1  0.88962259  0.41762657  0.21055585  1
  O  O84  1  0.87123890  0.66868570  0.14899458  1
  O  O85  1  0.91206418  0.92952713  0.27398221  1
  O  O86  1  0.98526097  0.16496725  0.44735841  1
  O  O87  1  0.96497077  0.58817976  0.36755586  1
