# generated using pymatgen
data_CoCu2SnS4
_symmetry_space_group_name_H-M   'P 1'
_cell_length_a   5.41438881
_cell_length_b   5.41439442
_cell_length_c   6.58198934
_cell_angle_alpha   114.27979375
_cell_angle_beta   114.27938347
_cell_angle_gamma   90.00331519
_symmetry_Int_Tables_number   1
_chemical_formula_structural   CoCu2SnS4
_chemical_formula_sum   'Co1 Cu2 Sn1 S4'
_cell_volume   156.97431792
_cell_formula_units_Z   1
loop_
 _symmetry_equiv_pos_site_id
 _symmetry_equiv_pos_as_xyz
  1  'x, y, z'
loop_
 _atom_site_type_symbol
 _atom_site_label
 _atom_site_symmetry_multiplicity
 _atom_site_fract_x
 _atom_site_fract_y
 _atom_site_fract_z
 _atom_site_occupancy
  Co  Co0  1  1.00001309  1.00001516  1.00002726  1
  Cu  Cu1  1  0.74999397  0.24999205  0.49999630  1
  Cu  Cu2  1  0.24998801  0.74998983  0.49999787  1
  Sn  Sn3  1  0.50002696  0.50002632  0.99996966  1
  S  S4  1  0.63790110  0.09995775  0.73791123  1
  S  S5  1  0.89999632  0.89997272  0.26210839  1
  S  S6  1  0.09998083  0.63792036  0.73791410  1
  S  S7  1  0.36209971  0.36212581  0.26207519  1
