# generated using pymatgen
data_LiMn2(PO4)2
_symmetry_space_group_name_H-M   'P 1'
_cell_length_a   8.47342933
_cell_length_b   7.29675608
_cell_length_c   14.65859408
_cell_angle_alpha   90.00000000
_cell_angle_beta   89.85239357
_cell_angle_gamma   90.00000000
_symmetry_Int_Tables_number   1
_chemical_formula_structural   LiMn2(PO4)2
_chemical_formula_sum   'Li6 Mn12 P12 O48'
_cell_volume   906.31656514
_cell_formula_units_Z   6
loop_
 _symmetry_equiv_pos_site_id
 _symmetry_equiv_pos_as_xyz
  1  'x, y, z'
loop_
 _atom_site_type_symbol
 _atom_site_label
 _atom_site_symmetry_multiplicity
 _atom_site_fract_x
 _atom_site_fract_y
 _atom_site_fract_z
 _atom_site_occupancy
  Li  Li0  1  0.56981920  0.83461067  0.90873424  1
  Li  Li1  1  0.57371138  0.68198225  0.25963238  1
  Li  Li2  1  0.59399440  0.82216596  0.58539491  1
  Li  Li3  1  0.90600560  0.32216596  0.91460509  1
  Li  Li4  1  0.92628862  0.18198225  0.24036762  1
  Li  Li5  1  0.93018080  0.33461067  0.59126576  1
  Mn  Mn6  1  0.23539152  0.96274502  0.91658678  1
  Mn  Mn7  1  0.24877618  0.04780350  0.58503993  1
  Mn  Mn8  1  0.26774948  0.00461334  0.24254478  1
  Mn  Mn9  1  0.25122382  0.54780350  0.91496007  1
  Mn  Mn10  1  0.23225052  0.50461334  0.25745522  1
  Mn  Mn11  1  0.26460848  0.46274502  0.58341322  1
  Mn  Mn12  1  0.74439832  0.54608558  0.42387455  1
  Mn  Mn13  1  0.72564331  0.50645798  0.74510639  1
  Mn  Mn14  1  0.73786068  0.45761418  0.08545874  1
  Mn  Mn15  1  0.77435669  0.00645798  0.75489361  1
  Mn  Mn16  1  0.76213932  0.95761418  0.41454126  1
  Mn  Mn17  1  0.75560168  0.04608558  0.07612545  1
  P  P18  1  0.05155551  0.25830726  0.40920876  1
  P  P19  1  0.08462154  0.23789566  0.76451656  1
  P  P20  1  0.11238932  0.25591235  0.07110542  1
  P  P21  1  0.38761068  0.75591235  0.42889458  1
  P  P22  1  0.41537846  0.73789566  0.73548344  1
  P  P23  1  0.44844449  0.75830726  0.09079124  1
  P  P24  1  0.55962114  0.25159788  0.91279971  1
  P  P25  1  0.58977226  0.25833161  0.27264750  1
  P  P26  1  0.60800608  0.23179666  0.57584037  1
  P  P27  1  0.89199392  0.73179666  0.92415963  1
  P  P28  1  0.91022774  0.75833161  0.22735250  1
  P  P29  1  0.94037886  0.75159788  0.58720029  1
  O  O30  1  0.03428407  0.57345873  0.59658454  1
  O  O31  1  0.03502293  0.92247278  0.61110916  1
  O  O32  1  0.06756433  0.75317483  0.95012189  1
  O  O33  1  0.07480365  0.05698623  0.81780481  1
  O  O34  1  0.07478793  0.73473814  0.26749894  1
  O  O35  1  0.11138167  0.39386305  0.83407938  1
  O  O36  1  0.09541673  0.23861639  0.51120297  1
  O  O37  1  0.11833191  0.27593381  0.17641378  1
  O  O38  1  0.17643854  0.43436389  0.02731712  1
  O  O39  1  0.21225263  0.23287452  0.68618566  1
  O  O40  1  0.19741662  0.28144564  0.34882671  1
  O  O41  1  0.20172063  0.08773861  0.03999187  1
  O  O42  1  0.28774737  0.73287452  0.81381434  1
  O  O43  1  0.29827937  0.58773861  0.46000813  1
  O  O44  1  0.30258338  0.78144564  0.15117329  1
  O  O45  1  0.32356146  0.93436389  0.47268288  1
  O  O46  1  0.40458327  0.73861639  0.98879703  1
  O  O47  1  0.38166809  0.77593381  0.32358622  1
  O  O48  1  0.38861833  0.89386305  0.66592062  1
  O  O49  1  0.42519635  0.55698623  0.68219519  1
  O  O50  1  0.42521207  0.23473814  0.23250106  1
  O  O51  1  0.43243567  0.25317483  0.54987811  1
  O  O52  1  0.46497707  0.42247278  0.88889084  1
  O  O53  1  0.46571593  0.07345873  0.90341546  1
  O  O54  1  0.55785614  0.92936231  0.10587950  1
  O  O55  1  0.53904332  0.58879873  0.12824348  1
  O  O56  1  0.57073854  0.73504567  0.45559324  1
  O  O57  1  0.57851862  0.77125173  0.78092409  1
  O  O58  1  0.59952333  0.44327933  0.32546385  1
  O  O59  1  0.62569773  0.09598120  0.33741253  1
  O  O60  1  0.63108465  0.21536734  0.67943807  1
  O  O61  1  0.61998117  0.26426122  0.01698519  1
  O  O62  1  0.67643687  0.05209338  0.53252196  1
  O  O63  1  0.71208862  0.24226009  0.85354122  1
  O  O64  1  0.71178504  0.39496005  0.54156064  1
  O  O65  1  0.71835494  0.26291244  0.19432018  1
  O  O66  1  0.78821496  0.89496005  0.95843936  1
  O  O67  1  0.78791138  0.74226009  0.64645878  1
  O  O68  1  0.78164506  0.76291244  0.30567982  1
  O  O69  1  0.82356313  0.55209338  0.96747804  1
  O  O70  1  0.86891535  0.71536734  0.82056193  1
  O  O71  1  0.88001883  0.76426122  0.48301481  1
  O  O72  1  0.87430227  0.59598120  0.16258747  1
  O  O73  1  0.92148138  0.27125173  0.71907591  1
  O  O74  1  0.90047667  0.94327933  0.17453615  1
  O  O75  1  0.92926146  0.23504567  0.04440676  1
  O  O76  1  0.96095668  0.08879873  0.37175652  1
  O  O77  1  0.94214386  0.42936231  0.39412050  1
