# generated using pymatgen
data_LiFePCO7
_symmetry_space_group_name_H-M   'P 1'
_cell_length_a   5.12281023
_cell_length_b   6.31467097
_cell_length_c   8.69266319
_cell_angle_alpha   94.67444713
_cell_angle_beta   88.47374471
_cell_angle_gamma   92.33578663
_symmetry_Int_Tables_number   1
_chemical_formula_structural   LiFePCO7
_chemical_formula_sum   'Li2 Fe2 P2 C2 O14'
_cell_volume   279.95283306
_cell_formula_units_Z   2
loop_
 _symmetry_equiv_pos_site_id
 _symmetry_equiv_pos_as_xyz
  1  'x, y, z'
loop_
 _atom_site_type_symbol
 _atom_site_label
 _atom_site_symmetry_multiplicity
 _atom_site_fract_x
 _atom_site_fract_y
 _atom_site_fract_z
 _atom_site_occupancy
  Li  Li0  1  0.70404143  0.11746655  0.27125418  1
  Li  Li1  1  0.18306437  0.60104029  0.81781914  1
  Fe  Fe2  1  0.10839855  0.84998812  0.38309879  1
  Fe  Fe3  1  0.69454879  0.37097335  0.67613515  1
  P  P4  1  0.20102449  0.36609471  0.45525040  1
  P  P5  1  0.58588206  0.86964726  0.61056159  1
  C  C6  1  0.61965368  0.38221908  0.98315977  1
  C  C7  1  0.20828730  0.87412560  0.09748888  1
  O  O8  1  0.97683662  0.84717284  0.16076902  1
  O  O9  1  0.39718379  0.89763684  0.19425657  1
  O  O10  1  0.62924603  0.32750009  0.11901787  1
  O  O11  1  0.06372962  0.16895165  0.37176119  1
  O  O12  1  0.18459997  0.55137489  0.35290296  1
  O  O13  1  0.49156754  0.31934320  0.48561343  1
  O  O14  1  0.74687825  0.83739727  0.45778586  1
  O  O15  1  0.05971136  0.42245797  0.61536566  1
  O  O16  1  0.29430851  0.89500914  0.57054036  1
  O  O17  1  0.68238199  0.06981542  0.70935884  1
  O  O18  1  0.59468779  0.67279166  0.70566646  1
  O  O19  1  0.23442767  0.87130458  0.95336286  1
  O  O20  1  0.40302450  0.39177060  0.91317500  1
  O  O21  1  0.83055868  0.42444390  0.90382002  1
