# generated using pymatgen
data_Li4V5Co3O16
_symmetry_space_group_name_H-M   'P 1'
_cell_length_a   5.93194917
_cell_length_b   5.90121448
_cell_length_c   9.55991837
_cell_angle_alpha   89.77856737
_cell_angle_beta   89.49788198
_cell_angle_gamma   120.00647010
_symmetry_Int_Tables_number   1
_chemical_formula_structural   Li4V5Co3O16
_chemical_formula_sum   'Li4 V5 Co3 O16'
_cell_volume   289.77368366
_cell_formula_units_Z   1
loop_
 _symmetry_equiv_pos_site_id
 _symmetry_equiv_pos_as_xyz
  1  'x, y, z'
loop_
 _atom_site_type_symbol
 _atom_site_label
 _atom_site_symmetry_multiplicity
 _atom_site_fract_x
 _atom_site_fract_y
 _atom_site_fract_z
 _atom_site_occupancy
  Li  Li0  1  0.33045533  0.65951878  0.89868599  1
  Li  Li1  1  0.00038764  0.00302475  0.99600478  1
  Li  Li2  1  0.99940748  0.99969881  0.48801592  1
  Li  Li3  1  0.66623489  0.33438191  0.39783152  1
  V  V4  1  0.81621555  0.64883616  0.71989071  1
  V  V5  1  0.29559467  0.64944561  0.48745289  1
  V  V6  1  0.64187472  0.82247458  0.22866210  1
  V  V7  1  0.67280914  0.34195460  0.00157165  1
  V  V8  1  0.80416092  0.14999264  0.71834120  1
  Co  Co9  1  0.17884626  0.83529490  0.20993812  1
  Co  Co10  1  0.17700718  0.34389448  0.20968471  1
  Co  Co11  1  0.34310420  0.17497380  0.70867209  1
  O  O12  1  0.17338976  0.82705484  0.58954433  1
  O  O13  1  0.04551685  0.52297697  0.35587438  1
  O  O14  1  0.36700196  0.68394674  0.10390441  1
  O  O15  1  0.98115688  0.99048159  0.29600003  1
  O  O16  1  0.98699820  0.98533091  0.80403256  1
  O  O17  1  0.16170876  0.34485168  0.59444047  1
  O  O18  1  0.49213764  0.96050458  0.35497245  1
  O  O19  1  0.48993520  0.53276083  0.35645223  1
  O  O20  1  0.35196449  0.17524608  0.08081556  1
  O  O21  1  0.66390386  0.83465052  0.60164529  1
  O  O22  1  0.53094060  0.48531073  0.84641301  1
  O  O23  1  0.53344630  0.03394796  0.83915013  1
  O  O24  1  0.69907562  0.35863640  0.60170740  1
  O  O25  1  0.81980451  0.64607786  0.08986713  1
  O  O26  1  0.95716616  0.47971458  0.84163433  1
  O  O27  1  0.81975526  0.17531771  0.08663561  1
