# generated using pymatgen
data_Li3MnV(PO4)3
_symmetry_space_group_name_H-M   'P 1'
_cell_length_a   8.55791366
_cell_length_b   8.86503784
_cell_length_c   12.40447984
_cell_angle_alpha   90.52609429
_cell_angle_beta   87.57915938
_cell_angle_gamma   89.35731761
_symmetry_Int_Tables_number   1
_chemical_formula_structural   Li3MnV(PO4)3
_chemical_formula_sum   'Li12 Mn4 V4 P12 O48'
_cell_volume   940.13815318
_cell_formula_units_Z   4
loop_
 _symmetry_equiv_pos_site_id
 _symmetry_equiv_pos_as_xyz
  1  'x, y, z'
loop_
 _atom_site_type_symbol
 _atom_site_label
 _atom_site_symmetry_multiplicity
 _atom_site_fract_x
 _atom_site_fract_y
 _atom_site_fract_z
 _atom_site_occupancy
  Li  Li0  1  0.00334426  0.00929124  0.00077296  1
  Li  Li1  1  0.99028254  0.11044722  0.24542632  1
  Li  Li2  1  0.99316226  0.99942201  0.50135802  1
  Li  Li3  1  0.97580495  0.88275322  0.75593928  1
  Li  Li4  1  0.27024251  0.80231437  0.06533497  1
  Li  Li5  1  0.27275541  0.20731044  0.56772288  1
  Li  Li6  1  0.51040061  0.50875974  0.99538743  1
  Li  Li7  1  0.50437402  0.40627846  0.26337916  1
  Li  Li8  1  0.48979789  0.50063383  0.50211816  1
  Li  Li9  1  0.50003059  0.58817967  0.75161450  1
  Li  Li10  1  0.72287361  0.80895168  0.44002538  1
  Li  Li11  1  0.71906117  0.21534279  0.93414687  1
  Mn  Mn12  1  0.20383863  0.50281099  0.64950916  1
  Mn  Mn13  1  0.71346033  0.99536564  0.64369053  1
  Mn  Mn14  1  0.78911691  0.49913046  0.35651175  1
  Mn  Mn15  1  0.79578139  0.50413378  0.85245049  1
  V  V16  1  0.21477783  0.50015570  0.14467493  1
  V  V17  1  0.28675005  0.99934165  0.35683064  1
  V  V18  1  0.28985619  -0.00007265  0.85481194  1
  V  V19  1  0.71846920  0.00154669  0.14059839  1
  P  P20  1  0.00131151  0.80399069  0.25192354  1
  P  P21  1  0.99883852  0.18681981  0.74892602  1
  P  P22  1  0.16360682  0.35680174  0.39309008  1
  P  P23  1  0.17190011  0.64716844  0.89469329  1
  P  P24  1  0.35013129  0.14660451  0.10212155  1
  P  P25  1  0.35691958  0.85498358  0.59976484  1
  P  P26  1  0.49819564  0.71218885  0.25059508  1
  P  P27  1  0.49787807  0.28274472  0.75228314  1
  P  P28  1  0.65106353  0.14567649  0.39152023  1
  P  P29  1  0.65406378  0.85063496  0.89840982  1
  P  P30  1  0.84335252  0.36064311  0.10770364  1
  P  P31  1  0.82872419  0.64086288  0.60323823  1
  O  O32  1  0.00798748  0.42261936  0.11152309  1
  O  O33  1  0.99520355  0.58598642  0.60745868  1
  O  O34  1  0.07448553  0.91539983  0.33653413  1
  O  O35  1  0.07216640  0.07521664  0.83382139  1
  O  O36  1  0.12756665  0.70638482  0.19194473  1
  O  O37  1  0.12141866  0.27632164  0.68524814  1
  O  O38  1  0.15861959  0.17754876  0.40518390  1
  O  O39  1  0.17067298  0.82557374  0.91447346  1
  O  O40  1  0.25609971  0.40392956  0.28927596  1
  O  O41  1  0.25461911  0.06204540  0.01539960  1
  O  O42  1  0.25838317  0.40754774  0.48917062  1
  O  O43  1  0.27522810  0.60333510  0.79585406  1
  O  O44  1  0.25704552  0.94448028  0.51624737  1
  O  O45  1  0.27198620  0.09135788  0.21112713  1
  O  O46  1  0.25502127  0.58950878  0.99609349  1
  O  O47  1  0.28075289  0.90537114  0.71154812  1
  O  O48  1  0.33777846  0.31925115  0.08824987  1
  O  O49  1  0.35421902  0.68440390  0.58335544  1
  O  O50  1  0.36759561  0.81102055  0.31030339  1
  O  O51  1  0.36589787  0.18409600  0.80839135  1
  O  O52  1  0.42909559  0.60679978  0.16430054  1
  O  O53  1  0.43115290  0.38302082  0.66434867  1
  O  O54  1  0.47863692  0.08548332  0.39360970  1
  O  O55  1  0.48400844  0.91818951  0.89691278  1
  O  O56  1  0.52472807  0.10801589  0.09311164  1
  O  O57  1  0.52895487  0.90408446  0.58770573  1
  O  O58  1  0.56537417  0.61123967  0.33933859  1
  O  O59  1  0.56376671  0.37839650  0.84396977  1
  O  O60  1  0.61530893  0.81584493  0.19517309  1
  O  O61  1  0.62030921  0.17674890  0.69826911  1
  O  O62  1  0.63094297  0.31740793  0.40808380  1
  O  O63  1  0.63292698  0.68088748  0.91645477  1
  O  O64  1  0.73283624  0.10657624  0.28077359  1
  O  O65  1  0.74508297  0.41426826  0.01377814  1
  O  O66  1  0.74641623  0.88811811  0.79383475  1
  O  O67  1  0.74988928  0.06144215  0.47295100  1
  O  O68  1  0.74858076  0.40834992  0.21340126  1
  O  O69  1  0.73929551  0.58485221  0.50251713  1
  O  O70  1  0.74672547  0.93299930  0.98735311  1
  O  O71  1  0.72604438  0.59699122  0.70195382  1
  O  O72  1  0.86225417  0.18414886  0.09303229  1
  O  O73  1  0.84041098  0.81850593  0.58596445  1
  O  O74  1  0.87562980  0.71818907  0.31576357  1
  O  O75  1  0.87685126  0.27869107  0.81474352  1
  O  O76  1  0.93808566  0.91292857  0.16473670  1
  O  O77  1  0.92854573  0.07464993  0.66403038  1
  O  O78  1  0.99270721  0.40584805  0.39129670  1
  O  O79  1  0.00252491  0.60470553  0.88481429  1
