# generated using pymatgen
data_Li4Cr(PO4)2
_symmetry_space_group_name_H-M   'P 1'
_cell_length_a   4.82281729
_cell_length_b   5.42420723
_cell_length_c   6.14475928
_cell_angle_alpha   94.84226941
_cell_angle_beta   95.18449566
_cell_angle_gamma   101.58490856
_symmetry_Int_Tables_number   1
_chemical_formula_structural   Li4Cr(PO4)2
_chemical_formula_sum   'Li4 Cr1 P2 O8'
_cell_volume   155.95878278
_cell_formula_units_Z   1
loop_
 _symmetry_equiv_pos_site_id
 _symmetry_equiv_pos_as_xyz
  1  'x, y, z'
loop_
 _atom_site_type_symbol
 _atom_site_label
 _atom_site_symmetry_multiplicity
 _atom_site_fract_x
 _atom_site_fract_y
 _atom_site_fract_z
 _atom_site_occupancy
  Li  Li0  1  0.15532346  0.29566837  0.56732025  1
  Li  Li1  1  0.31019345  0.57756633  0.17638353  1
  Li  Li2  1  0.68980655  0.42243367  0.82361647  1
  Li  Li3  1  0.84467654  0.70433163  0.43267975  1
  Cr  Cr4  1  0.00000000  -0.00000000  -0.00000000  1
  P  P5  1  0.37902183  0.78622232  0.71507304  1
  P  P6  1  0.62097817  0.21377768  0.28492696  1
  O  O7  1  0.24383031  0.58447751  0.86127403  1
  O  O8  1  0.25810772  0.69141792  0.47485687  1
  O  O9  1  0.29010890  0.19362017  0.26023630  1
  O  O10  1  0.30588204  0.04822175  0.78417951  1
  O  O11  1  0.69411796  0.95177825  0.21582049  1
  O  O12  1  0.70989110  0.80637983  0.73976370  1
  O  O13  1  0.74189228  0.30858208  0.52514313  1
  O  O14  1  0.75616969  0.41552249  0.13872597  1
