# generated using pymatgen
data_Li3Ti2(PO4)3
_symmetry_space_group_name_H-M   'P 1'
_cell_length_a   8.79929637
_cell_length_b   12.24207455
_cell_length_c   8.83079179
_cell_angle_alpha   90.00000000
_cell_angle_beta   90.00000000
_cell_angle_gamma   90.30812826
_symmetry_Int_Tables_number   1
_chemical_formula_structural   Li3Ti2(PO4)3
_chemical_formula_sum   'Li12 Ti8 P12 O48'
_cell_volume   951.25363798
_cell_formula_units_Z   4
loop_
 _symmetry_equiv_pos_site_id
 _symmetry_equiv_pos_as_xyz
  1  'x, y, z'
loop_
 _atom_site_type_symbol
 _atom_site_label
 _atom_site_symmetry_multiplicity
 _atom_site_fract_x
 _atom_site_fract_y
 _atom_site_fract_z
 _atom_site_occupancy
  Li  Li0  1  0.05734751  0.70748260  0.06519902  1
  Li  Li1  1  0.21118766  0.17904816  0.77497136  1
  Li  Li2  1  0.20404594  0.82029644  0.72991230  1
  Li  Li3  1  0.29595406  0.67970356  0.22991230  1
  Li  Li4  1  0.28881234  0.32095184  0.27497136  1
  Li  Li5  1  0.44265249  0.79251740  0.56519902  1
  Li  Li6  1  0.55734751  0.20748260  0.43480098  1
  Li  Li7  1  0.71118766  0.67904816  0.72502864  1
  Li  Li8  1  0.70404594  0.32029644  0.77008770  1
  Li  Li9  1  0.79595406  0.17970356  0.27008770  1
  Li  Li10  1  0.78881234  0.82095184  0.22502864  1
  Li  Li11  1  0.94265249  0.29251740  0.93480098  1
  Ti  Ti12  1  0.24076716  0.60791884  0.54074400  1
  Ti  Ti13  1  0.25923284  0.89208116  0.04074400  1
  Ti  Ti14  1  0.24545624  0.11078072  0.45889785  1
  Ti  Ti15  1  0.25454376  0.38921928  0.95889785  1
  Ti  Ti16  1  0.74545624  0.61078072  0.04110215  1
  Ti  Ti17  1  0.75454376  0.88921928  0.54110215  1
  Ti  Ti18  1  0.74076716  0.10791884  0.95925600  1
  Ti  Ti19  1  0.75923284  0.39208116  0.45925600  1
  P  P20  1  0.04426061  0.50032237  0.24499180  1
  P  P21  1  0.10618158  0.85051891  0.39125298  1
  P  P22  1  0.10614398  0.14822927  0.10486537  1
  P  P23  1  0.39385602  0.35177073  0.60486537  1
  P  P24  1  0.39381842  0.64948109  0.89125298  1
  P  P25  1  0.45573939  0.99967763  0.74499180  1
  P  P26  1  0.54426061  0.00032237  0.25500820  1
  P  P27  1  0.60618158  0.35051891  0.10874702  1
  P  P28  1  0.60614398  0.64822927  0.39513463  1
  P  P29  1  0.89385602  0.85177073  0.89513463  1
  P  P30  1  0.89381842  0.14948109  0.60874702  1
  P  P31  1  0.95573939  0.49967763  0.75500820  1
  O  O32  1  0.04485111  0.42938793  0.87109279  1
  O  O33  1  0.05915565  0.57683310  0.66499066  1
  O  O34  1  0.07045739  0.85065556  0.89235929  1
  O  O35  1  0.06670188  0.16806777  0.59285702  1
  O  O36  1  0.13382737  0.58407170  0.34327653  1
  O  O37  1  0.14807544  0.97107145  0.41544581  1
  O  O38  1  0.15217495  0.81306993  0.22750423  1
  O  O39  1  0.14993622  0.23401290  0.97978645  1
  O  O40  1  0.16699255  0.42925791  0.16498337  1
  O  O41  1  0.16947104  0.18399531  0.26032019  1
  O  O42  1  0.16793074  0.03654760  0.05617469  1
  O  O43  1  0.19812827  0.78236624  0.51095249  1
  O  O44  1  0.30187173  0.71763376  0.01095249  1
  O  O45  1  0.33206926  0.46345240  0.55617469  1
  O  O46  1  0.33052896  0.31600469  0.76032019  1
  O  O47  1  0.33300745  0.07074209  0.66498337  1
  O  O48  1  0.35006378  0.26598710  0.47978645  1
  O  O49  1  0.34782505  0.68693007  0.72750423  1
  O  O50  1  0.35192456  0.52892855  0.91544581  1
  O  O51  1  0.36617263  0.91592830  0.84327653  1
  O  O52  1  0.42954261  0.64934444  0.39235929  1
  O  O53  1  0.43329812  0.33193223  0.09285702  1
  O  O54  1  0.44084435  0.92316690  0.16499066  1
  O  O55  1  0.45514889  0.07061207  0.37109279  1
  O  O56  1  0.54485111  0.92938793  0.62890721  1
  O  O57  1  0.55915565  0.07683310  0.83500934  1
  O  O58  1  0.56670188  0.66806777  0.90714298  1
  O  O59  1  0.57045739  0.35065556  0.60764071  1
  O  O60  1  0.63382737  0.08407170  0.15672347  1
  O  O61  1  0.64807544  0.47107145  0.08455419  1
  O  O62  1  0.65217495  0.31306993  0.27249577  1
  O  O63  1  0.64993622  0.73401290  0.52021355  1
  O  O64  1  0.66699255  0.92925791  0.33501663  1
  O  O65  1  0.66947104  0.68399531  0.23967981  1
  O  O66  1  0.66793074  0.53654760  0.44382531  1
  O  O67  1  0.69812827  0.28236624  0.98904751  1
  O  O68  1  0.80187173  0.21763376  0.48904751  1
  O  O69  1  0.83206926  0.96345240  0.94382531  1
  O  O70  1  0.83052896  0.81600469  0.73967981  1
  O  O71  1  0.83300745  0.57074209  0.83501663  1
  O  O72  1  0.85006378  0.76598710  0.02021355  1
  O  O73  1  0.84782505  0.18693007  0.77249577  1
  O  O74  1  0.85192456  0.02892855  0.58455419  1
  O  O75  1  0.86617263  0.41592830  0.65672347  1
  O  O76  1  0.93329812  0.83193223  0.40714298  1
  O  O77  1  0.92954261  0.14934444  0.10764071  1
  O  O78  1  0.94084435  0.42316690  0.33500934  1
  O  O79  1  0.95514889  0.57061207  0.12890721  1
