# generated using pymatgen
data_Li3V(PO4)2
_symmetry_space_group_name_H-M   'P 1'
_cell_length_a   8.63753130
_cell_length_b   9.95426745
_cell_length_c   14.86311106
_cell_angle_alpha   90.00000000
_cell_angle_beta   83.56645800
_cell_angle_gamma   90.00000000
_symmetry_Int_Tables_number   1
_chemical_formula_structural   Li3V(PO4)2
_chemical_formula_sum   'Li24 V8 P16 O64'
_cell_volume   1269.88689628
_cell_formula_units_Z   8
loop_
 _symmetry_equiv_pos_site_id
 _symmetry_equiv_pos_as_xyz
  1  'x, y, z'
loop_
 _atom_site_type_symbol
 _atom_site_label
 _atom_site_symmetry_multiplicity
 _atom_site_fract_x
 _atom_site_fract_y
 _atom_site_fract_z
 _atom_site_occupancy
  Li  Li0  1  0.07479771  0.09828121  0.94432572  1
  Li  Li1  1  0.08870813  0.62193397  0.29129611  1
  Li  Li2  1  0.18330101  0.88286140  0.21859722  1
  Li  Li3  1  0.21430661  0.41366776  0.52106496  1
  Li  Li4  1  0.23191568  0.39787063  0.75544800  1
  Li  Li5  1  0.24583115  0.91565045  0.50429525  1
  Li  Li6  1  0.25416885  0.41565045  0.99570475  1
  Li  Li7  1  0.26808432  0.89787063  0.74455200  1
  Li  Li8  1  0.28569339  0.91366776  0.97893504  1
  Li  Li9  1  0.31669899  0.38286140  0.28140278  1
  Li  Li10  1  0.41129187  0.12193397  0.20870389  1
  Li  Li11  1  0.42520229  0.59828121  0.55567428  1
  Li  Li12  1  0.57479771  0.40171879  0.44432572  1
  Li  Li13  1  0.58870813  0.87806603  0.79129611  1
  Li  Li14  1  0.68330101  0.61713860  0.71859722  1
  Li  Li15  1  0.71430661  0.08633224  0.02106496  1
  Li  Li16  1  0.73191568  0.10212937  0.25544800  1
  Li  Li17  1  0.74583115  0.58434955  0.00429525  1
  Li  Li18  1  0.75416885  0.08434955  0.49570475  1
  Li  Li19  1  0.76808432  0.60212937  0.24455200  1
  Li  Li20  1  0.78569339  0.58633224  0.47893504  1
  Li  Li21  1  0.81669899  0.11713860  0.78140278  1
  Li  Li22  1  0.91129187  0.37806603  0.70870389  1
  Li  Li23  1  0.92520229  0.90171879  0.05567428  1
  V  V24  1  0.08797467  0.64831262  0.88572763  1
  V  V25  1  0.08112229  0.12081229  0.35915656  1
  V  V26  1  0.41887771  0.62081229  0.14084344  1
  V  V27  1  0.41202533  0.14831262  0.61427237  1
  V  V28  1  0.58797467  0.85168738  0.38572763  1
  V  V29  1  0.58112229  0.37918771  0.85915656  1
  V  V30  1  0.91887771  0.87918771  0.64084344  1
  V  V31  1  0.91202533  0.35168738  0.11427237  1
  P  P32  1  0.08557127  0.65208155  0.66307909  1
  P  P33  1  0.08543010  0.13350472  0.13554484  1
  P  P34  1  0.06859991  0.65444470  0.09703194  1
  P  P35  1  0.04342735  0.16366948  0.58708988  1
  P  P36  1  0.45657265  0.66366948  0.91291012  1
  P  P37  1  0.43140009  0.15444470  0.40296806  1
  P  P38  1  0.41456990  0.63350472  0.36445516  1
  P  P39  1  0.41442873  0.15208155  0.83692091  1
  P  P40  1  0.58557127  0.84791845  0.16307909  1
  P  P41  1  0.58543010  0.36649528  0.63554484  1
  P  P42  1  0.56859991  0.84555530  0.59703194  1
  P  P43  1  0.54342735  0.33633052  0.08708988  1
  P  P44  1  0.95657265  0.83633052  0.41291012  1
  P  P45  1  0.93140009  0.34555530  0.90296806  1
  P  P46  1  0.91456990  0.86649528  0.86445516  1
  P  P47  1  0.91442873  0.34791845  0.33692091  1
  O  O48  1  0.06659340  0.44228081  0.91625819  1
  O  O49  1  0.06692414  0.91543165  0.34154041  1
  O  O50  1  0.03891184  0.73514281  0.18577815  1
  O  O51  1  0.05345468  0.31303868  0.61001900  1
  O  O52  1  0.98678035  0.14186734  0.49234790  1
  O  O53  1  0.09772451  0.57779366  0.75616937  1
  O  O54  1  0.08780189  0.75088941  0.01376584  1
  O  O55  1  0.09506943  0.85238299  0.84202280  1
  O  O56  1  0.09279641  0.33971778  0.35088470  1
  O  O57  1  0.17229419  0.10084833  0.22081433  1
  O  O58  1  0.19331980  0.58088623  0.59082798  1
  O  O59  1  0.12977223  0.80509168  0.66607830  1
  O  O60  1  0.12024249  0.01972341  0.06696965  1
  O  O61  1  0.13370222  0.27798560  0.10035950  1
  O  O62  1  0.21907062  0.56910955  0.09871985  1
  O  O63  1  0.20395606  0.09328865  0.58999996  1
  O  O64  1  0.29604394  0.59328865  0.91000004  1
  O  O65  1  0.28092938  0.06910955  0.40128015  1
  O  O66  1  0.36629778  0.77798560  0.39964050  1
  O  O67  1  0.37022777  0.30509168  0.83392170  1
  O  O68  1  0.37975751  0.51972341  0.43303035  1
  O  O69  1  0.30668020  0.08088623  0.90917202  1
  O  O70  1  0.32770581  0.60084833  0.27918567  1
  O  O71  1  0.40720359  0.83971778  0.14911530  1
  O  O72  1  0.40493057  0.35238299  0.65797720  1
  O  O73  1  0.41219811  0.25088941  0.48623416  1
  O  O74  1  0.40227549  0.07779366  0.74383063  1
  O  O75  1  0.44654532  0.81303868  0.88998100  1
  O  O76  1  0.51321965  0.64186734  0.00765210  1
  O  O77  1  0.46108816  0.23514281  0.31422185  1
  O  O78  1  0.43340660  0.94228081  0.58374181  1
  O  O79  1  0.43307586  0.41543165  0.15845959  1
  O  O80  1  0.56692414  0.58456835  0.84154041  1
  O  O81  1  0.56659340  0.05771919  0.41625819  1
  O  O82  1  0.53891184  0.76485719  0.68577815  1
  O  O83  1  0.48678035  0.35813266  0.99234790  1
  O  O84  1  0.55345468  0.18696132  0.11002000  1
  O  O85  1  0.59772451  0.92220634  0.25616937  1
  O  O86  1  0.58780189  0.74911059  0.51376584  1
  O  O87  1  0.59506943  0.64761701  0.34202280  1
  O  O88  1  0.59279641  0.16028222  0.85088470  1
  O  O89  1  0.67229419  0.39915167  0.72081433  1
  O  O90  1  0.69331980  0.91911377  0.09082798  1
  O  O91  1  0.62024249  0.48027659  0.56696965  1
  O  O92  1  0.62977223  0.69490832  0.16607830  1
  O  O93  1  0.63370222  0.22201440  0.60035950  1
  O  O94  1  0.71907062  0.93089045  0.59871985  1
  O  O95  1  0.70395606  0.40671135  0.08999996  1
  O  O96  1  0.79604394  0.90671135  0.41000004  1
  O  O97  1  0.78092938  0.43089045  0.90128015  1
  O  O98  1  0.86629778  0.72201440  0.89964050  1
  O  O99  1  0.87975751  0.98027659  0.93303035  1
  O  O100  1  0.87022777  0.19490832  0.33392170  1
  O  O101  1  0.80668020  0.41911377  0.40917202  1
  O  O102  1  0.82770581  0.89915167  0.77918567  1
  O  O103  1  0.90720359  0.66028222  0.64911530  1
  O  O104  1  0.90493057  0.14761701  0.15797720  1
  O  O105  1  0.91219811  0.24911059  0.98623416  1
  O  O106  1  0.90227549  0.42220634  0.24383063  1
  O  O107  1  0.01321965  0.85813266  0.50765210  1
  O  O108  1  0.94654532  0.68696132  0.38998000  1
  O  O109  1  0.96108816  0.26485719  0.81422185  1
  O  O110  1  0.93307586  0.08456835  0.65845959  1
  O  O111  1  0.93340660  0.55771919  0.08374181  1
