# generated using pymatgen
data_Li4NbCo3O8
_symmetry_space_group_name_H-M   'P 1'
_cell_length_a   10.44750661
_cell_length_b   10.43104154
_cell_length_c   14.76060785
_cell_angle_alpha   19.47543391
_cell_angle_beta   19.45350109
_cell_angle_gamma   33.64381075
_symmetry_Int_Tables_number   1
_chemical_formula_structural   Li4NbCo3O8
_chemical_formula_sum   'Li4 Nb1 Co3 O8'
_cell_volume   153.79397590
_cell_formula_units_Z   1
loop_
 _symmetry_equiv_pos_site_id
 _symmetry_equiv_pos_as_xyz
  1  'x, y, z'
loop_
 _atom_site_type_symbol
 _atom_site_label
 _atom_site_symmetry_multiplicity
 _atom_site_fract_x
 _atom_site_fract_y
 _atom_site_fract_z
 _atom_site_occupancy
  Li  Li0  1  0.00000069  0.00000416  0.49999635  1
  Li  Li1  1  0.00005337  0.50001189  0.49996101  1
  Li  Li2  1  0.50000632  0.00004531  0.49997111  1
  Li  Li3  1  0.50001027  0.50000489  0.49998286  1
  Nb  Nb4  1  0.00003647  0.00001873  -0.00004199  1
  Co  Co5  1  0.99993828  0.49999132  0.00004284  1
  Co  Co6  1  0.50000341  -0.00005047  0.00002576  1
  Co  Co7  1  0.50002376  0.50003852  0.99996278  1
  O  O8  1  0.96591823  0.96459896  0.30902923  1
  O  O9  1  0.00866413  0.52905805  0.22742987  1
  O  O10  1  0.52706261  0.00429270  0.23173907  1
  O  O11  1  0.03410748  0.03542529  0.69093509  1
  O  O12  1  0.48209743  0.48384333  0.27693078  1
  O  O13  1  0.99134841  0.47093407  0.77256302  1
  O  O14  1  0.47291400  0.99571203  0.76826306  1
  O  O15  1  0.51781613  0.51607122  0.72320816  1
