# generated using pymatgen
data_Li3V4FeO12
_symmetry_space_group_name_H-M   'P 1'
_cell_length_a   5.35406767
_cell_length_b   10.81396771
_cell_length_c   9.53927726
_cell_angle_alpha   27.79378581
_cell_angle_beta   50.63272330
_cell_angle_gamma   56.10202438
_symmetry_Int_Tables_number   1
_chemical_formula_structural   Li3V4FeO12
_chemical_formula_sum   'Li3 V4 Fe1 O12'
_cell_volume   199.09267222
_cell_formula_units_Z   1
loop_
 _symmetry_equiv_pos_site_id
 _symmetry_equiv_pos_as_xyz
  1  'x, y, z'
loop_
 _atom_site_type_symbol
 _atom_site_label
 _atom_site_symmetry_multiplicity
 _atom_site_fract_x
 _atom_site_fract_y
 _atom_site_fract_z
 _atom_site_occupancy
  Li  Li0  1  0.28297157  0.50480527  0.28295251  1
  Li  Li1  1  0.78419488  0.00374637  0.78320740  1
  Li  Li2  1  0.78250078  0.49762522  0.78921778  1
  V  V3  1  0.00631717  0.00745848  0.99704170  1
  V  V4  1  0.98881668  0.48931675  0.01227089  1
  V  V5  1  0.47651639  0.99670202  0.52076577  1
  V  V6  1  0.51569963  0.51025202  0.47950133  1
  Fe  Fe7  1  0.29240683  0.99920943  0.28901170  1
  O  O8  1  0.37050567  0.28999560  0.12149297  1
  O  O9  1  0.22942732  0.12459351  0.61056799  1
  O  O10  1  0.11510307  0.30921234  0.73118313  1
  O  O11  1  0.86866408  0.18181406  0.22929423  1
  O  O12  1  0.34534551  0.81135821  0.11157865  1
  O  O13  1  0.72971047  0.38375802  0.34811816  1
  O  O14  1  0.21591580  0.63529498  0.60801903  1
  O  O15  1  0.60621327  0.16846352  0.87857364  1
  O  O16  1  0.13152442  0.82754093  0.70494151  1
  O  O17  1  0.85596089  0.68952404  0.22870415  1
  O  O18  1  0.73042923  0.87314498  0.35312225  1
  O  O19  1  0.60137535  0.69618525  0.85003520  1
