# generated using pymatgen
data_LaFeTeO6
_symmetry_space_group_name_H-M   'P 1'
_cell_length_a   5.57003459
_cell_length_b   5.54041344
_cell_length_c   7.84532977
_cell_angle_alpha   89.96570959
_cell_angle_beta   90.00000000
_cell_angle_gamma   90.00000000
_symmetry_Int_Tables_number   1
_chemical_formula_structural   LaFeTeO6
_chemical_formula_sum   'La2 Fe2 Te2 O12'
_cell_volume   242.10914401
_cell_formula_units_Z   2
loop_
 _symmetry_equiv_pos_site_id
 _symmetry_equiv_pos_as_xyz
  1  'x, y, z'
loop_
 _atom_site_type_symbol
 _atom_site_label
 _atom_site_symmetry_multiplicity
 _atom_site_fract_x
 _atom_site_fract_y
 _atom_site_fract_z
 _atom_site_occupancy
  La  La0  1  0.03437525  0.99117094  0.24862902  1
  La  La1  1  0.46562475  0.49117094  0.74862902  1
  Fe  Fe2  1  0.50787866  0.99698747  0.00023624  1
  Fe  Fe3  1  0.99212134  0.49698747  0.50023624  1
  Te  Te4  1  0.50621437  0.99795068  0.49970789  1
  Te  Te5  1  0.99378563  0.49795068  0.99970789  1
  O  O6  1  0.01122726  0.55162665  0.75475993  1
  O  O7  1  0.22083903  0.23219541  0.97148898  1
  O  O8  1  0.23666289  0.22309326  0.52981494  1
  O  O9  1  0.26333711  0.72309326  0.02981494  1
  O  O10  1  0.27916097  0.73219541  0.47148898  1
  O  O11  1  0.48877274  0.05162665  0.25475993  1
  O  O12  1  0.50778535  0.92909040  0.74417607  1
  O  O13  1  0.71269639  0.27629895  0.53560523  1
  O  O14  1  0.71704226  0.29118925  0.96576870  1
  O  O15  1  0.78295774  0.79118925  0.46576870  1
  O  O16  1  0.78730361  0.77629895  0.03560523  1
  O  O17  1  0.99221465  0.42909040  0.24417607  1
