# generated using pymatgen
data_Li3MnV(PO4)3
_symmetry_space_group_name_H-M   'P 1'
_cell_length_a   8.68169451
_cell_length_b   8.77246006
_cell_length_c   15.10206013
_cell_angle_alpha   106.91126265
_cell_angle_beta   89.94360859
_cell_angle_gamma   61.53641984
_symmetry_Int_Tables_number   1
_chemical_formula_structural   Li3MnV(PO4)3
_chemical_formula_sum   'Li12 Mn4 V4 P12 O48'
_cell_volume   953.99066114
_cell_formula_units_Z   4
loop_
 _symmetry_equiv_pos_site_id
 _symmetry_equiv_pos_as_xyz
  1  'x, y, z'
loop_
 _atom_site_type_symbol
 _atom_site_label
 _atom_site_symmetry_multiplicity
 _atom_site_fract_x
 _atom_site_fract_y
 _atom_site_fract_z
 _atom_site_occupancy
  Li  Li0  1  0.29532659  0.75684897  0.31804644  1
  Li  Li1  1  0.18613473  0.71204975  0.55273387  1
  Li  Li2  1  0.68706877  0.71416282  0.05096443  1
  Li  Li3  1  0.17555575  0.24934584  0.17961233  1
  Li  Li4  1  0.21166466  0.67870835  0.82757331  1
  Li  Li5  1  0.71288914  0.67823489  0.32885514  1
  Li  Li6  1  0.27016352  0.21272613  0.63359820  1
  Li  Li7  1  0.77263349  0.21015535  0.13041844  1
  Li  Li8  1  0.81160888  0.74684060  0.82130799  1
  Li  Li9  1  0.68737778  0.24516259  0.68809612  1
  Li  Li10  1  0.36002359  0.17832375  0.97689394  1
  Li  Li11  1  0.86388666  0.17972621  0.48107527  1
  Mn  Mn12  1  0.28852528  0.85408260  0.07500512  1
  Mn  Mn13  1  0.03005417  0.35541464  0.82153292  1
  Mn  Mn14  1  0.78717131  0.85087314  0.57290085  1
  Mn  Mn15  1  0.47604419  0.63765234  0.67611656  1
  V  V16  1  0.53311332  0.35838074  0.32027504  1
  V  V17  1  0.21802152  0.14244659  0.42534649  1
  V  V18  1  0.97219719  0.64103775  0.17929931  1
  V  V19  1  0.71483044  0.14012110  0.92351250  1
  P  P20  1  0.01198680  0.95225519  0.73512784  1
  P  P21  1  0.51387732  0.95763176  0.23612736  1
  P  P22  1  0.01910051  0.25876399  0.02093147  1
  P  P23  1  0.09656639  0.53954909  0.37547531  1
  P  P24  1  0.40434500  0.45171251  0.12547523  1
  P  P25  1  0.47646110  0.75536964  0.47504948  1
  P  P26  1  0.52140163  0.26379338  0.52488452  1
  P  P27  1  0.59398911  0.53975198  0.87683399  1
  P  P28  1  0.90808995  0.44807530  0.62863497  1
  P  P29  1  0.97738910  0.75809678  0.97912183  1
  P  P30  1  0.48750388  0.02929093  0.76005677  1
  P  P31  1  0.98727743  0.03904323  0.26232928  1
  O  O32  1  0.02217200  0.84140765  0.23921247  1
  O  O33  1  0.46048917  0.92187389  0.13628659  1
  O  O34  1  0.39396631  0.94914599  0.30861176  1
  O  O35  1  0.00401393  0.68849647  0.47311667  1
  O  O36  1  0.29938701  0.91573283  0.46526458  1
  O  O37  1  0.36058485  0.64290893  0.12989672  1
  O  O38  1  0.23443633  0.44144764  0.14704518  1
  O  O39  1  0.26523963  0.55022844  0.35257375  1
  O  O40  1  0.20238222  0.79531552  0.72783279  1
  O  O41  1  0.70343826  0.79718493  0.22858615  1
  O  O42  1  0.20146440  0.11391177  0.03538510  1
  O  O43  1  0.14460718  0.34674430  0.37478183  1
  O  O44  1  0.10775367  0.04771604  0.18855633  1
  O  O45  1  0.02089969  0.28552597  0.53689924  1
  O  O46  1  0.12562295  0.80902699  0.99624212  1
  O  O47  1  0.42526578  0.70041076  0.55321070  1
  O  O48  1  0.50506491  0.29569436  0.03039903  1
  O  O49  1  0.02938320  0.41091791  0.70601793  1
  O  O50  1  0.04801962  0.60657270  0.88005598  1
  O  O51  1  0.62487453  0.80652403  0.49162667  1
  O  O52  1  0.93104172  0.69609710  0.05620836  1
  O  O53  1  0.02995840  0.08759660  0.36311440  1
  O  O54  1  0.53181834  0.40096056  0.19811785  1
  O  O55  1  0.55169311  0.59880076  0.37673821  1
  O  O56  1  0.52339039  0.83059596  0.73770544  1
  O  O57  1  0.49497414  0.14743783  0.26367475  1
  O  O58  1  0.43050673  0.43618694  0.61740012  1
  O  O59  1  0.93252118  0.42631635  0.11333285  1
  O  O60  1  0.95890774  0.91239965  0.63492134  1
  O  O61  1  0.46670854  0.58253313  0.80509002  1
  O  O62  1  0.06912944  0.30829083  0.93832898  1
  O  O63  1  0.38396110  0.19835294  0.51113076  1
  O  O64  1  0.97096019  0.58128022  0.30169414  1
  O  O65  1  0.56591113  0.31462483  0.44226721  1
  O  O66  1  0.88264616  0.19247635  0.00452487  1
  O  O67  1  0.89434041  0.94133728  0.80809961  1
  O  O68  1  0.50507922  0.68353977  0.97673960  1
  O  O69  1  0.79788638  0.92196146  0.97409281  1
  O  O70  1  0.86435191  0.63523711  0.62640118  1
  O  O71  1  0.29737593  0.17073110  0.75658272  1
  O  O72  1  0.79723755  0.18064954  0.25817837  1
  O  O73  1  0.74112080  0.43267189  0.64719559  1
  O  O74  1  0.76112841  0.55465330  0.85538577  1
  O  O75  1  0.70197101  0.11964164  0.54045948  1
  O  O76  1  0.64985829  0.34173661  0.87162311  1
  O  O77  1  0.60712827  0.03898613  0.68664766  1
  O  O78  1  0.53350896  0.07590329  0.86036419  1
  O  O79  1  0.98653368  0.14441277  0.75816269  1
