# generated using pymatgen
data_Li4Mn2Fe3Sn3O16
_symmetry_space_group_name_H-M   'P 1'
_cell_length_a   6.10921342
_cell_length_b   6.16165246
_cell_length_c   9.68051830
_cell_angle_alpha   89.77930394
_cell_angle_beta   91.12748246
_cell_angle_gamma   120.45052369
_symmetry_Int_Tables_number   1
_chemical_formula_structural   Li4Mn2Fe3Sn3O16
_chemical_formula_sum   'Li4 Mn2 Fe3 Sn3 O16'
_cell_volume   314.07049637
_cell_formula_units_Z   1
loop_
 _symmetry_equiv_pos_site_id
 _symmetry_equiv_pos_as_xyz
  1  'x, y, z'
loop_
 _atom_site_type_symbol
 _atom_site_label
 _atom_site_symmetry_multiplicity
 _atom_site_fract_x
 _atom_site_fract_y
 _atom_site_fract_z
 _atom_site_occupancy
  Li  Li0  1  0.34359763  0.67204803  0.89300224  1
  Li  Li1  1  0.96344130  0.98628736  0.99012713  1
  Li  Li2  1  0.96618716  0.98345090  0.49797027  1
  Li  Li3  1  0.67467405  0.33445987  0.39896623  1
  Mn  Mn4  1  0.33718811  0.66544478  0.49169214  1
  Mn  Mn5  1  0.68133920  0.34265581  0.98046842  1
  Fe  Fe6  1  0.66256776  0.82907396  0.21871635  1
  Fe  Fe7  1  0.83002339  0.66152083  0.71295027  1
  Fe  Fe8  1  0.83255524  0.17231956  0.71397307  1
  Sn  Sn9  1  0.17813930  0.83643619  0.20987423  1
  Sn  Sn10  1  0.17784311  0.34200587  0.20981246  1
  Sn  Sn11  1  0.33568714  0.16701614  0.71154907  1
  O  O12  1  0.15080446  0.83250939  0.60104273  1
  O  O13  1  0.05086121  0.52474707  0.34585560  1
  O  O14  1  0.34390249  0.67328211  0.09658665  1
  O  O15  1  0.00264688  0.00083044  0.31065251  1
  O  O16  1  0.99060298  -0.00362668  0.80879050  1
  O  O17  1  0.15216708  0.32089980  0.59916298  1
  O  O18  1  0.49571498  0.96697233  0.33938023  1
  O  O19  1  0.49775599  0.52148284  0.33589637  1
  O  O20  1  0.32675484  0.16378753  0.08846752  1
  O  O21  1  0.64927839  0.82043358  0.60497435  1
  O  O22  1  0.52775165  0.47773234  0.85015755  1
  O  O23  1  0.53407925  0.05281093  0.85101360  1
  O  O24  1  0.67102167  0.33454233  0.60490997  1
  O  O25  1  0.83277269  0.66706850  0.09536740  1
  O  O26  1  0.95698438  0.48261796  0.85023990  1
  O  O27  1  0.83365668  0.17149624  0.09624126  1
