# generated using pymatgen
data_Li4Ti3V3(NiO8)2
_symmetry_space_group_name_H-M   'P 1'
_cell_length_a   5.90642871
_cell_length_b   5.93330350
_cell_length_c   9.69622460
_cell_angle_alpha   89.86984933
_cell_angle_beta   89.59337976
_cell_angle_gamma   120.29811836
_symmetry_Int_Tables_number   1
_chemical_formula_structural   Li4Ti3V3(NiO8)2
_chemical_formula_sum   'Li4 Ti3 V3 Ni2 O16'
_cell_volume   293.37386695
_cell_formula_units_Z   1
loop_
 _symmetry_equiv_pos_site_id
 _symmetry_equiv_pos_as_xyz
  1  'x, y, z'
loop_
 _atom_site_type_symbol
 _atom_site_label
 _atom_site_symmetry_multiplicity
 _atom_site_fract_x
 _atom_site_fract_y
 _atom_site_fract_z
 _atom_site_occupancy
  Li  Li0  1  0.33030498  0.66455754  0.89104210  1
  Li  Li1  1  0.00013528  0.99807286  0.99856146  1
  Li  Li2  1  0.99170428  0.99662656  0.49890358  1
  Li  Li3  1  0.66680563  0.33233290  0.39219389  1
  Ti  Ti4  1  0.17841988  0.83718907  0.21607183  1
  Ti  Ti5  1  0.17372250  0.34106931  0.21854173  1
  Ti  Ti6  1  0.34635501  0.17312783  0.72258850  1
  V  V7  1  0.66825485  0.83369616  0.21021039  1
  V  V8  1  0.83844870  0.17208005  0.71127102  1
  V  V9  1  0.83837348  0.66646562  0.71130795  1
  Ni  Ni10  1  0.33593771  0.67060524  0.48943613  1
  Ni  Ni11  1  0.67155542  0.33877658  0.98924471  1
  O  O12  1  0.14920122  0.83290593  0.60671867  1
  O  O13  1  0.03552759  0.51420028  0.33080594  1
  O  O14  1  0.33099044  0.66409962  0.10281680  1
  O  O15  1  0.00136917  0.00041302  0.31466521  1
  O  O16  1  -0.00072630  -0.00034901  0.81451083  1
  O  O17  1  0.14943522  0.31753884  0.60658430  1
  O  O18  1  0.47902886  0.96541100  0.33206672  1
  O  O19  1  0.48750173  0.52325904  0.32806773  1
  O  O20  1  0.32033622  0.16102722  0.10514670  1
  O  O21  1  0.67502541  0.83752824  0.60881976  1
  O  O22  1  0.51809502  0.48407864  0.82854606  1
  O  O23  1  0.51818759  0.03406167  0.82852910  1
  O  O24  1  0.66132639  0.33114666  0.60398529  1
  O  O25  1  0.84050517  0.67967933  0.10762500  1
  O  O26  1  0.96258351  0.48119555  0.83103140  1
  O  O27  1  0.83159305  0.14950124  0.10854718  1
