# generated using pymatgen
data_Li3Cr(PO4)2
_symmetry_space_group_name_H-M   'P 1'
_cell_length_a   8.74098294
_cell_length_b   9.90399689
_cell_length_c   14.67970582
_cell_angle_alpha   90.00000000
_cell_angle_beta   85.37453263
_cell_angle_gamma   90.00000000
_symmetry_Int_Tables_number   1
_chemical_formula_structural   Li3Cr(PO4)2
_chemical_formula_sum   'Li24 Cr8 P16 O64'
_cell_volume   1266.69300510
_cell_formula_units_Z   8
loop_
 _symmetry_equiv_pos_site_id
 _symmetry_equiv_pos_as_xyz
  1  'x, y, z'
loop_
 _atom_site_type_symbol
 _atom_site_label
 _atom_site_symmetry_multiplicity
 _atom_site_fract_x
 _atom_site_fract_y
 _atom_site_fract_z
 _atom_site_occupancy
  Li  Li0  1  0.06763465  0.10126046  0.94393843  1
  Li  Li1  1  0.08446433  0.61330759  0.29254602  1
  Li  Li2  1  0.18489433  0.87797065  0.22947293  1
  Li  Li3  1  0.20919681  0.41305182  0.51753217  1
  Li  Li4  1  0.22824629  0.38793808  0.74791681  1
  Li  Li5  1  0.24136553  0.91548130  0.50331162  1
  Li  Li6  1  0.25863447  0.41548130  0.99668838  1
  Li  Li7  1  0.27175371  0.88793808  0.75208319  1
  Li  Li8  1  0.29080319  0.91305182  0.98246783  1
  Li  Li9  1  0.31510567  0.37797065  0.27052707  1
  Li  Li10  1  0.41553567  0.11330759  0.20745398  1
  Li  Li11  1  0.43236535  0.60126046  0.55606157  1
  Li  Li12  1  0.56763465  0.39874054  0.44393843  1
  Li  Li13  1  0.58446433  0.88669241  0.79254602  1
  Li  Li14  1  0.68489433  0.62202935  0.72947293  1
  Li  Li15  1  0.70919681  0.08694818  0.01753217  1
  Li  Li16  1  0.72824629  0.11206192  0.24791681  1
  Li  Li17  1  0.74136553  0.58451870  0.00331162  1
  Li  Li18  1  0.75863447  0.08451870  0.49668838  1
  Li  Li19  1  0.77175371  0.61206192  0.25208319  1
  Li  Li20  1  0.79080319  0.58694818  0.48246783  1
  Li  Li21  1  0.81510567  0.12202935  0.77052707  1
  Li  Li22  1  0.91553567  0.38669241  0.70745398  1
  Li  Li23  1  0.93236535  0.89873954  0.05606157  1
  Cr  Cr24  1  0.08238020  0.64607600  0.88614518  1
  Cr  Cr25  1  0.08119794  0.12227123  0.35986129  1
  Cr  Cr26  1  0.41880206  0.62227123  0.14013871  1
  Cr  Cr27  1  0.41761980  0.14607600  0.61385482  1
  Cr  Cr28  1  0.58238020  0.85392400  0.38614518  1
  Cr  Cr29  1  0.58119794  0.37772877  0.85986129  1
  Cr  Cr30  1  0.91880206  0.87772877  0.64013871  1
  Cr  Cr31  1  0.91761980  0.35392400  0.11385482  1
  P  P32  1  0.07993887  0.65078681  0.66109425  1
  P  P33  1  0.08767249  0.13621369  0.13646729  1
  P  P34  1  0.07258480  0.64984860  0.09750957  1
  P  P35  1  0.05330462  0.16028287  0.58855731  1
  P  P36  1  0.44669538  0.66028287  0.91144269  1
  P  P37  1  0.42741520  0.14984860  0.40249043  1
  P  P38  1  0.41232751  0.63621369  0.36353271  1
  P  P39  1  0.42006113  0.15078681  0.83890575  1
  P  P40  1  0.57993887  0.84921319  0.16109425  1
  P  P41  1  0.58767249  0.36378631  0.63646729  1
  P  P42  1  0.57258480  0.85015140  0.59750957  1
  P  P43  1  0.55330462  0.33971713  0.08855731  1
  P  P44  1  0.94669538  0.83971713  0.41144269  1
  P  P45  1  0.92741520  0.35015140  0.90249043  1
  P  P46  1  0.91232751  0.86378631  0.86353271  1
  P  P47  1  0.92006113  0.34921319  0.33890575  1
  O  O48  1  0.06208238  0.44737959  0.91759315  1
  O  O49  1  0.06019337  0.91995332  0.34438832  1
  O  O50  1  0.04333332  0.73399395  0.18518599  1
  O  O51  1  0.06369143  0.30936727  0.61602303  1
  O  O52  1  0.99496608  0.14388703  0.49112904  1
  O  O53  1  0.09317620  0.57093421  0.75303634  1
  O  O54  1  0.08743907  0.74522640  0.01240260  1
  O  O55  1  0.09098767  0.84559671  0.84477390  1
  O  O56  1  0.09847158  0.33376865  0.35253975  1
  O  O57  1  0.17171774  0.09700258  0.22366370  1
  O  O58  1  0.17730348  0.57997766  0.58525532  1
  O  O59  1  0.12839031  0.80292635  0.66766640  1
  O  O60  1  0.11899725  0.02424544  0.06530148  1
  O  O61  1  0.13853691  0.28190784  0.10613409  1
  O  O62  1  0.21872278  0.56268355  0.10163715  1
  O  O63  1  0.20839601  0.08777870  0.59400748  1
  O  O64  1  0.29160399  0.58777870  0.90599252  1
  O  O65  1  0.28127722  0.06268355  0.39836285  1
  O  O66  1  0.36146309  0.78190784  0.39386591  1
  O  O67  1  0.37160969  0.30292635  0.83233360  1
  O  O68  1  0.38100275  0.52424544  0.43469852  1
  O  O69  1  0.32269652  0.07997766  0.91474468  1
  O  O70  1  0.32828226  0.59700258  0.27633630  1
  O  O71  1  0.40152842  0.83376865  0.14746025  1
  O  O72  1  0.40901233  0.34559671  0.65522610  1
  O  O73  1  0.41256093  0.24522640  0.48759740  1
  O  O74  1  0.40682380  0.07093421  0.74696366  1
  O  O75  1  0.43630857  0.80936727  0.88397697  1
  O  O76  1  0.50503392  0.64388703  0.00887096  1
  O  O77  1  0.45666668  0.23399395  0.31481401  1
  O  O78  1  0.43791762  0.94737959  0.58240685  1
  O  O79  1  0.43980663  0.41995332  0.15561168  1
  O  O80  1  0.56019337  0.58004668  0.84438832  1
  O  O81  1  0.56208238  0.05262041  0.41759315  1
  O  O82  1  0.54333332  0.76600605  0.68518599  1
  O  O83  1  0.49496608  0.35611297  0.99112904  1
  O  O84  1  0.56369143  0.19063273  0.11602303  1
  O  O85  1  0.59317620  0.92906579  0.25303634  1
  O  O86  1  0.58743907  0.75477360  0.51240260  1
  O  O87  1  0.59098767  0.65440329  0.34477390  1
  O  O88  1  0.59847158  0.16623135  0.85253975  1
  O  O89  1  0.67171774  0.40299742  0.72366370  1
  O  O90  1  0.67730348  0.92002234  0.08525532  1
  O  O91  1  0.61899725  0.47575456  0.56530148  1
  O  O92  1  0.62839031  0.69707365  0.16766640  1
  O  O93  1  0.63853691  0.21809216  0.60613409  1
  O  O94  1  0.71872278  0.93731645  0.60163715  1
  O  O95  1  0.70839601  0.41222130  0.09400748  1
  O  O96  1  0.79160399  0.91222130  0.40599252  1
  O  O97  1  0.78127722  0.43731645  0.89836285  1
  O  O98  1  0.86146309  0.71809216  0.89386591  1
  O  O99  1  0.88100275  0.97575456  0.93469852  1
  O  O100  1  0.87160969  0.19707365  0.33233360  1
  O  O101  1  0.82269652  0.42002234  0.41474468  1
  O  O102  1  0.82828226  0.90299742  0.77633630  1
  O  O103  1  0.90152842  0.66623135  0.64746025  1
  O  O104  1  0.90901233  0.15440329  0.15522610  1
  O  O105  1  0.91256093  0.25477360  0.98759740  1
  O  O106  1  0.90682380  0.42906579  0.24696366  1
  O  O107  1  0.00503392  0.85611297  0.50887096  1
  O  O108  1  0.93630857  0.69063273  0.38397697  1
  O  O109  1  0.95666668  0.26600605  0.81481401  1
  O  O110  1  0.93980663  0.08004668  0.65561168  1
  O  O111  1  0.93791762  0.55262041  0.08240685  1
