# generated using pymatgen
data_Li17Cr6(Si2O7)6
_symmetry_space_group_name_H-M   'P 1'
_cell_length_a   8.60204021
_cell_length_b   8.60731352
_cell_length_c   13.05717515
_cell_angle_alpha   90.05998891
_cell_angle_beta   89.98033882
_cell_angle_gamma   59.99157881
_symmetry_Int_Tables_number   1
_chemical_formula_structural   Li17Cr6(Si2O7)6
_chemical_formula_sum   'Li17 Cr6 Si12 O42'
_cell_volume   837.16610678
_cell_formula_units_Z   1
loop_
 _symmetry_equiv_pos_site_id
 _symmetry_equiv_pos_as_xyz
  1  'x, y, z'
loop_
 _atom_site_type_symbol
 _atom_site_label
 _atom_site_symmetry_multiplicity
 _atom_site_fract_x
 _atom_site_fract_y
 _atom_site_fract_z
 _atom_site_occupancy
  Li  Li0  1  0.99880232  0.00639170  0.95280788  1
  Li  Li1  1  0.99904232  0.00321844  0.45369853  1
  Li  Li2  1  0.97224021  0.33415874  0.89784325  1
  Li  Li3  1  0.97651875  0.33350821  0.56743925  1
  Li  Li4  1  0.66710780  0.30332780  0.39932542  1
  Li  Li5  1  0.67509068  0.29897497  0.06746297  1
  Li  Li6  1  0.30602209  0.02605019  0.39834788  1
  Li  Li7  1  0.30263844  0.02221599  0.06901667  1
  Li  Li8  1  0.33291524  0.33448617  0.71014824  1
  Li  Li9  1  0.66851384  0.66482492  0.73272820  1
  Li  Li10  1  0.66725778  0.66434309  0.27614858  1
  Li  Li11  1  0.69737316  0.97187507  0.89996739  1
  Li  Li12  1  0.69114854  0.97842721  0.56637515  1
  Li  Li13  1  0.32904462  0.69343775  0.56558015  1
  Li  Li14  1  0.32897889  0.69880605  0.90032223  1
  Li  Li15  1  0.02984785  0.66438592  0.39882288  1
  Li  Li16  1  0.02566906  0.67056261  0.06800255  1
  Cr  Cr17  1  0.99900415  0.00195778  0.72884829  1
  Cr  Cr18  1  0.00062759  0.99722804  0.23058097  1
  Cr  Cr19  1  0.33368618  0.33193045  0.01501507  1
  Cr  Cr20  1  0.33295546  0.33285286  0.45529345  1
  Cr  Cr21  1  0.66640897  0.66643968  0.95659317  1
  Cr  Cr22  1  0.66668428  0.66645753  0.51101981  1
  Si  Si23  1  0.97453600  0.35249718  0.34695228  1
  Si  Si24  1  0.97157098  0.35372223  0.12025179  1
  Si  Si25  1  0.64728924  0.32822667  0.62119342  1
  Si  Si26  1  0.63993774  0.32983786  0.84666241  1
  Si  Si27  1  0.32925878  0.03162020  0.84672701  1
  Si  Si28  1  0.32623902  0.02638979  0.62104749  1
  Si  Si29  1  0.67255361  0.97122513  0.34724672  1
  Si  Si30  1  0.67312020  0.96879238  0.12054804  1
  Si  Si31  1  0.35557935  0.66963215  0.34671846  1
  Si  Si32  1  0.35671614  0.67061370  0.12048775  1
  Si  Si33  1  0.02997713  0.64243342  0.84678676  1
  Si  Si34  1  0.02388706  0.64993121  0.62147893  1
  O  O35  1  0.80092526  0.06144690  0.34340761  1
  O  O36  1  0.79565457  0.06453031  0.12780441  1
  O  O37  1  0.85880133  0.20214536  0.84457198  1
  O  O38  1  0.86661178  0.20750433  0.62784809  1
  O  O39  1  0.87596321  0.43887873  0.23330778  1
  O  O40  1  0.81069946  0.43020198  0.03417671  1
  O  O41  1  0.80384709  0.43482947  0.42801886  1
  O  O42  1  0.46523576  0.11084130  0.37260548  1
  O  O43  1  0.46231771  0.11451002  0.09346914  1
  O  O44  1  0.55992762  0.24405003  0.93078442  1
  O  O45  1  0.56779741  0.24253333  0.53857587  1
  O  O46  1  0.87951006  0.58086691  0.85977784  1
  O  O47  1  0.87814186  0.58223806  0.60743911  1
  O  O48  1  0.56175070  0.30922218  0.73344601  1
  O  O49  1  0.30978985  0.12957121  0.73349629  1
  O  O50  1  0.94201725  0.86080861  0.84591196  1
  O  O51  1  0.92609319  0.86904887  0.62834932  1
  O  O52  1  0.24481929  0.19925739  0.93001223  1
  O  O53  1  0.24001497  0.19233972  0.53912104  1
  O  O54  1  0.57636799  0.54172431  0.86143725  1
  O  O55  1  0.57822066  0.54151431  0.60593992  1
  O  O56  1  0.76320093  0.79851748  0.42643973  1
  O  O57  1  0.76060675  0.80647146  0.03548244  1
  O  O58  1  0.42349321  0.46227549  0.37121701  1
  O  O59  1  0.42266519  0.45964202  0.09315767  1
  O  O60  1  0.06598166  0.13517739  0.12590125  1
  O  O61  1  0.06464225  0.13395462  0.34303049  1
  O  O62  1  0.67984071  0.87508632  0.23342035  1
  O  O63  1  0.44432827  0.67714840  0.23304305  1
  O  O64  1  0.11480239  0.42050643  0.36948340  1
  O  O65  1  0.43853303  0.75968230  0.42597476  1
  O  O66  1  0.11824992  0.41858469  0.09559634  1
  O  O67  1  0.43126047  0.75827379  0.03549700  1
  O  O68  1  0.54032118  0.88210087  0.86228263  1
  O  O69  1  0.53899163  0.88149238  0.60448764  1
  O  O70  1  0.19442157  0.55897729  0.93176095  1
  O  O71  1  0.18739572  0.56971695  0.53760290  1
  O  O72  1  0.12970720  0.56439176  0.73346805  1
  O  O73  1  0.13848873  0.79205409  0.12838835  1
  O  O74  1  0.13708575  0.79867146  0.34316402  1
  O  O75  1  0.20478247  0.92871275  0.62789591  1
  O  O76  1  0.19880245  0.94396263  0.84596270  1
