# generated using pymatgen
data_Li3Co2P2(O4F)2
_symmetry_space_group_name_H-M   'P 1'
_cell_length_a   5.14880413
_cell_length_b   13.03866058
_cell_length_c   11.32095354
_cell_angle_alpha   90.00000000
_cell_angle_beta   90.00000000
_cell_angle_gamma   90.00000000
_symmetry_Int_Tables_number   1
_chemical_formula_structural   Li3Co2P2(O4F)2
_chemical_formula_sum   'Li12 Co8 P8 O32 F8'
_cell_volume   760.01534139
_cell_formula_units_Z   4
loop_
 _symmetry_equiv_pos_site_id
 _symmetry_equiv_pos_as_xyz
  1  'x, y, z'
loop_
 _atom_site_type_symbol
 _atom_site_label
 _atom_site_symmetry_multiplicity
 _atom_site_fract_x
 _atom_site_fract_y
 _atom_site_fract_z
 _atom_site_occupancy
  Li  Li0  1  0.22387940  0.24125257  0.18266718  1
  Li  Li1  1  0.22387940  0.75874743  0.68266718  1
  Li  Li2  1  0.27612060  0.25874743  0.68266718  1
  Li  Li3  1  0.27612060  0.74125257  0.18266718  1
  Li  Li4  1  0.70464906  0.26155979  0.82672481  1
  Li  Li5  1  0.70464906  0.73844021  0.32672481  1
  Li  Li6  1  0.73472075  0.13248067  0.10637834  1
  Li  Li7  1  0.73472075  0.86751933  0.60637834  1
  Li  Li8  1  0.76527925  0.63248067  0.10637834  1
  Li  Li9  1  0.76527925  0.36751933  0.60637834  1
  Li  Li10  1  0.79535094  0.76155979  0.82672481  1
  Li  Li11  1  0.79535094  0.23844021  0.32672481  1
  Co  Co12  1  0.21776639  0.51277089  0.16954802  1
  Co  Co13  1  0.21776639  0.48722911  0.66954802  1
  Co  Co14  1  0.28223361  0.98722911  0.66954802  1
  Co  Co15  1  0.28223361  0.01277089  0.16954802  1
  Co  Co16  1  0.71277711  0.98190635  0.83440586  1
  Co  Co17  1  0.71277711  0.01809365  0.33440586  1
  Co  Co18  1  0.78722289  0.51809365  0.33440586  1
  Co  Co19  1  0.78722289  0.48190635  0.83440586  1
  P  P20  1  0.21182098  0.12332193  0.90715973  1
  P  P21  1  0.21182098  0.87667807  0.40715973  1
  P  P22  1  0.28817902  0.37667807  0.40715973  1
  P  P23  1  0.28817902  0.62332193  0.90715973  1
  P  P24  1  0.70455714  0.37468014  0.09199542  1
  P  P25  1  0.70455714  0.62531986  0.59199542  1
  P  P26  1  0.79544286  0.12531986  0.59199542  1
  P  P27  1  0.79544286  0.87468014  0.09199542  1
  O  O28  1  0.08891238  0.11681995  0.62283199  1
  O  O29  1  0.08891238  0.88318005  0.12283199  1
  O  O30  1  0.15173478  0.47190744  0.34866810  1
  O  O31  1  0.15173478  0.52809256  0.84866910  1
  O  O32  1  0.18633332  0.27928431  0.35168048  1
  O  O33  1  0.18633332  0.72071569  0.85168048  1
  O  O34  1  0.22909518  0.62039634  0.04206900  1
  O  O35  1  0.22909518  0.37960366  0.54206900  1
  O  O36  1  0.27090482  0.12039634  0.04206900  1
  O  O37  1  0.27090482  0.87960366  0.54206900  1
  O  O38  1  0.31366668  0.22071569  0.85168048  1
  O  O39  1  0.31366668  0.77928431  0.35168048  1
  O  O40  1  0.34826522  0.97190744  0.34866810  1
  O  O41  1  0.34826522  0.02809256  0.84866910  1
  O  O42  1  0.41108762  0.38318005  0.12283199  1
  O  O43  1  0.41108762  0.61681995  0.62283199  1
  O  O44  1  0.59219044  0.60842930  0.89045896  1
  O  O45  1  0.59219044  0.39157070  0.39045896  1
  O  O46  1  0.65558982  0.03008704  0.64749680  1
  O  O47  1  0.65558982  0.96991296  0.14749680  1
  O  O48  1  0.67610228  0.22451103  0.63818019  1
  O  O49  1  0.67610228  0.77548897  0.13818019  1
  O  O50  1  0.75990527  0.11897332  0.45512579  1
  O  O51  1  0.75990527  0.88102668  0.95512579  1
  O  O52  1  0.74009473  0.38102668  0.95512579  1
  O  O53  1  0.74009473  0.61897332  0.45512579  1
  O  O54  1  0.82389772  0.27548897  0.13818019  1
  O  O55  1  0.82389772  0.72451103  0.63818019  1
  O  O56  1  0.84441018  0.46991296  0.14749680  1
  O  O57  1  0.84441018  0.53008704  0.64749680  1
  O  O58  1  0.90780956  0.10842930  0.89045896  1
  O  O59  1  0.90780956  0.89157070  0.39045896  1
  F  F60  1  0.98754579  0.09259422  0.24040048  1
  F  F61  1  0.99035227  0.63746046  0.24434386  1
  F  F62  1  0.99035227  0.36253954  0.74434386  1
  F  F63  1  0.98754579  0.90740578  0.74040048  1
  F  F64  1  0.51245421  0.59259422  0.24040048  1
  F  F65  1  0.50964773  0.13746046  0.24434386  1
  F  F66  1  0.51245421  0.40740578  0.74040048  1
  F  F67  1  0.50964773  0.86253954  0.74434386  1
