# generated using pymatgen
data_LaAl3O6
_symmetry_space_group_name_H-M   'P 1'
_cell_length_a   7.05859787
_cell_length_b   7.05859787
_cell_length_c   6.24900846
_cell_angle_alpha   68.14826275
_cell_angle_beta   68.14826275
_cell_angle_gamma   79.08154719
_symmetry_Int_Tables_number   1
_chemical_formula_structural   LaAl3O6
_chemical_formula_sum   'La2 Al6 O12'
_cell_volume   267.74772690
_cell_formula_units_Z   2
loop_
 _symmetry_equiv_pos_site_id
 _symmetry_equiv_pos_as_xyz
  1  'x, y, z'
loop_
 _atom_site_type_symbol
 _atom_site_label
 _atom_site_symmetry_multiplicity
 _atom_site_fract_x
 _atom_site_fract_y
 _atom_site_fract_z
 _atom_site_occupancy
  La  La0  1  0.68557412  0.81442588  0.25000000  1
  La  La1  1  0.31442588  0.18557412  0.75000000  1
  Al  Al2  1  0.30752849  0.19247151  0.25000000  1
  Al  Al3  1  0.73607957  0.35487641  0.17735069  1
  Al  Al4  1  0.14512359  0.76392043  0.32264931  1
  Al  Al5  1  0.85487641  0.23607957  0.67735069  1
  Al  Al6  1  0.26392043  0.64512359  0.82264931  1
  Al  Al7  1  0.69247151  0.80752849  0.75000000  1
  O  O8  1  0.31677833  0.38646836  0.97746157  1
  O  O9  1  0.30831126  0.97238592  0.17936632  1
  O  O10  1  0.10204810  0.74386505  0.06172067  1
  O  O11  1  0.52761408  0.19168874  0.32063368  1
  O  O12  1  0.11353164  0.18322167  0.52253843  1
  O  O13  1  0.24386505  0.60204810  0.56172067  1
  O  O14  1  0.75613495  0.39795190  0.43827933  1
  O  O15  1  0.88646836  0.81677833  0.47746157  1
  O  O16  1  0.47238592  0.80831126  0.67936632  1
  O  O17  1  0.89795190  0.25613495  0.93827933  1
  O  O18  1  0.69168874  0.02761408  0.82063368  1
  O  O19  1  0.68322167  0.61353164  0.02253843  1
