# generated using pymatgen
data_Li15Ni8(PO4)12
_symmetry_space_group_name_H-M   'P 1'
_cell_length_a   12.26930287
_cell_length_b   8.86775998
_cell_length_c   8.76539743
_cell_angle_alpha   90.17487582
_cell_angle_beta   90.10980959
_cell_angle_gamma   89.90576961
_symmetry_Int_Tables_number   1
_chemical_formula_structural   Li15Ni8(PO4)12
_chemical_formula_sum   'Li15 Ni8 P12 O48'
_cell_volume   953.67857457
_cell_formula_units_Z   1
loop_
 _symmetry_equiv_pos_site_id
 _symmetry_equiv_pos_as_xyz
  1  'x, y, z'
loop_
 _atom_site_type_symbol
 _atom_site_label
 _atom_site_symmetry_multiplicity
 _atom_site_fract_x
 _atom_site_fract_y
 _atom_site_fract_z
 _atom_site_occupancy
  Li  Li0  1  0.18034706  0.28277369  0.22770165  1
  Li  Li1  1  0.18277284  0.70391709  0.73591828  1
  Li  Li2  1  0.21294600  0.94570922  0.57165019  1
  Li  Li3  1  0.28669882  0.55375224  0.07458098  1
  Li  Li4  1  0.28653167  0.44282836  0.56997596  1
  Li  Li5  1  0.31521929  0.20490829  0.74211803  1
  Li  Li6  1  0.31303473  0.80502438  0.23587492  1
  Li  Li7  1  0.68364521  0.20300434  0.76034201  1
  Li  Li8  1  0.68377430  0.79810589  0.26080967  1
  Li  Li9  1  0.71323429  0.44368706  0.92801815  1
  Li  Li10  1  0.71345474  0.55767993  0.42903932  1
  Li  Li11  1  0.78547568  0.05854776  0.42972399  1
  Li  Li12  1  0.78734688  0.94445537  0.92793988  1
  Li  Li13  1  0.81674134  0.29715155  0.26010059  1
  Li  Li14  1  0.81661753  0.70222460  0.76009699  1
  Ni  Ni15  1  0.10966983  0.24992813  0.54535415  1
  Ni  Ni16  1  0.10932766  0.75095316  0.04658965  1
  Ni  Ni17  1  0.39146217  0.74943687  0.54574328  1
  Ni  Ni18  1  0.38846548  0.24449081  0.04725424  1
  Ni  Ni19  1  0.61047212  0.25102694  0.45364567  1
  Ni  Ni20  1  0.60966824  0.75160156  0.95282127  1
  Ni  Ni21  1  0.89291146  0.25108882  0.95360814  1
  Ni  Ni22  1  0.89160658  0.74855300  0.45356536  1
  P  P23  1  0.99705206  0.04316094  0.25234989  1
  P  P24  1  -0.00006429  0.95264521  0.75019778  1
  P  P25  1  0.14975900  0.60225567  0.39158400  1
  P  P26  1  0.35176097  0.10701823  0.40001038  1
  P  P27  1  0.34920912  0.89439271  0.89294092  1
  P  P28  1  0.50006981  0.45136916  0.75058366  1
  P  P29  1  0.50031077  0.54830020  0.24957936  1
  P  P30  1  0.64936278  0.10594325  0.10468495  1
  P  P31  1  0.64924758  0.89435357  0.60538763  1
  P  P32  1  0.85151536  0.39387412  0.60473931  1
  P  P33  1  0.85117049  0.60546506  0.10488242  1
  P  P34  1  0.15072660  0.39776362  0.89372721  1
  O  O35  1  0.03336653  0.64992676  0.42110260  1
  O  O36  1  0.03601186  0.34553140  0.92816670  1
  O  O37  1  0.07625119  0.84261518  0.83841615  1
  O  O38  1  0.07673147  0.15055430  0.33914516  1
  O  O39  1  0.07589344  0.04391702  0.64623338  1
  O  O40  1  0.06671109  0.94328118  0.15079076  1
  O  O41  1  0.16813387  0.42813968  0.40120776  1
  O  O42  1  0.16356995  0.57241347  0.90372329  1
  O  O43  1  0.19019745  0.34719200  0.73307178  1
  O  O44  1  0.19131307  0.65556244  0.23292776  1
  O  O45  1  0.22953489  0.33848824  0.02089709  1
  O  O46  1  0.22412294  0.67091792  0.52105424  1
  O  O47  1  0.27901025  0.81766060  0.01806530  1
  O  O48  1  0.27757606  0.17683272  0.52764244  1
  O  O49  1  0.30857216  0.84543370  0.73195843  1
  O  O50  1  0.31555150  0.16330516  0.24118977  1
  O  O51  1  0.33930207  0.06766517  0.90477783  1
  O  O52  1  0.33070067  0.93383645  0.40901859  1
  O  O53  1  0.42372497  0.54351961  0.64604237  1
  O  O54  1  0.42528770  0.45476404  0.14546094  1
  O  O55  1  0.42315900  0.65844562  0.33738612  1
  O  O56  1  0.42347096  0.34294584  0.83954152  1
  O  O57  1  0.47032209  0.14622886  0.42959150  1
  O  O58  1  0.46700002  0.84534339  0.92181861  1
  O  O59  1  0.53212313  0.15069589  0.07757038  1
  O  O60  1  0.53175863  0.85063552  0.57935685  1
  O  O61  1  0.57745081  0.34356361  0.66146495  1
  O  O62  1  0.57691687  0.65711464  0.16053502  1
  O  O63  1  0.57630209  0.45692571  0.35484088  1
  O  O64  1  0.57565441  0.54455712  0.85498115  1
  O  O65  1  0.67021166  0.06732158  0.59221900  1
  O  O66  1  0.66873004  0.93213289  0.09115675  1
  O  O67  1  0.69081951  0.15574942  0.26520811  1
  O  O68  1  0.69074685  0.84478970  0.76625349  1
  O  O69  1  0.72327399  0.17654482  0.97706944  1
  O  O70  1  0.72217827  0.82104977  0.47779669  1
  O  O71  1  0.77707311  0.32289761  0.47686138  1
  O  O72  1  0.77686591  0.67612903  0.97685541  1
  O  O73  1  0.81051204  0.34476557  0.76552934  1
  O  O74  1  0.80945597  0.65535582  0.26532938  1
  O  O75  1  0.83166448  0.43186980  0.09146834  1
  O  O76  1  0.83170640  0.56727230  0.59138096  1
  O  O77  1  0.92381947  0.04496805  0.85374625  1
  O  O78  1  0.91968416  0.95860624  0.36072386  1
  O  O79  1  0.92409533  0.15598569  0.16174313  1
  O  O80  1  0.92374771  0.84229501  0.66159858  1
  O  O81  1  0.96815213  0.34753292  0.57740713  1
  O  O82  1  0.96759669  0.65083274  0.07803260  1
