# generated using pymatgen
data_In3NO3
_symmetry_space_group_name_H-M   'P 1'
_cell_length_a   6.56317306
_cell_length_b   6.56217529
_cell_length_c   6.56317306
_cell_angle_alpha   90.30613632
_cell_angle_beta   119.65838104
_cell_angle_gamma   119.99379279
_symmetry_Int_Tables_number   1
_chemical_formula_structural   In3NO3
_chemical_formula_sum   'In6 N2 O6'
_cell_volume   200.38848286
_cell_formula_units_Z   2
loop_
 _symmetry_equiv_pos_site_id
 _symmetry_equiv_pos_as_xyz
  1  'x, y, z'
loop_
 _atom_site_type_symbol
 _atom_site_label
 _atom_site_symmetry_multiplicity
 _atom_site_fract_x
 _atom_site_fract_y
 _atom_site_fract_z
 _atom_site_occupancy
  In  In0  1  0.01032168  0.25000000  0.26032168  1
  In  In1  1  0.73990580  0.38427468  0.62353927  1
  In  In2  1  0.51507302  0.75000000  0.26507302  1
  In  In3  1  0.23926459  0.11572532  0.85563112  1
  In  In4  1  0.00447113  0.75457777  0.25564198  1
  In  In5  1  0.50106421  0.74542223  0.74989335  1
  N  N6  1  0.47635248  0.51230568  0.49191347  1
  N  N7  1  0.97960779  0.98769432  0.46404680  1
  O  O8  1  0.01934697  0.51349420  0.02930642  1
  O  O9  1  0.48694143  0.98185798  0.49638876  1
  O  O10  1  0.98479440  0.99093369  0.00344720  1
  O  O11  1  0.51453078  0.51814202  0.00508345  1
  O  O12  1  0.51581221  0.98650580  0.00585277  1
  O  O13  1  0.01251351  0.50906631  0.49386071  1
