# generated using pymatgen
data_Li19Mn4P8O35F
_symmetry_space_group_name_H-M   'P 1'
_cell_length_a   6.78154017
_cell_length_b   10.64809802
_cell_length_c   10.77913294
_cell_angle_alpha   94.24858709
_cell_angle_beta   108.33841579
_cell_angle_gamma   71.52008781
_symmetry_Int_Tables_number   1
_chemical_formula_structural   Li19Mn4P8O35F
_chemical_formula_sum   'Li19 Mn4 P8 O35 F1'
_cell_volume   700.45446609
_cell_formula_units_Z   1
loop_
 _symmetry_equiv_pos_site_id
 _symmetry_equiv_pos_as_xyz
  1  'x, y, z'
loop_
 _atom_site_type_symbol
 _atom_site_label
 _atom_site_symmetry_multiplicity
 _atom_site_fract_x
 _atom_site_fract_y
 _atom_site_fract_z
 _atom_site_occupancy
  Li  Li0  1  0.99686224  0.24554247  0.23882731  1
  Li  Li1  1  0.49647602  0.24491535  0.23836018  1
  Li  Li2  1  0.62438088  0.48844177  0.25547099  1
  Li  Li3  1  0.37347564  0.26605987  0.48581227  1
  Li  Li4  1  0.88106034  0.74355891  0.00732927  1
  Li  Li5  1  0.12385322  0.01351530  0.76058493  1
  Li  Li6  1  0.26193080  0.73422140  0.25961039  1
  Li  Li7  1  0.77023252  0.72738105  0.26590234  1
  Li  Li8  1  0.73545247  0.26556216  0.73778806  1
  Li  Li9  1  0.23096821  0.27227351  0.73193886  1
  Li  Li10  1  0.00001466  0.49934448  0.50023737  1
  Li  Li11  1  0.37783487  0.99057737  0.24418010  1
  Li  Li12  1  0.61828125  0.25444350  0.99277432  1
  Li  Li13  1  0.16158423  0.72721744  0.51262505  1
  Li  Li14  1  0.85669878  0.50977079  0.74337493  1
  Li  Li15  1  0.00308976  0.75250862  0.76363776  1
  Li  Li16  1  0.50848086  0.75350681  0.76457475  1
  Li  Li17  1  0.99760435  0.99924028  0.00034791  1
  Li  Li18  1  0.50348492  0.99928621  0.00037002  1
  Mn  Mn19  1  0.73686502  0.00393887  0.49832331  1
  Mn  Mn20  1  0.24879449  0.49973340  0.00079211  1
  Mn  Mn21  1  0.26107096  0.99949795  0.49638372  1
  Mn  Mn22  1  0.74772608  0.49864345  0.99776551  1
  P  P23  1  0.13306409  0.50283717  0.27693971  1
  P  P24  1  0.86660033  0.27462071  0.50160779  1
  P  P25  1  0.36248327  0.77787348  0.00383788  1
  P  P26  1  0.63842058  0.00292172  0.77811509  1
  P  P27  1  0.86264258  0.99444625  0.21926276  1
  P  P28  1  0.13648208  0.22084433  0.99508904  1
  P  P29  1  0.35866271  0.49611702  0.72103158  1
  P  P30  1  0.64043534  0.72365136  0.49826993  1
  O  O31  1  0.24382990  0.09308768  0.08162353  1
  O  O32  1  0.75622940  0.08244858  0.09323974  1
  O  O33  1  0.92455554  0.29580963  0.03044702  1
  O  O34  1  0.30744676  0.29720003  0.03358681  1
  O  O35  1  0.69307407  0.03280893  0.29603519  1
  O  O36  1  0.07472775  0.02938397  0.29530746  1
  O  O37  1  0.55564420  0.44680722  0.06190526  1
  O  O38  1  0.43735481  0.06693004  0.44096292  1
  O  O39  1  0.22685880  0.35080769  0.30991249  1
  O  O40  1  0.77469885  0.30917868  0.35281527  1
  O  O41  1  0.11272831  0.18540148  0.53849894  1
  O  O42  1  0.73144105  0.19665670  0.54168322  1
  O  O43  1  0.27015778  0.54346889  0.20345431  1
  O  O44  1  0.88758530  0.53806484  0.19170289  1
  O  O45  1  0.42380989  0.80714901  0.15274251  1
  O  O46  1  0.57586880  0.15341529  0.80731336  1
  O  O47  1  0.12593578  0.59088460  0.39581405  1
  O  O48  1  0.87290768  0.39222690  0.59129889  1
  O  O49  1  0.32067321  0.40827924  0.60200014  1
  O  O50  1  0.67689622  0.60699090  0.40788213  1
  O  O51  1  0.92204194  0.84369672  0.19026867  1
  O  O52  1  0.07777373  0.19216083  0.84585369  1
  O  O53  1  0.75968184  0.81533948  0.46276612  1
  O  O54  1  0.38798704  0.80125067  0.45893009  1
  O  O55  1  0.23427880  0.46073573  0.80665547  1
  O  O56  1  0.60952187  0.45611375  0.79479193  1
  O  O57  1  0.26694218  0.64844925  0.68796094  1
  O  O58  1  0.73274172  0.68827272  0.64669156  1
  O  O59  1  0.94069406  0.55172066  0.93665140  1
  O  O60  1  0.57075171  0.70135110  0.96512347  1
  O  O61  1  0.42896224  0.96471753  0.70009543  1
  O  O62  1  0.81124988  0.96818466  0.70296143  1
  O  O63  1  0.18981515  0.70283714  0.96825603  1
  O  O64  1  0.74408298  0.91372434  0.90325405  1
  O  O65  1  0.25580086  0.90517792  0.91646483  1
  F  F66  1  0.06023634  0.93428720  0.55139951  1
