# generated using pymatgen
data_Li2Cr3CuO8
_symmetry_space_group_name_H-M   'P 1'
_cell_length_a   8.38347013
_cell_length_b   8.35182890
_cell_length_c   8.35702413
_cell_angle_alpha   89.65577170
_cell_angle_beta   89.72418304
_cell_angle_gamma   89.86986672
_symmetry_Int_Tables_number   1
_chemical_formula_structural   Li2Cr3CuO8
_chemical_formula_sum   'Li8 Cr12 Cu4 O32'
_cell_volume   585.11752230
_cell_formula_units_Z   4
loop_
 _symmetry_equiv_pos_site_id
 _symmetry_equiv_pos_as_xyz
  1  'x, y, z'
loop_
 _atom_site_type_symbol
 _atom_site_label
 _atom_site_symmetry_multiplicity
 _atom_site_fract_x
 _atom_site_fract_y
 _atom_site_fract_z
 _atom_site_occupancy
  Li  Li0  1  0.00299387  0.00342327  0.00127936  1
  Li  Li1  1  0.25027903  0.24715827  0.24922835  1
  Li  Li2  1  0.24939125  0.74957189  0.74962656  1
  Li  Li3  1  0.50147990  0.00243975  0.50127688  1
  Li  Li4  1  0.50251706  0.49970976  0.99977184  1
  Li  Li5  1  0.74678175  0.24960592  0.75250757  1
  Li  Li6  1  0.74855084  0.74601999  0.25098270  1
  Li  Li7  1  0.99959371  0.50336770  0.49868722  1
  Cr  Cr8  1  0.12190922  0.12721488  0.62569998  1
  Cr  Cr9  1  0.12741812  0.37497751  0.87806790  1
  Cr  Cr10  1  0.12885510  0.62115628  0.12496701  1
  Cr  Cr11  1  0.37537562  0.37297470  0.62691589  1
  Cr  Cr12  1  0.37536807  0.62462540  0.37496943  1
  Cr  Cr13  1  0.37551271  0.87533086  0.12770419  1
  Cr  Cr14  1  0.62387971  0.37434295  0.37491786  1
  Cr  Cr15  1  0.62363313  0.12561150  0.12427236  1
  Cr  Cr16  1  0.62624397  0.87576886  0.87528753  1
  Cr  Cr17  1  0.87404416  0.12352501  0.37266385  1
  Cr  Cr18  1  0.87328896  0.87618670  0.62412470  1
  Cr  Cr19  1  0.87318940  0.62471558  0.87657344  1
  Cu  Cu20  1  0.12546135  0.87604891  0.37404793  1
  Cu  Cu21  1  0.37575605  0.12550281  0.87545224  1
  Cu  Cu22  1  0.62258666  0.62616791  0.62469281  1
  Cu  Cu23  1  0.87526440  0.37306247  0.12428252  1
  O  O24  1  0.10226668  0.11932335  0.38791936  1
  O  O25  1  0.10293147  0.88688761  0.61582714  1
  O  O26  1  0.11245062  0.60593575  0.88324643  1
  O  O27  1  0.13709506  0.14629148  0.86480145  1
  O  O28  1  0.12600124  0.38295296  0.10288119  1
  O  O29  1  0.13468455  0.36793445  0.64427973  1
  O  O30  1  0.14657996  0.63552219  0.36438862  1
  O  O31  1  0.14790331  0.85999598  0.12754879  1
  O  O32  1  0.35942871  0.14632524  0.62768562  1
  O  O33  1  0.36289648  0.37320409  0.85512197  1
  O  O34  1  0.36896129  0.63594050  0.14475128  1
  O  O35  1  0.37881434  0.60761462  0.60709557  1
  O  O36  1  0.37187837  0.86149463  0.35766343  1
  O  O37  1  0.38458707  0.38528647  0.39382225  1
  O  O38  1  0.38818285  0.10873549  0.11642059  1
  O  O39  1  0.39219715  0.87996662  0.89365660  1
  O  O40  1  0.61000719  0.38481912  0.61303710  1
  O  O41  1  0.60299005  0.61054699  0.38162321  1
  O  O42  1  0.60771792  0.88435271  0.11435444  1
  O  O43  1  0.62834372  0.35874349  0.13960157  1
  O  O44  1  0.61694268  0.10341770  0.88762763  1
  O  O45  1  0.64594974  0.13253389  0.36316346  1
  O  O46  1  0.64396267  0.87245484  0.63983599  1
  O  O47  1  0.63396549  0.64693110  0.86491585  1
  O  O48  1  0.86672590  0.35790115  0.35461216  1
  O  O49  1  0.86375750  0.14065703  0.13644931  1
  O  O50  1  0.85702494  0.86794709  0.86391870  1
  O  O51  1  0.88081742  0.89250466  0.38675360  1
  O  O52  1  0.86674843  0.64685112  0.63769853  1
  O  O53  1  0.88131162  0.10857791  0.61107850  1
  O  O54  1  0.88751462  0.38475214  0.89507865  1
  O  O55  1  0.88998690  0.60522976  0.11528212  1
