# generated using pymatgen
data_FeOF
_symmetry_space_group_name_H-M   'P 1'
_cell_length_a   14.21554986
_cell_length_b   14.21803755
_cell_length_c   3.09563174
_cell_angle_alpha   90.00000000
_cell_angle_beta   90.00000000
_cell_angle_gamma   90.06982761
_symmetry_Int_Tables_number   1
_chemical_formula_structural   FeOF
_chemical_formula_sum   'Fe18 O18 F18'
_cell_volume   625.68002201
_cell_formula_units_Z   18
loop_
 _symmetry_equiv_pos_site_id
 _symmetry_equiv_pos_as_xyz
  1  'x, y, z'
loop_
 _atom_site_type_symbol
 _atom_site_label
 _atom_site_symmetry_multiplicity
 _atom_site_fract_x
 _atom_site_fract_y
 _atom_site_fract_z
 _atom_site_occupancy
  Fe  Fe0  1  0.01341315  0.99799554  -0.00000000  1
  Fe  Fe1  1  0.00370635  0.34053241  -0.00000000  1
  Fe  Fe2  1  0.00482788  0.65765772  0.00000000  1
  Fe  Fe3  1  0.14674876  0.17151560  0.50000000  1
  Fe  Fe4  1  0.15379940  0.49812979  0.50000000  1
  Fe  Fe5  1  0.14809527  0.82523350  0.50000000  1
  Fe  Fe6  1  0.33223497  0.00044808  -0.00000000  1
  Fe  Fe7  1  0.34604775  0.32990691  -0.00000000  1
  Fe  Fe8  1  0.34625735  0.66531099  0.00000000  1
  Fe  Fe9  1  0.48786667  0.49754424  0.50000000  1
  Fe  Fe10  1  0.50526853  0.18224165  0.50000000  1
  Fe  Fe11  1  0.49966849  0.81845543  0.50000000  1
  Fe  Fe12  1  0.67913390  0.99719681  -0.00000000  1
  Fe  Fe13  1  0.67265022  0.32431061  0.00000000  1
  Fe  Fe14  1  0.66710869  0.67693730  0.00000000  1
  Fe  Fe15  1  0.82037452  0.16469655  0.50000000  1
  Fe  Fe16  1  0.85085075  0.50180291  0.50000000  1
  Fe  Fe17  1  0.82122812  0.83020243  0.50000000  1
  O  O18  1  0.06179985  0.27216792  0.50000000  1
  O  O19  1  0.06674207  0.60221511  0.50000000  1
  O  O20  1  0.06666214  0.93496576  0.50000000  1
  O  O21  1  0.10155287  0.10242649  0.00000000  1
  O  O22  1  0.10485771  0.43473192  0.00000000  1
  O  O23  1  0.09857688  0.76552047  0.00000000  1
  O  O24  1  0.39447638  0.26256722  0.50000000  1
  O  O25  1  0.40045893  0.60393769  0.50000000  1
  O  O26  1  0.43619750  0.43349344  0.00000000  1
  O  O27  1  0.43068015  0.77433347  0.00000000  1
  O  O28  1  0.56667418  0.23384733  0.00000000  1
  O  O29  1  0.60254071  0.73051866  0.50000000  1
  O  O30  1  0.73583338  0.27338965  0.50000000  1
  O  O31  1  0.72998259  0.93353046  0.50000000  1
  O  O32  1  0.76564622  0.10218189  0.00000000  1
  O  O33  1  0.77208590  0.76477107  0.00000000  1
  O  O34  1  0.89715896  0.56972957  0.00000000  1
  O  O35  1  0.93399198  0.39599336  0.50000000  1
  F  F36  1  0.23037104  0.23378809  0.00000000  1
  F  F37  1  0.23478039  0.56664371  0.00000000  1
  F  F38  1  0.23482494  0.89761894  0.00000000  1
  F  F39  1  0.26876050  0.06910841  0.50000000  1
  F  F40  1  0.26642735  0.73309151  0.50000000  1
  F  F41  1  0.26963546  0.39888247  0.50000000  1
  F  F42  1  0.40191970  0.93737925  0.50000000  1
  F  F43  1  0.43622580  0.09802582  0.00000000  1
  F  F44  1  0.56801086  0.56245097  0.00000000  1
  F  F45  1  0.56199496  0.90196223  0.00000000  1
  F  F46  1  0.59618611  0.06339963  0.50000000  1
  F  F47  1  0.60424306  0.40263995  0.50000000  1
  F  F48  1  0.72805082  0.59763906  0.50000000  1
  F  F49  1  0.76526716  0.43944904  0.00000000  1
  F  F50  1  0.89898720  0.22532452  0.00000000  1
  F  F51  1  0.89875827  0.90090947  0.00000000  1
  F  F52  1  0.93432257  0.06373591  0.50000000  1
  F  F53  1  0.93603465  0.73751109  0.50000000  1
