# generated using pymatgen
data_Li2CrP2O7
_symmetry_space_group_name_H-M   'P 1'
_cell_length_a   6.49193816
_cell_length_b   10.80281392
_cell_length_c   9.22550957
_cell_angle_alpha   67.32240245
_cell_angle_beta   106.36425052
_cell_angle_gamma   90.04627633
_symmetry_Int_Tables_number   1
_chemical_formula_structural   Li2CrP2O7
_chemical_formula_sum   'Li8 Cr4 P8 O28'
_cell_volume   568.52902443
_cell_formula_units_Z   4
loop_
 _symmetry_equiv_pos_site_id
 _symmetry_equiv_pos_as_xyz
  1  'x, y, z'
loop_
 _atom_site_type_symbol
 _atom_site_label
 _atom_site_symmetry_multiplicity
 _atom_site_fract_x
 _atom_site_fract_y
 _atom_site_fract_z
 _atom_site_occupancy
  Li  Li0  1  0.03386767  0.49461973  0.18333193  1
  Li  Li1  1  0.63067791  0.37666354  0.07681755  1
  Li  Li2  1  0.59129280  0.03019990  0.50943079  1
  Li  Li3  1  0.15290881  0.87666828  0.10184114  1
  Li  Li4  1  0.16087291  0.95687204  0.48950454  1
  Li  Li5  1  0.87496866  0.11160725  0.89562325  1
  Li  Li6  1  0.36051488  0.62302308  0.92543498  1
  Li  Li7  1  0.95258070  0.49581099  0.83490953  1
  Cr  Cr8  1  0.35891217  0.26436310  0.50794735  1
  Cr  Cr9  1  0.72635876  0.78008168  0.09653402  1
  Cr  Cr10  1  0.28046742  0.22430172  0.89484540  1
  Cr  Cr11  1  0.62831509  0.74721774  0.48167097  1
  P  P12  1  0.08443735  0.20927097  0.18399389  1
  P  P13  1  0.70476639  0.06412785  0.18731038  1
  P  P14  1  0.55752824  0.53789985  0.28319962  1
  P  P15  1  0.12589123  0.70103954  0.44296868  1
  P  P16  1  0.86392347  0.30229695  0.54787458  1
  P  P17  1  0.43955729  0.46811573  0.71265638  1
  P  P18  1  0.30319494  0.93704510  0.80325898  1
  P  P19  1  0.92061916  0.79472602  0.80575322  1
  O  O20  1  0.11374234  0.15043766  0.06269555  1
  O  O21  1  0.56500971  0.20149684  0.07962813  1
  O  O22  1  0.29187326  0.18986644  0.32275048  1
  O  O23  1  0.96039927  0.35225532  0.09436029  1
  O  O24  1  0.02801930  0.30320964  0.45806485  1
  O  O25  1  0.93633368  0.10425649  0.28234127  1
  O  O26  1  0.64171977  0.53107923  0.14524409  1
  O  O27  1  0.03581297  0.71759315  0.26239802  1
  O  O28  1  0.34473974  0.48114960  0.28306622  1
  O  O29  1  0.37407508  0.02354072  0.65503421  1
  O  O30  1  0.55810226  0.68569489  0.27488369  1
  O  O31  1  0.68832236  0.20772620  0.53329146  1
  O  O32  1  0.75797196  0.99763438  0.08078425  1
  O  O33  1  0.25757679  0.55140881  0.53774661  1
  O  O34  1  0.73648413  0.45456830  0.45947983  1
  O  O35  1  0.24963144  0.00679618  0.90592765  1
  O  O36  1  0.29294143  0.80151893  0.45663832  1
  O  O37  1  0.43778903  0.32205597  0.71544512  1
  O  O38  1  0.62733634  0.97488550  0.32881952  1
  O  O39  1  0.64960325  0.52731393  0.70971645  1
  O  O40  1  0.96590205  0.27948007  0.72967618  1
  O  O41  1  0.35888963  0.47085705  0.85359908  1
  O  O42  1  0.07766675  0.89264103  0.70933319  1
  O  O43  1  0.95642462  0.70608410  0.52501026  1
  O  O44  1  0.03638729  0.65014176  0.89434164  1
  O  O45  1  0.71023950  0.82041293  0.66774603  1
  O  O46  1  0.44466975  0.80079959  0.91403754  1
  O  O47  1  0.89953145  0.85438521  0.92883988  1
