# generated using pymatgen
data_ZnCuBiO5
_symmetry_space_group_name_H-M   'P 1'
_cell_length_a   5.16722863
_cell_length_b   8.20441013
_cell_length_c   10.96116337
_cell_angle_alpha   90.00000000
_cell_angle_beta   90.00000000
_cell_angle_gamma   110.62794388
_symmetry_Int_Tables_number   1
_chemical_formula_structural   ZnCuBiO5
_chemical_formula_sum   'Zn4 Cu4 Bi4 O20'
_cell_volume   434.89607593
_cell_formula_units_Z   4
loop_
 _symmetry_equiv_pos_site_id
 _symmetry_equiv_pos_as_xyz
  1  'x, y, z'
loop_
 _atom_site_type_symbol
 _atom_site_label
 _atom_site_symmetry_multiplicity
 _atom_site_fract_x
 _atom_site_fract_y
 _atom_site_fract_z
 _atom_site_occupancy
  Zn  Zn0  1  0.65212020  0.18952954  0.91199310  1
  Zn  Zn1  1  0.34787980  0.81047046  0.08800690  1
  Zn  Zn2  1  0.84787980  0.31047046  0.41199310  1
  Zn  Zn3  1  0.15212020  0.68952954  0.58800690  1
  Cu  Cu4  1  0.80532177  0.96283210  0.64036203  1
  Cu  Cu5  1  0.19467823  0.03716790  0.35963797  1
  Cu  Cu6  1  0.69467823  0.53716790  0.14036203  1
  Cu  Cu7  1  0.30532177  0.46283210  0.85963797  1
  Bi  Bi8  1  0.14715419  0.16208392  0.10204979  1
  Bi  Bi9  1  0.85284581  0.83791608  0.89795021  1
  Bi  Bi10  1  0.64715419  0.66208392  0.39795021  1
  Bi  Bi11  1  0.35284581  0.33791608  0.60204979  1
  O  O12  1  0.57705779  0.31845945  0.06486582  1
  O  O13  1  0.05941239  0.33804216  0.97895699  1
  O  O14  1  0.58290204  0.71439350  0.20902939  1
  O  O15  1  0.76209426  0.50525602  0.53878464  1
  O  O16  1  0.70089072  0.45083498  0.29410102  1
  O  O17  1  0.20089072  0.95083498  0.20589898  1
  O  O18  1  0.55941239  0.83804216  0.52104301  1
  O  O19  1  0.44058761  0.16195784  0.47895699  1
  O  O20  1  0.23790574  0.49474398  0.46121536  1
  O  O21  1  0.92294221  0.18154055  0.56486582  1
  O  O22  1  0.29910928  0.54916502  0.70589898  1
  O  O23  1  0.42294221  0.68154055  0.93513418  1
  O  O24  1  0.07705779  0.81845945  0.43513418  1
  O  O25  1  0.79910928  0.04916502  0.79410102  1
  O  O26  1  0.73790574  0.99474398  0.03878464  1
  O  O27  1  0.26209426  0.00525602  0.96121536  1
  O  O28  1  0.41709796  0.28560650  0.79097061  1
  O  O29  1  0.94058761  0.66195784  0.02104301  1
  O  O30  1  0.91709796  0.78560650  0.70902939  1
  O  O31  1  0.08290204  0.21439350  0.29097061  1
