# generated using pymatgen
data_CsLiO
_symmetry_space_group_name_H-M   'P 1'
_cell_length_a   6.86165055
_cell_length_b   3.65006308
_cell_length_c   9.79146956
_cell_angle_alpha   90.00000000
_cell_angle_beta   90.00000000
_cell_angle_gamma   90.00000000
_symmetry_Int_Tables_number   1
_chemical_formula_structural   CsLiO
_chemical_formula_sum   'Cs4 Li4 O4'
_cell_volume   245.23183316
_cell_formula_units_Z   4
loop_
 _symmetry_equiv_pos_site_id
 _symmetry_equiv_pos_as_xyz
  1  'x, y, z'
loop_
 _atom_site_type_symbol
 _atom_site_label
 _atom_site_symmetry_multiplicity
 _atom_site_fract_x
 _atom_site_fract_y
 _atom_site_fract_z
 _atom_site_occupancy
  Cs  Cs0  1  0.00507300  0.75000000  0.82632810  1
  Cs  Cs1  1  0.49492700  0.25000000  0.32632810  1
  Cs  Cs2  1  0.50507300  0.75000000  0.67367190  1
  Cs  Cs3  1  0.99492700  0.25000000  0.17367190  1
  Li  Li4  1  0.09673485  0.25000000  0.49344870  1
  Li  Li5  1  0.40326515  0.75000000  0.99344870  1
  Li  Li6  1  0.59673485  0.25000000  0.00655130  1
  Li  Li7  1  0.90326515  0.75000000  0.50655130  1
  O  O8  1  0.18388513  0.75000000  0.45975547  1
  O  O9  1  0.31611487  0.25000000  0.95975547  1
  O  O10  1  0.68388513  0.75000000  0.04024453  1
  O  O11  1  0.81611487  0.25000000  0.54024453  1
