# generated using pymatgen
data_Ga3NO3
_symmetry_space_group_name_H-M   'P 1'
_cell_length_a   8.42998065
_cell_length_b   8.39461686
_cell_length_c   6.14003369
_cell_angle_alpha   90.29358384
_cell_angle_beta   89.16287172
_cell_angle_gamma   120.09400931
_symmetry_Int_Tables_number   1
_chemical_formula_structural   Ga3NO3
_chemical_formula_sum   'Ga12 N4 O12'
_cell_volume   375.89702805
_cell_formula_units_Z   4
loop_
 _symmetry_equiv_pos_site_id
 _symmetry_equiv_pos_as_xyz
  1  'x, y, z'
loop_
 _atom_site_type_symbol
 _atom_site_label
 _atom_site_symmetry_multiplicity
 _atom_site_fract_x
 _atom_site_fract_y
 _atom_site_fract_z
 _atom_site_occupancy
  Ga  Ga0  1  0.07886942  0.82778793  0.98478611  1
  Ga  Ga1  1  0.06812041  0.50556596  0.67971476  1
  Ga  Ga2  1  0.42407751  0.91581116  0.69951758  1
  Ga  Ga3  1  0.16505723  0.25474838  0.99140736  1
  Ga  Ga4  1  0.24718795  0.16837827  0.48851780  1
  Ga  Ga5  1  0.49666391  0.57976863  0.68485579  1
  Ga  Ga6  1  0.73727862  0.91420786  0.98291359  1
  Ga  Ga7  1  0.58021613  0.49414478  0.19984350  1
  Ga  Ga8  1  0.51389117  0.08517844  0.19293287  1
  Ga  Ga9  1  0.90730157  0.73910094  0.50220640  1
  Ga  Ga10  1  0.92784146  0.42933057  0.20350782  1
  Ga  Ga11  1  0.82744310  0.08805471  0.50038809  1
  N  N12  1  0.65583154  0.61626103  0.45927410  1
  N  N13  1  0.02113778  0.69746422  0.73057919  1
  N  N14  1  0.67207549  0.99546099  0.74039175  1
  N  N15  1  0.98288346  0.33940170  0.44827132  1
  O  O16  1  0.99978863  0.68239614  0.23493386  1
  O  O17  1  0.04620016  0.38850107  0.96150250  1
  O  O18  1  0.34207119  0.96931716  0.97359357  1
  O  O19  1  0.32897586  0.66128236  0.65805872  1
  O  O20  1  0.00017857  0.99934845  0.48457129  1
  O  O21  1  0.99499396  0.00125346  0.00251514  1
  O  O22  1  0.32552474  0.30323315  0.22269592  1
  O  O23  1  0.31530578  0.31777489  0.73693453  1
  O  O24  1  0.67236649  0.99302632  0.24014731  1
  O  O25  1  0.60634493  0.64985978  0.96680269  1
  O  O26  1  0.38787080  0.04839874  0.46572443  1
  O  O27  1  0.67450014  0.33504190  0.12901300  1
