# generated using pymatgen
data_Ba8Co7O19
_symmetry_space_group_name_H-M   'P 1'
_cell_length_a   13.83841730
_cell_length_b   10.83800749
_cell_length_c   11.87223769
_cell_angle_alpha   74.92958914
_cell_angle_beta   49.13441596
_cell_angle_gamma   55.93599490
_symmetry_Int_Tables_number   1
_chemical_formula_structural   Ba8Co7O19
_chemical_formula_sum   'Ba16 Co14 O38'
_cell_volume   1099.29459761
_cell_formula_units_Z   2
loop_
 _symmetry_equiv_pos_site_id
 _symmetry_equiv_pos_as_xyz
  1  'x, y, z'
loop_
 _atom_site_type_symbol
 _atom_site_label
 _atom_site_symmetry_multiplicity
 _atom_site_fract_x
 _atom_site_fract_y
 _atom_site_fract_z
 _atom_site_occupancy
  Ba  Ba0  1  0.43144271  0.06855729  0.43144271  1
  Ba  Ba1  1  0.64691344  0.36051558  0.16759002  1
  Ba  Ba2  1  0.74805453  0.04566991  0.41643328  1
  Ba  Ba3  1  0.96182602  0.29582795  0.20978894  1
  Ba  Ba4  1  0.18144271  0.81855729  0.18144271  1
  Ba  Ba5  1  0.20433009  0.50194547  0.46015772  1
  Ba  Ba6  1  0.42501804  0.08240998  0.88948442  1
  Ba  Ba7  1  0.71744292  0.04021106  0.95417205  1
  Ba  Ba8  1  0.46015772  0.83356672  0.20433009  1
  Ba  Ba9  1  0.66811040  0.33188960  0.66811040  1
  Ba  Ba10  1  0.88948442  0.60308656  0.42501804  1
  Ba  Ba11  1  0.95417205  0.28817398  0.71744292  1
  Ba  Ba12  1  0.16759002  0.82498196  0.64691344  1
  Ba  Ba13  1  0.20978894  0.53255708  0.96182602  1
  Ba  Ba14  1  0.41643328  0.78984228  0.74805453  1
  Ba  Ba15  1  0.91811040  0.58188960  0.91811040  1
  Co  Co16  1  0.01283926  0.98716074  0.01283926  1
  Co  Co17  1  0.40539636  0.38870754  0.07802638  1
  Co  Co18  1  0.07802638  0.12786972  0.40539636  1
  Co  Co19  1  0.26283926  0.23716074  0.26283926  1
  Co  Co20  1  0.12213028  0.17197362  0.86129246  1
  Co  Co21  1  0.30026002  0.27536044  0.70789173  1
  Co  Co22  1  0.46486984  0.41060702  0.54499735  1
  Co  Co23  1  0.86129246  0.84460364  0.12213028  1
  Co  Co24  1  0.54499735  0.57952679  0.46486984  1
  Co  Co25  1  0.70789173  0.71648680  0.30026002  1
  Co  Co26  1  0.53351320  0.54210827  0.97463956  1
  Co  Co27  1  0.67047321  0.70500265  0.83939298  1
  Co  Co28  1  0.83939298  0.78513016  0.67047321  1
  Co  Co29  1  0.97463956  0.94973998  0.53351320  1
  O  O30  1  0.23221403  0.13698697  0.18720571  1
  O  O31  1  0.80640671  0.06279429  0.11301303  1
  O  O32  1  0.22123844  0.12590091  0.42449053  1
  O  O33  1  0.42449053  0.22837012  0.22123844  1
  O  O34  1  0.93948191  0.09316134  0.40334391  1
  O  O35  1  0.18720571  0.44359329  0.23221403  1
  O  O36  1  0.38852067  0.52832932  0.18294943  1
  O  O37  1  0.41863288  0.31443807  0.49573096  1
  O  O38  1  0.90828809  0.58034661  0.17389345  1
  O  O39  1  0.34979943  0.06705057  0.72167068  1
  O  O40  1  0.67005487  0.35739254  0.40094145  1
  O  O41  1  0.93378441  0.32552524  0.48969089  1
  O  O42  1  0.11301303  0.01778597  0.80640671  1
  O  O43  1  0.91252815  0.07610655  0.66965339  1
  O  O44  1  0.12409909  0.02876156  0.02162988  1
  O  O45  1  0.47187333  0.27399407  0.67389170  1
  O  O46  1  0.02162988  0.82550947  0.12409909  1
  O  O47  1  0.15683866  0.31051809  0.68598717  1
  O  O48  1  0.43183405  0.56816595  0.43183405  1
  O  O49  1  0.68598717  0.84665609  0.15683866  1
  O  O50  1  0.67389170  0.58024190  0.47187333  1
  O  O51  1  0.18294943  0.90020057  0.38852067  1
  O  O52  1  0.17389345  0.33747185  0.90828809  1
  O  O53  1  0.40094145  0.57161115  0.67005487  1
  O  O54  1  0.93556193  0.83136712  0.47880091  1
  O  O55  1  0.48969089  0.25099945  0.93378441  1
  O  O56  1  0.49573096  0.77119909  0.41863288  1
  O  O57  1  0.72167068  0.86147933  0.34979943  1
  O  O58  1  0.89260746  0.57994513  0.67838885  1
  O  O59  1  0.66965339  0.34171191  0.91252815  1
  O  O60  1  0.92447476  0.31621559  0.99900055  1
  O  O61  1  0.40334391  0.56401283  0.93948191  1
  O  O62  1  0.68183405  0.81816595  0.68183405  1
  O  O63  1  0.66975810  0.57610830  0.97600593  1
  O  O64  1  0.97600593  0.77812667  0.66975810  1
  O  O65  1  0.47880091  0.75426904  0.93556193  1
  O  O66  1  0.67838885  0.84905855  0.89260746  1
  O  O67  1  0.99900055  0.76030911  0.92447476  1
