# generated using pymatgen
data_V3(H3O5)2
_symmetry_space_group_name_H-M   'P 1'
_cell_length_a   9.05189231
_cell_length_b   8.98219933
_cell_length_c   6.03021532
_cell_angle_alpha   91.59775556
_cell_angle_beta   83.98382081
_cell_angle_gamma   89.62451861
_symmetry_Int_Tables_number   1
_chemical_formula_structural   V3(H3O5)2
_chemical_formula_sum   'V6 H12 O20'
_cell_volume   487.38001286
_cell_formula_units_Z   2
loop_
 _symmetry_equiv_pos_site_id
 _symmetry_equiv_pos_as_xyz
  1  'x, y, z'
loop_
 _atom_site_type_symbol
 _atom_site_label
 _atom_site_symmetry_multiplicity
 _atom_site_fract_x
 _atom_site_fract_y
 _atom_site_fract_z
 _atom_site_occupancy
  V  V0  1  0.51166260  0.49516894  0.25031942  1
  V  V1  1  0.00776152  0.99914703  0.27801374  1
  V  V2  1  0.36880892  0.14140448  0.25917345  1
  V  V3  1  0.64124222  0.86437292  0.29942461  1
  V  V4  1  0.15081205  0.62478978  0.27580210  1
  V  V5  1  0.87480820  0.36576654  0.27191224  1
  H  H6  1  0.54652951  0.35497134  0.64637238  1
  H  H7  1  0.04121681  0.15238920  0.68504694  1
  H  H8  1  0.51965216  0.85467924  0.68052637  1
  H  H9  1  0.04822462  0.64155084  0.66750768  1
  H  H10  1  0.31927006  0.92493649  0.87848768  1
  H  H11  1  0.35121461  0.75436650  0.88549386  1
  H  H12  1  0.56947436  0.27688492  0.88758281  1
  H  H13  1  0.71782362  0.30976417  0.68665707  1
  H  H14  1  0.03744782  0.33103462  0.68084056  1
  H  H15  1  0.20434027  0.23341237  0.65372636  1
  H  H16  1  0.83529691  0.58270876  0.73427133  1
  H  H17  1  0.84476047  0.74698135  0.83596415  1
  O  O18  1  0.48865551  0.47993487  0.52490484  1
  O  O19  1  0.99394721  0.01746315  0.55363255  1
  O  O20  1  0.44319848  0.30130470  0.12524319  1
  O  O21  1  0.59808989  0.69322138  0.19183563  1
  O  O22  1  0.09554024  0.79815179  0.20772375  1
  O  O23  1  0.92547245  0.18646635  0.18621207  1
  O  O24  1  0.32900367  0.58749336  0.15479018  1
  O  O25  1  0.71180538  0.41443065  0.16222070  1
  O  O26  1  0.81966340  0.90910460  0.20014714  1
  O  O27  1  0.20758201  0.07480012  0.15862356  1
  O  O28  1  0.33225779  0.18348819  0.53205886  1
  O  O29  1  0.62449679  0.86370743  0.59159405  1
  O  O30  1  0.14338658  0.60860905  0.56506847  1
  O  O31  1  0.85284868  0.37712765  0.55769005  1
  O  O32  1  0.51022742  0.99677936  0.21580822  1
  O  O33  1  0.02513904  0.48913578  0.18139005  1
  O  O34  1  0.36296567  0.84018110  0.78853693  1
  O  O35  1  0.60808223  0.27623694  0.72457296  1
  O  O36  1  0.09295534  0.24754814  0.73919858  1
  O  O37  1  0.89987651  0.65419990  0.80138548  1
