# generated using pymatgen
data_Na3PH12CO11
_symmetry_space_group_name_H-M   'P 1'
_cell_length_a   9.29092908
_cell_length_b   10.34244895
_cell_length_c   12.38396100
_cell_angle_alpha   90.00000000
_cell_angle_beta   90.00000000
_cell_angle_gamma   104.16221369
_symmetry_Int_Tables_number   1
_chemical_formula_structural   Na3PH12CO11
_chemical_formula_sum   'Na12 P4 H48 C4 O44'
_cell_volume   1153.81933522
_cell_formula_units_Z   4
loop_
 _symmetry_equiv_pos_site_id
 _symmetry_equiv_pos_as_xyz
  1  'x, y, z'
loop_
 _atom_site_type_symbol
 _atom_site_label
 _atom_site_symmetry_multiplicity
 _atom_site_fract_x
 _atom_site_fract_y
 _atom_site_fract_z
 _atom_site_occupancy
  Na  Na0  1  0.10382720  0.75706189  0.05982764  1
  Na  Na1  1  0.60382720  0.25706189  0.44017236  1
  Na  Na2  1  0.89617280  0.24293811  0.94017236  1
  Na  Na3  1  0.39617280  0.74293811  0.55982764  1
  Na  Na4  1  0.71288197  0.72014182  0.15938378  1
  Na  Na5  1  0.21288197  0.22014182  0.34061622  1
  Na  Na6  1  0.28711803  0.27985818  0.84061622  1
  Na  Na7  1  0.78711803  0.77985818  0.65938378  1
  Na  Na8  1  0.36324470  0.71308665  0.25029256  1
  Na  Na9  1  0.86324470  0.21308665  0.24970744  1
  Na  Na10  1  0.63675530  0.28691335  0.74970744  1
  Na  Na11  1  0.13675530  0.78691335  0.75029256  1
  P  P12  1  0.85282084  0.71523376  0.40529755  1
  P  P13  1  0.35282084  0.21523376  0.09470245  1
  P  P14  1  0.14717916  0.28476624  0.59470245  1
  P  P15  1  0.64717916  0.78476624  0.90529755  1
  H  H16  1  0.00483007  0.60087867  0.24149334  1
  H  H17  1  0.50483007  0.10087867  0.25850666  1
  H  H18  1  0.99516993  0.39912133  0.75850666  1
  H  H19  1  0.49516993  0.89912133  0.74149334  1
  H  H20  1  0.08948978  0.50564184  0.18347625  1
  H  H21  1  0.58948978  0.00564184  0.31652375  1
  H  H22  1  0.91051022  0.49435816  0.81652375  1
  H  H23  1  0.41051022  0.99435816  0.68347625  1
  H  H24  1  0.36998331  0.96037523  0.12873171  1
  H  H25  1  0.86998331  0.46037523  0.37126829  1
  H  H26  1  0.63001669  0.03962477  0.87126829  1
  H  H27  1  0.13001669  0.53962477  0.62873171  1
  H  H28  1  0.46362623  0.87105301  0.06974581  1
  H  H29  1  0.96362623  0.37105301  0.43025419  1
  H  H30  1  0.53637377  0.12894699  0.93025419  1
  H  H31  1  0.03637377  0.62894699  0.56974581  1
  H  H32  1  0.17412687  0.83540172  0.39923157  1
  H  H33  1  0.67412687  0.33540172  0.10076843  1
  H  H34  1  0.82587313  0.16459828  0.60076843  1
  H  H35  1  0.32587313  0.66459828  0.89923157  1
  H  H36  1  0.23378046  0.71033754  0.41271205  1
  H  H37  1  0.73378046  0.21033754  0.08728795  1
  H  H38  1  0.76621954  0.28966246  0.58728795  1
  H  H39  1  0.26621954  0.78966246  0.91271205  1
  H  H40  1  0.26730664  0.48871144  0.44005217  1
  H  H41  1  0.76730664  0.98871144  0.05994783  1
  H  H42  1  0.73269336  0.51128856  0.55994783  1
  H  H43  1  0.23269336  0.01128856  0.94005217  1
  H  H44  1  0.42416190  0.51989931  0.38312627  1
  H  H45  1  0.92416190  0.01989931  0.11687373  1
  H  H46  1  0.57583810  0.48010069  0.61687373  1
  H  H47  1  0.07583810  0.98010069  0.88312627  1
  H  H48  1  0.45966424  0.49635067  0.11476570  1
  H  H49  1  0.95966424  0.99635067  0.38523430  1
  H  H50  1  0.54033576  0.50364933  0.88523430  1
  H  H51  1  0.04033576  0.00364933  0.61476570  1
  H  H52  1  0.46278151  0.61854485  0.04016401  1
  H  H53  1  0.96278151  0.11854485  0.45983599  1
  H  H54  1  0.53721849  0.38145515  0.95983599  1
  H  H55  1  0.03721849  0.88145515  0.54016401  1
  H  H56  1  0.02902579  0.89852096  0.25433595  1
  H  H57  1  0.52902579  0.39852096  0.24566405  1
  H  H58  1  0.97097421  0.10147904  0.74566405  1
  H  H59  1  0.47097421  0.60147904  0.75433595  1
  H  H60  1  0.15254831  0.99765969  0.18585998  1
  H  H61  1  0.65254831  0.49765969  0.31414002  1
  H  H62  1  0.84745169  0.00234031  0.81414002  1
  H  H63  1  0.34745169  0.50234031  0.68585998  1
  C  C64  1  0.68305738  0.78404558  0.41179029  1
  C  C65  1  0.18305738  0.28404558  0.08820971  1
  C  C66  1  0.31694262  0.21595442  0.58820971  1
  C  C67  1  0.81694262  0.71595442  0.91179029  1
  O  O68  1  0.83422127  0.61894675  0.30740499  1
  O  O69  1  0.33422127  0.11894675  0.19259501  1
  O  O70  1  0.16577873  0.38105325  0.69259501  1
  O  O71  1  0.66577873  0.88105325  0.80740499  1
  O  O72  1  0.98472496  0.83995902  0.38846708  1
  O  O73  1  0.48472496  0.33995902  0.11153292  1
  O  O74  1  0.01527504  0.16004098  0.61153292  1
  O  O75  1  0.51527504  0.66004098  0.88846708  1
  O  O76  1  0.86683091  0.64623074  0.51349353  1
  O  O77  1  0.36683091  0.14623074  0.98650647  1
  O  O78  1  0.13316909  0.35376926  0.48650647  1
  O  O79  1  0.63316909  0.85376926  0.01349353  1
  O  O80  1  0.64267976  0.80956470  0.50553164  1
  O  O81  1  0.14267976  0.30956470  0.99446836  1
  O  O82  1  0.35732024  0.19043530  0.49446836  1
  O  O83  1  0.85732024  0.69043530  0.00553164  1
  O  O84  1  0.62354710  0.80253861  0.32241928  1
  O  O85  1  0.12354710  0.30253861  0.17758072  1
  O  O86  1  0.37645290  0.19746139  0.67758072  1
  O  O87  1  0.87645290  0.69746139  0.82241928  1
  O  O88  1  0.09717019  0.59952022  0.20167591  1
  O  O89  1  0.59717019  0.09952022  0.29832409  1
  O  O90  1  0.90282981  0.40047978  0.79832409  1
  O  O91  1  0.40282981  0.90047978  0.70167591  1
  O  O92  1  0.36912885  0.86791439  0.10890150  1
  O  O93  1  0.86912885  0.36791439  0.39109850  1
  O  O94  1  0.63087115  0.13208561  0.89109850  1
  O  O95  1  0.13087115  0.63208561  0.60890150  1
  O  O96  1  0.26833247  0.80701165  0.40363301  1
  O  O97  1  0.76833247  0.30701165  0.09636699  1
  O  O98  1  0.73166753  0.19298835  0.59636699  1
  O  O99  1  0.23166753  0.69298835  0.90363301  1
  O  O100  1  0.34738183  0.56306934  0.41094229  1
  O  O101  1  0.84738183  0.06306934  0.08905771  1
  O  O102  1  0.65261817  0.43693066  0.58905771  1
  O  O103  1  0.15261817  0.93693066  0.91094229  1
  O  O104  1  0.46354807  0.59348063  0.11678494  1
  O  O105  1  0.96354807  0.09348063  0.38321506  1
  O  O106  1  0.53645193  0.40651937  0.88321506  1
  O  O107  1  0.03645193  0.90651937  0.61678494  1
  O  O108  1  0.05466219  0.93245358  0.17985193  1
  O  O109  1  0.55466219  0.43245358  0.32014807  1
  O  O110  1  0.94533781  0.06754642  0.82014807  1
  O  O111  1  0.44533781  0.56754642  0.67985193  1
