# generated using pymatgen
data_Fe5(OF4)2
_symmetry_space_group_name_H-M   'P 1'
_cell_length_a   4.80157123
_cell_length_b   13.55689119
_cell_length_c   5.78049460
_cell_angle_alpha   101.09811067
_cell_angle_beta   90.72924854
_cell_angle_gamma   89.36495242
_symmetry_Int_Tables_number   1
_chemical_formula_structural   Fe5(OF4)2
_chemical_formula_sum   'Fe10 O4 F16'
_cell_volume   369.19674027
_cell_formula_units_Z   2
loop_
 _symmetry_equiv_pos_site_id
 _symmetry_equiv_pos_as_xyz
  1  'x, y, z'
loop_
 _atom_site_type_symbol
 _atom_site_label
 _atom_site_symmetry_multiplicity
 _atom_site_fract_x
 _atom_site_fract_y
 _atom_site_fract_z
 _atom_site_occupancy
  Fe  Fe0  1  0.50541435  0.99825098  0.50625210  1
  Fe  Fe1  1  0.49707220  0.39416723  0.28436921  1
  Fe  Fe2  1  0.46659353  0.20401694  0.87834724  1
  Fe  Fe3  1  0.51185413  0.60714396  0.68598196  1
  Fe  Fe4  1  0.51212020  0.80253228  0.12121774  1
  Fe  Fe5  1  0.02190912  0.39909951  0.80880644  1
  Fe  Fe6  1  0.95914387  0.79519988  0.58972620  1
  Fe  Fe7  1  0.01758776  0.19384282  0.40857457  1
  Fe  Fe8  1  0.98867920  0.60343592  0.21736351  1
  Fe  Fe9  1  0.00206824  0.99879993  0.99816851  1
  O  O10  1  0.80637217  0.66780805  0.52655665  1
  O  O11  1  0.70108736  0.87363017  0.43587521  1
  O  O12  1  0.29566389  0.33374032  0.96507860  1
  O  O13  1  0.31854772  0.13341588  0.58689256  1
  F  F14  1  0.79735362  0.26567664  0.72513583  1
  F  F15  1  0.80060055  0.85854008  0.91468986  1
  F  F16  1  0.79512026  0.05905463  0.31857830  1
  F  F17  1  0.80784643  0.45330656  0.10304077  1
  F  F18  1  0.70169084  0.06398453  0.82255555  1
  F  F19  1  0.71261552  0.45302467  0.61903481  1
  F  F20  1  0.68729823  0.65736487  0.02385720  1
  F  F21  1  0.70258345  0.24925024  0.19865767  1
  F  F22  1  0.28407432  0.74810743  0.79084462  1
  F  F23  1  0.30467828  0.94827140  0.19400399  1
  F  F24  1  0.30634237  0.53583068  0.37001517  1
  F  F25  1  0.21424718  0.13878825  0.07672450  1
  F  F26  1  0.20391841  0.93649206  0.68003411  1
  F  F27  1  0.19441948  0.53425844  0.86792727  1
  F  F28  1  0.18906526  0.34452188  0.48824065  1
  F  F29  1  0.19403106  0.74844178  0.29344719  1
