# generated using pymatgen
data_MgO
_symmetry_space_group_name_H-M   'P 1'
_cell_length_a   20.05688648
_cell_length_b   20.05688640
_cell_length_c   20.05688639
_cell_angle_alpha   8.56341787
_cell_angle_beta   8.56341588
_cell_angle_gamma   8.56341675
_symmetry_Int_Tables_number   1
_chemical_formula_structural   MgO
_chemical_formula_sum   'Mg8 O8'
_cell_volume   155.21781581
_cell_formula_units_Z   8
loop_
 _symmetry_equiv_pos_site_id
 _symmetry_equiv_pos_as_xyz
  1  'x, y, z'
loop_
 _atom_site_type_symbol
 _atom_site_label
 _atom_site_symmetry_multiplicity
 _atom_site_fract_x
 _atom_site_fract_y
 _atom_site_fract_z
 _atom_site_occupancy
  Mg  Mg0  1  0.37560639  0.37560632  0.37560632  1
  Mg  Mg1  1  0.62439381  0.62439463  0.62439463  1
  Mg  Mg2  1  0.79226656  0.79227257  0.79227257  1
  Mg  Mg3  1  0.20771764  0.20772079  0.20772079  1
  Mg  Mg4  1  0.91543995  0.91543982  0.91543982  1
  Mg  Mg5  1  0.08456060  0.08456016  0.08456016  1
  Mg  Mg6  1  0.49995920  0.50000420  0.50000420  1
  Mg  Mg7  1  0.00000076  0.00000068  0.00000068  1
  O  O8  1  0.14612012  0.14614164  0.14614164  1
  O  O9  1  0.85384240  0.85386411  0.85386411  1
  O  O10  1  0.43841593  0.43841701  0.43841701  1
  O  O11  1  0.56157884  0.56157964  0.56157964  1
  O  O12  1  0.31287454  0.31287460  0.31287460  1
  O  O13  1  0.68712420  0.68712471  0.68712471  1
  O  O14  1  0.26923576  0.26923590  0.26923590  1
  O  O15  1  0.73076328  0.73076322  0.73076322  1
