# generated using pymatgen
data_MgCo2(PO5)2
_symmetry_space_group_name_H-M   'P 1'
_cell_length_a   6.52520823
_cell_length_b   6.52520802
_cell_length_c   8.92262164
_cell_angle_alpha   102.39047115
_cell_angle_beta   102.39047405
_cell_angle_gamma   114.40492407
_symmetry_Int_Tables_number   1
_chemical_formula_structural   MgCo2(PO5)2
_chemical_formula_sum   'Mg2 Co4 P4 O20'
_cell_volume   317.66279223
_cell_formula_units_Z   2
loop_
 _symmetry_equiv_pos_site_id
 _symmetry_equiv_pos_as_xyz
  1  'x, y, z'
loop_
 _atom_site_type_symbol
 _atom_site_label
 _atom_site_symmetry_multiplicity
 _atom_site_fract_x
 _atom_site_fract_y
 _atom_site_fract_z
 _atom_site_occupancy
  Mg  Mg0  1  0.49429262  0.99429262  0.50000000  1
  Mg  Mg1  1  0.24429262  0.24429262  1.00000000  1
  Co  Co2  1  0.87186941  0.61542456  0.25294641  1
  Co  Co3  1  0.36247815  0.61892100  0.74705359  1
  Co  Co4  1  0.86892100  0.11247815  0.24705359  1
  Co  Co5  1  0.86542456  0.62186941  0.75294641  1
  P  P6  1  0.03752588  0.03768701  0.58487619  1
  P  P7  1  0.70264969  0.20281082  0.91512381  1
  P  P8  1  0.45281082  0.45264969  0.41512381  1
  P  P9  1  0.28768701  0.78752588  0.08487619  1
  O  O10  1  0.57761654  0.55326575  0.29747148  1
  O  O11  1  0.66237879  0.66308194  0.83454770  1
  O  O12  1  0.31387479  0.58624918  0.97477421  1
  O  O13  1  0.80326575  0.32761654  0.79747148  1
  O  O14  1  0.21257956  0.23546739  0.29495958  1
  O  O15  1  0.42518840  0.65328642  0.52441469  1
  O  O16  1  0.07783209  0.57853424  0.66545230  1
  O  O17  1  0.82853424  0.82783209  0.16545230  1
  O  O18  1  0.91308194  0.41237879  0.33454770  1
  O  O19  1  0.16761899  0.69050781  0.20504042  1
  O  O20  1  0.25579427  0.28014705  0.70252852  1
  O  O21  1  0.48546739  0.96257956  0.79495958  1
  O  O22  1  0.94050781  0.91761899  0.70504042  1
  O  O23  1  0.15077472  0.87887274  0.97558531  1
  O  O24  1  0.12887274  0.90077472  0.47558531  1
  O  O25  1  0.90328642  0.17518840  0.02441469  1
  O  O26  1  0.83624918  0.06387479  0.47477421  1
  O  O27  1  0.61147497  0.33910058  0.02522579  1
  O  O28  1  0.53014705  0.00579427  0.20252852  1
  O  O29  1  0.58910058  0.36147497  0.52522579  1
