# generated using pymatgen
data_V3(H3O5)2
_symmetry_space_group_name_H-M   'P 1'
_cell_length_a   8.90692681
_cell_length_b   9.07209374
_cell_length_c   6.10990880
_cell_angle_alpha   86.15277843
_cell_angle_beta   98.20436006
_cell_angle_gamma   91.34796578
_symmetry_Int_Tables_number   1
_chemical_formula_structural   V3(H3O5)2
_chemical_formula_sum   'V6 H12 O20'
_cell_volume   487.50523406
_cell_formula_units_Z   2
loop_
 _symmetry_equiv_pos_site_id
 _symmetry_equiv_pos_as_xyz
  1  'x, y, z'
loop_
 _atom_site_type_symbol
 _atom_site_label
 _atom_site_symmetry_multiplicity
 _atom_site_fract_x
 _atom_site_fract_y
 _atom_site_fract_z
 _atom_site_occupancy
  V  V0  1  0.49543557  0.50259547  0.26583210  1
  V  V1  1  0.99288145  0.99686038  0.27093008  1
  V  V2  1  0.36472867  0.12421042  0.25015037  1
  V  V3  1  0.63042406  0.86425153  0.23984584  1
  V  V4  1  0.13021560  0.62899469  0.31599280  1
  V  V5  1  0.85568944  0.35427563  0.29006249  1
  H  H6  1  0.65481508  0.55275911  0.65418095  1
  H  H7  1  0.12790565  0.93724156  0.65932899  1
  H  H8  1  0.32870884  0.91650934  0.70898957  1
  H  H9  1  0.22402156  0.76586712  0.71198874  1
  H  H10  1  0.72280656  0.10587712  0.87912083  1
  H  H11  1  0.58642489  0.15436078  0.69161327  1
  H  H12  1  0.78846982  0.26775881  0.66261252  1
  H  H13  1  0.09628121  0.30196946  0.80113172  1
  H  H14  1  0.18196312  0.44872991  0.73009740  1
  H  H15  1  0.29746462  0.33813037  0.00026322  1
  H  H16  1  0.84937405  0.58779621  0.71459107  1
  H  H17  1  0.73156451  0.72756319  0.66794867  1
  O  O18  1  0.54061247  0.49141171  0.54275969  1
  O  O19  1  0.02028398  0.99557213  0.55160793  1
  O  O20  1  0.38239608  0.31919602  0.14541099  1
  O  O21  1  0.57394889  0.68751618  0.15834837  1
  O  O22  1  0.07032767  0.80516852  0.22821338  1
  O  O23  1  0.90362311  0.19317851  0.18644387  1
  O  O24  1  0.29578065  0.58924537  0.21537706  1
  O  O25  1  0.67429936  0.40312070  0.18645058  1
  O  O26  1  0.79659499  0.92454024  0.13594160  1
  O  O27  1  0.17718612  0.07707712  0.17196474  1
  O  O28  1  0.40929886  0.10872746  0.52217700  1
  O  O29  1  0.66305100  0.85807219  0.51548575  1
  O  O30  1  0.15613762  0.61465242  0.59665815  1
  O  O31  1  0.86908654  0.33282756  0.58064456  1
  O  O32  1  0.48547898  0.00167799  0.13780630  1
  O  O33  1  0.98362630  0.49741352  0.21678170  1
  O  O34  1  0.23755608  0.87086538  0.75966835  1
  O  O35  1  0.68239771  0.18786456  0.77752523  1
  O  O36  1  0.19721257  0.34670613  0.80253184  1
  O  O37  1  0.75134932  0.62290122  0.74303028  1
