# generated using pymatgen
data_InRh3
_symmetry_space_group_name_H-M   'P 1'
_cell_length_a   5.65252402
_cell_length_b   5.65252381
_cell_length_c   4.54612534
_cell_angle_alpha   90.00000000
_cell_angle_beta   90.00000000
_cell_angle_gamma   119.99999482
_symmetry_Int_Tables_number   1
_chemical_formula_structural   InRh3
_chemical_formula_sum   'In2 Rh6'
_cell_volume   125.79311644
_cell_formula_units_Z   2
loop_
 _symmetry_equiv_pos_site_id
 _symmetry_equiv_pos_as_xyz
  1  'x, y, z'
loop_
 _atom_site_type_symbol
 _atom_site_label
 _atom_site_symmetry_multiplicity
 _atom_site_fract_x
 _atom_site_fract_y
 _atom_site_fract_z
 _atom_site_occupancy
  In  In0  1  0.66666600  0.33333400  0.25000000  1
  In  In1  1  0.33333400  0.66666800  0.75000000  1
  Rh  Rh2  1  0.83746138  0.16253762  0.75000000  1
  Rh  Rh3  1  0.32507723  0.16253762  0.75000000  1
  Rh  Rh4  1  0.83746038  0.67492177  0.75000000  1
  Rh  Rh5  1  0.16253762  0.83746138  0.25000000  1
  Rh  Rh6  1  0.67492177  0.83746138  0.25000000  1
  Rh  Rh7  1  0.16253762  0.32507623  0.25000000  1
