# generated using pymatgen
data_Gd3Cd
_symmetry_space_group_name_H-M   'P 1'
_cell_length_a   7.00128563
_cell_length_b   7.00128741
_cell_length_c   5.55010811
_cell_angle_alpha   90.00000000
_cell_angle_beta   90.00000000
_cell_angle_gamma   120.00000135
_symmetry_Int_Tables_number   1
_chemical_formula_structural   Gd3Cd
_chemical_formula_sum   'Gd6 Cd2'
_cell_volume   235.60677287
_cell_formula_units_Z   2
loop_
 _symmetry_equiv_pos_site_id
 _symmetry_equiv_pos_as_xyz
  1  'x, y, z'
loop_
 _atom_site_type_symbol
 _atom_site_label
 _atom_site_symmetry_multiplicity
 _atom_site_fract_x
 _atom_site_fract_y
 _atom_site_fract_z
 _atom_site_occupancy
  Gd  Gd0  1  0.17238060  0.34476020  0.25000100  1
  Gd  Gd1  1  0.65523980  0.82761940  0.25000100  1
  Gd  Gd2  1  0.17237960  0.82761940  0.25000100  1
  Gd  Gd3  1  0.82761940  0.65523980  0.75000200  1
  Gd  Gd4  1  0.34476120  0.17237960  0.75000200  1
  Gd  Gd5  1  0.82761940  0.17237960  0.75000200  1
  Cd  Cd6  1  0.33333300  0.66666600  0.75000200  1
  Cd  Cd7  1  0.66666700  0.33333200  0.25000100  1
