# generated using pymatgen
data_MgMn2(PO5)2
_symmetry_space_group_name_H-M   'P 1'
_cell_length_a   6.63688382
_cell_length_b   6.63688325
_cell_length_c   8.98748841
_cell_angle_alpha   102.40351993
_cell_angle_beta   102.40351665
_cell_angle_gamma   114.72478758
_symmetry_Int_Tables_number   1
_chemical_formula_structural   MgMn2(PO5)2
_chemical_formula_sum   'Mg2 Mn4 P4 O20'
_cell_volume   329.84194842
_cell_formula_units_Z   2
loop_
 _symmetry_equiv_pos_site_id
 _symmetry_equiv_pos_as_xyz
  1  'x, y, z'
loop_
 _atom_site_type_symbol
 _atom_site_label
 _atom_site_symmetry_multiplicity
 _atom_site_fract_x
 _atom_site_fract_y
 _atom_site_fract_z
 _atom_site_occupancy
  Mg  Mg0  1  0.49491063  0.99491063  0.50000000  1
  Mg  Mg1  1  0.24491063  0.24491063  1.00000000  1
  Mn  Mn2  1  0.87228911  0.61871570  0.25119584  1
  Mn  Mn3  1  0.36751986  0.62109227  0.74880416  1
  Mn  Mn4  1  0.87109227  0.11751986  0.24880416  1
  Mn  Mn5  1  0.86871570  0.62228911  0.75119584  1
  P  P6  1  0.03679565  0.03780991  0.58496630  1
  P  P7  1  0.70182935  0.20284361  0.91503370  1
  P  P8  1  0.45284361  0.45182935  0.41503370  1
  P  P9  1  0.28780991  0.78679565  0.08496630  1
  O  O10  1  0.58105832  0.55310432  0.30201369  1
  O  O11  1  0.66236460  0.66687478  0.83933508  1
  O  O12  1  0.30881454  0.58506778  0.97537976  1
  O  O13  1  0.80310432  0.33105832  0.80201369  1
  O  O14  1  0.21425333  0.23756029  0.29739043  1
  O  O15  1  0.42730474  0.65188551  0.52273010  1
  O  O16  1  0.07302952  0.57753970  0.66066492  1
  O  O17  1  0.82753970  0.82302952  0.16066492  1
  O  O18  1  0.91687478  0.41236460  0.33933508  1
  O  O19  1  0.16686190  0.69016986  0.20260957  1
  O  O20  1  0.25109163  0.27904663  0.69798631  1
  O  O21  1  0.48756029  0.96425333  0.79739043  1
  O  O22  1  0.94016986  0.91686190  0.70260957  1
  O  O23  1  0.15457564  0.87915641  0.97726990  1
  O  O24  1  0.12915641  0.90457564  0.47726990  1
  O  O25  1  0.90188551  0.17730474  0.02273010  1
  O  O26  1  0.83506778  0.05881454  0.47537976  1
  O  O27  1  0.60968802  0.33343378  0.02462024  1
  O  O28  1  0.52904663  0.00109163  0.19798631  1
  O  O29  1  0.58343378  0.35968802  0.52462024  1
