# generated using pymatgen
data_KSn3
_symmetry_space_group_name_H-M   'P 1'
_cell_length_a   7.56636275
_cell_length_b   7.56700214
_cell_length_c   5.22123110
_cell_angle_alpha   89.97927019
_cell_angle_beta   90.02324335
_cell_angle_gamma   120.02346833
_symmetry_Int_Tables_number   1
_chemical_formula_structural   KSn3
_chemical_formula_sum   'K2 Sn6'
_cell_volume   258.82830522
_cell_formula_units_Z   2
loop_
 _symmetry_equiv_pos_site_id
 _symmetry_equiv_pos_as_xyz
  1  'x, y, z'
loop_
 _atom_site_type_symbol
 _atom_site_label
 _atom_site_symmetry_multiplicity
 _atom_site_fract_x
 _atom_site_fract_y
 _atom_site_fract_z
 _atom_site_occupancy
  K  K0  1  0.33332757  0.66666324  0.75000244  1
  K  K1  1  0.66667802  0.33335308  0.24998365  1
  Sn  Sn2  1  0.14094908  0.28197415  0.25001886  1
  Sn  Sn3  1  0.71764707  0.85890968  0.24997627  1
  Sn  Sn4  1  0.14128619  0.85883335  0.25012432  1
  Sn  Sn5  1  0.85905163  0.71803924  0.74996761  1
  Sn  Sn6  1  0.28234039  0.14105105  0.75005731  1
  Sn  Sn7  1  0.85872005  0.14117420  0.74986954  1
