# generated using pymatgen
data_CrPO5
_symmetry_space_group_name_H-M   'P 1'
_cell_length_a   6.93724799
_cell_length_b   6.93724750
_cell_length_c   8.68198565
_cell_angle_alpha   101.43224838
_cell_angle_beta   101.43224912
_cell_angle_gamma   120.25714620
_symmetry_Int_Tables_number   1
_chemical_formula_structural   CrPO5
_chemical_formula_sum   'Cr4 P4 O20'
_cell_volume   331.09434455
_cell_formula_units_Z   4
loop_
 _symmetry_equiv_pos_site_id
 _symmetry_equiv_pos_as_xyz
  1  'x, y, z'
loop_
 _atom_site_type_symbol
 _atom_site_label
 _atom_site_symmetry_multiplicity
 _atom_site_fract_x
 _atom_site_fract_y
 _atom_site_fract_z
 _atom_site_occupancy
  Cr  Cr0  1  0.87766667  0.59758766  0.26465176  1
  Cr  Cr1  1  0.33293689  0.61301391  0.73534824  1
  Cr  Cr2  1  0.86301391  0.08293689  0.23534824  1
  Cr  Cr3  1  0.84758766  0.62766667  0.76465176  1
  P  P4  1  0.02870724  0.03114181  0.56818124  1
  P  P5  1  0.71052600  0.21296057  0.93181876  1
  P  P6  1  0.46296057  0.46052600  0.43181876  1
  P  P7  1  0.28114181  0.77870724  0.06818124  1
  O  O8  1  0.60891178  0.56478615  0.32138513  1
  O  O9  1  0.66758171  0.66263696  0.84195735  1
  O  O10  1  0.30875875  0.59897997  0.94976329  1
  O  O11  1  0.81478615  0.35891178  0.82138513  1
  O  O12  1  0.21121516  0.24828396  0.31651102  1
  O  O13  1  0.43576503  0.64289762  0.54743067  1
  O  O14  1  0.07562436  0.57067961  0.65804265  1
  O  O15  1  0.82067961  0.82562436  0.15804265  1
  O  O16  1  0.91263696  0.41758171  0.34195735  1
  O  O17  1  0.14470414  0.68177294  0.18348898  1
  O  O18  1  0.24340102  0.28752765  0.67861487  1
  O  O19  1  0.49828396  0.96121516  0.81651102  1
  O  O20  1  0.93177294  0.89470414  0.68348898  1
  O  O21  1  0.13833736  0.84546795  0.95256933  1
  O  O22  1  0.09546795  0.88833736  0.45256933  1
  O  O23  1  0.89289762  0.18576503  0.04743067  1
  O  O24  1  0.84897997  0.05875875  0.44976329  1
  O  O25  1  0.64921768  0.35899546  0.05023671  1
  O  O26  1  0.53752765  0.99340102  0.17861487  1
  O  O27  1  0.60899546  0.39921768  0.55023671  1
