# generated using pymatgen
data_LaZn2Ag
_symmetry_space_group_name_H-M   'P 1'
_cell_length_a   4.93386484
_cell_length_b   4.93488526
_cell_length_c   4.93348382
_cell_angle_alpha   59.99124001
_cell_angle_beta   60.01897377
_cell_angle_gamma   59.99270714
_symmetry_Int_Tables_number   1
_chemical_formula_structural   LaZn2Ag
_chemical_formula_sum   'La1 Zn2 Ag1'
_cell_volume   84.94005553
_cell_formula_units_Z   1
loop_
 _symmetry_equiv_pos_site_id
 _symmetry_equiv_pos_as_xyz
  1  'x, y, z'
loop_
 _atom_site_type_symbol
 _atom_site_label
 _atom_site_symmetry_multiplicity
 _atom_site_fract_x
 _atom_site_fract_y
 _atom_site_fract_z
 _atom_site_occupancy
  La  La0  1  0.75000367  0.74999594  0.75000640  1
  Zn  Zn1  1  0.00000242  0.99999925  0.99999785  1
  Zn  Zn2  1  0.49999536  0.50000403  0.49999855  1
  Ag  Ag3  1  0.24999755  0.24999979  0.24999620  1
