# generated using pymatgen
data_RbHSO2
_symmetry_space_group_name_H-M   'P 1'
_cell_length_a   5.99260999
_cell_length_b   6.12996601
_cell_length_c   11.66980228
_cell_angle_alpha   101.85722262
_cell_angle_beta   90.00000000
_cell_angle_gamma   119.26149958
_symmetry_Int_Tables_number   1
_chemical_formula_structural   RbHSO2
_chemical_formula_sum   'Rb4 H4 S4 O8'
_cell_volume   363.46228983
_cell_formula_units_Z   4
loop_
 _symmetry_equiv_pos_site_id
 _symmetry_equiv_pos_as_xyz
  1  'x, y, z'
loop_
 _atom_site_type_symbol
 _atom_site_label
 _atom_site_symmetry_multiplicity
 _atom_site_fract_x
 _atom_site_fract_y
 _atom_site_fract_z
 _atom_site_occupancy
  Rb  Rb0  1  0.24777079  0.49554158  0.67789919  1
  Rb  Rb1  1  0.75222921  0.50445842  0.32210081  1
  Rb  Rb2  1  0.35045847  0.70091694  0.08203100  1
  Rb  Rb3  1  0.64954153  0.29908306  0.91796900  1
  H  H4  1  0.43286071  0.86572143  0.40548803  1
  H  H5  1  0.56713929  0.13427857  0.59451197  1
  H  H6  1  0.28039029  0.56078058  0.36207338  1
  H  H7  1  0.71960971  0.43921942  0.63792662  1
  S  S8  1  0.08373891  0.16747781  0.36609367  1
  S  S9  1  0.91626109  0.83252219  0.63390633  1
  S  S10  1  0.04010100  0.08020200  0.18372856  1
  S  S11  1  0.95989900  0.91979800  0.81627144  1
  O  O12  1  0.89156467  0.19227988  0.14421122  1
  O  O13  1  0.30071521  0.19227988  0.14421122  1
  O  O14  1  0.10843533  0.80772012  0.85578878  1
  O  O15  1  0.69928479  0.80772012  0.85578878  1
  O  O16  1  0.10260481  0.20520962  0.85689561  1
  O  O17  1  0.89739519  0.79479038  0.14310439  1
  O  O18  1  0.36304051  0.72608103  0.33511313  1
  O  O19  1  0.63695949  0.27391897  0.66488687  1
