# generated using pymatgen
data_AsH6NO4
_symmetry_space_group_name_H-M   'P 1'
_cell_length_a   6.68659779
_cell_length_b   6.68659779
_cell_length_c   6.68659779
_cell_angle_alpha   116.53716221
_cell_angle_beta   106.05803702
_cell_angle_gamma   106.05803702
_symmetry_Int_Tables_number   1
_chemical_formula_structural   AsH6NO4
_chemical_formula_sum   'As2 H12 N2 O8'
_cell_volume   227.48470676
_cell_formula_units_Z   2
loop_
 _symmetry_equiv_pos_site_id
 _symmetry_equiv_pos_as_xyz
  1  'x, y, z'
loop_
 _atom_site_type_symbol
 _atom_site_label
 _atom_site_symmetry_multiplicity
 _atom_site_fract_x
 _atom_site_fract_y
 _atom_site_fract_z
 _atom_site_occupancy
  As  As0  1  0.50000000  0.75000000  0.25000000  1
  As  As1  1  -0.00000000  -0.00000000  -0.00000000  1
  H  H2  1  0.63491528  0.25598231  0.70252042  1
  H  H3  1  0.94653811  0.49401769  0.62893298  1
  H  H4  1  0.36508472  0.06760514  0.62106702  1
  H  H5  1  0.05346189  0.68239486  0.54747958  1
  H  H6  1  0.55346189  0.29747958  0.93239486  1
  H  H7  1  0.13491528  0.45252042  0.50598231  1
  H  H8  1  0.44653811  0.37893298  0.74401769  1
  H  H9  1  0.86508472  0.37106702  0.31760514  1
  H  H10  1  0.89051260  0.01551260  0.62500000  1
  H  H11  1  0.10948740  0.73448740  0.12500000  1
  H  H12  1  0.39051260  0.37500000  0.26551260  1
  H  H13  1  0.60948740  0.87500000  0.98448740  1
  N  N14  1  0.50000000  0.25000000  0.75000000  1
  N  N15  1  -0.00000000  0.50000000  0.50000000  1
  O  O16  1  0.74494559  0.03697288  0.49124891  1
  O  O17  1  0.95427603  0.71302712  0.95797271  1
  O  O18  1  0.25505441  0.74630332  0.29202729  1
  O  O19  1  0.04572397  0.00369668  0.75875109  1
  O  O20  1  0.54572397  0.50875109  0.25369668  1
  O  O21  1  0.24494559  0.24124891  0.28697288  1
  O  O22  1  0.45427603  0.70797271  0.96302712  1
  O  O23  1  0.75505441  0.04202729  0.99630332  1
