# generated using pymatgen
data_Th2FeSe5
_symmetry_space_group_name_H-M   'P 1'
_cell_length_a   6.71523223
_cell_length_b   7.57634231
_cell_length_c   8.52325830
_cell_angle_alpha   96.64430602
_cell_angle_beta   113.19961580
_cell_angle_gamma   90.00000000
_symmetry_Int_Tables_number   1
_chemical_formula_structural   Th2FeSe5
_chemical_formula_sum   'Th4 Fe2 Se10'
_cell_volume   395.40150259
_cell_formula_units_Z   2
loop_
 _symmetry_equiv_pos_site_id
 _symmetry_equiv_pos_as_xyz
  1  'x, y, z'
loop_
 _atom_site_type_symbol
 _atom_site_label
 _atom_site_symmetry_multiplicity
 _atom_site_fract_x
 _atom_site_fract_y
 _atom_site_fract_z
 _atom_site_occupancy
  Th  Th0  1  0.88957223  0.58136334  0.21395367  1
  Th  Th1  1  0.67561856  0.91863666  0.78604633  1
  Th  Th2  1  0.11042777  0.41863666  0.78604633  1
  Th  Th3  1  0.32438144  0.08136334  0.21395367  1
  Fe  Fe4  1  0.00000000  -0.00000000  0.50000000  1
  Fe  Fe5  1  0.50000000  0.50000000  0.50000000  1
  Se  Se6  1  0.08061951  0.75000000  -0.00000000  1
  Se  Se7  1  0.91938049  0.25000000  0.00000000  1
  Se  Se8  1  0.71107142  0.92990292  0.17928438  1
  Se  Se9  1  0.53178703  0.57009708  0.82071562  1
  Se  Se10  1  0.28892858  0.07009708  0.82071562  1
  Se  Se11  1  0.46821297  0.42990292  0.17928438  1
  Se  Se12  1  0.85883913  0.68849178  0.55865812  1
  Se  Se13  1  0.30018101  0.81150822  0.44134188  1
  Se  Se14  1  0.14116087  0.31150822  0.44134188  1
  Se  Se15  1  0.69981899  0.18849178  0.55865812  1
