# generated using pymatgen
data_SrBO3
_symmetry_space_group_name_H-M   'P 1'
_cell_length_a   5.80494349
_cell_length_b   6.84678731
_cell_length_c   7.05723540
_cell_angle_alpha   90.00000000
_cell_angle_beta   90.00000000
_cell_angle_gamma   90.00000000
_symmetry_Int_Tables_number   1
_chemical_formula_structural   SrBO3
_chemical_formula_sum   'Sr4 B4 O12'
_cell_volume   280.49132715
_cell_formula_units_Z   4
loop_
 _symmetry_equiv_pos_site_id
 _symmetry_equiv_pos_as_xyz
  1  'x, y, z'
loop_
 _atom_site_type_symbol
 _atom_site_label
 _atom_site_symmetry_multiplicity
 _atom_site_fract_x
 _atom_site_fract_y
 _atom_site_fract_z
 _atom_site_occupancy
  Sr  Sr0  1  0.25000000  0.15183171  0.33426088  1
  Sr  Sr1  1  0.25000000  0.34816829  0.83426088  1
  Sr  Sr2  1  0.75000000  0.84816829  0.66573912  1
  Sr  Sr3  1  0.75000000  0.65183171  0.16573912  1
  B  B4  1  0.25000000  0.71397378  0.41264566  1
  B  B5  1  0.25000000  0.78602622  0.91264566  1
  B  B6  1  0.75000000  0.28602622  0.58735434  1
  B  B7  1  0.75000000  0.21397378  0.08735434  1
  O  O8  1  0.45696343  0.80648640  0.38770148  1
  O  O9  1  0.04303657  0.69351360  0.88770148  1
  O  O10  1  0.95696343  0.19351360  0.61229852  1
  O  O11  1  0.54303657  0.30648640  0.11229852  1
  O  O12  1  0.54303657  0.19351360  0.61229852  1
  O  O13  1  0.95696343  0.30648640  0.11229852  1
  O  O14  1  0.04303657  0.80648640  0.38770148  1
  O  O15  1  0.45696343  0.69351360  0.88770148  1
  O  O16  1  0.25000000  0.51996184  0.46523680  1
  O  O17  1  0.25000000  0.98003816  0.96523680  1
  O  O18  1  0.75000000  0.48003816  0.53476320  1
  O  O19  1  0.75000000  0.01996184  0.03476320  1
