# generated using pymatgen
data_Pr2Cu2O5
_symmetry_space_group_name_H-M   'P 1'
_cell_length_a   3.88698161
_cell_length_b   5.57267736
_cell_length_c   10.34920878
_cell_angle_alpha   90.00000000
_cell_angle_beta   90.00000000
_cell_angle_gamma   90.00000000
_symmetry_Int_Tables_number   1
_chemical_formula_structural   Pr2Cu2O5
_chemical_formula_sum   'Pr4 Cu4 O10'
_cell_volume   224.17311868
_cell_formula_units_Z   2
loop_
 _symmetry_equiv_pos_site_id
 _symmetry_equiv_pos_as_xyz
  1  'x, y, z'
loop_
 _atom_site_type_symbol
 _atom_site_label
 _atom_site_symmetry_multiplicity
 _atom_site_fract_x
 _atom_site_fract_y
 _atom_site_fract_z
 _atom_site_occupancy
  Pr  Pr0  1  0.50000000  0.82164918  0.14152892  1
  Pr  Pr1  1  0.50000000  0.17835082  0.85847108  1
  Pr  Pr2  1  0.50000000  0.32164918  0.35847108  1
  Pr  Pr3  1  0.50000000  0.67835082  0.64152892  1
  Cu  Cu4  1  0.00000000  0.79880102  0.39863501  1
  Cu  Cu5  1  -0.00000000  0.20119898  0.60136499  1
  Cu  Cu6  1  -0.00000000  0.29880102  0.10136499  1
  Cu  Cu7  1  -0.00000000  0.70119898  0.89863501  1
  O  O8  1  0.50000000  0.77415006  0.39601597  1
  O  O9  1  0.50000000  0.22584994  0.60398403  1
  O  O10  1  0.50000000  0.27415006  0.10398403  1
  O  O11  1  0.50000000  0.72584994  0.89601597  1
  O  O12  1  0.00000000  0.08058316  0.29120178  1
  O  O13  1  -0.00000000  0.91941684  0.70879822  1
  O  O14  1  -0.00000000  0.58058316  0.20879822  1
  O  O15  1  0.00000000  0.41941684  0.79120178  1
  O  O16  1  0.00000000  0.50000000  0.50000000  1
  O  O17  1  0.00000000  -0.00000000  0.00000000  1
