# generated using pymatgen
data_CrBiO5
_symmetry_space_group_name_H-M   'P 1'
_cell_length_a   5.90814449
_cell_length_b   9.03393890
_cell_length_c   11.08404212
_cell_angle_alpha   90.00000000
_cell_angle_beta   90.00000000
_cell_angle_gamma   109.63435666
_symmetry_Int_Tables_number   1
_chemical_formula_structural   CrBiO5
_chemical_formula_sum   'Cr4 Bi4 O20'
_cell_volume   557.19985493
_cell_formula_units_Z   4
loop_
 _symmetry_equiv_pos_site_id
 _symmetry_equiv_pos_as_xyz
  1  'x, y, z'
loop_
 _atom_site_type_symbol
 _atom_site_label
 _atom_site_symmetry_multiplicity
 _atom_site_fract_x
 _atom_site_fract_y
 _atom_site_fract_z
 _atom_site_occupancy
  Cr  Cr0  1  0.78429192  0.94531507  0.65014560  1
  Cr  Cr1  1  0.21570808  0.05468493  0.34985440  1
  Cr  Cr2  1  0.71570808  0.55468493  0.15014560  1
  Cr  Cr3  1  0.28429192  0.44531507  0.84985440  1
  Bi  Bi4  1  0.17358575  0.17303913  0.08934695  1
  Bi  Bi5  1  0.82641425  0.82696087  0.91065305  1
  Bi  Bi6  1  0.67358575  0.67303913  0.41065305  1
  Bi  Bi7  1  0.32641425  0.32696087  0.58934695  1
  O  O8  1  0.55013785  0.37823646  0.09657584  1
  O  O9  1  0.09140894  0.34004204  0.95677548  1
  O  O10  1  0.54116140  0.65275874  0.20151642  1
  O  O11  1  0.67618790  0.50776385  0.55121810  1
  O  O12  1  0.86510287  0.53756982  0.27319891  1
  O  O13  1  0.36510287  0.03756982  0.22680109  1
  O  O14  1  0.59140794  0.84004204  0.54322452  1
  O  O15  1  0.40859206  0.15995796  0.45677548  1
  O  O16  1  0.32381210  0.49223615  0.44878190  1
  O  O17  1  0.94986215  0.12176354  0.59657584  1
  O  O18  1  0.13489713  0.46243018  0.72680109  1
  O  O19  1  0.44986215  0.62176354  0.90342416  1
  O  O20  1  0.05013785  0.87823646  0.40342416  1
  O  O21  1  0.63489713  0.96243018  0.77319891  1
  O  O22  1  0.82381210  0.99223615  0.05121810  1
  O  O23  1  0.17618790  0.00776385  0.94878190  1
  O  O24  1  0.45883860  0.34724126  0.79848358  1
  O  O25  1  0.90859206  0.65995796  0.04322452  1
  O  O26  1  0.95883860  0.84724126  0.70151642  1
  O  O27  1  0.04116140  0.15275874  0.29848358  1
