# generated using pymatgen
data_Cr5Si3B
_symmetry_space_group_name_H-M   'P 1'
_cell_length_a   4.70745829
_cell_length_b   7.02091411
_cell_length_c   7.02039507
_cell_angle_alpha   120.00244687
_cell_angle_beta   90.00000000
_cell_angle_gamma   90.00000000
_symmetry_Int_Tables_number   1
_chemical_formula_structural   Cr5Si3B
_chemical_formula_sum   'Cr10 Si6 B2'
_cell_volume   200.93778763
_cell_formula_units_Z   2
loop_
 _symmetry_equiv_pos_site_id
 _symmetry_equiv_pos_as_xyz
  1  'x, y, z'
loop_
 _atom_site_type_symbol
 _atom_site_label
 _atom_site_symmetry_multiplicity
 _atom_site_fract_x
 _atom_site_fract_y
 _atom_site_fract_z
 _atom_site_occupancy
  Cr  Cr0  1  0.49999781  0.33333049  0.66666127  1
  Cr  Cr1  1  0.49999781  0.66666922  0.33333873  1
  Cr  Cr2  1  0.99999781  0.66666951  0.33333873  1
  Cr  Cr3  1  0.99999781  0.33333078  0.66666127  1
  Cr  Cr4  1  0.75000118  0.24576249  0.00000000  1
  Cr  Cr5  1  0.75000051  0.75457441  0.75446013  1
  Cr  Cr6  1  0.75000051  0.00011428  0.24553987  1
  Cr  Cr7  1  0.25000118  0.75423751  1.00000000  1
  Cr  Cr8  1  0.25000051  0.24542559  0.24553987  1
  Cr  Cr9  1  0.25000051  0.99988572  0.75446013  1
  Si  Si10  1  0.74999689  0.59928051  0.00000000  1
  Si  Si11  1  0.75000200  0.40105652  0.40106247  1
  Si  Si12  1  0.75000200  -0.00000595  0.59893753  1
  Si  Si13  1  0.24999689  0.40071949  1.00000000  1
  Si  Si14  1  0.25000200  0.59894348  0.59893753  1
  Si  Si15  1  0.25000200  0.00000595  0.40106247  1
  B  B16  1  0.50000130  0.00000182  0.00000000  1
  B  B17  1  0.00000130  0.99999818  -0.00000000  1
