# generated using pymatgen
data_TbMoC2
_symmetry_space_group_name_H-M   'P 1'
_cell_length_a   3.41601142
_cell_length_b   5.71835401
_cell_length_c   10.81560722
_cell_angle_alpha   90.00000000
_cell_angle_beta   90.00000000
_cell_angle_gamma   90.00000000
_symmetry_Int_Tables_number   1
_chemical_formula_structural   TbMoC2
_chemical_formula_sum   'Tb4 Mo4 C8'
_cell_volume   211.27166695
_cell_formula_units_Z   4
loop_
 _symmetry_equiv_pos_site_id
 _symmetry_equiv_pos_as_xyz
  1  'x, y, z'
loop_
 _atom_site_type_symbol
 _atom_site_label
 _atom_site_symmetry_multiplicity
 _atom_site_fract_x
 _atom_site_fract_y
 _atom_site_fract_z
 _atom_site_occupancy
  Tb  Tb0  1  0.75000000  0.41447423  0.63742149  1
  Tb  Tb1  1  0.75000000  0.91447423  0.86257851  1
  Tb  Tb2  1  0.25000000  0.58552577  0.36257851  1
  Tb  Tb3  1  0.25000000  0.08552577  0.13742149  1
  Mo  Mo4  1  0.75000000  0.09645954  0.39074376  1
  Mo  Mo5  1  0.75000000  0.59645954  0.10925624  1
  Mo  Mo6  1  0.25000000  0.90354046  0.60925624  1
  Mo  Mo7  1  0.25000000  0.40354046  0.89074376  1
  C  C8  1  0.75000000  0.34059950  0.25285919  1
  C  C9  1  0.75000000  0.84059950  0.24714081  1
  C  C10  1  0.25000000  0.65940050  0.74714081  1
  C  C11  1  0.25000000  0.15940050  0.75285919  1
  C  C12  1  0.75000000  0.77886678  0.51668943  1
  C  C13  1  0.75000000  0.27886678  0.98331057  1
  C  C14  1  0.25000000  0.22113322  0.48331057  1
  C  C15  1  0.25000000  0.72113322  0.01668943  1
