# generated using pymatgen
data_Mg7NbH16
_symmetry_space_group_name_H-M   'P 1'
_cell_length_a   6.62905331
_cell_length_b   6.62905331
_cell_length_c   6.62905331
_cell_angle_alpha   60.00000000
_cell_angle_beta   60.00000000
_cell_angle_gamma   60.00000000
_symmetry_Int_Tables_number   1
_chemical_formula_structural   Mg7NbH16
_chemical_formula_sum   'Mg7 Nb1 H16'
_cell_volume   205.98686946
_cell_formula_units_Z   1
loop_
 _symmetry_equiv_pos_site_id
 _symmetry_equiv_pos_as_xyz
  1  'x, y, z'
loop_
 _atom_site_type_symbol
 _atom_site_label
 _atom_site_symmetry_multiplicity
 _atom_site_fract_x
 _atom_site_fract_y
 _atom_site_fract_z
 _atom_site_occupancy
  Mg  Mg0  1  0.50000000  0.00000000  0.00000000  1
  Mg  Mg1  1  0.50000000  0.00000000  0.50000000  1
  Mg  Mg2  1  0.50000000  0.50000000  0.00000000  1
  Mg  Mg3  1  0.00000000  0.50000000  0.50000000  1
  Mg  Mg4  1  0.00000000  0.50000000  0.00000000  1
  Mg  Mg5  1  0.00000000  0.00000000  0.50000000  1
  Mg  Mg6  1  0.50000000  0.50000000  0.50000000  1
  Nb  Nb7  1  0.00000000  0.00000000  0.00000000  1
  H  H8  1  0.63980377  0.12006541  0.12006541  1
  H  H9  1  0.12006541  0.63980377  0.12006541  1
  H  H10  1  0.12006541  0.12006541  0.63980377  1
  H  H11  1  0.12006541  0.12006541  0.12006541  1
  H  H12  1  0.36019623  0.87993459  0.87993459  1
  H  H13  1  0.87993459  0.36019623  0.87993459  1
  H  H14  1  0.87993459  0.87993459  0.36019623  1
  H  H15  1  0.87993459  0.87993459  0.87993459  1
  H  H16  1  0.88260899  0.37246367  0.37246367  1
  H  H17  1  0.37246367  0.88260899  0.37246367  1
  H  H18  1  0.37246367  0.37246367  0.88260899  1
  H  H19  1  0.37246367  0.37246367  0.37246367  1
  H  H20  1  0.11739101  0.62753633  0.62753633  1
  H  H21  1  0.62753633  0.11739101  0.62753633  1
  H  H22  1  0.62753633  0.62753633  0.11739101  1
  H  H23  1  0.62753633  0.62753633  0.62753633  1
