# generated using pymatgen
data_Ce3AlZnS7
_symmetry_space_group_name_H-M   'P 1'
_cell_length_a   6.22702309
_cell_length_b   10.07698740
_cell_length_c   10.11547435
_cell_angle_alpha   119.92190811
_cell_angle_beta   90.00000000
_cell_angle_gamma   90.00000000
_symmetry_Int_Tables_number   1
_chemical_formula_structural   Ce3AlZnS7
_chemical_formula_sum   'Ce6 Al2 Zn2 S14'
_cell_volume   550.13501511
_cell_formula_units_Z   2
loop_
 _symmetry_equiv_pos_site_id
 _symmetry_equiv_pos_as_xyz
  1  'x, y, z'
loop_
 _atom_site_type_symbol
 _atom_site_label
 _atom_site_symmetry_multiplicity
 _atom_site_fract_x
 _atom_site_fract_y
 _atom_site_fract_z
 _atom_site_occupancy
  Ce  Ce0  1  0.25959634  0.23273357  0.37437990  1
  Ce  Ce1  1  0.25990879  0.62521581  0.85826603  1
  Ce  Ce2  1  0.25925109  0.14207555  0.76717659  1
  Ce  Ce3  1  0.75959634  0.76726643  0.62562010  1
  Ce  Ce4  1  0.75990879  0.37478419  0.14173397  1
  Ce  Ce5  1  0.75925109  0.85792445  0.23282341  1
  Al  Al6  1  0.83740081  0.33322271  0.66667771  1
  Al  Al7  1  0.33740081  0.66677729  0.33332229  1
  Zn  Zn8  1  0.49099890  0.99945237  0.99940226  1
  Zn  Zn9  1  0.99099890  0.00054763  0.00059774  1
  S  S10  1  0.69896593  0.14416941  0.23681535  1
  S  S11  1  0.69904210  0.76307255  0.90724812  1
  S  S12  1  0.70022868  0.09162656  0.85470673  1
  S  S13  1  0.19896593  0.85583059  0.76318465  1
  S  S14  1  0.19904210  0.23692745  0.09275188  1
  S  S15  1  0.20022868  0.90837344  0.14529327  1
  S  S16  1  0.98583310  0.10053676  0.51977373  1
  S  S17  1  0.98697429  0.47949087  0.57864135  1
  S  S18  1  0.98647686  0.42041759  0.90088557  1
  S  S19  1  0.48583310  0.89946324  0.48022627  1
  S  S20  1  0.48697429  0.52050913  0.42135865  1
  S  S21  1  0.48647686  0.57958241  0.09911443  1
  S  S22  1  0.47132309  0.33322044  0.66665266  1
  S  S23  1  0.97132309  0.66677956  0.33334734  1
