# generated using pymatgen
data_B10Pb4Cl2O19
_symmetry_space_group_name_H-M   'P 1'
_cell_length_a   6.62874203
_cell_length_b   11.52738640
_cell_length_c   11.68105433
_cell_angle_alpha   90.00000000
_cell_angle_beta   90.00000000
_cell_angle_gamma   90.00000000
_symmetry_Int_Tables_number   1
_chemical_formula_structural   B10Pb4Cl2O19
_chemical_formula_sum   'B20 Pb8 Cl4 O38'
_cell_volume   892.57354962
_cell_formula_units_Z   2
loop_
 _symmetry_equiv_pos_site_id
 _symmetry_equiv_pos_as_xyz
  1  'x, y, z'
loop_
 _atom_site_type_symbol
 _atom_site_label
 _atom_site_symmetry_multiplicity
 _atom_site_fract_x
 _atom_site_fract_y
 _atom_site_fract_z
 _atom_site_occupancy
  B  B0  1  0.14643436  0.31573770  0.76690465  1
  B  B1  1  0.14643436  0.68426230  0.23309535  1
  B  B2  1  0.64643436  0.18426230  0.26690465  1
  B  B3  1  0.64643436  0.81573770  0.73309535  1
  B  B4  1  0.03407934  0.23580488  0.95775382  1
  B  B5  1  0.03407934  0.76419512  0.04224618  1
  B  B6  1  0.53407934  0.26419512  0.45775382  1
  B  B7  1  0.53407934  0.73580488  0.54224618  1
  B  B8  1  0.37082825  0.48898103  0.74428348  1
  B  B9  1  0.37082825  0.51101897  0.25571652  1
  B  B10  1  0.87082825  0.01101897  0.24428348  1
  B  B11  1  0.87082825  0.98898103  0.75571652  1
  B  B12  1  0.99701810  0.20907375  0.18039619  1
  B  B13  1  0.99701810  0.79092625  0.81960381  1
  B  B14  1  0.49701810  0.29092625  0.68039619  1
  B  B15  1  0.49701810  0.70907375  0.31960381  1
  B  B16  1  0.81378772  0.21253927  0.78875229  1
  B  B17  1  0.81378772  0.78746073  0.21124771  1
  B  B18  1  0.31378772  0.28746073  0.28875229  1
  B  B19  1  0.31378772  0.71253927  0.71124771  1
  Pb  Pb20  1  0.84925782  0.53743015  0.73738632  1
  Pb  Pb21  1  0.84925782  0.46256985  0.26261368  1
  Pb  Pb22  1  0.34925782  0.96256985  0.23738632  1
  Pb  Pb23  1  0.34925782  0.03743015  0.76261368  1
  Pb  Pb24  1  0.00364389  0.23024464  0.52333605  1
  Pb  Pb25  1  0.00364389  0.76975536  0.47666395  1
  Pb  Pb26  1  0.50364389  0.26975536  0.02333605  1
  Pb  Pb27  1  0.50364389  0.73024464  0.97666395  1
  Cl  Cl28  1  0.24133996  0.00000000  0.50000000  1
  Cl  Cl29  1  0.74133996  0.50000000  0.00000000  1
  Cl  Cl30  1  0.96795161  0.50000000  0.50000000  1
  Cl  Cl31  1  0.46795161  0.00000000  -0.00000000  1
  O  O32  1  0.18601981  0.44350817  0.77436674  1
  O  O33  1  0.18601981  0.55649183  0.22563326  1
  O  O34  1  0.68601981  0.05649183  0.27436674  1
  O  O35  1  0.68601981  0.94350817  0.72563326  1
  O  O36  1  0.18711190  0.26136411  0.87998168  1
  O  O37  1  0.18711190  0.73863589  0.12001832  1
  O  O38  1  0.68711190  0.23863589  0.37998168  1
  O  O39  1  0.68711190  0.76136411  0.62001832  1
  O  O40  1  0.93162078  0.30771173  0.73517098  1
  O  O41  1  0.93162078  0.69228827  0.26482902  1
  O  O42  1  0.43162078  0.19228827  0.23517098  1
  O  O43  1  0.43162078  0.80771173  0.76482902  1
  O  O44  1  0.84274217  0.21440300  0.91705718  1
  O  O45  1  0.84274217  0.78559700  0.08294282  1
  O  O46  1  0.34274217  0.28559700  0.41705718  1
  O  O47  1  0.34274217  0.71440300  0.58294282  1
  O  O48  1  0.52323202  0.41797600  0.70611294  1
  O  O49  1  0.52323202  0.58202400  0.29388706  1
  O  O50  1  0.02323202  0.08202400  0.20611294  1
  O  O51  1  0.02323202  0.91797600  0.79388706  1
  O  O52  1  0.27831355  0.26287240  0.67963829  1
  O  O53  1  0.27831355  0.73712760  0.32036171  1
  O  O54  1  0.77831355  0.23712760  0.17963829  1
  O  O55  1  0.77831355  0.76287240  0.82036171  1
  O  O56  1  0.09724320  0.28023214  0.26935264  1
  O  O57  1  0.09724320  0.71976786  0.73064736  1
  O  O58  1  0.59724320  0.21976786  0.76935264  1
  O  O59  1  0.59724320  0.78023214  0.23064736  1
  O  O60  1  0.91215225  0.10472506  0.74289330  1
  O  O61  1  0.91215225  0.89527494  0.25710670  1
  O  O62  1  0.41215225  0.39527494  0.24289330  1
  O  O63  1  0.41215225  0.60472506  0.75710670  1
  O  O64  1  0.09276218  0.23370895  0.06930255  1
  O  O65  1  0.09276218  0.76629105  0.93069745  1
  O  O66  1  0.59276218  0.26629105  0.56930255  1
  O  O67  1  0.59276218  0.73370895  0.43069745  1
  O  O68  1  0.37501374  0.50000000  -0.00000000  1
  O  O69  1  0.87501374  0.00000000  0.50000000  1
