# generated using pymatgen
data_BiW2(Br4O)2
_symmetry_space_group_name_H-M   'P 1'
_cell_length_a   7.79877313
_cell_length_b   9.41464658
_cell_length_c   11.63909523
_cell_angle_alpha   89.41557897
_cell_angle_beta   99.70482372
_cell_angle_gamma   91.48459454
_symmetry_Int_Tables_number   1
_chemical_formula_structural   BiW2(Br4O)2
_chemical_formula_sum   'Bi2 W4 Br16 O4'
_cell_volume   842.04664496
_cell_formula_units_Z   2
loop_
 _symmetry_equiv_pos_site_id
 _symmetry_equiv_pos_as_xyz
  1  'x, y, z'
loop_
 _atom_site_type_symbol
 _atom_site_label
 _atom_site_symmetry_multiplicity
 _atom_site_fract_x
 _atom_site_fract_y
 _atom_site_fract_z
 _atom_site_occupancy
  Bi  Bi0  1  0.62642213  0.66542474  0.41427492  1
  Bi  Bi1  1  0.37357787  0.33457526  0.58572508  1
  W  W2  1  0.71639219  0.11489564  0.85398483  1
  W  W3  1  0.28360781  0.88510436  0.14601517  1
  W  W4  1  0.78369434  0.89514429  0.14523940  1
  W  W5  1  0.21630566  0.10485571  0.85476060  1
  Br  Br6  1  0.70884538  0.37874409  0.80756011  1
  Br  Br7  1  0.29115462  0.62125591  0.19243989  1
  Br  Br8  1  0.65333111  0.04879648  0.63980011  1
  Br  Br9  1  0.34666889  0.95120352  0.36019989  1
  Br  Br10  1  0.77885814  0.16951623  0.08256714  1
  Br  Br11  1  0.22114186  0.83048377  0.91743286  1
  Br  Br12  1  0.72686072  0.83453062  0.91993539  1
  Br  Br13  1  0.27313928  0.16546938  0.08006461  1
  Br  Br14  1  0.82700345  0.96294420  0.35845708  1
  Br  Br15  1  0.17299655  0.03705580  0.64154292  1
  Br  Br16  1  0.79027326  0.62452663  0.20506431  1
  Br  Br17  1  0.20972674  0.37547337  0.79493569  1
  Br  Br18  1  0.59752076  0.36942646  0.40453292  1
  Br  Br19  1  0.40247924  0.63057354  0.59546708  1
  Br  Br20  1  0.89847627  0.65898174  0.58191174  1
  Br  Br21  1  0.10152373  0.34101826  0.41808826  1
  O  O22  1  0.47640700  0.10652551  0.86219282  1
  O  O23  1  0.52359300  0.89347449  0.13780718  1
  O  O24  1  0.04037431  0.89234952  0.14206040  1
  O  O25  1  0.95962569  0.10765048  0.85793960  1
