# generated using pymatgen
data_Bi3(B3O7)2
_symmetry_space_group_name_H-M   'P 1'
_cell_length_a   6.71687382
_cell_length_b   6.67876480
_cell_length_c   6.63745688
_cell_angle_alpha   89.39518743
_cell_angle_beta   89.27273256
_cell_angle_gamma   119.88930764
_symmetry_Int_Tables_number   1
_chemical_formula_structural   Bi3(B3O7)2
_chemical_formula_sum   'Bi3 B6 O14'
_cell_volume   258.08435678
_cell_formula_units_Z   1
loop_
 _symmetry_equiv_pos_site_id
 _symmetry_equiv_pos_as_xyz
  1  'x, y, z'
loop_
 _atom_site_type_symbol
 _atom_site_label
 _atom_site_symmetry_multiplicity
 _atom_site_fract_x
 _atom_site_fract_y
 _atom_site_fract_z
 _atom_site_occupancy
  Bi  Bi0  1  0.36761334  0.07071573  0.56134331  1
  Bi  Bi1  1  0.84237908  0.72357895  0.23937858  1
  Bi  Bi2  1  0.95659669  0.25076096  0.82870888  1
  B  B3  1  0.34794561  0.99781381  0.98471885  1
  B  B4  1  0.98341513  0.26256995  0.36853339  1
  B  B5  1  0.78867150  0.64671429  0.69535135  1
  B  B6  1  0.27045999  0.63391931  0.17402868  1
  B  B7  1  0.48881252  0.75195543  0.83506716  1
  B  B8  1  0.40425638  0.55167267  0.50113485  1
  O  O9  1  0.25902791  0.10567673  0.87662943  1
  O  O10  1  0.93941392  0.08693232  0.22166212  1
  O  O11  1  0.97618163  0.80388875  0.55128208  1
  O  O12  1  0.53402235  0.99051956  0.89081691  1
  O  O13  1  0.58930543  0.50140584  0.55570397  1
  O  O14  1  0.04228389  0.47612313  0.25346158  1
  O  O15  1  0.79340580  0.19703918  0.51242398  1
  O  O16  1  0.84577622  0.51055336  0.82550433  1
  O  O17  1  0.26258660  0.87267909  0.16397476  1
  O  O18  1  0.19043654  0.31747609  0.50693753  1
  O  O19  1  0.71749308  0.77530650  0.83497608  1
  O  O20  1  0.38847750  0.71237218  0.63659652  1
  O  O21  1  0.45296382  0.65314037  0.29911959  1
  O  O22  1  0.31015507  0.58088579  0.97154608  1
