# generated using pymatgen
data_Zr2Co
_symmetry_space_group_name_H-M   'P 1'
_cell_length_a   8.66179532
_cell_length_b   8.66179532
_cell_length_c   8.66179532
_cell_angle_alpha   60.00000000
_cell_angle_beta   60.00000000
_cell_angle_gamma   60.00000000
_symmetry_Int_Tables_number   1
_chemical_formula_structural   Zr2Co
_chemical_formula_sum   'Zr16 Co8'
_cell_volume   459.52458735
_cell_formula_units_Z   8
loop_
 _symmetry_equiv_pos_site_id
 _symmetry_equiv_pos_as_xyz
  1  'x, y, z'
loop_
 _atom_site_type_symbol
 _atom_site_label
 _atom_site_symmetry_multiplicity
 _atom_site_fract_x
 _atom_site_fract_y
 _atom_site_fract_z
 _atom_site_occupancy
  Zr  Zr0  1  -0.00000000  -0.00000000  0.50000000  1
  Zr  Zr1  1  -0.00000000  0.50000000  -0.00000000  1
  Zr  Zr2  1  0.50000000  -0.00000000  -0.00000000  1
  Zr  Zr3  1  -0.00000000  -0.00000000  -0.00000000  1
  Zr  Zr4  1  0.43720839  0.81279161  0.81279161  1
  Zr  Zr5  1  0.81279161  0.43720839  0.43720839  1
  Zr  Zr6  1  0.81279161  0.43720839  0.81279161  1
  Zr  Zr7  1  0.43720839  0.81279161  0.43720839  1
  Zr  Zr8  1  0.81279161  0.81279161  0.43720839  1
  Zr  Zr9  1  0.43720839  0.43720839  0.81279161  1
  Zr  Zr10  1  0.56279161  0.18720839  0.18720839  1
  Zr  Zr11  1  0.18720839  0.56279161  0.56279161  1
  Zr  Zr12  1  0.18720839  0.56279161  0.18720839  1
  Zr  Zr13  1  0.56279161  0.18720839  0.56279161  1
  Zr  Zr14  1  0.18720839  0.18720839  0.56279161  1
  Zr  Zr15  1  0.56279161  0.56279161  0.18720839  1
  Co  Co16  1  0.22257529  0.22257529  0.83227414  1
  Co  Co17  1  0.22257529  0.83227414  0.22257529  1
  Co  Co18  1  0.83227414  0.22257529  0.22257529  1
  Co  Co19  1  0.22257529  0.22257529  0.22257529  1
  Co  Co20  1  0.77742471  0.77742471  0.16772586  1
  Co  Co21  1  0.77742471  0.16772586  0.77742471  1
  Co  Co22  1  0.16772586  0.77742471  0.77742471  1
  Co  Co23  1  0.77742471  0.77742471  0.77742471  1
