# generated using pymatgen
data_CaBiWO5
_symmetry_space_group_name_H-M   'P 1'
_cell_length_a   5.82186572
_cell_length_b   8.70794825
_cell_length_c   12.10962406
_cell_angle_alpha   90.00000000
_cell_angle_beta   90.00000000
_cell_angle_gamma   108.01963271
_symmetry_Int_Tables_number   1
_chemical_formula_structural   CaBiWO5
_chemical_formula_sum   'Ca4 Bi4 W4 O20'
_cell_volume   583.80341287
_cell_formula_units_Z   4
loop_
 _symmetry_equiv_pos_site_id
 _symmetry_equiv_pos_as_xyz
  1  'x, y, z'
loop_
 _atom_site_type_symbol
 _atom_site_label
 _atom_site_symmetry_multiplicity
 _atom_site_fract_x
 _atom_site_fract_y
 _atom_site_fract_z
 _atom_site_occupancy
  Ca  Ca0  1  0.62000075  0.18441816  0.91488053  1
  Ca  Ca1  1  0.37999925  0.81558184  0.08511947  1
  Ca  Ca2  1  0.87999925  0.31558184  0.41488053  1
  Ca  Ca3  1  0.12000075  0.68441816  0.58511947  1
  Bi  Bi4  1  0.10840079  0.14293441  0.10183812  1
  Bi  Bi5  1  0.89159921  0.85706559  0.89816188  1
  Bi  Bi6  1  0.60840079  0.64293441  0.39816188  1
  Bi  Bi7  1  0.39159921  0.35706559  0.60183812  1
  W  W8  1  0.78747793  0.97788206  0.63926753  1
  W  W9  1  0.21252207  0.02211794  0.36073247  1
  W  W10  1  0.71252207  0.52211794  0.13926753  1
  W  W11  1  0.28747793  0.47788206  0.86073247  1
  O  O12  1  0.54402505  0.32827710  0.07162847  1
  O  O13  1  0.03081960  0.33728847  0.93271873  1
  O  O14  1  0.50298323  0.63545863  0.19490174  1
  O  O15  1  0.73965587  0.51226044  0.52950238  1
  O  O16  1  0.77741694  0.48915426  0.29313611  1
  O  O17  1  0.27741694  0.98915426  0.20686389  1
  O  O18  1  0.53081960  0.83728847  0.56728127  1
  O  O19  1  0.46918040  0.16271153  0.43271873  1
  O  O20  1  0.26034413  0.48773956  0.47049762  1
  O  O21  1  0.95597495  0.17172290  0.57162847  1
  O  O22  1  0.22258306  0.51084574  0.70686389  1
  O  O23  1  0.45597495  0.67172290  0.92837153  1
  O  O24  1  0.04402505  0.82827710  0.42837153  1
  O  O25  1  0.72258306  0.01084574  0.79313611  1
  O  O26  1  0.76034413  0.98773956  0.02950238  1
  O  O27  1  0.23965587  0.01226044  0.97049762  1
  O  O28  1  0.49701677  0.36454137  0.80509826  1
  O  O29  1  0.96918040  0.66271153  0.06728127  1
  O  O30  1  0.99701677  0.86454137  0.69490174  1
  O  O31  1  0.00298323  0.13545863  0.30509826  1
