# generated using pymatgen
data_Dy3AlFeS7
_symmetry_space_group_name_H-M   'P 1'
_cell_length_a   6.01903477
_cell_length_b   9.57158611
_cell_length_c   9.56296345
_cell_angle_alpha   120.01860863
_cell_angle_beta   90.00000000
_cell_angle_gamma   90.00000000
_symmetry_Int_Tables_number   1
_chemical_formula_structural   Dy3AlFeS7
_chemical_formula_sum   'Dy6 Al2 Fe2 S14'
_cell_volume   477.03739467
_cell_formula_units_Z   2
loop_
 _symmetry_equiv_pos_site_id
 _symmetry_equiv_pos_as_xyz
  1  'x, y, z'
loop_
 _atom_site_type_symbol
 _atom_site_label
 _atom_site_symmetry_multiplicity
 _atom_site_fract_x
 _atom_site_fract_y
 _atom_site_fract_z
 _atom_site_occupancy
  Dy  Dy0  1  0.26644466  0.22800550  0.37189952  1
  Dy  Dy1  1  0.26668799  0.62834652  0.85581561  1
  Dy  Dy2  1  0.26640428  0.14494977  0.77284830  1
  Dy  Dy3  1  0.76644466  0.77199450  0.62810048  1
  Dy  Dy4  1  0.76668799  0.37165348  0.14418439  1
  Dy  Dy5  1  0.76640428  0.85505023  0.22715170  1
  Al  Al6  1  0.83705943  0.33353738  0.66661497  1
  Al  Al7  1  0.33705943  0.66646262  0.33338503  1
  Fe  Fe8  1  0.45158163  0.99909307  0.99937474  1
  Fe  Fe9  1  0.95158163  0.00090693  0.00062526  1
  S  S10  1  0.69430794  0.13220825  0.22039941  1
  S  S11  1  0.69491635  0.77527925  0.91024346  1
  S  S12  1  0.69405928  0.08764598  0.86642624  1
  S  S13  1  0.19430794  0.86779175  0.77960059  1
  S  S14  1  0.19491635  0.22472075  0.08975654  1
  S  S15  1  0.19405928  0.91235402  0.13357376  1
  S  S16  1  0.99259719  0.09073624  0.51444920  1
  S  S17  1  0.99290950  0.48518191  0.57549035  1
  S  S18  1  0.99242465  0.42373720  0.90903119  1
  S  S19  1  0.49259719  0.90926376  0.48555080  1
  S  S20  1  0.49290950  0.51481809  0.42450965  1
  S  S21  1  0.49242465  0.57626280  0.09096881  1
  S  S22  1  0.46760710  0.33321676  0.66645414  1
  S  S23  1  0.96760710  0.66678324  0.33354586  1
