# generated using pymatgen
data_Zr9BW4
_symmetry_space_group_name_H-M   'P 1'
_cell_length_a   8.66274818
_cell_length_b   8.66274818
_cell_length_c   8.66337136
_cell_angle_alpha   90.00000000
_cell_angle_beta   90.00000000
_cell_angle_gamma   120.00001985
_symmetry_Int_Tables_number   1
_chemical_formula_structural   Zr9BW4
_chemical_formula_sum   'Zr18 B2 W8'
_cell_volume   563.02652515
_cell_formula_units_Z   2
loop_
 _symmetry_equiv_pos_site_id
 _symmetry_equiv_pos_as_xyz
  1  'x, y, z'
loop_
 _atom_site_type_symbol
 _atom_site_label
 _atom_site_symmetry_multiplicity
 _atom_site_fract_x
 _atom_site_fract_y
 _atom_site_fract_z
 _atom_site_occupancy
  Zr  Zr0  1  0.79706476  0.59413117  0.55496727  1
  Zr  Zr1  1  0.79706646  0.20293354  0.55495881  1
  Zr  Zr2  1  0.40586883  0.20293524  0.55496727  1
  Zr  Zr3  1  0.20293524  0.40586883  0.44503273  1
  Zr  Zr4  1  0.20293354  0.79706646  0.44504119  1
  Zr  Zr5  1  0.59413117  0.79706476  0.44503273  1
  Zr  Zr6  1  0.20293524  0.40586883  0.05496727  1
  Zr  Zr7  1  0.20293354  0.79706646  0.05495881  1
  Zr  Zr8  1  0.59413117  0.79706476  0.05496727  1
  Zr  Zr9  1  0.79706476  0.59413117  0.94503273  1
  Zr  Zr10  1  0.79706646  0.20293354  0.94504119  1
  Zr  Zr11  1  0.40586883  0.20293524  0.94503273  1
  Zr  Zr12  1  0.46213277  0.92426368  0.75000000  1
  Zr  Zr13  1  0.46211630  0.53788370  0.75000000  1
  Zr  Zr14  1  0.07573632  0.53786723  0.75000000  1
  Zr  Zr15  1  0.53786723  0.07573632  0.25000000  1
  Zr  Zr16  1  0.53788370  0.46211630  0.25000000  1
  Zr  Zr17  1  0.92426368  0.46213277  0.25000000  1
  B  B18  1  0.66668384  0.33331616  0.75000000  1
  B  B19  1  0.33331616  0.66668384  0.25000000  1
  W  W20  1  0.10938648  0.21877438  0.75000000  1
  W  W21  1  0.10937987  0.89062013  0.75000000  1
  W  W22  1  0.78122562  0.89061352  0.75000000  1
  W  W23  1  0.89061352  0.78122562  0.25000000  1
  W  W24  1  0.89062013  0.10937987  0.25000000  1
  W  W25  1  0.21877438  0.10938648  0.25000000  1
  W  W26  1  0.00000000  0.00000000  0.50000000  1
  W  W27  1  0.00000000  0.00000000  -0.00000000  1
