# generated using pymatgen
data_TbCO4
_symmetry_space_group_name_H-M   'P 1'
_cell_length_a   4.89401079
_cell_length_b   7.16941589
_cell_length_c   8.77824430
_cell_angle_alpha   90.00000000
_cell_angle_beta   90.00000000
_cell_angle_gamma   90.00000000
_symmetry_Int_Tables_number   1
_chemical_formula_structural   TbCO4
_chemical_formula_sum   'Tb4 C4 O16'
_cell_volume   308.00400220
_cell_formula_units_Z   4
loop_
 _symmetry_equiv_pos_site_id
 _symmetry_equiv_pos_as_xyz
  1  'x, y, z'
loop_
 _atom_site_type_symbol
 _atom_site_label
 _atom_site_symmetry_multiplicity
 _atom_site_fract_x
 _atom_site_fract_y
 _atom_site_fract_z
 _atom_site_occupancy
  Tb  Tb0  1  0.27800271  0.12814368  0.59003077  1
  Tb  Tb1  1  0.72199729  0.37185632  0.09003077  1
  Tb  Tb2  1  0.22199729  0.62814368  0.40996923  1
  Tb  Tb3  1  0.77800271  0.87185632  0.90996923  1
  C  C4  1  0.25718440  0.20154226  0.92506323  1
  C  C5  1  0.74281560  0.29845774  0.42506323  1
  C  C6  1  0.24281560  0.70154226  0.07493677  1
  C  C7  1  0.75718440  0.79845774  0.57493677  1
  O  O8  1  0.21374650  0.94200052  0.39006513  1
  O  O9  1  0.78625350  0.55799948  0.89006513  1
  O  O10  1  0.28625350  0.44200052  0.60993487  1
  O  O11  1  0.71374650  0.05799948  0.10993487  1
  O  O12  1  0.79178765  0.20052176  0.54351063  1
  O  O13  1  0.20821235  0.29947824  0.04351063  1
  O  O14  1  0.70821235  0.70052176  0.45648937  1
  O  O15  1  0.29178765  0.79947824  0.95648937  1
  O  O16  1  0.01269538  0.82598357  0.61573635  1
  O  O17  1  0.98730462  0.67401643  0.11573635  1
  O  O18  1  0.48730462  0.32598357  0.38426365  1
  O  O19  1  0.51269538  0.17401643  0.88426365  1
  O  O20  1  0.56859914  0.86700806  0.66209918  1
  O  O21  1  0.43140086  0.63299194  0.16209918  1
  O  O22  1  0.93140086  0.36700806  0.33790082  1
  O  O23  1  0.06859914  0.13299194  0.83790082  1
