# generated using pymatgen
data_Ba4B10Cl2O19
_symmetry_space_group_name_H-M   'P 1'
_cell_length_a   6.76387565
_cell_length_b   11.75117603
_cell_length_c   11.88097538
_cell_angle_alpha   90.00000000
_cell_angle_beta   90.00000000
_cell_angle_gamma   90.00000000
_symmetry_Int_Tables_number   1
_chemical_formula_structural   Ba4B10Cl2O19
_chemical_formula_sum   'Ba8 B20 Cl4 O38'
_cell_volume   944.34142830
_cell_formula_units_Z   2
loop_
 _symmetry_equiv_pos_site_id
 _symmetry_equiv_pos_as_xyz
  1  'x, y, z'
loop_
 _atom_site_type_symbol
 _atom_site_label
 _atom_site_symmetry_multiplicity
 _atom_site_fract_x
 _atom_site_fract_y
 _atom_site_fract_z
 _atom_site_occupancy
  Ba  Ba0  1  0.38019586  0.72963459  0.97929216  1
  Ba  Ba1  1  0.38019586  0.27036541  0.02070784  1
  Ba  Ba2  1  0.88019586  0.77036541  0.47929216  1
  Ba  Ba3  1  0.88019586  0.22963459  0.52070784  1
  Ba  Ba4  1  0.03264493  0.54058622  0.73978400  1
  Ba  Ba5  1  0.03264493  0.45941378  0.26021600  1
  Ba  Ba6  1  0.53264493  0.95941378  0.23978400  1
  Ba  Ba7  1  0.53264493  0.04058622  0.76021600  1
  B  B8  1  0.84787147  0.76983409  0.04388957  1
  B  B9  1  0.84787147  0.23016591  0.95611043  1
  B  B10  1  0.34787147  0.73016591  0.54388957  1
  B  B11  1  0.34787147  0.26983409  0.45611043  1
  B  B12  1  0.51098847  0.48514312  0.74600569  1
  B  B13  1  0.51098847  0.51485688  0.25399431  1
  B  B14  1  0.01098847  0.01485688  0.24600569  1
  B  B15  1  0.01098847  0.98514312  0.75399431  1
  B  B16  1  0.88034088  0.79330806  0.81999818  1
  B  B17  1  0.88034088  0.20669194  0.18000182  1
  B  B18  1  0.38034088  0.70669194  0.31999818  1
  B  B19  1  0.38034088  0.29330806  0.68000182  1
  B  B20  1  0.22604551  0.81067804  0.72985990  1
  B  B21  1  0.22604551  0.18932196  0.27014010  1
  B  B22  1  0.72604551  0.68932196  0.22985990  1
  B  B23  1  0.72604551  0.31067804  0.77014010  1
  B  B24  1  0.55968029  0.71204206  0.71284530  1
  B  B25  1  0.55968029  0.28795794  0.28715470  1
  B  B26  1  0.05968029  0.78795794  0.21284530  1
  B  B27  1  0.05968029  0.21204206  0.78715470  1
  Cl  Cl28  1  0.38331936  0.00000000  0.00000000  1
  Cl  Cl29  1  0.88331936  0.50000000  0.50000000  1
  Cl  Cl30  1  0.14422089  0.50000000  0.00000000  1
  Cl  Cl31  1  0.64422089  0.00000000  0.50000000  1
  O  O32  1  0.50681161  0.50000000  0.00000000  1
  O  O33  1  0.00681161  0.00000000  0.50000000  1
  O  O34  1  0.36110336  0.41846736  0.70252003  1
  O  O35  1  0.36110336  0.58153264  0.29747997  1
  O  O36  1  0.86110336  0.08153264  0.20252003  1
  O  O37  1  0.86110336  0.91846736  0.79747997  1
  O  O38  1  0.03377216  0.78851153  0.08618630  1
  O  O39  1  0.03377216  0.21148847  0.91381370  1
  O  O40  1  0.53377216  0.71148847  0.58618630  1
  O  O41  1  0.53377216  0.28851153  0.41381370  1
  O  O42  1  0.68406667  0.43567241  0.78314565  1
  O  O43  1  0.68406667  0.56432759  0.21685435  1
  O  O44  1  0.18406667  0.06432759  0.28314565  1
  O  O45  1  0.18406667  0.93567241  0.71685435  1
  O  O46  1  0.09240983  0.76088611  0.81517620  1
  O  O47  1  0.09240983  0.23911389  0.18482380  1
  O  O48  1  0.59240983  0.73911389  0.31517620  1
  O  O49  1  0.59240983  0.26088611  0.68482380  1
  O  O50  1  0.69293238  0.74868449  0.11969570  1
  O  O51  1  0.69293238  0.25131551  0.88030430  1
  O  O52  1  0.19293238  0.75131551  0.61969570  1
  O  O53  1  0.19293238  0.24868449  0.38030430  1
  O  O54  1  0.47411229  0.60028404  0.75839083  1
  O  O55  1  0.47411229  0.39971596  0.24160917  1
  O  O56  1  0.97411229  0.89971596  0.25839083  1
  O  O57  1  0.97411229  0.10028404  0.74160917  1
  O  O58  1  0.77060425  0.72596189  0.73402400  1
  O  O59  1  0.77060425  0.27403811  0.26597600  1
  O  O60  1  0.27060425  0.77403811  0.23402400  1
  O  O61  1  0.27060425  0.22596189  0.76597600  1
  O  O62  1  0.79405774  0.76918783  0.93274340  1
  O  O63  1  0.79405774  0.23081217  0.06725660  1
  O  O64  1  0.29405774  0.73081217  0.43274340  1
  O  O65  1  0.29405774  0.26918783  0.56725660  1
  O  O66  1  0.43574798  0.80239955  0.76272673  1
  O  O67  1  0.43574798  0.19760045  0.23727327  1
  O  O68  1  0.93574798  0.69760045  0.26272673  1
  O  O69  1  0.93574798  0.30239955  0.73727327  1
