# generated using pymatgen
data_Na2ScSiO5
_symmetry_space_group_name_H-M   'P 1'
_cell_length_a   5.37269405
_cell_length_b   12.20353886
_cell_length_c   13.72470236
_cell_angle_alpha   90.00000000
_cell_angle_beta   90.00000000
_cell_angle_gamma   90.00000000
_symmetry_Int_Tables_number   1
_chemical_formula_structural   Na2ScSiO5
_chemical_formula_sum   'Na16 Sc8 Si8 O40'
_cell_volume   899.87219651
_cell_formula_units_Z   8
loop_
 _symmetry_equiv_pos_site_id
 _symmetry_equiv_pos_as_xyz
  1  'x, y, z'
loop_
 _atom_site_type_symbol
 _atom_site_label
 _atom_site_symmetry_multiplicity
 _atom_site_fract_x
 _atom_site_fract_y
 _atom_site_fract_z
 _atom_site_occupancy
  Na  Na0  1  0.97134174  0.07030294  0.51342832  1
  Na  Na1  1  0.02865826  0.57030294  0.48657168  1
  Na  Na2  1  0.97134174  0.57030294  0.98657168  1
  Na  Na3  1  0.02865826  0.07030294  0.01342832  1
  Na  Na4  1  0.52140517  0.24962314  0.73542416  1
  Na  Na5  1  0.47859483  0.74962314  0.26457584  1
  Na  Na6  1  0.52140517  0.74962314  0.76457584  1
  Na  Na7  1  0.47859483  0.24962314  0.23542416  1
  Na  Na8  1  0.98169702  0.34286448  0.85372104  1
  Na  Na9  1  0.01830298  0.84286448  0.14627896  1
  Na  Na10  1  0.98169702  0.84286448  0.64627896  1
  Na  Na11  1  0.01830298  0.34286448  0.35372104  1
  Na  Na12  1  0.53018912  0.47912894  0.60230513  1
  Na  Na13  1  0.46981088  0.97912894  0.39769487  1
  Na  Na14  1  0.53018912  0.97912894  0.89769487  1
  Na  Na15  1  0.46981088  0.47912894  0.10230513  1
  Sc  Sc16  1  0.98508233  0.09090253  0.77808833  1
  Sc  Sc17  1  0.01491767  0.59090253  0.22191167  1
  Sc  Sc18  1  0.98508233  0.59090253  0.72191167  1
  Sc  Sc19  1  0.01491767  0.09090253  0.27808833  1
  Sc  Sc20  1  0.48975348  0.23145288  0.97075044  1
  Sc  Sc21  1  0.51024652  0.73145288  0.02924956  1
  Sc  Sc22  1  0.48975348  0.73145288  0.52924956  1
  Sc  Sc23  1  0.51024652  0.23145288  0.47075044  1
  Si  Si24  1  0.46201953  0.00294918  0.63935804  1
  Si  Si25  1  0.53798047  0.50294918  0.36064196  1
  Si  Si26  1  0.46201953  0.50294918  0.86064196  1
  Si  Si27  1  0.53798047  0.00294918  0.13935804  1
  Si  Si28  1  0.96287588  0.31937648  0.11008072  1
  Si  Si29  1  0.03712412  0.81937648  0.88991928  1
  Si  Si30  1  0.96287588  0.81937648  0.38991928  1
  Si  Si31  1  0.03712412  0.31937648  0.61008072  1
  O  O32  1  0.53904089  0.07658231  0.54412349  1
  O  O33  1  0.46095911  0.57658231  0.45587651  1
  O  O34  1  0.53904089  0.57658231  0.95587651  1
  O  O35  1  0.46095911  0.07658231  0.04412349  1
  O  O36  1  0.62180222  0.04514332  0.73582095  1
  O  O37  1  0.37819778  0.54514332  0.26417905  1
  O  O38  1  0.62180222  0.54514332  0.76417905  1
  O  O39  1  0.37819778  0.04514332  0.23582095  1
  O  O40  1  0.52904542  0.87293616  0.62265023  1
  O  O41  1  0.47095458  0.37293616  0.37734977  1
  O  O42  1  0.52904542  0.37293616  0.87734977  1
  O  O43  1  0.47095458  0.87293616  0.12265023  1
  O  O44  1  0.16184289  0.01628562  0.66166930  1
  O  O45  1  0.83815711  0.51628562  0.33833070  1
  O  O46  1  0.16184289  0.51628562  0.83833070  1
  O  O47  1  0.83815711  0.01628562  0.16166930  1
  O  O48  1  0.12806994  0.28256534  0.01267884  1
  O  O49  1  0.87193006  0.78256534  0.98732116  1
  O  O50  1  0.12806994  0.78256534  0.48732116  1
  O  O51  1  0.87193006  0.28256534  0.51267884  1
  O  O52  1  0.02015459  0.44977015  0.12787072  1
  O  O53  1  0.97984541  0.94977015  0.87212928  1
  O  O54  1  0.02015459  0.94977015  0.37212928  1
  O  O55  1  0.97984541  0.44977015  0.62787072  1
  O  O56  1  0.04281734  0.24487864  0.20433358  1
  O  O57  1  0.95718266  0.74487864  0.79566642  1
  O  O58  1  0.04281734  0.74487864  0.29566642  1
  O  O59  1  0.95718266  0.24487864  0.70433358  1
  O  O60  1  0.66317651  0.30462241  0.08828547  1
  O  O61  1  0.33682349  0.80462241  0.91171453  1
  O  O62  1  0.66317651  0.80462241  0.41171453  1
  O  O63  1  0.33682349  0.30462241  0.58828547  1
  O  O64  1  0.29731452  0.15052400  0.85444856  1
  O  O65  1  0.70268548  0.65052400  0.14555144  1
  O  O66  1  0.29731452  0.65052400  0.64555144  1
  O  O67  1  0.70268548  0.15052400  0.35444856  1
  O  O68  1  0.80186246  0.16935148  0.89691918  1
  O  O69  1  0.19813754  0.66935148  0.10308082  1
  O  O70  1  0.80186246  0.66935148  0.60308082  1
  O  O71  1  0.19813754  0.16935148  0.39691918  1
