# generated using pymatgen
data_B6Pb3O11F2
_symmetry_space_group_name_H-M   'P 1'
_cell_length_a   6.68828155
_cell_length_b   8.45516447
_cell_length_c   10.14979504
_cell_angle_alpha   90.00000000
_cell_angle_beta   103.37153590
_cell_angle_gamma   90.00000000
_symmetry_Int_Tables_number   1
_chemical_formula_structural   B6Pb3O11F2
_chemical_formula_sum   'B12 Pb6 O22 F4'
_cell_volume   558.41620837
_cell_formula_units_Z   2
loop_
 _symmetry_equiv_pos_site_id
 _symmetry_equiv_pos_as_xyz
  1  'x, y, z'
loop_
 _atom_site_type_symbol
 _atom_site_label
 _atom_site_symmetry_multiplicity
 _atom_site_fract_x
 _atom_site_fract_y
 _atom_site_fract_z
 _atom_site_occupancy
  B  B0  1  0.99954802  0.02216693  0.04870473  1
  B  B1  1  0.00045198  0.52216693  0.95129527  1
  B  B2  1  0.07536989  0.96050786  0.37985855  1
  B  B3  1  0.92463011  0.46050786  0.62014145  1
  B  B4  1  0.91660434  0.70847626  0.33131843  1
  B  B5  1  0.08339566  0.20847626  0.66868157  1
  B  B6  1  0.70938028  0.95800390  0.28954944  1
  B  B7  1  0.29061972  0.45800390  0.71045056  1
  B  B8  1  0.31767261  0.98288147  0.22665091  1
  B  B9  1  0.68232739  0.48288147  0.77334909  1
  B  B10  1  0.90429375  0.24185742  0.87198337  1
  B  B11  1  0.09570625  0.74185742  0.12801663  1
  Pb  Pb12  1  0.92991848  0.85519719  0.72775174  1
  Pb  Pb13  1  0.07008152  0.35519719  0.27224826  1
  Pb  Pb14  1  0.53813016  0.18530904  0.53721655  1
  Pb  Pb15  1  0.46186984  0.68530904  0.46278345  1
  Pb  Pb16  1  0.46595888  0.19960680  0.96631624  1
  Pb  Pb17  1  0.53404112  0.69960680  0.03368376  1
  O  O18  1  0.06481509  0.80770368  0.42669258  1
  O  O19  1  0.93518491  0.30770368  0.57330742  1
  O  O20  1  0.89244525  0.04339264  0.32870721  1
  O  O21  1  0.10755475  0.54339264  0.67129279  1
  O  O22  1  0.65271662  0.89888093  0.57799495  1
  O  O23  1  0.34728338  0.39888093  0.42200505  1
  O  O24  1  0.18759565  0.08123142  0.11896062  1
  O  O25  1  0.81240435  0.58123142  0.88103938  1
  O  O26  1  0.00062031  0.14981234  0.77836533  1
  O  O27  1  0.99937969  0.64981234  0.22163467  1
  O  O28  1  0.85725091  0.12250082  0.96916793  1
  O  O29  1  0.14274909  0.62250082  0.03083207  1
  O  O30  1  0.25632609  0.02148272  0.35897486  1
  O  O31  1  0.74367391  0.52148272  0.64102514  1
  O  O32  1  0.94796378  0.86557211  0.05898726  1
  O  O33  1  0.05203622  0.36557211  0.94101274  1
  O  O34  1  0.53152466  0.03980649  0.24661204  1
  O  O35  1  0.46847534  0.53980649  0.75338796  1
  O  O36  1  0.28096727  0.29464569  0.71608895  1
  O  O37  1  0.71903273  0.79464569  0.28391105  1
  O  O38  1  0.29453585  0.81427966  0.19490439  1
  O  O39  1  0.70546415  0.31427966  0.80509561  1
  F  F40  1  0.13447274  0.06960059  0.59767396  1
  F  F41  1  0.86552726  0.56960059  0.40232604  1
  F  F42  1  0.41185073  0.92874402  0.90234731  1
  F  F43  1  0.58814927  0.42874402  0.09765269  1
