# generated using pymatgen
data_ZnNiBiO5
_symmetry_space_group_name_H-M   'P 1'
_cell_length_a   5.36201969
_cell_length_b   8.22653892
_cell_length_c   10.45852245
_cell_angle_alpha   90.00000000
_cell_angle_beta   90.00000000
_cell_angle_gamma   107.40968400
_symmetry_Int_Tables_number   1
_chemical_formula_structural   ZnNiBiO5
_chemical_formula_sum   'Zn4 Ni4 Bi4 O20'
_cell_volume   440.20062077
_cell_formula_units_Z   4
loop_
 _symmetry_equiv_pos_site_id
 _symmetry_equiv_pos_as_xyz
  1  'x, y, z'
loop_
 _atom_site_type_symbol
 _atom_site_label
 _atom_site_symmetry_multiplicity
 _atom_site_fract_x
 _atom_site_fract_y
 _atom_site_fract_z
 _atom_site_occupancy
  Zn  Zn0  1  0.64254839  0.17284453  0.90871616  1
  Zn  Zn1  1  0.35745161  0.82715547  0.09128384  1
  Zn  Zn2  1  0.85745161  0.32715547  0.40871616  1
  Zn  Zn3  1  0.14254839  0.67284453  0.59128384  1
  Ni  Ni4  1  0.81461866  0.94311158  0.61476350  1
  Ni  Ni5  1  0.18538134  0.05688842  0.38523650  1
  Ni  Ni6  1  0.68538134  0.55688842  0.11476350  1
  Ni  Ni7  1  0.31461866  0.44311158  0.88523650  1
  Bi  Bi8  1  0.13389731  0.15730265  0.10402780  1
  Bi  Bi9  1  0.86610269  0.84269735  0.89597220  1
  Bi  Bi10  1  0.63389731  0.65730265  0.39597220  1
  Bi  Bi11  1  0.36610269  0.34269735  0.60402780  1
  O  O12  1  0.49603982  0.34231066  0.04427351  1
  O  O13  1  0.01218322  0.31844211  0.96875981  1
  O  O14  1  0.51016128  0.68954986  0.20712235  1
  O  O15  1  0.75183959  0.50507973  0.54425770  1
  O  O16  1  0.78630485  0.49336168  0.28032000  1
  O  O17  1  0.28630485  0.99336168  0.21968000  1
  O  O18  1  0.51218322  0.81844211  0.53124019  1
  O  O19  1  0.48781678  0.18155789  0.46875981  1
  O  O20  1  0.24816041  0.49492027  0.45574230  1
  O  O21  1  0.00396018  0.15768934  0.54427351  1
  O  O22  1  0.21369515  0.50663832  0.71968000  1
  O  O23  1  0.50396018  0.65768934  0.95572649  1
  O  O24  1  0.99603982  0.84231066  0.45572649  1
  O  O25  1  0.71369515  0.00663832  0.78032000  1
  O  O26  1  0.74816041  0.99492027  0.04425770  1
  O  O27  1  0.25183959  0.00507973  0.95574230  1
  O  O28  1  0.48983872  0.31045014  0.79287765  1
  O  O29  1  0.98781678  0.68155789  0.03124019  1
  O  O30  1  0.98983872  0.81045014  0.70712235  1
  O  O31  1  0.01016128  0.18954986  0.29287765  1
