# generated using pymatgen
data_Sr2GaP2(O4F)2
_symmetry_space_group_name_H-M   'P 1'
_cell_length_a   7.36818621
_cell_length_b   8.27311367
_cell_length_c   13.68754743
_cell_angle_alpha   73.46819239
_cell_angle_beta   90.00000000
_cell_angle_gamma   90.00000000
_symmetry_Int_Tables_number   1
_chemical_formula_structural   Sr2GaP2(O4F)2
_chemical_formula_sum   'Sr8 Ga4 P8 O32 F8'
_cell_volume   799.87237281
_cell_formula_units_Z   4
loop_
 _symmetry_equiv_pos_site_id
 _symmetry_equiv_pos_as_xyz
  1  'x, y, z'
loop_
 _atom_site_type_symbol
 _atom_site_label
 _atom_site_symmetry_multiplicity
 _atom_site_fract_x
 _atom_site_fract_y
 _atom_site_fract_z
 _atom_site_occupancy
  Sr  Sr0  1  0.33435107  0.13178606  0.57750686  1
  Sr  Sr1  1  0.16564893  0.13178606  0.07750686  1
  Sr  Sr2  1  0.66564893  0.86821394  0.42249314  1
  Sr  Sr3  1  0.83435107  0.86821394  0.92249314  1
  Sr  Sr4  1  0.32979215  0.67172622  0.05491079  1
  Sr  Sr5  1  0.17020785  0.67172622  0.55491079  1
  Sr  Sr6  1  0.67020785  0.32827378  0.94508921  1
  Sr  Sr7  1  0.82979215  0.32827378  0.44508921  1
  Ga  Ga8  1  0.49723766  0.73092017  0.78833204  1
  Ga  Ga9  1  0.00276234  0.73092017  0.28833204  1
  Ga  Ga10  1  0.50276234  0.26907983  0.21166796  1
  Ga  Ga11  1  0.99723766  0.26907983  0.71166796  1
  P  P12  1  0.30253012  0.03950926  0.87003703  1
  P  P13  1  0.19746988  0.03950926  0.37003703  1
  P  P14  1  0.69746988  0.96049074  0.12996297  1
  P  P15  1  0.80253012  0.96049074  0.62996297  1
  P  P16  1  0.39494747  0.51702894  0.34546213  1
  P  P17  1  0.10505253  0.51702894  0.84546213  1
  P  P18  1  0.60505253  0.48297106  0.65453787  1
  P  P19  1  0.89494747  0.48297106  0.15453787  1
  O  O20  1  0.43980061  0.90312821  0.85786996  1
  O  O21  1  0.06019939  0.90312821  0.35786996  1
  O  O22  1  0.56019939  0.09687179  0.14213004  1
  O  O23  1  0.93980061  0.09687179  0.64213004  1
  O  O24  1  0.16038570  0.94600704  0.95001790  1
  O  O25  1  0.33961430  0.94600704  0.45001790  1
  O  O26  1  0.83961430  0.05399296  0.04998210  1
  O  O27  1  0.66038570  0.05399296  0.54998210  1
  O  O28  1  0.00220786  0.68624148  0.82810263  1
  O  O29  1  0.49779214  0.68624148  0.32810263  1
  O  O30  1  0.99779214  0.31375852  0.17189737  1
  O  O31  1  0.50220786  0.31375852  0.67189737  1
  O  O32  1  0.47104642  0.37582200  0.43277666  1
  O  O33  1  0.02895358  0.37582200  0.93277666  1
  O  O34  1  0.52895358  0.62417800  0.56722334  1
  O  O35  1  0.97104642  0.62417800  0.06722334  1
  O  O36  1  0.20694805  0.12047744  0.76563816  1
  O  O37  1  0.29305195  0.12047744  0.26563816  1
  O  O38  1  0.79305195  0.87952256  0.23436184  1
  O  O39  1  0.70694805  0.87952256  0.73436184  1
  O  O40  1  0.39272943  0.46543685  0.24413809  1
  O  O41  1  0.10727057  0.46543685  0.74413809  1
  O  O42  1  0.60727057  0.53456315  0.75586191  1
  O  O43  1  0.89272943  0.53456315  0.25586191  1
  O  O44  1  0.89953370  0.83200244  0.58722093  1
  O  O45  1  0.60046630  0.83200244  0.08722093  1
  O  O46  1  0.10046630  0.16799756  0.41277907  1
  O  O47  1  0.39953370  0.16799756  0.91277907  1
  O  O48  1  0.29899357  0.57382888  0.86963430  1
  O  O49  1  0.20100643  0.57382888  0.36963430  1
  O  O50  1  0.70100643  0.42617112  0.13036570  1
  O  O51  1  0.79899357  0.42617112  0.63036570  1
  F  F52  1  0.12382681  0.36627266  0.57904349  1
  F  F53  1  0.37617319  0.36627266  0.07904349  1
  F  F54  1  0.87617319  0.63372734  0.42095651  1
  F  F55  1  0.62382681  0.63372734  0.92095651  1
  F  F56  1  0.33635984  0.81589673  0.67699910  1
  F  F57  1  0.16364016  0.81589673  0.17699910  1
  F  F58  1  0.66364016  0.18410327  0.32300090  1
  F  F59  1  0.83635984  0.18410327  0.82300090  1
