# generated using pymatgen
data_In2P6O19
_symmetry_space_group_name_H-M   'P 1'
_cell_length_a   5.11179917
_cell_length_b   11.63319266
_cell_length_c   13.25085722
_cell_angle_alpha   90.00000000
_cell_angle_beta   90.00000000
_cell_angle_gamma   90.00000000
_symmetry_Int_Tables_number   1
_chemical_formula_structural   In2P6O19
_chemical_formula_sum   'In4 P12 O38'
_cell_volume   787.98269165
_cell_formula_units_Z   2
loop_
 _symmetry_equiv_pos_site_id
 _symmetry_equiv_pos_as_xyz
  1  'x, y, z'
loop_
 _atom_site_type_symbol
 _atom_site_label
 _atom_site_symmetry_multiplicity
 _atom_site_fract_x
 _atom_site_fract_y
 _atom_site_fract_z
 _atom_site_occupancy
  In  In0  1  0.00000000  0.50000000  -0.00000000  1
  In  In1  1  0.00000000  0.50000000  0.50000000  1
  In  In2  1  0.00000000  0.00000000  -0.00000000  1
  In  In3  1  0.00000000  -0.00000000  0.50000000  1
  P  P4  1  0.05896396  0.25000000  0.13727885  1
  P  P5  1  0.05896396  0.25000000  0.36272115  1
  P  P6  1  0.94103604  0.75000000  0.86272115  1
  P  P7  1  0.94103604  0.75000000  0.63727885  1
  P  P8  1  0.50383236  0.62183090  0.13679779  1
  P  P9  1  0.50383236  0.62183090  0.36320221  1
  P  P10  1  0.50383236  0.87816910  0.13679779  1
  P  P11  1  0.50383236  0.87816910  0.36320221  1
  P  P12  1  0.49616764  0.37816910  0.86320221  1
  P  P13  1  0.49616764  0.37816910  0.63679779  1
  P  P14  1  0.49616764  0.12183090  0.86320221  1
  P  P15  1  0.49616764  0.12183090  0.63679779  1
  O  O16  1  0.62631955  0.75000000  0.13543397  1
  O  O17  1  0.62631955  0.75000000  0.36456603  1
  O  O18  1  0.37368045  0.25000000  0.86456603  1
  O  O19  1  0.37368045  0.25000000  0.63543397  1
  O  O20  1  0.27164352  0.61768134  0.06809407  1
  O  O21  1  0.27164352  0.61768134  0.43190593  1
  O  O22  1  0.27164352  0.88231866  0.06809407  1
  O  O23  1  0.27164352  0.88231866  0.43190593  1
  O  O24  1  0.72835648  0.38231866  0.93190593  1
  O  O25  1  0.72835648  0.38231866  0.56809407  1
  O  O26  1  0.72835648  0.11768134  0.93190593  1
  O  O27  1  0.72835648  0.11768134  0.56809407  1
  O  O28  1  0.39200740  0.60904344  0.25000000  1
  O  O29  1  0.39200740  0.89095656  0.25000000  1
  O  O30  1  0.60799260  0.39095656  0.75000000  1
  O  O31  1  0.60799260  0.10904344  0.75000000  1
  O  O32  1  0.72751309  0.53969918  0.12169556  1
  O  O33  1  0.72751309  0.53969918  0.37830444  1
  O  O34  1  0.72751309  0.96030082  0.12169556  1
  O  O35  1  0.72751309  0.96030082  0.37830444  1
  O  O36  1  0.27248691  0.46030082  0.87830444  1
  O  O37  1  0.27248691  0.46030082  0.62169556  1
  O  O38  1  0.27248691  0.03969918  0.87830444  1
  O  O39  1  0.27248691  0.03969918  0.62169556  1
  O  O40  1  0.75737251  0.25000000  0.13527759  1
  O  O41  1  0.75737251  0.25000000  0.36472241  1
  O  O42  1  0.24262749  0.75000000  0.86472241  1
  O  O43  1  0.24262749  0.75000000  0.63527759  1
  O  O44  1  0.15645958  0.36112208  0.08999672  1
  O  O45  1  0.15645958  0.36112208  0.41000328  1
  O  O46  1  0.15645958  0.13887792  0.08999672  1
  O  O47  1  0.15645958  0.13887792  0.41000328  1
  O  O48  1  0.84354042  0.63887792  0.91000328  1
  O  O49  1  0.84354042  0.63887792  0.58999672  1
  O  O50  1  0.84354042  0.86112208  0.91000328  1
  O  O51  1  0.84354042  0.86112208  0.58999672  1
  O  O52  1  0.17247521  0.25000000  0.25000000  1
  O  O53  1  0.82752479  0.75000000  0.75000000  1
