# generated using pymatgen
data_CuH18C6(SeCl2)2
_symmetry_space_group_name_H-M   'P 1'
_cell_length_a   9.81715509
_cell_length_b   12.43391929
_cell_length_c   15.93918848
_cell_angle_alpha   107.76750007
_cell_angle_beta   90.00000000
_cell_angle_gamma   90.00000000
_symmetry_Int_Tables_number   1
_chemical_formula_structural   CuH18C6(SeCl2)2
_chemical_formula_sum   'Cu4 H72 C24 Se8 Cl16'
_cell_volume   1852.82708190
_cell_formula_units_Z   4
loop_
 _symmetry_equiv_pos_site_id
 _symmetry_equiv_pos_as_xyz
  1  'x, y, z'
loop_
 _atom_site_type_symbol
 _atom_site_label
 _atom_site_symmetry_multiplicity
 _atom_site_fract_x
 _atom_site_fract_y
 _atom_site_fract_z
 _atom_site_occupancy
  Cu  Cu0  1  0.67371155  0.74895811  0.10848148  1
  Cu  Cu1  1  0.17371155  0.25104189  0.39151852  1
  Cu  Cu2  1  0.32628845  0.25104189  0.89151852  1
  Cu  Cu3  1  0.82628845  0.74895811  0.60848148  1
  H  H4  1  0.56088831  0.13642581  0.32268925  1
  H  H5  1  0.06088831  0.86357419  0.17731075  1
  H  H6  1  0.43911169  0.86357419  0.67731075  1
  H  H7  1  0.93911169  0.13642581  0.82268925  1
  H  H8  1  0.74613725  0.12829629  0.30868845  1
  H  H9  1  0.24613725  0.87170371  0.19131155  1
  H  H10  1  0.25386275  0.87170371  0.69131155  1
  H  H11  1  0.75386275  0.12829629  0.80868845  1
  H  H12  1  0.63847500  0.01436532  0.24422532  1
  H  H13  1  0.13847500  0.98563468  0.25577468  1
  H  H14  1  0.36152500  0.98563468  0.75577468  1
  H  H15  1  0.86152500  0.01436532  0.74422532  1
  H  H16  1  0.70158549  0.10331831  0.55543023  1
  H  H17  1  0.20158549  0.89668169  0.94456977  1
  H  H18  1  0.29841451  0.89668169  0.44456977  1
  H  H19  1  0.79841451  0.10331831  0.05543023  1
  H  H20  1  0.60308899  0.19054287  0.50561453  1
  H  H21  1  0.10308899  0.80945713  0.99438547  1
  H  H22  1  0.39691101  0.80945713  0.49438547  1
  H  H23  1  0.89691101  0.19054287  0.00561453  1
  H  H24  1  0.78700102  0.17849571  0.48880699  1
  H  H25  1  0.28700102  0.82150429  0.01119301  1
  H  H26  1  0.21299898  0.82150429  0.51119301  1
  H  H27  1  0.71299898  0.17849571  0.98880699  1
  H  H28  1  0.81198975  0.41662451  0.67232302  1
  H  H29  1  0.31198975  0.58337549  0.82767698  1
  H  H30  1  0.18801025  0.58337549  0.32767698  1
  H  H31  1  0.68801025  0.41662451  0.17232302  1
  H  H32  1  0.75031970  0.30428119  0.71275727  1
  H  H33  1  0.25031970  0.69571881  0.78724273  1
  H  H34  1  0.24968030  0.69571881  0.28724273  1
  H  H35  1  0.74968030  0.30428119  0.21275727  1
  H  H36  1  0.91896229  0.36308895  0.74358725  1
  H  H37  1  0.41896229  0.63691105  0.75641275  1
  H  H38  1  0.08103771  0.63691105  0.25641275  1
  H  H39  1  0.58103771  0.36308895  0.24358725  1
  H  H40  1  0.85932419  0.90520857  0.42808339  1
  H  H41  1  0.35932419  0.09479143  0.07191661  1
  H  H42  1  0.14067581  0.09479143  0.57191661  1
  H  H43  1  0.64067581  0.90520857  0.92808339  1
  H  H44  1  0.83546371  0.87851601  0.31096275  1
  H  H45  1  0.33546371  0.12148399  0.18903725  1
  H  H46  1  0.16453629  0.12148399  0.68903725  1
  H  H47  1  0.66453629  0.87851601  0.81096275  1
  H  H48  1  0.90961421  0.01197520  0.37660736  1
  H  H49  1  0.40961421  0.98802480  0.12339264  1
  H  H50  1  0.09038579  0.98802480  0.62339264  1
  H  H51  1  0.59038579  0.01197520  0.87660736  1
  H  H52  1  0.69288832  0.35452425  0.91155379  1
  H  H53  1  0.19288832  0.64547575  0.58844621  1
  H  H54  1  0.30711168  0.64547575  0.08844621  1
  H  H55  1  0.80711168  0.35452425  0.41155379  1
  H  H56  1  0.87447030  0.38629866  0.90776737  1
  H  H57  1  0.37447030  0.61370134  0.59223263  1
  H  H58  1  0.12552970  0.61370134  0.09223263  1
  H  H59  1  0.62552970  0.38629866  0.40776737  1
  H  H60  1  0.76040284  0.48674554  0.98165344  1
  H  H61  1  0.26040284  0.51325446  0.51834656  1
  H  H62  1  0.23959716  0.51325446  0.01834656  1
  H  H63  1  0.73959716  0.48674554  0.48165344  1
  H  H64  1  0.87964023  0.63794151  0.79953394  1
  H  H65  1  0.37964023  0.36205849  0.70046606  1
  H  H66  1  0.12035977  0.36205849  0.20046606  1
  H  H67  1  0.62035977  0.63794151  0.29953394  1
  H  H68  1  0.96859502  0.56121961  0.86414526  1
  H  H69  1  0.46859502  0.43878039  0.63585474  1
  H  H70  1  0.03140498  0.43878039  0.13585474  1
  H  H71  1  0.53140498  0.56121961  0.36414526  1
  H  H72  1  0.84165234  0.66780176  0.91570407  1
  H  H73  1  0.34165234  0.33219824  0.58429593  1
  H  H74  1  0.15834766  0.33219824  0.08429593  1
  H  H75  1  0.65834766  0.66780176  0.41570407  1
  C  C76  1  0.77044559  0.42002185  0.91829839  1
  C  C77  1  0.27044559  0.57997815  0.58170161  1
  C  C78  1  0.22955441  0.57997815  0.08170161  1
  C  C79  1  0.72955441  0.42002185  0.41829839  1
  C  C80  1  0.65079068  0.08163042  0.30691909  1
  C  C81  1  0.15079068  0.91836958  0.19308091  1
  C  C82  1  0.34920932  0.91836958  0.69308091  1
  C  C83  1  0.84920932  0.08163042  0.80691909  1
  C  C84  1  0.69304031  0.13648631  0.49929904  1
  C  C85  1  0.19304031  0.86351369  0.00070096  1
  C  C86  1  0.30695969  0.86351369  0.50070096  1
  C  C87  1  0.80695969  0.13648631  0.99929904  1
  C  C88  1  0.81448958  0.37983199  0.72667541  1
  C  C89  1  0.31448958  0.62016801  0.77332459  1
  C  C90  1  0.18551042  0.62016801  0.27332459  1
  C  C91  1  0.68551042  0.37983199  0.22667541  1
  C  C92  1  0.83909128  0.94325319  0.37560768  1
  C  C93  1  0.33909128  0.05674681  0.12439232  1
  C  C94  1  0.16090872  0.05674681  0.62439232  1
  C  C95  1  0.66090872  0.94325319  0.87560768  1
  C  C96  1  0.87407584  0.60332071  0.85508605  1
  C  C97  1  0.37407584  0.39667929  0.64491395  1
  C  C98  1  0.12592416  0.39667929  0.14491395  1
  C  C99  1  0.62592416  0.60332071  0.35508605  1
  Se  Se100  1  0.65515909  0.00513087  0.39725524  1
  Se  Se101  1  0.15515909  0.99486913  0.10274476  1
  Se  Se102  1  0.34484091  0.99486913  0.60274476  1
  Se  Se103  1  0.84484091  0.00513087  0.89725524  1
  Se  Se104  1  0.72899437  0.49110966  0.82750652  1
  Se  Se105  1  0.22899437  0.50889034  0.67249348  1
  Se  Se106  1  0.27100563  0.50889034  0.17249348  1
  Se  Se107  1  0.77100563  0.49110966  0.32750652  1
  Cl  Cl108  1  0.50799486  0.77808702  0.21398431  1
  Cl  Cl109  1  0.00799486  0.22191298  0.28601569  1
  Cl  Cl110  1  0.49200514  0.22191298  0.78601569  1
  Cl  Cl111  1  0.99200514  0.77808702  0.71398431  1
  Cl  Cl112  1  0.82810174  0.64967850  0.16284234  1
  Cl  Cl113  1  0.32810174  0.35032150  0.33715766  1
  Cl  Cl114  1  0.17189826  0.35032150  0.83715766  1
  Cl  Cl115  1  0.67189826  0.64967850  0.66284234  1
  Cl  Cl116  1  0.54151669  0.70665671  0.98690780  1
  Cl  Cl117  1  0.04151669  0.29334329  0.51309220  1
  Cl  Cl118  1  0.45848331  0.29334329  0.01309220  1
  Cl  Cl119  1  0.95848331  0.70665671  0.48690780  1
  Cl  Cl120  1  0.81845405  0.87341492  0.07305217  1
  Cl  Cl121  1  0.31845405  0.12658508  0.42694783  1
  Cl  Cl122  1  0.18154595  0.12658508  0.92694783  1
  Cl  Cl123  1  0.68154595  0.87341492  0.57305217  1
