# generated using pymatgen
data_U2TiS5
_symmetry_space_group_name_H-M   'P 1'
_cell_length_a   7.13711607
_cell_length_b   7.68447846
_cell_length_c   11.14844929
_cell_angle_alpha   90.00000000
_cell_angle_beta   90.00000000
_cell_angle_gamma   90.00000000
_symmetry_Int_Tables_number   1
_chemical_formula_structural   U2TiS5
_chemical_formula_sum   'U8 Ti4 S20'
_cell_volume   611.43686526
_cell_formula_units_Z   4
loop_
 _symmetry_equiv_pos_site_id
 _symmetry_equiv_pos_as_xyz
  1  'x, y, z'
loop_
 _atom_site_type_symbol
 _atom_site_label
 _atom_site_symmetry_multiplicity
 _atom_site_fract_x
 _atom_site_fract_y
 _atom_site_fract_z
 _atom_site_occupancy
  U  U0  1  0.96899349  0.00219702  0.17971864  1
  U  U1  1  0.53100651  0.49780298  0.67971864  1
  U  U2  1  0.03100651  0.50219702  0.82028136  1
  U  U3  1  0.46899349  0.99780298  0.32028136  1
  U  U4  1  0.03100651  0.99780298  0.82028136  1
  U  U5  1  0.46899349  0.50219702  0.32028136  1
  U  U6  1  0.96899349  0.49780298  0.17971864  1
  U  U7  1  0.53100651  0.00219702  0.67971864  1
  Ti  Ti8  1  0.42081928  0.75000000  0.00491390  1
  Ti  Ti9  1  0.07918072  0.75000000  0.50491390  1
  Ti  Ti10  1  0.57918072  0.25000000  0.99508610  1
  Ti  Ti11  1  0.92081928  0.25000000  0.49508610  1
  S  S12  1  0.66453284  0.53594675  0.91425017  1
  S  S13  1  0.83546716  0.96405325  0.41425017  1
  S  S14  1  0.33546716  0.03594675  0.08574983  1
  S  S15  1  0.16453284  0.46405325  0.58574983  1
  S  S16  1  0.33546716  0.46405325  0.08574983  1
  S  S17  1  0.16453284  0.03594675  0.58574983  1
  S  S18  1  0.66453284  0.96405325  0.91425017  1
  S  S19  1  0.83546716  0.53594675  0.41425017  1
  S  S20  1  0.66124198  0.75000000  0.18173322  1
  S  S21  1  0.83875802  0.75000000  0.68173322  1
  S  S22  1  0.33875802  0.25000000  0.81826678  1
  S  S23  1  0.16124198  0.25000000  0.31826678  1
  S  S24  1  0.04773863  0.75000000  0.00383804  1
  S  S25  1  0.45226137  0.75000000  0.50383804  1
  S  S26  1  0.95226137  0.25000000  0.99616196  1
  S  S27  1  0.54773863  0.25000000  0.49616196  1
  S  S28  1  0.31727923  0.75000000  0.79315767  1
  S  S29  1  0.18272077  0.75000000  0.29315767  1
  S  S30  1  0.68272077  0.25000000  0.20684233  1
  S  S31  1  0.81727923  0.25000000  0.70684233  1
