# generated using pymatgen
data_Li2P(H2O3)2
_symmetry_space_group_name_H-M   'P 1'
_cell_length_a   5.24913400
_cell_length_b   8.00328757
_cell_length_c   12.62807394
_cell_angle_alpha   98.56292861
_cell_angle_beta   90.00000000
_cell_angle_gamma   90.00000000
_symmetry_Int_Tables_number   1
_chemical_formula_structural   Li2P(H2O3)2
_chemical_formula_sum   'Li8 P4 H16 O24'
_cell_volume   524.59591052
_cell_formula_units_Z   4
loop_
 _symmetry_equiv_pos_site_id
 _symmetry_equiv_pos_as_xyz
  1  'x, y, z'
loop_
 _atom_site_type_symbol
 _atom_site_label
 _atom_site_symmetry_multiplicity
 _atom_site_fract_x
 _atom_site_fract_y
 _atom_site_fract_z
 _atom_site_occupancy
  Li  Li0  1  0.44162940  0.31492451  0.32404821  1
  Li  Li1  1  0.05837060  0.81492451  0.82404821  1
  Li  Li2  1  0.55837060  0.68507549  0.67595179  1
  Li  Li3  1  0.94162940  0.18507549  0.17595179  1
  Li  Li4  1  0.44886823  0.64024155  0.24567352  1
  Li  Li5  1  0.05113177  0.14024155  0.74567352  1
  Li  Li6  1  0.55113177  0.35975845  0.75432648  1
  Li  Li7  1  0.94886823  0.85975845  0.25432648  1
  P  P8  1  0.45843094  0.98235651  0.15750920  1
  P  P9  1  0.04156906  0.48235651  0.65750920  1
  P  P10  1  0.54156906  0.01764349  0.84249080  1
  P  P11  1  0.95843094  0.51764349  0.34249080  1
  H  H12  1  0.47316295  0.35421496  0.10635418  1
  H  H13  1  0.02683705  0.85421496  0.60635418  1
  H  H14  1  0.52683705  0.64578504  0.89364582  1
  H  H15  1  0.97316295  0.14578504  0.39364582  1
  H  H16  1  0.36045146  0.50153179  0.04518902  1
  H  H17  1  0.13954854  0.00153179  0.54518902  1
  H  H18  1  0.63954854  0.49846821  0.95481098  1
  H  H19  1  0.86045146  0.99846821  0.45481098  1
  H  H20  1  0.92844402  0.18767232  0.97191389  1
  H  H21  1  0.57155598  0.68767232  0.47191389  1
  H  H22  1  0.07155598  0.81232768  0.02808611  1
  H  H23  1  0.42844402  0.31232768  0.52808611  1
  H  H24  1  0.09115347  0.33689801  0.03106989  1
  H  H25  1  0.40884653  0.83689801  0.53106989  1
  H  H26  1  0.90884653  0.66310199  0.96893011  1
  H  H27  1  0.59115347  0.16310199  0.46893011  1
  O  O28  1  0.44565548  0.06586341  0.96899670  1
  O  O29  1  0.05434452  0.56586341  0.46899670  1
  O  O30  1  0.55434452  0.93413659  0.03100330  1
  O  O31  1  0.94565548  0.43413659  0.53100330  1
  O  O32  1  0.16548932  0.97343264  0.15840693  1
  O  O33  1  0.33451068  0.47343264  0.65840693  1
  O  O34  1  0.83451068  0.02656736  0.84159307  1
  O  O35  1  0.66548932  0.52656736  0.34159307  1
  O  O36  1  0.59343378  0.83968488  0.20243393  1
  O  O37  1  0.90656622  0.33968488  0.70243393  1
  O  O38  1  0.40656622  0.16031512  0.79756607  1
  O  O39  1  0.09343378  0.66031512  0.29756607  1
  O  O40  1  0.56214647  0.15869645  0.19877009  1
  O  O41  1  0.93785353  0.65869645  0.69877009  1
  O  O42  1  0.43785353  0.84130355  0.80122991  1
  O  O43  1  0.06214647  0.34130355  0.30122991  1
  O  O44  1  0.42857641  0.47459889  0.11237644  1
  O  O45  1  0.07142359  0.97459889  0.61237644  1
  O  O46  1  0.57142359  0.52540111  0.88762356  1
  O  O47  1  0.92857641  0.02540111  0.38762356  1
  O  O48  1  0.92994708  0.27807623  0.03446014  1
  O  O49  1  0.57005292  0.77807623  0.53446014  1
  O  O50  1  0.07005292  0.72192377  0.96553986  1
  O  O51  1  0.42994708  0.22192377  0.46553986  1
