# generated using pymatgen
data_U(BOs)4
_symmetry_space_group_name_H-M   'P 1'
_cell_length_a   7.54754096
_cell_length_b   7.54754096
_cell_length_c   9.25523327
_cell_angle_alpha   114.06322647
_cell_angle_beta   114.06322647
_cell_angle_gamma   90.00000000
_symmetry_Int_Tables_number   1
_chemical_formula_structural   U(BOs)4
_chemical_formula_sum   'U4 B16 Os16'
_cell_volume   430.74508608
_cell_formula_units_Z   4
loop_
 _symmetry_equiv_pos_site_id
 _symmetry_equiv_pos_as_xyz
  1  'x, y, z'
loop_
 _atom_site_type_symbol
 _atom_site_label
 _atom_site_symmetry_multiplicity
 _atom_site_fract_x
 _atom_site_fract_y
 _atom_site_fract_z
 _atom_site_occupancy
  U  U0  1  0.12500000  0.37500000  0.25000000  1
  U  U1  1  0.62500000  0.87500000  0.25000000  1
  U  U2  1  0.87500000  0.62500000  0.75000000  1
  U  U3  1  0.37500000  0.12500000  0.75000000  1
  B  B4  1  0.78784056  0.35047851  0.91479961  1
  B  B5  1  0.62695905  0.85047851  0.91479961  1
  B  B6  1  0.85047851  0.28784056  0.41479961  1
  B  B7  1  0.06432110  0.78784056  0.41479961  1
  B  B8  1  0.21215944  0.64952149  0.08520039  1
  B  B9  1  0.37304095  0.14952149  0.08520039  1
  B  B10  1  0.14952149  0.71215944  0.58520039  1
  B  B11  1  0.93567890  0.21215944  0.58520039  1
  B  B12  1  0.28784056  0.56432110  0.91479961  1
  B  B13  1  0.12695905  0.06432110  0.91479961  1
  B  B14  1  0.35047851  0.12695905  0.41479961  1
  B  B15  1  0.56432110  0.62695905  0.41479961  1
  B  B16  1  0.71215944  0.43567890  0.08520039  1
  B  B17  1  0.87304095  0.93567890  0.08520039  1
  B  B18  1  0.64952149  0.87304095  0.58520039  1
  B  B19  1  0.43567890  0.37304095  0.58520039  1
  Os  Os20  1  0.94951556  0.66188325  0.12516565  1
  Os  Os21  1  0.67565009  0.16188325  0.12516565  1
  Os  Os22  1  0.16188325  0.44951556  0.62516565  1
  Os  Os23  1  0.96328240  0.94951556  0.62516565  1
  Os  Os24  1  0.05048444  0.33811675  0.87483435  1
  Os  Os25  1  0.32434991  0.83811675  0.87483435  1
  Os  Os26  1  0.83811675  0.55048444  0.37483435  1
  Os  Os27  1  0.03671760  0.05048444  0.37483435  1
  Os  Os28  1  0.44951556  0.46328240  0.12516565  1
  Os  Os29  1  0.17565009  0.96328240  0.12516565  1
  Os  Os30  1  0.66188325  0.17565009  0.62516565  1
  Os  Os31  1  0.46328240  0.67565009  0.62516565  1
  Os  Os32  1  0.55048444  0.53671760  0.87483435  1
  Os  Os33  1  0.82434991  0.03671760  0.87483435  1
  Os  Os34  1  0.33811675  0.82434991  0.37483435  1
  Os  Os35  1  0.53671760  0.32434991  0.37483435  1
